# generated using pymatgen
data_Ag2Br3
_symmetry_space_group_name_H-M   'P 1'
_cell_length_a   7.02539691
_cell_length_b   7.02539709
_cell_length_c   7.58935714
_cell_angle_alpha   117.57086891
_cell_angle_beta   62.42914038
_cell_angle_gamma   119.99999434
_symmetry_Int_Tables_number   1
_chemical_formula_structural   Ag2Br3
_chemical_formula_sum   'Ag4 Br6'
_cell_volume   274.18118606
_cell_formula_units_Z   2
loop_
 _symmetry_equiv_pos_site_id
 _symmetry_equiv_pos_as_xyz
  1  'x, y, z'
loop_
 _atom_site_type_symbol
 _atom_site_label
 _atom_site_symmetry_multiplicity
 _atom_site_fract_x
 _atom_site_fract_y
 _atom_site_fract_z
 _atom_site_occupancy
  Ag  Ag0  1  0.66033097  0.33967003  0.01900910  1
  Ag  Ag1  1  0.83967003  0.16032997  0.48099090  1
  Ag  Ag2  1  0.16032997  0.83966903  0.51900910  1
  Ag  Ag3  1  0.33967003  0.66033097  0.98098990  1
  Br  Br4  1  0.25000000  0.07218462  0.25000100  1
  Br  Br5  1  0.92781638  0.42781638  0.25000100  1
  Br  Br6  1  0.57218262  0.75000000  0.25000100  1
  Br  Br7  1  0.42781738  0.25000000  0.75000000  1
  Br  Br8  1  0.07218262  0.57218262  0.75000000  1
  Br  Br9  1  0.75000000  0.92781738  0.75000000  1
