# generated using pymatgen
data_Fe6SiB
_symmetry_space_group_name_H-M   'P 1'
_cell_length_a   4.55386563
_cell_length_b   6.89790575
_cell_length_c   5.58787751
_cell_angle_alpha   90.00000000
_cell_angle_beta   90.00000000
_cell_angle_gamma   90.00000000
_symmetry_Int_Tables_number   1
_chemical_formula_structural   Fe6SiB
_chemical_formula_sum   'Fe12 Si2 B2'
_cell_volume   175.52716781
_cell_formula_units_Z   2
loop_
 _symmetry_equiv_pos_site_id
 _symmetry_equiv_pos_as_xyz
  1  'x, y, z'
loop_
 _atom_site_type_symbol
 _atom_site_label
 _atom_site_symmetry_multiplicity
 _atom_site_fract_x
 _atom_site_fract_y
 _atom_site_fract_z
 _atom_site_occupancy
  Fe  Fe0  1  0.12889518  0.75000000  0.47298220  1
  Fe  Fe1  1  0.37110482  0.75000000  0.97298220  1
  Fe  Fe2  1  0.89941192  0.25000000  0.50422144  1
  Fe  Fe3  1  0.60058808  0.25000000  0.00422144  1
  Fe  Fe4  1  0.64470275  0.93090517  0.32369478  1
  Fe  Fe5  1  0.85529725  0.56909483  0.82369478  1
  Fe  Fe6  1  0.37066280  0.46795154  0.68555306  1
  Fe  Fe7  1  0.12933720  0.03204846  0.18555306  1
  Fe  Fe8  1  0.37066280  0.03204846  0.68555306  1
  Fe  Fe9  1  0.12933720  0.46795154  0.18555306  1
  Fe  Fe10  1  0.64470275  0.56909483  0.32369478  1
  Fe  Fe11  1  0.85529725  0.93090517  0.82369478  1
  Si  Si12  1  0.08137137  0.25000000  0.88685968  1
  Si  Si13  1  0.41862863  0.25000000  0.38685968  1
  B  B14  1  0.92319348  0.75000000  0.11744101  1
  B  B15  1  0.57680652  0.75000000  0.61744101  1
