# generated using pymatgen
data_SrGa12O19
_symmetry_space_group_name_H-M   'P 1'
_cell_length_a   5.87579778
_cell_length_b   5.87581702
_cell_length_c   23.13297492
_cell_angle_alpha   90.00010654
_cell_angle_beta   89.99984916
_cell_angle_gamma   120.00000305
_symmetry_Int_Tables_number   1
_chemical_formula_structural   SrGa12O19
_chemical_formula_sum   'Sr2 Ga24 O38'
_cell_volume   691.66724486
_cell_formula_units_Z   2
loop_
 _symmetry_equiv_pos_site_id
 _symmetry_equiv_pos_as_xyz
  1  'x, y, z'
loop_
 _atom_site_type_symbol
 _atom_site_label
 _atom_site_symmetry_multiplicity
 _atom_site_fract_x
 _atom_site_fract_y
 _atom_site_fract_z
 _atom_site_occupancy
  Sr  Sr0  1  0.33333278  0.66668441  0.74923134  1
  Sr  Sr1  1  0.66666545  0.33333674  0.24923105  1
  Ga  Ga2  1  0.16900613  0.83101425  0.89099944  1
  Ga  Ga3  1  0.16769407  0.83232169  0.60975581  1
  Ga  Ga4  1  0.33332459  0.66667992  0.02743897  1
  Ga  Ga5  1  0.33332634  0.66668319  0.18943891  1
  Ga  Ga6  1  0.33332512  0.66664507  0.31008550  1
  Ga  Ga7  1  0.16768591  0.33537364  0.60975611  1
  Ga  Ga8  1  0.00000078  0.00001261  0.00030148  1
  Ga  Ga9  1  0.99999514  0.99999959  0.25718963  1
  Ga  Ga10  1  0.00000542  0.00001581  0.75718973  1
  Ga  Ga11  1  0.33332804  0.66665840  0.47295937  1
  Ga  Ga12  1  0.00000021  0.00000158  0.50030163  1
  Ga  Ga13  1  0.16899768  0.33800088  0.89100099  1
  Ga  Ga14  1  0.66462463  0.83232111  0.60975535  1
  Ga  Ga15  1  0.66199972  0.83101318  0.89100015  1
  Ga  Ga16  1  0.33537466  0.16769997  0.10975604  1
  Ga  Ga17  1  0.33799986  0.16899222  0.39099951  1
  Ga  Ga18  1  0.83100405  0.66200750  0.39100036  1
  Ga  Ga19  1  0.83230609  0.66463191  0.10975605  1
  Ga  Ga20  1  0.66667380  0.33335121  0.68943900  1
  Ga  Ga21  1  0.66667583  0.33335463  0.81008545  1
  Ga  Ga22  1  0.66667268  0.33334901  0.97295921  1
  Ga  Ga23  1  0.66667422  0.33335045  0.52743914  1
  Ga  Ga24  1  0.83231534  0.16769291  0.10975520  1
  Ga  Ga25  1  0.83099263  0.16899358  0.39099951  1
  O  O26  1  0.15575520  0.84425922  0.05219751  1
  O  O27  1  0.15516228  0.84483819  0.44719517  1
  O  O28  1  0.01001421  0.50501378  0.84987129  1
  O  O29  1  0.00950502  0.50475774  0.65034086  1
  O  O30  1  0.18193924  0.81805604  0.25055874  1
  O  O31  1  0.33332357  0.66667891  0.94488801  1
  O  O32  1  -0.00000098  0.00000430  0.14880715  1
  O  O33  1  0.15575842  0.31152480  0.05219657  1
  O  O34  1  0.18193914  0.36388462  0.25055892  1
  O  O35  1  0.00000209  0.00000281  0.64880732  1
  O  O36  1  0.33332164  0.66664535  0.55518021  1
  O  O37  1  0.15515340  0.31030719  0.44719314  1
  O  O38  1  0.49525494  0.99051265  0.65034154  1
  O  O39  1  0.00000056  0.00000169  0.34967929  1
  O  O40  1  0.49500117  0.99000307  0.84986912  1
  O  O41  1  0.99999948  0.00000672  0.84967928  1
  O  O42  1  0.63610734  0.81805452  0.25055846  1
  O  O43  1  0.31151849  0.15575855  0.55219587  1
  O  O44  1  0.31032363  0.15517102  0.94719489  1
  O  O45  1  0.49524991  0.50475628  0.65034074  1
  O  O46  1  0.49499632  0.50501483  0.84987189  1
  O  O47  1  0.50474297  0.49525884  0.15034256  1
  O  O48  1  0.50500527  0.49499109  0.34987169  1
  O  O49  1  0.68848083  0.84425097  0.05219616  1
  O  O50  1  0.68967624  0.84483952  0.44719534  1
  O  O51  1  0.36388966  0.18195027  0.75055891  1
  O  O52  1  0.50474977  0.00950900  0.15033952  1
  O  O53  1  0.50499959  0.01000114  0.34987022  1
  O  O54  1  0.66667648  0.33335595  0.05518020  1
  O  O55  1  0.66667653  0.33335446  0.44488813  1
  O  O56  1  0.84484376  0.68970006  0.94719382  1
  O  O57  1  0.84425066  0.68850256  0.55219855  1
  O  O58  1  0.81806290  0.63612539  0.75055923  1
  O  O59  1  0.81805779  0.18195319  0.75055921  1
  O  O60  1  0.99049618  0.49525385  0.15034079  1
  O  O61  1  0.98998306  0.49499057  0.34987185  1
  O  O62  1  0.84483853  0.15516857  0.94719429  1
  O  O63  1  0.84424054  0.15575981  0.55219564  1
