# generated using pymatgen
data_Li2Mn4Si4O13
_symmetry_space_group_name_H-M   'P 1'
_cell_length_a   10.26014531
_cell_length_b   8.03165369
_cell_length_c   6.99211869
_cell_angle_alpha   77.66179491
_cell_angle_beta   90.07500552
_cell_angle_gamma   109.65206893
_symmetry_Int_Tables_number   1
_chemical_formula_structural   Li2Mn4Si4O13
_chemical_formula_sum   'Li4 Mn8 Si8 O26'
_cell_volume   528.53610313
_cell_formula_units_Z   2
loop_
 _symmetry_equiv_pos_site_id
 _symmetry_equiv_pos_as_xyz
  1  'x, y, z'
loop_
 _atom_site_type_symbol
 _atom_site_label
 _atom_site_symmetry_multiplicity
 _atom_site_fract_x
 _atom_site_fract_y
 _atom_site_fract_z
 _atom_site_occupancy
  Li  Li0  1  0.11655540  0.59003457  0.22640324  1
  Li  Li1  1  0.41203759  0.40990248  0.74888758  1
  Li  Li2  1  0.58796241  0.59009752  0.25111242  1
  Li  Li3  1  0.88344460  0.40996543  0.77359676  1
  Mn  Mn4  1  0.00141121  0.80551612  0.91637540  1
  Mn  Mn5  1  0.00740958  0.80743818  0.42856958  1
  Mn  Mn6  1  0.39123148  0.80263378  0.42775406  1
  Mn  Mn7  1  0.39586292  0.79302924  0.92584577  1
  Mn  Mn8  1  0.60413708  0.20697076  0.07415423  1
  Mn  Mn9  1  0.60876852  0.19736622  0.57224594  1
  Mn  Mn10  1  0.99259042  0.19256182  0.57143042  1
  Mn  Mn11  1  0.99858879  0.19448388  0.08362460  1
  Si  Si12  1  0.17820955  0.57938604  0.73134855  1
  Si  Si13  1  0.30005186  0.39055741  0.28008155  1
  Si  Si14  1  0.27919753  0.09243905  0.63373255  1
  Si  Si15  1  0.27744307  0.08136799  0.07978239  1
  Si  Si16  1  0.72255693  0.91863201  0.92021761  1
  Si  Si17  1  0.72080247  0.90756095  0.36626845  1
  Si  Si18  1  0.69994814  0.60944259  0.71991845  1
  Si  Si19  1  0.82179045  0.42061396  0.26865145  1
  O  O20  1  0.11198612  0.98861360  0.14071509  1
  O  O21  1  0.06854762  0.36885241  0.78812459  1
  O  O22  1  0.15841901  0.67436106  0.50197652  1
  O  O23  1  0.16160061  0.68647633  0.90601889  1
  O  O24  1  0.13259362  0.34691608  0.28277586  1
  O  O25  1  0.11480776  0.99858444  0.61284750  1
  O  O26  1  0.37710921  0.96032798  0.13876092  1
  O  O27  1  0.38840688  0.98937325  0.61603281  1
  O  O28  1  0.34678911  0.60619426  0.72687556  1
  O  O29  1  0.39455436  0.60545544  0.21952817  1
  O  O30  1  0.29889855  0.15493739  0.84250442  1
  O  O31  1  0.34437466  0.30446516  0.49707426  1
  O  O32  1  0.35038579  0.27909909  0.13838606  1
  O  O33  1  0.64961421  0.72090091  0.86161394  1
  O  O34  1  0.65562534  0.69553484  0.50292574  1
  O  O35  1  0.70110145  0.84506261  0.15749558  1
  O  O36  1  0.60544564  0.39454456  0.78047183  1
  O  O37  1  0.65321089  0.39380574  0.27312444  1
  O  O38  1  0.61159312  0.01062675  0.38396719  1
  O  O39  1  0.62289079  0.03967202  0.86123908  1
  O  O40  1  0.88519224  0.00141556  0.38715250  1
  O  O41  1  0.86740638  0.65308392  0.71722414  1
  O  O42  1  0.83839939  0.31352367  0.09398111  1
  O  O43  1  0.84158099  0.32563894  0.49802348  1
  O  O44  1  0.93145238  0.63114759  0.21187541  1
  O  O45  1  0.88801388  0.01138640  0.85928491  1
