# generated using pymatgen
data_Yb3Ni13B2
_symmetry_space_group_name_H-M   'P 1'
_cell_length_a   4.91113754
_cell_length_b   4.90335048
_cell_length_c   10.72517132
_cell_angle_alpha   90.00023976
_cell_angle_beta   89.99980962
_cell_angle_gamma   119.98899225
_symmetry_Int_Tables_number   1
_chemical_formula_structural   Yb3Ni13B2
_chemical_formula_sum   'Yb3 Ni13 B2'
_cell_volume   223.69592127
_cell_formula_units_Z   1
loop_
 _symmetry_equiv_pos_site_id
 _symmetry_equiv_pos_as_xyz
  1  'x, y, z'
loop_
 _atom_site_type_symbol
 _atom_site_label
 _atom_site_symmetry_multiplicity
 _atom_site_fract_x
 _atom_site_fract_y
 _atom_site_fract_z
 _atom_site_occupancy
  Yb  Yb0  1  0.00001130  0.00001090  0.00012532  1
  Yb  Yb1  1  0.99999552  0.99999612  0.32747410  1
  Yb  Yb2  1  0.00001112  0.00001113  0.67242666  1
  Ni  Ni3  1  0.50001241  0.49999584  0.13186791  1
  Ni  Ni4  1  0.99999412  0.49999944  0.13183223  1
  Ni  Ni5  1  0.50001598  0.00002406  0.13192883  1
  Ni  Ni6  1  0.66666440  0.33336347  0.31852091  1
  Ni  Ni7  1  0.33332940  0.66663294  0.31852509  1
  Ni  Ni8  1  -0.00000121  0.50000015  0.49997558  1
  Ni  Ni9  1  0.50000609  0.00000892  0.49997233  1
  Ni  Ni10  1  0.50000435  0.49999931  0.49997530  1
  Ni  Ni11  1  0.33334501  0.66664885  0.68140051  1
  Ni  Ni12  1  0.66666820  0.33336379  0.68140718  1
  Ni  Ni13  1  0.50000109  -0.00000976  0.86811424  1
  Ni  Ni14  1  0.00002893  0.50002085  0.86818394  1
  Ni  Ni15  1  0.50000125  0.50002272  0.86815756  1
  B  B16  1  0.33333463  0.66670265  0.00004725  1
  B  B17  1  0.66667742  0.33330861  0.00006407  1
