# generated using pymatgen
data_Li2EuGe
_symmetry_space_group_name_H-M   'P 1'
_cell_length_a   4.76797198
_cell_length_b   4.76795673
_cell_length_c   4.76795301
_cell_angle_alpha   59.99989453
_cell_angle_beta   60.00058316
_cell_angle_gamma   59.99976918
_symmetry_Int_Tables_number   1
_chemical_formula_structural   Li2EuGe
_chemical_formula_sum   'Li2 Eu1 Ge1'
_cell_volume   76.64499122
_cell_formula_units_Z   1
loop_
 _symmetry_equiv_pos_site_id
 _symmetry_equiv_pos_as_xyz
  1  'x, y, z'
loop_
 _atom_site_type_symbol
 _atom_site_label
 _atom_site_symmetry_multiplicity
 _atom_site_fract_x
 _atom_site_fract_y
 _atom_site_fract_z
 _atom_site_occupancy
  Eu  Eu0  1  0.25000086  0.24999722  0.25000181  1
  Li  Li1  1  0.00000030  0.00000082  -0.00000067  1
  Li  Li2  1  0.49999853  0.49999970  0.49999876  1
  Ge  Ge3  1  0.74999931  0.75000126  0.74999909  1
