# generated using pymatgen
data_Li2TiCr3O8
_symmetry_space_group_name_H-M   'P 1'
_cell_length_a   8.39505658
_cell_length_b   8.39467719
_cell_length_c   8.40328419
_cell_angle_alpha   89.98213098
_cell_angle_beta   90.00055994
_cell_angle_gamma   90.00070117
_symmetry_Int_Tables_number   1
_chemical_formula_structural   Li2TiCr3O8
_chemical_formula_sum   'Li8 Ti4 Cr12 O32'
_cell_volume   592.21125620
_cell_formula_units_Z   4
loop_
 _symmetry_equiv_pos_site_id
 _symmetry_equiv_pos_as_xyz
  1  'x, y, z'
loop_
 _atom_site_type_symbol
 _atom_site_label
 _atom_site_symmetry_multiplicity
 _atom_site_fract_x
 _atom_site_fract_y
 _atom_site_fract_z
 _atom_site_occupancy
  Li  Li0  1  0.99519723  0.99654728  0.99758423  1
  Li  Li1  1  0.25241160  0.25350601  0.25293781  1
  Li  Li2  1  0.24771976  0.74559363  0.75257925  1
  Li  Li3  1  0.50354542  0.00321013  0.49607069  1
  Li  Li4  1  0.49581236  0.50365456  0.00226963  1
  Li  Li5  1  0.75289764  0.24668099  0.74727824  1
  Li  Li6  1  0.74732384  0.75453468  0.24722326  1
  Li  Li7  1  0.00389067  0.49663769  0.50372182  1
  Ti  Ti8  1  0.12431629  0.87612979  0.37656457  1
  Ti  Ti9  1  0.37495112  0.12346925  0.87689562  1
  Ti  Ti10  1  0.62394489  0.62384422  0.62403732  1
  Ti  Ti11  1  0.87456021  0.37716997  0.12342660  1
  Cr  Cr12  1  0.12690199  0.12370753  0.62696702  1
  Cr  Cr13  1  0.12618724  0.37323904  0.87653617  1
  Cr  Cr14  1  0.12389859  0.62667208  0.12674403  1
  Cr  Cr15  1  0.37634751  0.37251068  0.62657296  1
  Cr  Cr16  1  0.37398409  0.62626267  0.37552784  1
  Cr  Cr17  1  0.37338268  0.87548156  0.12624957  1
  Cr  Cr18  1  0.62674734  0.37628605  0.37357447  1
  Cr  Cr19  1  0.62578971  0.12685596  0.12382778  1
  Cr  Cr20  1  0.62368359  0.87385098  0.87317584  1
  Cr  Cr21  1  0.87637273  0.12752900  0.37334072  1
  Cr  Cr22  1  0.87347104  0.87334039  0.62409316  1
  Cr  Cr23  1  0.87352250  0.62454290  0.87373110  1
  O  O24  1  0.11677213  0.10979211  0.38744642  1
  O  O25  1  0.11358749  0.88330077  0.60937508  1
  O  O26  1  0.10817195  0.60862009  0.89249463  1
  O  O27  1  0.13791308  0.13489744  0.86302767  1
  O  O28  1  0.10930371  0.38757728  0.11621205  1
  O  O29  1  0.14035846  0.35941370  0.64065412  1
  O  O30  1  0.13771568  0.63790040  0.36381892  1
  O  O31  1  0.13608126  0.86234779  0.13824898  1
  O  O32  1  0.36401274  0.13628047  0.63866947  1
  O  O33  1  0.36294885  0.36073924  0.86419312  1
  O  O34  1  0.35988109  0.63972223  0.13977695  1
  O  O35  1  0.39067525  0.61239000  0.61558766  1
  O  O36  1  0.36247149  0.86381895  0.36185742  1
  O  O37  1  0.39243275  0.39150522  0.39179837  1
  O  O38  1  0.38599893  0.11558671  0.10978641  1
  O  O39  1  0.38374298  0.88942026  0.88711963  1
  O  O40  1  0.61655962  0.38971123  0.61256829  1
  O  O41  1  0.61361203  0.61614644  0.39033614  1
  O  O42  1  0.60761927  0.89173024  0.10788673  1
  O  O43  1  0.63805900  0.36539665  0.13742105  1
  O  O44  1  0.60941452  0.11305822  0.88421529  1
  O  O45  1  0.64044619  0.14066317  0.35956279  1
  O  O46  1  0.63747467  0.86169152  0.63541302  1
  O  O47  1  0.63569325  0.63729773  0.86104009  1
  O  O48  1  0.86409394  0.36336796  0.36175394  1
  O  O49  1  0.86269236  0.13933149  0.13625151  1
  O  O50  1  0.85968489  0.86037407  0.85973619  1
  O  O51  1  0.89099083  0.88755020  0.38391513  1
  O  O52  1  0.86222586  0.63597790  0.63764434  1
  O  O53  1  0.89245156  0.10796595  0.60774531  1
  O  O54  1  0.88630344  0.38442241  0.89055379  1
  O  O55  1  0.88374768  0.61088511  0.11309982  1
