# generated using pymatgen
data_Li6Mn9O20
_symmetry_space_group_name_H-M   'P 1'
_cell_length_a   5.90177579
_cell_length_b   5.85164412
_cell_length_c   24.40904998
_cell_angle_alpha   90.96934456
_cell_angle_beta   96.94365385
_cell_angle_gamma   120.28380468
_symmetry_Int_Tables_number   1
_chemical_formula_structural   Li6Mn9O20
_chemical_formula_sum   'Li12 Mn18 O40'
_cell_volume   719.60804093
_cell_formula_units_Z   2
loop_
 _symmetry_equiv_pos_site_id
 _symmetry_equiv_pos_as_xyz
  1  'x, y, z'
loop_
 _atom_site_type_symbol
 _atom_site_label
 _atom_site_symmetry_multiplicity
 _atom_site_fract_x
 _atom_site_fract_y
 _atom_site_fract_z
 _atom_site_occupancy
  Li  Li0  1  0.84905580  0.67765928  0.02045232  1
  Li  Li1  1  0.10000000  0.80000000  0.40000000  1
  Li  Li2  1  0.95087231  0.72962013  0.17212548  1
  Li  Li3  1  0.45323738  0.47690066  0.42957511  1
  Li  Li4  1  0.24912769  0.87037987  0.62787452  1
  Li  Li5  1  0.64866157  0.06953424  0.22778989  1
  Li  Li6  1  0.35094420  0.92234072  0.77954768  1
  Li  Li7  1  0.74676262  0.12309934  0.37042489  1
  Li  Li8  1  0.55133843  0.53046576  0.57221011  1
  Li  Li9  1  0.05766310  0.28947951  0.82584569  1
  Li  Li10  1  0.14233690  0.31052049  0.97415431  1
  Li  Li11  1  0.60000000  0.30000000  0.90000000  1
  Mn  Mn12  1  0.40139409  0.70386589  0.09892228  1
  Mn  Mn13  1  0.40390965  0.20489374  0.09877169  1
  Mn  Mn14  1  0.49892573  0.00059914  0.99725232  1
  Mn  Mn15  1  0.19464466  0.59724042  0.30118428  1
  Mn  Mn16  1  0.29947834  0.39876774  0.20018894  1
  Mn  Mn17  1  0.89975577  0.20489374  0.09877169  1
  Mn  Mn18  1  0.70378004  0.59724042  0.30118428  1
  Mn  Mn19  1  0.19718326  0.09315698  0.30121054  1
  Mn  Mn20  1  0.00281674  0.50684302  0.49878946  1
  Mn  Mn21  1  0.00535534  0.00275958  0.49881572  1
  Mn  Mn22  1  0.79860591  0.89613411  0.70107772  1
  Mn  Mn23  1  0.30024423  0.39510626  0.70122831  1
  Mn  Mn24  1  0.10000000  0.80000000  0.90000000  1
  Mn  Mn25  1  0.49621996  0.00275958  0.49881572  1
  Mn  Mn26  1  0.90052166  0.20123226  0.59981106  1
  Mn  Mn27  1  0.70107427  0.59940086  0.80274768  1
  Mn  Mn28  1  0.60000000  0.80000000  0.90000000  1
  Mn  Mn29  1  0.79609035  0.39510626  0.70122831  1
  O  O30  1  0.23936921  0.86743036  0.05316120  1
  O  O31  1  0.68122235  0.86743036  0.05316120  1
  O  O32  1  0.20974563  0.36338849  0.05610377  1
  O  O33  1  0.11443681  0.54377871  0.14286105  1
  O  O34  1  0.00081974  0.74405846  0.25758101  1
  O  O35  1  0.36695843  0.93348736  0.34204922  1
  O  O36  1  0.57220295  0.54377871  0.14286105  1
  O  O37  1  0.11860949  0.09079843  0.14642154  1
  O  O38  1  0.48018237  0.70691486  0.25345087  1
  O  O39  1  0.68335131  0.31568460  0.05101802  1
  O  O40  1  0.03044804  0.25837202  0.25583718  1
  O  O41  1  0.48376216  0.25837202  0.25583718  1
  O  O42  1  0.29142185  0.66651264  0.45795078  1
  O  O43  1  0.59297271  0.04233001  0.14361641  1
  O  O44  1  0.39604451  0.44957474  0.34251429  1
  O  O45  1  0.19918026  0.85594154  0.54241899  1
  O  O46  1  0.90857815  0.93348736  0.34204922  1
  O  O47  1  0.16955196  0.34162798  0.54416282  1
  O  O48  1  0.90819632  0.47443436  0.34195828  1
  O  O49  1  0.71981763  0.89308514  0.54654913  1
  O  O50  1  0.83304157  0.66651264  0.45795078  1
  O  O51  1  0.29180368  0.12556564  0.45804172  1
  O  O52  1  0.08139051  0.50920157  0.65357846  1
  O  O53  1  0.08556319  0.05622129  0.65713895  1
  O  O54  1  0.39456283  0.92980713  0.85931853  1
  O  O55  1  0.80395549  0.15042526  0.45748571  1
  O  O56  1  0.71623784  0.34162798  0.54416282  1
  O  O57  1  0.60702729  0.55766999  0.65638359  1
  O  O58  1  0.51877765  0.73256964  0.74683880  1
  O  O59  1  0.96063079  0.73256964  0.74683880  1
  O  O60  1  0.51664869  0.28431540  0.74898198  1
  O  O61  1  0.31179593  0.67726622  0.94632564  1
  O  O62  1  0.88820407  0.92273378  0.85367436  1
  O  O63  1  0.44087642  0.48766867  0.84805173  1
  O  O64  1  0.62779705  0.05622129  0.65713895  1
  O  O65  1  0.89484397  0.48766867  0.84805173  1
  O  O66  1  0.80543717  0.67019287  0.94068147  1
  O  O67  1  0.99025437  0.23661151  0.74389623  1
  O  O68  1  0.30515603  0.11233133  0.95194827  1
  O  O69  1  0.75912358  0.11233133  0.95194827  1
