# generated using pymatgen
data_Er2Mg
_symmetry_space_group_name_H-M   'P 1'
_cell_length_a   3.33546754
_cell_length_b   3.33546754
_cell_length_c   8.34475715
_cell_angle_alpha   97.97431601
_cell_angle_beta   97.97431601
_cell_angle_gamma   107.80916800
_symmetry_Int_Tables_number   1
_chemical_formula_structural   Er2Mg
_chemical_formula_sum   'Er2 Mg1'
_cell_volume   85.90392300
_cell_formula_units_Z   1
loop_
 _symmetry_equiv_pos_site_id
 _symmetry_equiv_pos_as_xyz
  1  'x, y, z'
loop_
 _atom_site_type_symbol
 _atom_site_label
 _atom_site_symmetry_multiplicity
 _atom_site_fract_x
 _atom_site_fract_y
 _atom_site_fract_z
 _atom_site_occupancy
  Er  Er0  1  0.66506027  0.66506027  0.33011954  1
  Er  Er1  1  0.33493973  0.33493973  0.66988046  1
  Mg  Mg2  1  -0.00000000  0.00000000  0.00000000  1
