# generated using pymatgen
data_TaFeTe3
_symmetry_space_group_name_H-M   'P 1'
_cell_length_a   3.53794208
_cell_length_b   8.06544005
_cell_length_c   10.63053466
_cell_angle_alpha   114.13224678
_cell_angle_beta   90.00000000
_cell_angle_gamma   90.00000000
_symmetry_Int_Tables_number   1
_chemical_formula_structural   TaFeTe3
_chemical_formula_sum   'Ta2 Fe2 Te6'
_cell_volume   276.83204850
_cell_formula_units_Z   2
loop_
 _symmetry_equiv_pos_site_id
 _symmetry_equiv_pos_as_xyz
  1  'x, y, z'
loop_
 _atom_site_type_symbol
 _atom_site_label
 _atom_site_symmetry_multiplicity
 _atom_site_fract_x
 _atom_site_fract_y
 _atom_site_fract_z
 _atom_site_occupancy
  Fe  Fe0  1  0.75000000  0.10914188  0.08736882  1
  Fe  Fe1  1  0.25000000  0.89085812  0.91263118  1
  Te  Te2  1  0.75000000  0.29697478  0.49706358  1
  Te  Te3  1  0.25000000  0.70302522  0.50293642  1
  Te  Te4  1  0.75000000  0.05572177  0.82677202  1
  Te  Te5  1  0.25000000  0.94427823  0.17322798  1
  Te  Te6  1  0.25000000  0.54113668  0.83987809  1
  Te  Te7  1  0.75000000  0.45886332  0.16012191  1
  Ta  Ta8  1  0.25000000  0.32594622  0.29587390  1
  Ta  Ta9  1  0.75000000  0.67405378  0.70412610  1
