# generated using pymatgen
data_Sr2MgUO6
_symmetry_space_group_name_H-M   'P 1'
_cell_length_a   5.85147100
_cell_length_b   5.87601375
_cell_length_c   8.26047428
_cell_angle_alpha   90.00000000
_cell_angle_beta   89.69002382
_cell_angle_gamma   90.00000000
_symmetry_Int_Tables_number   1
_chemical_formula_structural   Sr2MgUO6
_chemical_formula_sum   'Sr4 Mg2 U2 O12'
_cell_volume   284.01840742
_cell_formula_units_Z   2
loop_
 _symmetry_equiv_pos_site_id
 _symmetry_equiv_pos_as_xyz
  1  'x, y, z'
loop_
 _atom_site_type_symbol
 _atom_site_label
 _atom_site_symmetry_multiplicity
 _atom_site_fract_x
 _atom_site_fract_y
 _atom_site_fract_z
 _atom_site_occupancy
  Sr  Sr0  1  0.49082975  0.46832616  0.24779307  1
  Sr  Sr1  1  0.00917125  0.96832616  0.25220593  1
  Sr  Sr2  1  0.99082975  0.03167284  0.74779307  1
  Sr  Sr3  1  0.50917025  0.53167284  0.75220593  1
  Mg  Mg4  1  0.50000000  0.00000000  -0.00000000  1
  Mg  Mg5  1  -0.00000000  0.50000000  0.50000000  1
  U  U6  1  -0.00000000  0.50000000  0.00000000  1
  U  U7  1  0.50000100  0.00000000  0.50000000  1
  O  O8  1  0.78486630  0.77902779  0.95608886  1
  O  O9  1  0.28017783  0.71505743  0.04016566  1
  O  O10  1  0.21513470  0.22097321  0.04391114  1
  O  O11  1  0.92064938  0.51900281  0.24695159  1
  O  O12  1  0.57934962  0.01900381  0.25304741  1
  O  O13  1  0.28486530  0.72097321  0.45608886  1
  O  O14  1  0.21982217  0.21505743  0.45983534  1
  O  O15  1  0.78017883  0.78494357  0.54016566  1
  O  O16  1  0.71513370  0.27902779  0.54391114  1
  O  O17  1  0.42064938  0.98099619  0.74695159  1
  O  O18  1  0.07935162  0.48099619  0.75304741  1
  O  O19  1  0.71982317  0.28494457  0.95983534  1
