# generated using pymatgen
data_Li2La2Ti3O10
_symmetry_space_group_name_H-M   'P 1'
_cell_length_a   3.87688956
_cell_length_b   3.87688955
_cell_length_c   13.65683549
_cell_angle_alpha   98.16009394
_cell_angle_beta   98.16009390
_cell_angle_gamma   90.00000007
_symmetry_Int_Tables_number   1
_chemical_formula_structural   Li2La2Ti3O10
_chemical_formula_sum   'Li2 La2 Ti3 O10'
_cell_volume   201.08798306
_cell_formula_units_Z   1
loop_
 _symmetry_equiv_pos_site_id
 _symmetry_equiv_pos_as_xyz
  1  'x, y, z'
loop_
 _atom_site_type_symbol
 _atom_site_label
 _atom_site_symmetry_multiplicity
 _atom_site_fract_x
 _atom_site_fract_y
 _atom_site_fract_z
 _atom_site_occupancy
  Li  Li0  1  0.75000000  0.25000000  0.50000000  1
  Li  Li1  1  0.25000000  0.75000000  0.50000000  1
  O  O2  1  0.85747648  0.35747648  0.71495296  1
  O  O3  1  0.77545412  0.77545412  0.55090824  1
  O  O4  1  0.22454588  0.22454588  0.44909176  1
  O  O5  1  0.00000000  0.50000000  0.00000000  1
  O  O6  1  0.35747648  0.85747648  0.71495296  1
  O  O7  1  0.50000000  0.00000000  0.00000000  1
  O  O8  1  0.92736737  0.92736737  0.85473473  1
  O  O9  1  0.07263263  0.07263263  0.14526527  1
  O  O10  1  0.64252352  0.14252352  0.28504704  1
  O  O11  1  0.14252352  0.64252352  0.28504704  1
  Ti  Ti12  1  0.15771686  0.15771686  0.31543373  1
  Ti  Ti13  1  0.84228314  0.84228314  0.68456627  1
  Ti  Ti14  1  0.00000000  0.00000000  0.00000000  1
  La  La15  1  0.41883729  0.41883729  0.83767457  1
  La  La16  1  0.58116271  0.58116271  0.16232543  1
