# generated using pymatgen
data_LiMnSO4F
_symmetry_space_group_name_H-M   'P 1'
_cell_length_a   5.27993334
_cell_length_b   5.64953809
_cell_length_c   7.45008614
_cell_angle_alpha   106.58299163
_cell_angle_beta   107.13768711
_cell_angle_gamma   98.10702449
_symmetry_Int_Tables_number   1
_chemical_formula_structural   LiMnSO4F
_chemical_formula_sum   'Li2 Mn2 S2 O8 F2'
_cell_volume   197.28561507
_cell_formula_units_Z   2
loop_
 _symmetry_equiv_pos_site_id
 _symmetry_equiv_pos_as_xyz
  1  'x, y, z'
loop_
 _atom_site_type_symbol
 _atom_site_label
 _atom_site_symmetry_multiplicity
 _atom_site_fract_x
 _atom_site_fract_y
 _atom_site_fract_z
 _atom_site_occupancy
  Li  Li0  1  0.27055038  0.62763857  0.75957492  1
  Li  Li1  1  0.72944962  0.37236143  0.24042508  1
  Mn  Mn2  1  0.00000000  0.00000000  0.50000000  1
  Mn  Mn3  1  0.00000000  0.00000000  0.00000000  1
  S  S4  1  0.32509707  0.63325511  0.25045028  1
  S  S5  1  0.67490293  0.36674489  0.74954972  1
  O  O6  1  0.59782611  0.74672136  0.41097299  1
  O  O7  1  0.40217389  0.25327864  0.58902701  1
  O  O8  1  0.10614770  0.64079662  0.34104662  1
  O  O9  1  0.89385230  0.35920338  0.65895338  1
  O  O10  1  0.32308829  0.36149638  0.14750093  1
  O  O11  1  0.67691171  0.63850362  0.85249907  1
  O  O12  1  0.27876304  0.76723353  0.10289822  1
  O  O13  1  0.72123696  0.23276647  0.89710178  1
  F  F14  1  0.13126884  0.91152669  0.75735043  1
  F  F15  1  0.86873116  0.08847331  0.24264957  1
