# generated using pymatgen
data_Cr3S4
_symmetry_space_group_name_H-M   'P 1'
_cell_length_a   3.47326569
_cell_length_b   6.08377851
_cell_length_c   11.30148318
_cell_angle_alpha   88.31883990
_cell_angle_beta   90.00000095
_cell_angle_gamma   90.00000376
_symmetry_Int_Tables_number   1
_chemical_formula_structural   Cr3S4
_chemical_formula_sum   'Cr6 S8'
_cell_volume   238.70409306
_cell_formula_units_Z   2
loop_
 _symmetry_equiv_pos_site_id
 _symmetry_equiv_pos_as_xyz
  1  'x, y, z'
loop_
 _atom_site_type_symbol
 _atom_site_label
 _atom_site_symmetry_multiplicity
 _atom_site_fract_x
 _atom_site_fract_y
 _atom_site_fract_z
 _atom_site_occupancy
  Cr  Cr0  1  0.00000000  0.99877764  0.00034056  1
  Cr  Cr1  1  0.50000000  0.50109808  0.49943059  1
  Cr  Cr2  1  0.50000000  0.48413468  0.23515927  1
  Cr  Cr3  1  0.00000000  0.98349617  0.73642710  1
  Cr  Cr4  1  1.00000000  0.01641099  0.26403091  1
  Cr  Cr5  1  0.50000000  0.51628700  0.76471497  1
  S  S6  1  1.00000000  0.32335336  0.12418866  1
  S  S7  1  0.50000000  0.82443968  0.62540889  1
  S  S8  1  0.50000000  0.84598264  0.13397577  1
  S  S9  1  0.00000000  0.34654340  0.63422206  1
  S  S10  1  1.00000000  0.65403289  0.36516508  1
  S  S11  1  0.50000000  0.15351036  0.86646110  1
  S  S12  1  0.50000000  0.17680810  0.37487293  1
  S  S13  1  0.00000000  0.67512400  0.87560110  1
