# generated using pymatgen
data_ErFeCu
_symmetry_space_group_name_H-M   'P 1'
_cell_length_a   5.18136918
_cell_length_b   5.18136918
_cell_length_c   5.18136918
_cell_angle_alpha   92.79194252
_cell_angle_beta   58.62913609
_cell_angle_gamma   121.87944914
_symmetry_Int_Tables_number   1
_chemical_formula_structural   ErFeCu
_chemical_formula_sum   'Er2 Fe2 Cu2'
_cell_volume   95.81769425
_cell_formula_units_Z   2
loop_
 _symmetry_equiv_pos_site_id
 _symmetry_equiv_pos_as_xyz
  1  'x, y, z'
loop_
 _atom_site_type_symbol
 _atom_site_label
 _atom_site_symmetry_multiplicity
 _atom_site_fract_x
 _atom_site_fract_y
 _atom_site_fract_z
 _atom_site_occupancy
  Er  Er0  1  0.50000000  0.75248532  0.74751468  1
  Er  Er1  1  -0.00000000  0.99751468  0.00248532  1
  Fe  Fe2  1  0.25000000  0.87500000  0.37500000  1
  Fe  Fe3  1  0.75000000  0.37500000  0.37500000  1
  Cu  Cu4  1  0.75000000  0.37500000  0.87500000  1
  Cu  Cu5  1  0.25000000  0.37500000  0.37500000  1
