# generated using pymatgen
data_Th2Ta6O19
_symmetry_space_group_name_H-M   'P 1'
_cell_length_a   6.43873015
_cell_length_b   6.43873015
_cell_length_c   20.19761664
_cell_angle_alpha   90.00000000
_cell_angle_beta   90.00000000
_cell_angle_gamma   120.00000003
_symmetry_Int_Tables_number   1
_chemical_formula_structural   Th2Ta6O19
_chemical_formula_sum   'Th4 Ta12 O38'
_cell_volume   725.15559923
_cell_formula_units_Z   2
loop_
 _symmetry_equiv_pos_site_id
 _symmetry_equiv_pos_as_xyz
  1  'x, y, z'
loop_
 _atom_site_type_symbol
 _atom_site_label
 _atom_site_symmetry_multiplicity
 _atom_site_fract_x
 _atom_site_fract_y
 _atom_site_fract_z
 _atom_site_occupancy
  O  O0  1  0.66666667  0.33333333  0.14595060  1
  O  O1  1  0.33333333  0.66666667  0.64595060  1
  O  O2  1  0.33333333  0.66666667  0.35404940  1
  O  O3  1  0.66666667  0.33333333  0.85404940  1
  O  O4  1  0.33333333  0.66666667  0.85404940  1
  O  O5  1  0.66666667  0.33333333  0.35404940  1
  O  O6  1  0.66666667  0.33333333  0.64595060  1
  O  O7  1  0.33333333  0.66666667  0.14595060  1
  O  O8  1  0.61921635  0.61921635  0.94282275  1
  O  O9  1  0.38078365  0.00000000  0.94282275  1
  O  O10  1  0.00000000  0.38078365  0.94282275  1
  O  O11  1  0.00000000  0.61921635  0.44282275  1
  O  O12  1  0.38078365  0.00000000  0.55717725  1
  O  O13  1  0.38078365  0.38078365  0.44282275  1
  O  O14  1  0.61921635  0.00000000  0.44282275  1
  O  O15  1  0.38078365  0.38078365  0.05717725  1
  O  O16  1  0.23640827  0.00000000  0.15646584  1
  O  O17  1  0.23640827  0.23640827  0.65646584  1
  O  O18  1  0.00000000  0.76359173  0.65646584  1
  O  O19  1  0.00000000  0.23640827  0.15646584  1
  O  O20  1  0.76359173  0.76359173  0.15646584  1
  O  O21  1  0.23640827  0.00000000  0.34353416  1
  O  O22  1  0.76359173  0.76359173  0.34353416  1
  O  O23  1  0.76359173  0.00000000  0.65646584  1
  O  O24  1  0.00000000  0.23640827  0.34353416  1
  O  O25  1  0.00000000  0.76359173  0.84353416  1
  O  O26  1  0.76359173  0.00000000  0.84353416  1
  O  O27  1  0.23640827  0.23640827  0.84353416  1
  O  O28  1  0.59700999  0.00000000  0.25000000  1
  O  O29  1  0.59700999  0.59700999  0.75000000  1
  O  O30  1  0.00000000  0.40299001  0.75000000  1
  O  O31  1  0.00000000  0.59700999  0.25000000  1
  O  O32  1  0.40299001  0.40299001  0.25000000  1
  O  O33  1  0.40299001  0.00000000  0.75000000  1
  O  O34  1  0.61921635  0.00000000  0.05717725  1
  O  O35  1  0.61921635  0.61921635  0.55717725  1
  O  O36  1  0.00000000  0.38078365  0.55717725  1
  O  O37  1  0.00000000  0.61921635  0.05717725  1
  Ta  Ta38  1  0.65295022  0.65295022  0.84367714  1
  Ta  Ta39  1  0.34704978  0.00000000  0.84367714  1
  Ta  Ta40  1  0.00000000  0.34704978  0.84367714  1
  Ta  Ta41  1  0.00000000  0.65295022  0.34367714  1
  Ta  Ta42  1  0.34704978  0.00000000  0.65632286  1
  Ta  Ta43  1  0.34704978  0.34704978  0.34367714  1
  Ta  Ta44  1  0.65295022  0.00000000  0.34367714  1
  Ta  Ta45  1  0.34704978  0.34704978  0.15632286  1
  Ta  Ta46  1  0.00000000  0.65295022  0.15632286  1
  Ta  Ta47  1  0.00000000  0.34704978  0.65632286  1
  Ta  Ta48  1  0.65295022  0.65295022  0.65632286  1
  Ta  Ta49  1  0.65295022  0.00000000  0.15632286  1
  Th  Th50  1  0.33333333  0.66666667  0.50000000  1
  Th  Th51  1  0.66666667  0.33333333  0.00000000  1
  Th  Th52  1  0.66666667  0.33333333  0.50000000  1
  Th  Th53  1  0.33333333  0.66666667  0.00000000  1
