# generated using pymatgen
data_Lu2MgHg
_symmetry_space_group_name_H-M   'P 1'
_cell_length_a   5.19713014
_cell_length_b   5.19715363
_cell_length_c   5.19716854
_cell_angle_alpha   59.99825638
_cell_angle_beta   59.99881870
_cell_angle_gamma   59.99964642
_symmetry_Int_Tables_number   1
_chemical_formula_structural   Lu2MgHg
_chemical_formula_sum   'Lu2 Mg1 Hg1'
_cell_volume   99.25906720
_cell_formula_units_Z   1
loop_
 _symmetry_equiv_pos_site_id
 _symmetry_equiv_pos_as_xyz
  1  'x, y, z'
loop_
 _atom_site_type_symbol
 _atom_site_label
 _atom_site_symmetry_multiplicity
 _atom_site_fract_x
 _atom_site_fract_y
 _atom_site_fract_z
 _atom_site_occupancy
  Lu  Lu0  1  0.00000447  -0.00000284  0.00000218  1
  Lu  Lu1  1  0.49999354  0.50000661  0.49999739  1
  Mg  Mg2  1  0.75000403  0.74999340  0.74999755  1
  Hg  Hg3  1  0.24999697  0.25000182  0.25000188  1
