# generated using pymatgen
data_Mg2Sn
_symmetry_space_group_name_H-M   'P 1'
_cell_length_a   11.75271790
_cell_length_b   3.37003010
_cell_length_c   7.67052822
_cell_angle_alpha   90.00000000
_cell_angle_beta   107.97334202
_cell_angle_gamma   90.00000000
_symmetry_Int_Tables_number   1
_chemical_formula_structural   Mg2Sn
_chemical_formula_sum   'Mg8 Sn4'
_cell_volume   288.98100162
_cell_formula_units_Z   4
loop_
 _symmetry_equiv_pos_site_id
 _symmetry_equiv_pos_as_xyz
  1  'x, y, z'
loop_
 _atom_site_type_symbol
 _atom_site_label
 _atom_site_symmetry_multiplicity
 _atom_site_fract_x
 _atom_site_fract_y
 _atom_site_fract_z
 _atom_site_occupancy
  Mg  Mg0  1  0.19488447  0.50000000  0.13741053  1
  Mg  Mg1  1  0.47404972  0.50000000  0.19371023  1
  Mg  Mg2  1  0.02595028  0.00000000  0.80628977  1
  Mg  Mg3  1  0.30511553  0.00000000  0.86258947  1
  Mg  Mg4  1  0.69488447  0.00000000  0.13741053  1
  Mg  Mg5  1  0.97404972  0.00000000  0.19371023  1
  Mg  Mg6  1  0.52595028  0.50000000  0.80628977  1
  Mg  Mg7  1  0.80511553  0.50000000  0.86258947  1
  Sn  Sn8  1  0.36093896  -0.00000000  0.46824411  1
  Sn  Sn9  1  0.13906104  0.50000000  0.53175589  1
  Sn  Sn10  1  0.86093896  0.50000000  0.46824411  1
  Sn  Sn11  1  0.63906104  0.00000000  0.53175589  1
