# generated using pymatgen
data_BaHo2PdO5
_symmetry_space_group_name_H-M   'P 1'
_cell_length_a   5.91639464
_cell_length_b   6.55254370
_cell_length_c   6.55254370
_cell_angle_alpha   90.00000000
_cell_angle_beta   90.00000000
_cell_angle_gamma   90.00000000
_symmetry_Int_Tables_number   1
_chemical_formula_structural   BaHo2PdO5
_chemical_formula_sum   'Ba2 Ho4 Pd2 O10'
_cell_volume   254.02530821
_cell_formula_units_Z   2
loop_
 _symmetry_equiv_pos_site_id
 _symmetry_equiv_pos_as_xyz
  1  'x, y, z'
loop_
 _atom_site_type_symbol
 _atom_site_label
 _atom_site_symmetry_multiplicity
 _atom_site_fract_x
 _atom_site_fract_y
 _atom_site_fract_z
 _atom_site_occupancy
  O  O0  1  0.50000000  0.50000000  0.50000000  1
  O  O1  1  0.50000000  0.00000000  0.00000000  1
  O  O2  1  0.26140727  0.64053607  0.14053607  1
  O  O3  1  0.26140727  0.35946393  0.85946393  1
  O  O4  1  0.26140727  0.14053607  0.35946393  1
  O  O5  1  0.26140727  0.85946393  0.64053607  1
  O  O6  1  0.73859273  0.64053607  0.14053607  1
  O  O7  1  0.73859273  0.85946393  0.64053607  1
  O  O8  1  0.73859273  0.35946393  0.85946393  1
  O  O9  1  0.73859273  0.14053607  0.35946393  1
  Pd  Pd10  1  0.00000000  0.50000000  0.00000000  1
  Pd  Pd11  1  0.00000000  0.00000000  0.50000000  1
  Ba  Ba12  1  0.00000000  0.50000000  0.50000000  1
  Ba  Ba13  1  0.00000000  0.00000000  0.00000000  1
  Ho  Ho14  1  0.50000000  0.67419863  0.82580137  1
  Ho  Ho15  1  0.50000000  0.17419863  0.67419863  1
  Ho  Ho16  1  0.50000000  0.82580137  0.32580137  1
  Ho  Ho17  1  0.50000000  0.32580137  0.17419863  1
