# generated using pymatgen
data_LiTm2In
_symmetry_space_group_name_H-M   'P 1'
_cell_length_a   5.20625036
_cell_length_b   5.20626740
_cell_length_c   5.20624720
_cell_angle_alpha   59.99993337
_cell_angle_beta   59.99984810
_cell_angle_gamma   59.99980501
_symmetry_Int_Tables_number   1
_chemical_formula_structural   LiTm2In
_chemical_formula_sum   'Li1 Tm2 In1'
_cell_volume   99.78377946
_cell_formula_units_Z   1
loop_
 _symmetry_equiv_pos_site_id
 _symmetry_equiv_pos_as_xyz
  1  'x, y, z'
loop_
 _atom_site_type_symbol
 _atom_site_label
 _atom_site_symmetry_multiplicity
 _atom_site_fract_x
 _atom_site_fract_y
 _atom_site_fract_z
 _atom_site_occupancy
  Li  Li0  1  0.74999972  0.75000068  0.75000012  1
  Tm  Tm1  1  0.00000010  0.00000030  0.99999978  1
  Tm  Tm2  1  0.49999932  0.49999977  0.49999883  1
  In  In3  1  0.24999986  0.24999825  0.25000027  1
