# generated using pymatgen
data_Tb3Al2
_symmetry_space_group_name_H-M   'P 1'
_cell_length_a   7.64719664
_cell_length_b   8.24889817
_cell_length_c   8.24889817
_cell_angle_alpha   90.00000000
_cell_angle_beta   90.00000000
_cell_angle_gamma   90.00000000
_symmetry_Int_Tables_number   1
_chemical_formula_structural   Tb3Al2
_chemical_formula_sum   'Tb12 Al8'
_cell_volume   520.34830307
_cell_formula_units_Z   4
loop_
 _symmetry_equiv_pos_site_id
 _symmetry_equiv_pos_as_xyz
  1  'x, y, z'
loop_
 _atom_site_type_symbol
 _atom_site_label
 _atom_site_symmetry_multiplicity
 _atom_site_fract_x
 _atom_site_fract_y
 _atom_site_fract_z
 _atom_site_occupancy
  Tb  Tb0  1  0.50000000  0.29652124  0.70347876  1
  Tb  Tb1  1  0.50000000  0.70347876  0.29652124  1
  Tb  Tb2  1  0.00000000  0.20347876  0.20347876  1
  Tb  Tb3  1  0.00000000  0.79652124  0.79652124  1
  Tb  Tb4  1  0.00000000  0.35245141  0.64754859  1
  Tb  Tb5  1  0.00000000  0.64754859  0.35245141  1
  Tb  Tb6  1  0.50000000  0.14754859  0.14754859  1
  Tb  Tb7  1  0.50000000  0.85245141  0.85245141  1
  Tb  Tb8  1  0.25000000  0.00000000  0.50000000  1
  Tb  Tb9  1  0.75000000  0.50000000  0.00000000  1
  Tb  Tb10  1  0.75000000  0.00000000  0.50000000  1
  Tb  Tb11  1  0.25000000  0.50000000  0.00000000  1
  Al  Al12  1  0.19074818  0.11906144  0.88093856  1
  Al  Al13  1  0.19074818  0.88093856  0.11906144  1
  Al  Al14  1  0.69074818  0.38093856  0.38093856  1
  Al  Al15  1  0.69074818  0.61906144  0.61906144  1
  Al  Al16  1  0.80925182  0.88093856  0.11906144  1
  Al  Al17  1  0.80925182  0.11906144  0.88093856  1
  Al  Al18  1  0.30925182  0.61906144  0.61906144  1
  Al  Al19  1  0.30925182  0.38093856  0.38093856  1
