# generated using pymatgen
data_SrTcN3
_symmetry_space_group_name_H-M   'P 1'
_cell_length_a   4.21146205
_cell_length_b   5.76897464
_cell_length_c   6.65380824
_cell_angle_alpha   90.00000000
_cell_angle_beta   71.55042380
_cell_angle_gamma   90.00000000
_symmetry_Int_Tables_number   1
_chemical_formula_structural   SrTcN3
_chemical_formula_sum   'Sr2 Tc2 N6'
_cell_volume   153.35081292
_cell_formula_units_Z   2
loop_
 _symmetry_equiv_pos_site_id
 _symmetry_equiv_pos_as_xyz
  1  'x, y, z'
loop_
 _atom_site_type_symbol
 _atom_site_label
 _atom_site_symmetry_multiplicity
 _atom_site_fract_x
 _atom_site_fract_y
 _atom_site_fract_z
 _atom_site_occupancy
  Sr  Sr0  1  0.37077669  0.25000000  0.25844663  1
  Sr  Sr1  1  0.62922331  0.75000000  0.74155337  1
  Tc  Tc2  1  0.90488357  0.75000000  0.19023285  1
  Tc  Tc3  1  0.09511643  0.25000000  0.80976715  1
  N  N4  1  0.84767970  0.25000000  0.60632476  1
  N  N5  1  0.54599555  0.25000000  0.60632476  1
  N  N6  1  0.00000000  0.50000000  -0.00000000  1
  N  N7  1  0.15232030  0.75000000  0.39367524  1
  N  N8  1  0.45400445  0.75000000  0.39367524  1
  N  N9  1  0.00000000  0.00000000  -0.00000000  1
