# generated using pymatgen
data_LiSnCl3
_symmetry_space_group_name_H-M   'P 1'
_cell_length_a   5.16203568
_cell_length_b   5.17324497
_cell_length_c   5.20578325
_cell_angle_alpha   86.59315265
_cell_angle_beta   86.92937910
_cell_angle_gamma   87.22027673
_symmetry_Int_Tables_number   1
_chemical_formula_structural   LiSnCl3
_chemical_formula_sum   'Li1 Sn1 Cl3'
_cell_volume   138.42953542
_cell_formula_units_Z   1
loop_
 _symmetry_equiv_pos_site_id
 _symmetry_equiv_pos_as_xyz
  1  'x, y, z'
loop_
 _atom_site_type_symbol
 _atom_site_label
 _atom_site_symmetry_multiplicity
 _atom_site_fract_x
 _atom_site_fract_y
 _atom_site_fract_z
 _atom_site_occupancy
  Li  Li0  1  0.11092347  0.12433710  0.11217288  1
  Sn  Sn1  1  0.47894410  0.48944334  0.47872158  1
  Cl  Cl2  1  0.13697591  0.63894470  0.14976329  1
  Cl  Cl3  1  0.14718495  0.14738170  0.62984996  1
  Cl  Cl4  1  0.62597258  0.15989416  0.13949228  1
