# generated using pymatgen
data_CsInI3
_symmetry_space_group_name_H-M   'P 1'
_cell_length_a   10.93400776
_cell_length_b   11.07363317
_cell_length_c   11.37309577
_cell_angle_alpha   93.65627396
_cell_angle_beta   110.77200799
_cell_angle_gamma   100.66254914
_symmetry_Int_Tables_number   1
_chemical_formula_structural   CsInI3
_chemical_formula_sum   'Cs4 In4 I12'
_cell_volume   1252.69753228
_cell_formula_units_Z   4
loop_
 _symmetry_equiv_pos_site_id
 _symmetry_equiv_pos_as_xyz
  1  'x, y, z'
loop_
 _atom_site_type_symbol
 _atom_site_label
 _atom_site_symmetry_multiplicity
 _atom_site_fract_x
 _atom_site_fract_y
 _atom_site_fract_z
 _atom_site_occupancy
  Cs  Cs0  1  0.73144987  0.89701427  0.06623676  1
  Cs  Cs1  1  0.26855013  0.10298573  0.93376224  1
  Cs  Cs2  1  0.74643186  0.37380473  0.75461116  1
  Cs  Cs3  1  0.25356814  0.62619527  0.24538884  1
  In  In4  1  0.74204172  0.79988577  0.61110554  1
  In  In5  1  0.76851150  0.42372577  0.23165250  1
  In  In6  1  0.25795828  0.20011323  0.38889446  1
  In  In7  1  0.23148950  0.57627423  0.76834750  1
  I  I8  1  0.54117265  0.65890767  0.67433098  1
  I  I9  1  0.06919526  0.33734118  0.39396558  1
  I  I10  1  0.45882835  0.34109233  0.32566902  1
  I  I11  1  0.93080374  0.66265882  0.60603442  1
  I  I12  1  0.12854645  0.39397814  0.92462761  1
  I  I13  1  0.38017994  0.13191296  0.62464624  1
  I  I14  1  0.87145455  0.60602186  0.07537339  1
  I  I15  1  0.61982006  0.86808704  0.37535376  1
  I  I16  1  0.86457063  0.01125845  0.78995444  1
  I  I17  1  0.64315081  0.21179759  0.00547365  1
  I  I18  1  0.13542837  0.98873955  0.21004656  1
  I  I19  1  0.35684919  0.78820441  0.99452635  1
