# generated using pymatgen
data_Al2CdS4
_symmetry_space_group_name_H-M   'P 1'
_cell_length_a   7.33598563
_cell_length_b   7.33598563
_cell_length_c   7.33598563
_cell_angle_alpha   59.99999995
_cell_angle_beta   59.99999998
_cell_angle_gamma   59.99999996
_symmetry_Int_Tables_number   1
_chemical_formula_structural   Al2CdS4
_chemical_formula_sum   'Al4 Cd2 S8'
_cell_volume   279.16464626
_cell_formula_units_Z   2
loop_
 _symmetry_equiv_pos_site_id
 _symmetry_equiv_pos_as_xyz
  1  'x, y, z'
loop_
 _atom_site_type_symbol
 _atom_site_label
 _atom_site_symmetry_multiplicity
 _atom_site_fract_x
 _atom_site_fract_y
 _atom_site_fract_z
 _atom_site_occupancy
  Al  Al0  1  0.50000000  0.00000000  0.50000000  1
  Al  Al1  1  0.00000000  0.50000000  0.50000000  1
  Al  Al2  1  0.50000000  0.50000000  0.50000000  1
  Al  Al3  1  0.50000000  0.50000000  0.00000000  1
  S  S4  1  0.26473146  0.26473146  0.70580561  1
  S  S5  1  0.73526854  0.73526854  0.73526854  1
  S  S6  1  0.26473146  0.26473146  0.26473146  1
  S  S7  1  0.73526854  0.73526854  0.29419439  1
  S  S8  1  0.29419439  0.73526854  0.73526854  1
  S  S9  1  0.73526854  0.29419439  0.73526854  1
  S  S10  1  0.70580561  0.26473146  0.26473146  1
  S  S11  1  0.26473146  0.70580561  0.26473146  1
  Cd  Cd12  1  0.87500000  0.87500000  0.87500000  1
  Cd  Cd13  1  0.12500000  0.12500000  0.12500000  1
