# generated using pymatgen
data_RbBaSiHO4
_symmetry_space_group_name_H-M   'P 1'
_cell_length_a   6.08299471
_cell_length_b   8.21619982
_cell_length_c   6.18100674
_cell_angle_alpha   90.00000000
_cell_angle_beta   121.60098942
_cell_angle_gamma   90.00000000
_symmetry_Int_Tables_number   1
_chemical_formula_structural   RbBaSiHO4
_chemical_formula_sum   'Rb2 Ba2 Si2 H2 O8'
_cell_volume   263.11367250
_cell_formula_units_Z   2
loop_
 _symmetry_equiv_pos_site_id
 _symmetry_equiv_pos_as_xyz
  1  'x, y, z'
loop_
 _atom_site_type_symbol
 _atom_site_label
 _atom_site_symmetry_multiplicity
 _atom_site_fract_x
 _atom_site_fract_y
 _atom_site_fract_z
 _atom_site_occupancy
  Rb  Rb0  1  0.34691232  0.76837405  0.62688881  1
  Rb  Rb1  1  0.65308768  0.26837405  0.37311119  1
  Ba  Ba2  1  0.99515142  0.51648101  0.98580500  1
  Ba  Ba3  1  0.00484858  0.01648101  0.01419500  1
  Si  Si4  1  0.68196535  0.75448333  0.29966164  1
  Si  Si5  1  0.31803465  0.25448333  0.70033836  1
  H  H6  1  0.94695359  0.98849418  0.48355963  1
  H  H7  1  0.05304641  0.48849418  0.51644037  1
  O  O8  1  0.36670770  0.76416549  0.15185823  1
  O  O9  1  0.63329230  0.26416549  0.84814177  1
  O  O10  1  0.79092199  0.76011620  0.10641502  1
  O  O11  1  0.20907801  0.26011620  0.89358498  1
  O  O12  1  0.80753345  0.60171418  0.50036512  1
  O  O13  1  0.19246655  0.10171418  0.49963488  1
  O  O14  1  0.80157074  0.92917156  0.48482189  1
  O  O15  1  0.19842926  0.42917156  0.51517811  1
