# generated using pymatgen
data_Sc3Al3C2O5
_symmetry_space_group_name_H-M   'P 1'
_cell_length_a   3.27648565
_cell_length_b   3.27650417
_cell_length_c   31.81193429
_cell_angle_alpha   89.99913625
_cell_angle_beta   90.00118325
_cell_angle_gamma   120.00459853
_symmetry_Int_Tables_number   1
_chemical_formula_structural   Sc3Al3C2O5
_chemical_formula_sum   'Sc6 Al6 C4 O10'
_cell_volume   295.74647561
_cell_formula_units_Z   2
loop_
 _symmetry_equiv_pos_site_id
 _symmetry_equiv_pos_as_xyz
  1  'x, y, z'
loop_
 _atom_site_type_symbol
 _atom_site_label
 _atom_site_symmetry_multiplicity
 _atom_site_fract_x
 _atom_site_fract_y
 _atom_site_fract_z
 _atom_site_occupancy
  Sc  Sc0  1  0.33331033  0.66658684  0.65907878  1
  Sc  Sc1  1  0.66660359  0.33334449  0.15906900  1
  Sc  Sc2  1  0.66660716  0.33337773  0.34092845  1
  Sc  Sc3  1  0.33337905  0.66660983  0.84092845  1
  Sc  Sc4  1  0.99995483  0.00002083  0.50000015  1
  Sc  Sc5  1  0.00003202  -0.00000131  0.99999492  1
  Al  Al6  1  0.00001085  0.00001336  0.75001247  1
  Al  Al7  1  0.00002581  0.00002579  0.24999113  1
  Al  Al8  1  0.33329766  0.66682292  0.43145544  1
  Al  Al9  1  0.66669686  0.33336520  0.93145338  1
  Al  Al10  1  0.66661675  0.33324905  0.56854776  1
  Al  Al11  1  0.33338656  0.66663741  0.06853412  1
  C  C12  1  0.66662185  0.33348274  0.45414253  1
  C  C13  1  0.33338010  0.66668193  0.95413803  1
  C  C14  1  0.33328240  0.66657712  0.54586073  1
  C  C15  1  0.66669315  0.33330785  0.04585063  1
  O  O16  1  0.33328840  0.66669242  0.37300783  1
  O  O17  1  0.66669565  0.33329029  0.87300684  1
  O  O18  1  0.66665407  0.33329438  0.62699867  1
  O  O19  1  0.33329235  0.66667186  0.12698415  1
  O  O20  1  0.33331285  0.66668488  0.75002012  1
  O  O21  1  0.66669025  0.33329671  0.24998585  1
  O  O22  1  0.00004693  0.99995955  0.80908616  1
  O  O23  1  0.99994307  0.00001796  0.30907205  1
  O  O24  1  0.99994404  0.00000861  0.19091736  1
  O  O25  1  0.00001145  0.99995855  0.69093497  1
