# generated using pymatgen
data_SmGd3
_symmetry_space_group_name_H-M   'P 1'
_cell_length_a   7.31693198
_cell_length_b   7.31693097
_cell_length_c   5.84130963
_cell_angle_alpha   90.00000000
_cell_angle_beta   90.00000000
_cell_angle_gamma   120.00000006
_symmetry_Int_Tables_number   1
_chemical_formula_structural   SmGd3
_chemical_formula_sum   'Sm2 Gd6'
_cell_volume   270.83128741
_cell_formula_units_Z   2
loop_
 _symmetry_equiv_pos_site_id
 _symmetry_equiv_pos_as_xyz
  1  'x, y, z'
loop_
 _atom_site_type_symbol
 _atom_site_label
 _atom_site_symmetry_multiplicity
 _atom_site_fract_x
 _atom_site_fract_y
 _atom_site_fract_z
 _atom_site_occupancy
  Sm  Sm0  1  0.66666600  0.33333300  0.24999900  1
  Sm  Sm1  1  0.33333300  0.66666700  0.75000000  1
  Gd  Gd2  1  0.83358512  0.16641788  0.75000000  1
  Gd  Gd3  1  0.33283276  0.16641788  0.75000000  1
  Gd  Gd4  1  0.83358312  0.66716724  0.75000000  1
  Gd  Gd5  1  0.16641688  0.83358312  0.24999900  1
  Gd  Gd6  1  0.66716624  0.83358312  0.24999900  1
  Gd  Gd7  1  0.16641588  0.33283176  0.24999900  1
