# generated using pymatgen
data_WF5
_symmetry_space_group_name_H-M   'P 1'
_cell_length_a   5.61154748
_cell_length_b   5.61074675
_cell_length_c   7.93726058
_cell_angle_alpha   96.70093202
_cell_angle_beta   109.89842039
_cell_angle_gamma   110.76544306
_symmetry_Int_Tables_number   1
_chemical_formula_structural   WF5
_chemical_formula_sum   'W2 F10'
_cell_volume   211.56170771
_cell_formula_units_Z   2
loop_
 _symmetry_equiv_pos_site_id
 _symmetry_equiv_pos_as_xyz
  1  'x, y, z'
loop_
 _atom_site_type_symbol
 _atom_site_label
 _atom_site_symmetry_multiplicity
 _atom_site_fract_x
 _atom_site_fract_y
 _atom_site_fract_z
 _atom_site_occupancy
  W  W0  1  0.99541725  0.99959308  0.99907880  1
  W  W1  1  0.49935393  0.00059283  0.49838761  1
  F  F2  1  0.32212718  0.07258051  0.24770854  1
  F  F3  1  0.67112565  0.92777562  0.74978376  1
  F  F4  1  0.59918253  0.75724279  0.38212041  1
  F  F5  1  0.87576105  0.22287121  0.11749776  1
  F  F6  1  0.77091179  0.69552878  0.04459417  1
  F  F7  1  0.14502653  0.73727945  0.45451219  1
  F  F8  1  0.22107007  0.30492406  0.95487448  1
  F  F9  1  0.85425887  0.26264941  0.54250766  1
  F  F10  1  0.11284707  0.77557732  0.87947553  1
  F  F11  1  0.40116608  0.24503394  0.61533609  1
