# generated using pymatgen
data_ZnNiF5
_symmetry_space_group_name_H-M   'P 1'
_cell_length_a   5.12514275
_cell_length_b   7.41773991
_cell_length_c   9.63050597
_cell_angle_alpha   90.00000000
_cell_angle_beta   90.00000000
_cell_angle_gamma   110.73661589
_symmetry_Int_Tables_number   1
_chemical_formula_structural   ZnNiF5
_chemical_formula_sum   'Zn4 Ni4 F20'
_cell_volume   342.40453224
_cell_formula_units_Z   4
loop_
 _symmetry_equiv_pos_site_id
 _symmetry_equiv_pos_as_xyz
  1  'x, y, z'
loop_
 _atom_site_type_symbol
 _atom_site_label
 _atom_site_symmetry_multiplicity
 _atom_site_fract_x
 _atom_site_fract_y
 _atom_site_fract_z
 _atom_site_occupancy
  Zn  Zn0  1  0.46811536  0.74141466  0.01483886  1
  Zn  Zn1  1  0.53188464  0.75858534  0.51483886  1
  Zn  Zn2  1  0.53188464  0.25858534  0.98516114  1
  Zn  Zn3  1  0.46811536  0.24141466  0.48516114  1
  Ni  Ni4  1  0.89375813  0.60192564  0.75098466  1
  Ni  Ni5  1  0.10624187  0.89807436  0.25098466  1
  Ni  Ni6  1  0.10624187  0.39807436  0.24901534  1
  Ni  Ni7  1  0.89375813  0.10192564  0.74901534  1
  F  F8  1  0.59388006  0.56663211  0.88190814  1
  F  F9  1  0.40611994  0.93336789  0.38190814  1
  F  F10  1  0.40611994  0.43336789  0.11809186  1
  F  F11  1  0.59388006  0.06663211  0.61809186  1
  F  F12  1  0.63832048  0.49102794  0.60859085  1
  F  F13  1  0.36167952  0.00897206  0.10859085  1
  F  F14  1  0.36167952  0.50897206  0.39140915  1
  F  F15  1  0.63832048  0.99102794  0.89140915  1
  F  F16  1  0.86529770  0.79220545  0.39784957  1
  F  F17  1  0.13470230  0.70779455  0.89784957  1
  F  F18  1  0.13470230  0.20779455  0.60215043  1
  F  F19  1  0.86529770  0.29220545  0.10215043  1
  F  F20  1  0.80281771  0.85908591  0.13180002  1
  F  F21  1  0.19718229  0.64091409  0.63180002  1
  F  F22  1  0.19718229  0.14091409  0.86819998  1
  F  F23  1  0.80281771  0.35908591  0.36819998  1
  F  F24  1  0.84558855  0.83972066  0.68264459  1
  F  F25  1  0.15441145  0.66027934  0.18264459  1
  F  F26  1  0.15441145  0.16027934  0.31735541  1
  F  F27  1  0.84558855  0.33972066  0.81735541  1
