# generated using pymatgen
data_Mg3V2O8
_symmetry_space_group_name_H-M   'P 1'
_cell_length_a   6.09139206
_cell_length_b   6.09139158
_cell_length_c   5.82673929
_cell_angle_alpha   58.48577940
_cell_angle_beta   58.48578173
_cell_angle_gamma   59.99999561
_symmetry_Int_Tables_number   1
_chemical_formula_structural   Mg3V2O8
_chemical_formula_sum   'Mg3 V2 O8'
_cell_volume   149.28458677
_cell_formula_units_Z   1
loop_
 _symmetry_equiv_pos_site_id
 _symmetry_equiv_pos_as_xyz
  1  'x, y, z'
loop_
 _atom_site_type_symbol
 _atom_site_label
 _atom_site_symmetry_multiplicity
 _atom_site_fract_x
 _atom_site_fract_y
 _atom_site_fract_z
 _atom_site_occupancy
  Mg  Mg0  1  0.50000000  0.00000000  0.50000000  1
  Mg  Mg1  1  0.00000000  0.50000000  0.50000000  1
  Mg  Mg2  1  0.50000000  0.50000000  0.50000000  1
  V  V3  1  0.12348078  0.12348078  0.12955765  1
  V  V4  1  0.87651922  0.87651922  0.87044235  1
  O  O5  1  0.76393347  0.76393347  0.74469748  1
  O  O6  1  0.25574072  0.25574072  0.73277684  1
  O  O7  1  0.23606653  0.77256342  0.25530252  1
  O  O8  1  0.77256342  0.23606653  0.25530252  1
  O  O9  1  0.76393347  0.22743658  0.74469748  1
  O  O10  1  0.22743658  0.76393347  0.74469748  1
  O  O11  1  0.23606653  0.23606653  0.25530252  1
  O  O12  1  0.74425928  0.74425928  0.26722316  1
