# generated using pymatgen
data_Ca2AlCrO5
_symmetry_space_group_name_H-M   'P 1'
_cell_length_a   5.42165004
_cell_length_b   5.69819833
_cell_length_c   8.13446026
_cell_angle_alpha   110.49777745
_cell_angle_beta   109.47757947
_cell_angle_gamma   90.04879289
_symmetry_Int_Tables_number   1
_chemical_formula_structural   Ca2AlCrO5
_chemical_formula_sum   'Ca4 Al2 Cr2 O10'
_cell_volume   219.94399196
_cell_formula_units_Z   2
loop_
 _symmetry_equiv_pos_site_id
 _symmetry_equiv_pos_as_xyz
  1  'x, y, z'
loop_
 _atom_site_type_symbol
 _atom_site_label
 _atom_site_symmetry_multiplicity
 _atom_site_fract_x
 _atom_site_fract_y
 _atom_site_fract_z
 _atom_site_occupancy
  Ca  Ca0  1  0.11614299  0.63947767  0.21678365  1
  Ca  Ca1  1  0.39789508  0.92368989  0.78340263  1
  Ca  Ca2  1  0.89799889  0.36046618  0.78315710  1
  Ca  Ca3  1  0.61612470  0.07626923  0.21682900  1
  Al  Al4  1  0.29030046  0.32879544  0.49961817  1
  Al  Al5  1  0.79111380  0.67094996  0.50003010  1
  Cr  Cr6  1  0.49526829  0.49966224  0.99971621  1
  Cr  Cr7  1  0.99491808  0.99970683  0.99973931  1
  O  O8  1  0.61920543  0.39786411  0.49944459  1
  O  O9  1  0.12003146  0.60205814  0.50022765  1
  O  O10  1  0.61887720  0.71430380  0.28880079  1
  O  O11  1  0.32824583  0.28509772  0.71066710  1
  O  O12  1  0.11644727  0.07425409  0.29003183  1
  O  O13  1  0.82848325  0.92564020  0.70970056  1
  O  O14  1  0.23329454  0.73840130  0.96715007  1
  O  O15  1  0.26658449  0.26208607  0.03404514  1
  O  O16  1  0.76612128  0.27120858  0.03323979  1
  O  O17  1  0.73208797  0.72733252  0.96473931  1
