# generated using pymatgen
data_CrS2
_symmetry_space_group_name_H-M   'P 1'
_cell_length_a   6.76081551
_cell_length_b   6.76012464
_cell_length_c   6.75967945
_cell_angle_alpha   59.98595629
_cell_angle_beta   59.98901919
_cell_angle_gamma   59.99125100
_symmetry_Int_Tables_number   1
_chemical_formula_structural   CrS2
_chemical_formula_sum   'Cr4 S8'
_cell_volume   218.40069592
_cell_formula_units_Z   4
loop_
 _symmetry_equiv_pos_site_id
 _symmetry_equiv_pos_as_xyz
  1  'x, y, z'
loop_
 _atom_site_type_symbol
 _atom_site_label
 _atom_site_symmetry_multiplicity
 _atom_site_fract_x
 _atom_site_fract_y
 _atom_site_fract_z
 _atom_site_occupancy
  Cr  Cr0  1  0.49999831  0.49999918  0.50000027  1
  Cr  Cr1  1  0.50000132  0.00000092  0.50000038  1
  Cr  Cr2  1  0.00000323  0.49999948  0.49999682  1
  Cr  Cr3  1  0.49999406  0.50000238  0.00000172  1
  S  S4  1  0.74623184  0.26129665  0.74624847  1
  S  S5  1  0.74622210  0.74623266  0.74624041  1
  S  S6  1  0.25376557  0.25375351  0.73870839  1
  S  S7  1  0.25376912  0.73870389  0.25375189  1
  S  S8  1  0.25377725  0.25376592  0.25376058  1
  S  S9  1  0.74623568  0.74624558  0.26129200  1
  S  S10  1  0.26129917  0.74623877  0.74624445  1
  S  S11  1  0.73870235  0.25376106  0.25375461  1
