# generated using pymatgen
data_Co
_symmetry_space_group_name_H-M   'P 1'
_cell_length_a   4.28961809
_cell_length_b   4.28961809
_cell_length_c   6.96971817
_cell_angle_alpha   35.66952521
_cell_angle_beta   144.33047479
_cell_angle_gamma   131.23309396
_symmetry_Int_Tables_number   1
_chemical_formula_structural   Co
_chemical_formula_sum   Co4
_cell_volume   43.60646300
_cell_formula_units_Z   4
loop_
 _symmetry_equiv_pos_site_id
 _symmetry_equiv_pos_as_xyz
  1  'x, y, z'
loop_
 _atom_site_type_symbol
 _atom_site_label
 _atom_site_symmetry_multiplicity
 _atom_site_fract_x
 _atom_site_fract_y
 _atom_site_fract_z
 _atom_site_occupancy
  Co  Co0  1  0.12514051  0.87485949  0.62514051  1
  Co  Co1  1  0.12485949  0.87514051  0.12485949  1
  Co  Co2  1  0.62500000  0.37500000  0.87500000  1
  Co  Co3  1  0.62500000  0.37500000  0.37500000  1
