# generated using pymatgen
data_LiMo3P3O13
_symmetry_space_group_name_H-M   'P 1'
_cell_length_a   6.66563737
_cell_length_b   7.67750810
_cell_length_c   10.96544357
_cell_angle_alpha   99.38250715
_cell_angle_beta   90.00000000
_cell_angle_gamma   90.00000000
_symmetry_Int_Tables_number   1
_chemical_formula_structural   LiMo3P3O13
_chemical_formula_sum   'Li2 Mo6 P6 O26'
_cell_volume   553.65465681
_cell_formula_units_Z   2
loop_
 _symmetry_equiv_pos_site_id
 _symmetry_equiv_pos_as_xyz
  1  'x, y, z'
loop_
 _atom_site_type_symbol
 _atom_site_label
 _atom_site_symmetry_multiplicity
 _atom_site_fract_x
 _atom_site_fract_y
 _atom_site_fract_z
 _atom_site_occupancy
  Li  Li0  1  0.75000000  0.58210521  0.13398229  1
  Li  Li1  1  0.25000000  0.41789479  0.86601771  1
  Mo  Mo2  1  0.25000000  0.36049948  0.20237400  1
  Mo  Mo3  1  0.75000000  0.63950052  0.79762600  1
  Mo  Mo4  1  0.25000000  0.76603885  0.45198423  1
  Mo  Mo5  1  0.50000000  0.00000000  0.00000000  1
  Mo  Mo6  1  0.75000000  0.23396115  0.54801577  1
  Mo  Mo7  1  0.00000000  0.00000000  0.00000000  1
  P  P8  1  0.25000000  0.21283203  0.48195405  1
  P  P9  1  0.75000000  0.78716797  0.51804595  1
  P  P10  1  0.25000000  0.73514120  0.77346107  1
  P  P11  1  0.75000000  0.26485880  0.22653893  1
  P  P12  1  0.75000000  0.30669687  0.87729465  1
  P  P13  1  0.25000000  0.69330313  0.12270535  1
  O  O14  1  0.75000000  0.35281075  0.74237949  1
  O  O15  1  0.56384345  0.74122175  0.43729680  1
  O  O16  1  0.25000000  0.79313673  0.64819871  1
  O  O17  1  0.55503711  0.21135090  0.89981698  1
  O  O18  1  0.75000000  0.66361794  0.62059456  1
  O  O19  1  0.75000000  0.86414057  0.90543753  1
  O  O20  1  0.25000000  0.33638206  0.37940544  1
  O  O21  1  0.05503711  0.78864910  0.10018302  1
  O  O22  1  0.25000000  0.02125173  0.41150077  1
  O  O23  1  0.75000000  0.97874827  0.58849923  1
  O  O24  1  0.06803878  0.62085465  0.79935150  1
  O  O25  1  0.25000000  0.13585943  0.09456247  1
  O  O26  1  0.56803878  0.37914535  0.20064850  1
  O  O27  1  0.75000000  0.49988145  0.95111403  1
  O  O28  1  0.75000000  0.20686327  0.35180129  1
  O  O29  1  0.44496289  0.78864910  0.10018302  1
  O  O30  1  0.93615655  0.74122175  0.43729680  1
  O  O31  1  0.43615655  0.25877825  0.56270320  1
  O  O32  1  0.43196122  0.62085465  0.79935150  1
  O  O33  1  0.25000000  0.64718925  0.25762051  1
  O  O34  1  0.75000000  0.09312382  0.12273531  1
  O  O35  1  0.25000000  0.90687618  0.87726469  1
  O  O36  1  0.93196122  0.37914535  0.20064850  1
  O  O37  1  0.94496289  0.21135090  0.89981698  1
  O  O38  1  0.06384345  0.25877825  0.56270320  1
  O  O39  1  0.25000000  0.50011855  0.04888597  1
