# generated using pymatgen
data_LiAl(GeO3)2
_symmetry_space_group_name_H-M   'P 1'
_cell_length_a   10.08182520
_cell_length_b   8.49045112
_cell_length_c   5.45884810
_cell_angle_alpha   90.00000000
_cell_angle_beta   110.94847581
_cell_angle_gamma   90.00000000
_symmetry_Int_Tables_number   1
_chemical_formula_structural   LiAl(GeO3)2
_chemical_formula_sum   'Li4 Al4 Ge8 O24'
_cell_volume   436.38759028
_cell_formula_units_Z   4
loop_
 _symmetry_equiv_pos_site_id
 _symmetry_equiv_pos_as_xyz
  1  'x, y, z'
loop_
 _atom_site_type_symbol
 _atom_site_label
 _atom_site_symmetry_multiplicity
 _atom_site_fract_x
 _atom_site_fract_y
 _atom_site_fract_z
 _atom_site_occupancy
  Li  Li0  1  0.99204006  0.78290180  0.69687815  1
  Li  Li1  1  0.49204006  0.71709820  0.19687815  1
  Li  Li2  1  0.00795994  0.21709820  0.30312185  1
  Li  Li3  1  0.50795994  0.28290180  0.80312185  1
  Al  Al4  1  0.00455126  0.58657843  0.25420858  1
  Al  Al5  1  0.50455126  0.91342157  0.75420858  1
  Al  Al6  1  0.99544874  0.41342157  0.74579142  1
  Al  Al7  1  0.49544874  0.08657843  0.24579142  1
  Ge  Ge8  1  0.20942803  0.08444129  0.77830781  1
  Ge  Ge9  1  0.70942803  0.41555871  0.27830781  1
  Ge  Ge10  1  0.79057197  0.91555871  0.22169219  1
  Ge  Ge11  1  0.29057197  0.58444129  0.72169219  1
  Ge  Ge12  1  0.22066417  0.88707433  0.27469646  1
  Ge  Ge13  1  0.72066417  0.61292567  0.77469646  1
  Ge  Ge14  1  0.77933583  0.11292567  0.72530354  1
  Ge  Ge15  1  0.27933583  0.38707433  0.22530354  1
  O  O16  1  0.39719620  0.07269065  0.85396577  1
  O  O17  1  0.89719620  0.42730935  0.35396577  1
  O  O18  1  0.60280380  0.92730935  0.14603423  1
  O  O19  1  0.10280380  0.57269065  0.64603423  1
  O  O20  1  0.14071665  0.01073146  0.44221702  1
  O  O21  1  0.64071665  0.48926854  0.94221702  1
  O  O22  1  0.85928335  0.98926854  0.55778298  1
  O  O23  1  0.35928335  0.51073146  0.05778298  1
  O  O24  1  0.11075658  0.25711063  0.69984823  1
  O  O25  1  0.61075658  0.24288937  0.19984823  1
  O  O26  1  0.88924342  0.74288937  0.30015177  1
  O  O27  1  0.38924342  0.75711063  0.80015177  1
  O  O28  1  0.14312949  0.93240705  0.93380403  1
  O  O29  1  0.64312949  0.56759295  0.43380403  1
  O  O30  1  0.85687051  0.06759295  0.06619597  1
  O  O31  1  0.35687051  0.43240705  0.56619597  1
  O  O32  1  0.40986072  0.90184095  0.37429037  1
  O  O33  1  0.90986072  0.59815905  0.87429037  1
  O  O34  1  0.59013928  0.09815905  0.62570963  1
  O  O35  1  0.09013928  0.40184095  0.12570963  1
  O  O36  1  0.17437249  0.68959848  0.29208753  1
  O  O37  1  0.67437249  0.81040152  0.79208753  1
  O  O38  1  0.82562751  0.31040152  0.70791247  1
  O  O39  1  0.32562751  0.18959848  0.20791247  1
