# generated using pymatgen
data_K2Al2Si3O10
_symmetry_space_group_name_H-M   'P 1'
_cell_length_a   6.65402504
_cell_length_b   9.26554697
_cell_length_c   9.85403583
_cell_angle_alpha   83.03668673
_cell_angle_beta   70.26748810
_cell_angle_gamma   68.95669167
_symmetry_Int_Tables_number   1
_chemical_formula_structural   K2Al2Si3O10
_chemical_formula_sum   'K4 Al4 Si6 O20'
_cell_volume   533.72019367
_cell_formula_units_Z   2
loop_
 _symmetry_equiv_pos_site_id
 _symmetry_equiv_pos_as_xyz
  1  'x, y, z'
loop_
 _atom_site_type_symbol
 _atom_site_label
 _atom_site_symmetry_multiplicity
 _atom_site_fract_x
 _atom_site_fract_y
 _atom_site_fract_z
 _atom_site_occupancy
  K  K0  1  0.73994837  0.41768418  0.87486128  1
  K  K1  1  0.03249383  0.58231582  0.12513872  1
  K  K2  1  0.90763255  0.08231582  0.37486128  1
  K  K3  1  0.36480964  0.91768418  0.62513872  1
  Al  Al4  1  0.30095043  0.42957567  0.69562479  1
  Al  Al5  1  0.42615089  0.57042433  0.30437521  1
  Al  Al6  1  0.48052609  0.07042433  0.19562479  1
  Al  Al7  1  0.74657522  0.92957567  0.80437521  1
  Si  Si8  1  0.74481095  0.50000000  0.50000000  1
  Si  Si9  1  0.99481095  -0.00000000  0.00000000  1
  Si  Si10  1  0.29342124  0.21140997  0.94337228  1
  Si  Si11  1  0.44820349  0.78859003  0.05662772  1
  Si  Si12  1  0.25483121  0.28859003  0.44337228  1
  Si  Si13  1  0.98679352  0.71140997  0.55662772  1
  O  O14  1  0.57451726  0.44314177  0.63853803  1
  O  O15  1  0.65619707  0.55685823  0.36146197  1
  O  O16  1  0.76765903  0.05685823  0.13853803  1
  O  O17  1  0.96305530  0.94314177  0.86146197  1
  O  O18  1  0.21870453  0.38987404  0.88368514  1
  O  O19  1  0.49226371  0.61012596  0.11631486  1
  O  O20  1  0.35857857  0.11012596  0.38368514  1
  O  O21  1  0.85238967  0.88987404  0.61631486  1
  O  O22  1  0.27105360  0.28831959  0.60476183  1
  O  O23  1  0.16413502  0.71168041  0.39523817  1
  O  O24  1  0.30937319  0.21168041  0.10476183  1
  O  O25  1  0.62581544  0.78831959  0.89523817  1
  O  O26  1  0.53018156  0.10998528  0.82986061  1
  O  O27  1  0.47002746  0.89001472  0.17013939  1
  O  O28  1  0.39016685  0.39001472  0.32986061  1
  O  O29  1  0.11004218  0.60998528  0.67013939  1
  O  O30  1  0.08687316  0.14739682  0.94909745  1
  O  O31  1  0.18336743  0.85260318  0.05090255  1
  O  O32  1  0.98426998  0.35260318  0.44909745  1
  O  O33  1  0.78597060  0.64739682  0.55090255  1
