# generated using pymatgen
data_Li4P2O7
_symmetry_space_group_name_H-M   'P 1'
_cell_length_a   8.59658396
_cell_length_b   5.30050306
_cell_length_c   13.34537372
_cell_angle_alpha   90.00000000
_cell_angle_beta   104.46636473
_cell_angle_gamma   90.00000000
_symmetry_Int_Tables_number   1
_chemical_formula_structural   Li4P2O7
_chemical_formula_sum   'Li16 P8 O28'
_cell_volume   588.81814539
_cell_formula_units_Z   4
loop_
 _symmetry_equiv_pos_site_id
 _symmetry_equiv_pos_as_xyz
  1  'x, y, z'
loop_
 _atom_site_type_symbol
 _atom_site_label
 _atom_site_symmetry_multiplicity
 _atom_site_fract_x
 _atom_site_fract_y
 _atom_site_fract_z
 _atom_site_occupancy
  Li  Li0  1  0.75276945  0.68037506  0.30921023  1
  Li  Li1  1  0.25276945  0.81962494  0.80921023  1
  Li  Li2  1  0.24723055  0.31962494  0.69078977  1
  Li  Li3  1  0.74723055  0.18037506  0.19078977  1
  Li  Li4  1  0.47031691  0.65814671  0.41934097  1
  Li  Li5  1  0.97031691  0.84185329  0.91934097  1
  Li  Li6  1  0.52968309  0.34185329  0.58065903  1
  Li  Li7  1  0.02968309  0.15814671  0.08065903  1
  Li  Li8  1  0.34803863  0.86593950  0.23368944  1
  Li  Li9  1  0.84803863  0.63406050  0.73368944  1
  Li  Li10  1  0.65196137  0.13406050  0.76631056  1
  Li  Li11  1  0.15196137  0.36593950  0.26631056  1
  Li  Li12  1  0.95752570  0.31228639  0.41812274  1
  Li  Li13  1  0.45752570  0.18771361  0.91812274  1
  Li  Li14  1  0.04247430  0.68771361  0.58187726  1
  Li  Li15  1  0.54247430  0.81228639  0.08187726  1
  P  P16  1  0.37554518  0.34401202  0.11036156  1
  P  P17  1  0.87554518  0.15598798  0.61036156  1
  P  P18  1  0.62445482  0.65598798  0.88963844  1
  P  P19  1  0.12445482  0.84401202  0.38963844  1
  P  P20  1  0.63792445  0.15539612  0.39313608  1
  P  P21  1  0.13792445  0.34460388  0.89313608  1
  P  P22  1  0.36207555  0.84460388  0.60686392  1
  P  P23  1  0.86207555  0.65539612  0.10686392  1
  O  O24  1  0.51419678  0.30223648  0.43280884  1
  O  O25  1  0.01419678  0.19776352  0.93280884  1
  O  O26  1  0.48580322  0.69776352  0.56719116  1
  O  O27  1  0.98580322  0.80223648  0.06719116  1
  O  O28  1  0.57709492  0.90087682  0.34326187  1
  O  O29  1  0.07709492  0.59912318  0.84326187  1
  O  O30  1  0.42290508  0.09912318  0.65673813  1
  O  O31  1  0.92290508  0.40087682  0.15673813  1
  O  O32  1  0.72525138  0.31072595  0.32631065  1
  O  O33  1  0.22525138  0.18927405  0.82631065  1
  O  O34  1  0.27474862  0.68927405  0.67368935  1
  O  O35  1  0.77474862  0.81072595  0.17368935  1
  O  O36  1  0.78304815  0.07563064  0.49225658  1
  O  O37  1  0.28304815  0.42436936  0.99225658  1
  O  O38  1  0.21695185  0.92436936  0.50774342  1
  O  O39  1  0.71695185  0.57563064  0.00774342  1
  O  O40  1  0.98697804  0.67469971  0.40516758  1
  O  O41  1  0.48697804  0.82530029  0.90516758  1
  O  O42  1  0.01302196  0.32530029  0.59483242  1
  O  O43  1  0.51302196  0.17469971  0.09483242  1
  O  O44  1  0.07076877  0.09830699  0.34028622  1
  O  O45  1  0.57076877  0.40169301  0.84028622  1
  O  O46  1  0.92923123  0.90169301  0.65971378  1
  O  O47  1  0.42923123  0.59830699  0.15971378  1
  O  O48  1  0.24103918  0.70166349  0.33860449  1
  O  O49  1  0.74103918  0.79833651  0.83860449  1
  O  O50  1  0.75896082  0.29833651  0.66139551  1
  O  O51  1  0.25896082  0.20166349  0.16139551  1
