# generated using pymatgen
data_Cu3SbSe4
_symmetry_space_group_name_H-M   'P 1'
_cell_length_a   3.99795739
_cell_length_b   3.99795739
_cell_length_c   13.67849304
_cell_angle_alpha   81.59668461
_cell_angle_beta   98.40331539
_cell_angle_gamma   120.00000000
_symmetry_Int_Tables_number   1
_chemical_formula_structural   Cu3SbSe4
_chemical_formula_sum   'Cu3 Sb1 Se4'
_cell_volume   186.62592797
_cell_formula_units_Z   1
loop_
 _symmetry_equiv_pos_site_id
 _symmetry_equiv_pos_as_xyz
  1  'x, y, z'
loop_
 _atom_site_type_symbol
 _atom_site_label
 _atom_site_symmetry_multiplicity
 _atom_site_fract_x
 _atom_site_fract_y
 _atom_site_fract_z
 _atom_site_occupancy
  Cu  Cu0  1  0.00625923  0.99374077  0.01877769  1
  Cu  Cu1  1  0.74973194  0.25026806  0.24919582  1
  Cu  Cu2  1  0.48761857  0.51238143  0.46285571  1
  Sb  Sb3  1  0.25752794  0.74247206  0.77258381  1
  Se  Se4  1  0.06506991  0.93493009  0.19520972  1
  Se  Se5  1  0.80935582  0.19064418  0.42806746  1
  Se  Se6  1  0.54899003  0.45100997  0.64697010  1
  Se  Se7  1  0.32544656  0.67455344  0.97633969  1
