# generated using pymatgen
data_CaMg30ZnO32
_symmetry_space_group_name_H-M   'P 1'
_cell_length_a   8.56497170
_cell_length_b   8.56314251
_cell_length_c   8.56314251
_cell_angle_alpha   90.00000000
_cell_angle_beta   90.00000000
_cell_angle_gamma   90.00000000
_symmetry_Int_Tables_number   1
_chemical_formula_structural   CaMg30ZnO32
_chemical_formula_sum   'Ca1 Mg30 Zn1 O32'
_cell_volume   628.04718846
_cell_formula_units_Z   1
loop_
 _symmetry_equiv_pos_site_id
 _symmetry_equiv_pos_as_xyz
  1  'x, y, z'
loop_
 _atom_site_type_symbol
 _atom_site_label
 _atom_site_symmetry_multiplicity
 _atom_site_fract_x
 _atom_site_fract_y
 _atom_site_fract_z
 _atom_site_occupancy
  Ca  Ca0  1  -0.00000000  0.00000000  0.00000000  1
  Mg  Mg1  1  -0.00000000  0.00000000  0.50000000  1
  Mg  Mg2  1  -0.00000000  0.50000000  0.00000000  1
  Mg  Mg3  1  0.50000000  0.00000000  0.00000000  1
  Mg  Mg4  1  0.50000000  0.00000000  0.50000000  1
  Mg  Mg5  1  0.50000000  0.50000000  0.00000000  1
  Mg  Mg6  1  0.50000000  0.50000000  0.50000000  1
  Mg  Mg7  1  -0.00000000  0.25301059  0.25301059  1
  Mg  Mg8  1  -0.00000000  0.25301059  0.74698941  1
  Mg  Mg9  1  -0.00000000  0.74698941  0.25301059  1
  Mg  Mg10  1  -0.00000000  0.74698941  0.74698941  1
  Mg  Mg11  1  0.50000000  0.25029668  0.25029668  1
  Mg  Mg12  1  0.50000000  0.25029668  0.74970332  1
  Mg  Mg13  1  0.50000000  0.74970332  0.25029668  1
  Mg  Mg14  1  0.50000000  0.74970332  0.74970332  1
  Mg  Mg15  1  0.25289448  0.00000000  0.25306861  1
  Mg  Mg16  1  0.25289448  0.00000000  0.74693139  1
  Mg  Mg17  1  0.25023063  0.50000000  0.25023742  1
  Mg  Mg18  1  0.25023063  0.50000000  0.74976258  1
  Mg  Mg19  1  0.74710552  0.00000000  0.25306861  1
  Mg  Mg20  1  0.74710552  0.00000000  0.74693139  1
  Mg  Mg21  1  0.74976937  0.50000000  0.25023742  1
  Mg  Mg22  1  0.74976937  0.50000000  0.74976258  1
  Mg  Mg23  1  0.25289448  0.25306861  0.00000000  1
  Mg  Mg24  1  0.25023063  0.25023742  0.50000000  1
  Mg  Mg25  1  0.25289448  0.74693139  0.00000000  1
  Mg  Mg26  1  0.25023063  0.74976258  0.50000000  1
  Mg  Mg27  1  0.74710552  0.25306861  -0.00000000  1
  Mg  Mg28  1  0.74976937  0.25023742  0.50000000  1
  Mg  Mg29  1  0.74710552  0.74693139  -0.00000000  1
  Mg  Mg30  1  0.74976937  0.74976258  0.50000000  1
  Zn  Zn31  1  -0.00000000  0.50000000  0.50000000  1
  O  O32  1  0.26244932  0.00000000  -0.00000000  1
  O  O33  1  0.25239548  0.00000000  0.50000000  1
  O  O34  1  0.25239548  0.50000000  0.00000000  1
  O  O35  1  0.25394937  0.50000000  0.50000000  1
  O  O36  1  0.73755068  0.00000000  0.00000000  1
  O  O37  1  0.74760452  0.00000000  0.50000000  1
  O  O38  1  0.74760452  0.50000000  -0.00000000  1
  O  O39  1  0.74605063  0.50000000  0.50000000  1
  O  O40  1  0.24957453  0.25006204  0.25006204  1
  O  O41  1  0.24957453  0.25006204  0.74993796  1
  O  O42  1  0.24957453  0.74993796  0.25006204  1
  O  O43  1  0.24957453  0.74993796  0.74993796  1
  O  O44  1  0.75042547  0.25006204  0.25006204  1
  O  O45  1  0.75042547  0.25006204  0.74993796  1
  O  O46  1  0.75042547  0.74993796  0.25006204  1
  O  O47  1  0.75042547  0.74993796  0.74993796  1
  O  O48  1  -0.00000000  0.00000000  0.26227701  1
  O  O49  1  -0.00000000  0.00000000  0.73772299  1
  O  O50  1  -0.00000000  0.50000000  0.24887392  1
  O  O51  1  -0.00000000  0.50000000  0.75112608  1
  O  O52  1  0.50000000  0.00000000  0.25217155  1
  O  O53  1  0.50000000  0.00000000  0.74782845  1
  O  O54  1  0.50000000  0.50000000  0.25016505  1
  O  O55  1  0.50000000  0.50000000  0.74983495  1
  O  O56  1  -0.00000000  0.26227701  0.00000000  1
  O  O57  1  -0.00000000  0.24887392  0.50000000  1
  O  O58  1  -0.00000000  0.73772299  0.00000000  1
  O  O59  1  -0.00000000  0.75112608  0.50000000  1
  O  O60  1  0.50000000  0.25217155  -0.00000000  1
  O  O61  1  0.50000000  0.25016505  0.50000000  1
  O  O62  1  0.50000000  0.74782845  0.00000000  1
  O  O63  1  0.50000000  0.74983495  0.50000000  1
