# generated using pymatgen
data_Na2B4O7
_symmetry_space_group_name_H-M   'P 1'
_cell_length_a   7.72900102
_cell_length_b   7.72900557
_cell_length_c   21.69243800
_cell_angle_alpha   89.99968238
_cell_angle_beta   90.00032216
_cell_angle_gamma   119.99986311
_symmetry_Int_Tables_number   1
_chemical_formula_structural   Na2B4O7
_chemical_formula_sum   'Na18 B36 O63'
_cell_volume   1122.24216059
_cell_formula_units_Z   9
loop_
 _symmetry_equiv_pos_site_id
 _symmetry_equiv_pos_as_xyz
  1  'x, y, z'
loop_
 _atom_site_type_symbol
 _atom_site_label
 _atom_site_symmetry_multiplicity
 _atom_site_fract_x
 _atom_site_fract_y
 _atom_site_fract_z
 _atom_site_occupancy
  Na  Na0  1  0.99465648  0.35001252  0.50583598  1
  Na  Na1  1  0.64998628  0.64456696  0.17250211  1
  Na  Na2  1  0.35541315  0.00540189  0.83915898  1
  Na  Na3  1  0.35000891  0.99465781  0.49416805  1
  Na  Na4  1  0.64457144  0.64999444  0.82750145  1
  Na  Na5  1  0.00540051  0.35540823  0.16084483  1
  Na  Na6  1  0.29389190  0.98138165  0.33242502  1
  Na  Na7  1  0.01861595  0.31253521  0.99909876  1
  Na  Na8  1  0.68746676  0.70609968  0.66576140  1
  Na  Na9  1  0.98138247  0.29389194  0.66757081  1
  Na  Na10  1  0.31253715  0.01861380  0.00089545  1
  Na  Na11  1  0.70609830  0.68746665  0.33423299  1
  Na  Na12  1  0.99999551  0.32351331  0.33334578  1
  Na  Na13  1  0.67651510  0.67650628  0.00001553  1
  Na  Na14  1  0.32352109  0.00001119  0.66668159  1
  Na  Na15  1  0.63064664  0.63066592  0.49998249  1
  Na  Na16  1  0.36939329  0.99997430  0.16666258  1
  Na  Na17  1  0.00002301  0.36941408  0.83330248  1
  B  B18  1  0.01529866  0.00503189  0.43657583  1
  B  B19  1  0.99497919  0.01026606  0.10324081  1
  B  B20  1  0.98973180  0.98469019  0.76991464  1
  B  B21  1  0.00503360  0.01529464  0.56342093  1
  B  B22  1  0.01025984  0.99497728  0.89675591  1
  B  B23  1  0.98469390  0.98973822  0.23008185  1
  B  B24  1  0.68586706  0.33763820  0.40718973  1
  B  B25  1  0.66235010  0.34822330  0.07385216  1
  B  B26  1  0.65177937  0.31413690  0.74052150  1
  B  B27  1  0.33763827  0.68586579  0.59280951  1
  B  B28  1  0.34822288  0.66235134  0.92614691  1
  B  B29  1  0.31413800  0.65178012  0.25947786  1
  B  B30  1  0.32523986  0.65812405  0.38713317  1
  B  B31  1  0.34188042  0.66711463  0.05379359  1
  B  B32  1  0.33288646  0.67475689  0.72045702  1
  B  B33  1  0.65812485  0.32524083  0.61286579  1
  B  B34  1  0.66711511  0.34188055  0.94620512  1
  B  B35  1  0.67475629  0.33288645  0.27954188  1
  B  B36  1  0.67156128  0.98937359  0.41744662  1
  B  B37  1  0.01062777  0.68218704  0.08410356  1
  B  B38  1  0.31780339  0.32842169  0.75078566  1
  B  B39  1  0.98937411  0.67156303  0.58255089  1
  B  B40  1  0.68218887  0.01062894  0.91589386  1
  B  B41  1  0.32842122  0.31780105  0.24921167  1
  B  B42  1  0.33938177  0.32621864  0.40631035  1
  B  B43  1  0.67378033  0.01315858  0.07297554  1
  B  B44  1  0.98683685  0.66061089  0.73964554  1
  B  B45  1  0.32622056  0.33937635  0.59368800  1
  B  B46  1  0.01315026  0.67377934  0.92702269  1
  B  B47  1  0.66061645  0.98684518  0.26035264  1
  B  B48  1  0.00883405  0.65616734  0.42825575  1
  B  B49  1  0.34382713  0.35267001  0.09493049  1
  B  B50  1  0.64734539  0.99115614  0.76158039  1
  B  B51  1  0.65617244  0.00883400  0.57174338  1
  B  B52  1  0.35266498  0.34382248  0.90506846  1
  B  B53  1  0.99115652  0.64735204  0.23841856  1
  O  O54  1  0.79871797  0.91205506  0.42152978  1
  O  O55  1  0.08797047  0.88667039  0.08819854  1
  O  O56  1  0.11333376  0.20128326  0.75488149  1
  O  O57  1  0.91205558  0.79871338  0.57846377  1
  O  O58  1  0.88666637  0.08797081  0.91179493  1
  O  O59  1  0.20128738  0.11333797  0.24511188  1
  O  O60  1  0.13842773  0.18939183  0.39810971  1
  O  O61  1  0.81063479  0.94906744  0.06475601  1
  O  O62  1  0.05096461  0.86156412  0.73143878  1
  O  O63  1  0.18940087  0.13842287  0.60188573  1
  O  O64  1  0.94905289  0.81062608  0.93523944  1
  O  O65  1  0.86156988  0.05097942  0.26855645  1
  O  O66  1  0.07844506  0.85632095  0.41871222  1
  O  O67  1  0.14367933  0.22213014  0.08538849  1
  O  O68  1  0.77788796  0.92155242  0.75203178  1
  O  O69  1  0.85631978  0.07844200  0.58128525  1
  O  O70  1  0.22212781  0.14368001  0.91460892  1
  O  O71  1  0.92155488  0.77789031  0.24796554  1
  O  O72  1  0.06673583  0.06673774  0.49999715  1
  O  O73  1  0.93323020  0.99996921  0.16666087  1
  O  O74  1  -0.00002603  0.93323293  0.83333362  1
  O  O75  1  0.74496093  0.18964696  0.42809859  1
  O  O76  1  0.81034860  0.55532424  0.09474716  1
  O  O77  1  0.44468943  0.25503225  0.76143848  1
  O  O78  1  0.18964897  0.74495702  0.57189937  1
  O  O79  1  0.55531884  0.81034844  0.90525069  1
  O  O80  1  0.25503680  0.44469457  0.23855921  1
  O  O81  1  0.73856402  0.39151520  0.34301859  1
  O  O82  1  0.60847522  0.34703535  0.00968383  1
  O  O83  1  0.65296027  0.26147155  0.67634794  1
  O  O84  1  0.39151442  0.73856662  0.65698107  1
  O  O85  1  0.34703874  0.60847688  0.99031606  1
  O  O86  1  0.26146951  0.65295688  0.32365174  1
  O  O87  1  0.46961590  0.25740676  0.42029752  1
  O  O88  1  0.74256169  0.21219004  0.08698644  1
  O  O89  1  0.78780554  0.53037447  0.75365781  1
  O  O90  1  0.25740625  0.46961388  0.57970397  1
  O  O91  1  0.21218812  0.74256260  0.91301484  1
  O  O92  1  0.53037729  0.78780819  0.24634352  1
  O  O93  1  0.81099468  0.52486732  0.44415769  1
  O  O94  1  0.47513836  0.28614732  0.11083674  1
  O  O95  1  0.71386696  0.18898744  0.77748481  1
  O  O96  1  0.52486884  0.81099006  0.55584142  1
  O  O97  1  0.28614233  0.47513744  0.88916249  1
  O  O98  1  0.18899138  0.71387279  0.22251456  1
  O  O99  1  0.47270155  0.86863589  0.40398797  1
  O  O100  1  0.13135149  0.60406146  0.07062855  1
  O  O101  1  0.39591483  0.52727142  0.73730579  1
  O  O102  1  0.86863830  0.47270365  0.59601300  1
  O  O103  1  0.60406135  0.13134963  0.92937243  1
  O  O104  1  0.52726910  0.39591503  0.26269497  1
  O  O105  1  0.41540174  0.52936917  0.39935990  1
  O  O106  1  0.47062685  0.88602056  0.06602469  1
  O  O107  1  0.11396944  0.58459405  0.73268084  1
  O  O108  1  0.52937227  0.41540197  0.60063997  1
  O  O109  1  0.88601835  0.47062443  0.93397530  1
  O  O110  1  0.58459388  0.11397184  0.26731890  1
  O  O111  1  0.14118154  0.58486492  0.42549181  1
  O  O112  1  0.41511378  0.55632134  0.09217215  1
  O  O113  1  0.44369756  0.85879814  0.75882279  1
  O  O114  1  0.58486804  0.14118055  0.57450767  1
  O  O115  1  0.55631676  0.41511072  0.90782702  1
  O  O116  1  0.85880002  0.44370314  0.24117676  1
