# generated using pymatgen
data_Cu6SbAs
_symmetry_space_group_name_H-M   'P 1'
_cell_length_a   7.69835406
_cell_length_b   7.69835919
_cell_length_c   7.72139833
_cell_angle_alpha   90.00000000
_cell_angle_beta   90.00000000
_cell_angle_gamma   90.28870325
_symmetry_Int_Tables_number   1
_chemical_formula_structural   Cu6SbAs
_chemical_formula_sum   'Cu24 Sb4 As4'
_cell_volume   457.60050593
_cell_formula_units_Z   4
loop_
 _symmetry_equiv_pos_site_id
 _symmetry_equiv_pos_as_xyz
  1  'x, y, z'
loop_
 _atom_site_type_symbol
 _atom_site_label
 _atom_site_symmetry_multiplicity
 _atom_site_fract_x
 _atom_site_fract_y
 _atom_site_fract_z
 _atom_site_occupancy
  Cu  Cu0  1  0.33811693  0.50341314  0.79486512  1
  Cu  Cu1  1  0.49689627  0.79183259  0.67019055  1
  Cu  Cu2  1  0.21065445  0.67210523  0.50000000  1
  Cu  Cu3  1  0.66185076  0.50358511  0.20480659  1
  Cu  Cu4  1  0.49660666  0.20529501  0.33811576  1
  Cu  Cu5  1  0.79211487  0.33658337  0.50000000  1
  Cu  Cu6  1  0.66185076  0.50358511  0.79519341  1
  Cu  Cu7  1  0.49660666  0.20529501  0.66188424  1
  Cu  Cu8  1  0.33811693  0.50341314  0.20513488  1
  Cu  Cu9  1  0.49689627  0.79183259  0.32980945  1
  Cu  Cu10  1  0.79206704  0.66335954  0.50000000  1
  Cu  Cu11  1  0.21015105  0.32811168  0.50000000  1
  Cu  Cu12  1  0.00341257  0.83811365  0.29486612  1
  Cu  Cu13  1  0.29183545  0.99689898  0.17018945  1
  Cu  Cu14  1  0.17210719  0.71065439  0.00000000  1
  Cu  Cu15  1  0.00358481  0.16185025  0.70480708  1
  Cu  Cu16  1  0.70529494  0.99660477  0.83811602  1
  Cu  Cu17  1  0.83658012  0.29212099  0.00000000  1
  Cu  Cu18  1  0.00358481  0.16185025  0.29519292  1
  Cu  Cu19  1  0.70529494  0.99660477  0.16188398  1
  Cu  Cu20  1  0.00341257  0.83811365  0.70513388  1
  Cu  Cu21  1  0.29183545  0.99689898  0.82981055  1
  Cu  Cu22  1  0.16336187  0.29206701  0.00000000  1
  Cu  Cu23  1  0.82811295  0.71015328  0.00000000  1
  Sb  Sb24  1  0.00023770  0.50023836  0.75000010  1
  Sb  Sb25  1  0.49969449  0.24885105  0.00000000  1
  Sb  Sb26  1  0.74885061  0.99969497  0.50000000  1
  Sb  Sb27  1  0.00023770  0.50023836  0.24999990  1
  As  As28  1  0.49876422  0.50087906  0.50000000  1
  As  As29  1  0.00087847  0.99876461  0.00000000  1
  As  As30  1  0.50103846  0.74995244  0.00000000  1
  As  As31  1  0.24995203  0.00103870  0.50000000  1
