# generated using pymatgen
data_CaCoAs2O7
_symmetry_space_group_name_H-M   'P 1'
_cell_length_a   7.46493917
_cell_length_b   9.11328572
_cell_length_c   9.46713254
_cell_angle_alpha   90.00000000
_cell_angle_beta   110.63323033
_cell_angle_gamma   90.00000000
_symmetry_Int_Tables_number   1
_chemical_formula_structural   CaCoAs2O7
_chemical_formula_sum   'Ca4 Co4 As8 O28'
_cell_volume   602.73780083
_cell_formula_units_Z   4
loop_
 _symmetry_equiv_pos_site_id
 _symmetry_equiv_pos_as_xyz
  1  'x, y, z'
loop_
 _atom_site_type_symbol
 _atom_site_label
 _atom_site_symmetry_multiplicity
 _atom_site_fract_x
 _atom_site_fract_y
 _atom_site_fract_z
 _atom_site_occupancy
  Ca  Ca0  1  0.25720646  0.93342469  0.93586750  1
  Ca  Ca1  1  0.74279354  0.43342469  0.56413250  1
  Ca  Ca2  1  0.74279354  0.06657531  0.06413250  1
  Ca  Ca3  1  0.25720646  0.56657531  0.43586750  1
  Co  Co4  1  0.80474427  0.05278197  0.69515412  1
  Co  Co5  1  0.19525573  0.55278197  0.80484588  1
  Co  Co6  1  0.19525573  0.94721803  0.30484588  1
  Co  Co7  1  0.80474427  0.44721803  0.19515412  1
  As  As8  1  0.41990261  0.23934161  0.73419141  1
  As  As9  1  0.58009739  0.73934161  0.76580859  1
  As  As10  1  0.58009739  0.76065839  0.26580859  1
  As  As11  1  0.41990261  0.26065839  0.23419041  1
  As  As12  1  0.01466632  0.29680004  0.95388995  1
  As  As13  1  0.98533368  0.79680004  0.54611005  1
  As  As14  1  0.98533368  0.70319996  0.04611005  1
  As  As15  1  0.01466632  0.20319996  0.45388995  1
  O  O16  1  0.85071980  0.31123640  0.04110086  1
  O  O17  1  0.14928020  0.81123640  0.45889914  1
  O  O18  1  0.14928020  0.68876360  0.95889914  1
  O  O19  1  0.85071980  0.18876360  0.54110086  1
  O  O20  1  0.34382114  0.41742122  0.71963589  1
  O  O21  1  0.65617886  0.91742122  0.78036411  1
  O  O22  1  0.65617886  0.58257878  0.28036411  1
  O  O23  1  0.34382114  0.08257878  0.21963589  1
  O  O24  1  0.42923655  0.13783202  0.88747023  1
  O  O25  1  0.57076345  0.63783202  0.61252977  1
  O  O26  1  0.57076345  0.86216798  0.11252977  1
  O  O27  1  0.42923655  0.36216798  0.38747023  1
  O  O28  1  0.24546940  0.14570908  0.57598521  1
  O  O29  1  0.75453060  0.64570908  0.92401479  1
  O  O30  1  0.75453060  0.85429092  0.42401479  1
  O  O31  1  0.24546940  0.35429092  0.07598521  1
  O  O32  1  0.98751036  0.08824966  0.30613810  1
  O  O33  1  0.01248964  0.58824966  0.19386190  1
  O  O34  1  0.01248964  0.91175034  0.69386190  1
  O  O35  1  0.98751036  0.41175034  0.80613810  1
  O  O36  1  0.62922397  0.26696774  0.20042771  1
  O  O37  1  0.37077603  0.76696774  0.29957229  1
  O  O38  1  0.37077603  0.73303226  0.79957229  1
  O  O39  1  0.62922397  0.23303226  0.70042771  1
  O  O40  1  0.00550999  0.38364055  0.40350226  1
  O  O41  1  0.99449001  0.88364055  0.09649774  1
  O  O42  1  0.99449001  0.61635945  0.59649774  1
  O  O43  1  0.00550999  0.11635945  0.90350226  1
