# generated using pymatgen
data_CaMg30VO32
_symmetry_space_group_name_H-M   'P 1'
_cell_length_a   8.57147458
_cell_length_b   8.57429673
_cell_length_c   8.57429673
_cell_angle_alpha   90.00000000
_cell_angle_beta   90.00000000
_cell_angle_gamma   90.00000000
_symmetry_Int_Tables_number   1
_chemical_formula_structural   CaMg30VO32
_chemical_formula_sum   'Ca1 Mg30 V1 O32'
_cell_volume   630.16250603
_cell_formula_units_Z   1
loop_
 _symmetry_equiv_pos_site_id
 _symmetry_equiv_pos_as_xyz
  1  'x, y, z'
loop_
 _atom_site_type_symbol
 _atom_site_label
 _atom_site_symmetry_multiplicity
 _atom_site_fract_x
 _atom_site_fract_y
 _atom_site_fract_z
 _atom_site_occupancy
  Ca  Ca0  1  0.00000000  0.00000000  0.00000000  1
  Mg  Mg1  1  0.00000000  0.00000000  0.50000000  1
  Mg  Mg2  1  0.00000000  0.50000000  0.00000000  1
  Mg  Mg3  1  0.50000000  0.00000000  0.00000000  1
  Mg  Mg4  1  0.50000000  0.00000000  0.50000000  1
  Mg  Mg5  1  0.50000000  0.50000000  0.00000000  1
  Mg  Mg6  1  0.50000000  0.50000000  0.50000000  1
  Mg  Mg7  1  0.00000000  0.25266274  0.25266274  1
  Mg  Mg8  1  0.00000000  0.25266274  0.74733726  1
  Mg  Mg9  1  0.00000000  0.74733726  0.25266274  1
  Mg  Mg10  1  0.00000000  0.74733726  0.74733726  1
  Mg  Mg11  1  0.50000000  0.25032025  0.25032025  1
  Mg  Mg12  1  0.50000000  0.25032025  0.74967975  1
  Mg  Mg13  1  0.50000000  0.74967975  0.25032025  1
  Mg  Mg14  1  0.50000000  0.74967975  0.74967975  1
  Mg  Mg15  1  0.25293798  0.00000000  0.25309779  1
  Mg  Mg16  1  0.25293798  0.00000000  0.74690221  1
  Mg  Mg17  1  0.25054884  0.50000000  0.24987985  1
  Mg  Mg18  1  0.25054884  0.50000000  0.75012015  1
  Mg  Mg19  1  0.74706202  0.00000000  0.25309779  1
  Mg  Mg20  1  0.74706202  0.00000000  0.74690221  1
  Mg  Mg21  1  0.74945116  0.50000000  0.24987985  1
  Mg  Mg22  1  0.74945116  0.50000000  0.75012015  1
  Mg  Mg23  1  0.25293798  0.25309779  0.00000000  1
  Mg  Mg24  1  0.25054884  0.24987985  0.50000000  1
  Mg  Mg25  1  0.25293798  0.74690221  0.00000000  1
  Mg  Mg26  1  0.25054884  0.75012015  0.50000000  1
  Mg  Mg27  1  0.74706202  0.25309779  0.00000000  1
  Mg  Mg28  1  0.74945116  0.24987985  0.50000000  1
  Mg  Mg29  1  0.74706202  0.74690221  0.00000000  1
  Mg  Mg30  1  0.74945116  0.75012015  0.50000000  1
  V  V31  1  0.00000000  0.50000000  0.50000000  1
  O  O32  1  0.26241064  0.00000000  0.00000000  1
  O  O33  1  0.25247478  0.00000000  0.50000000  1
  O  O34  1  0.25247478  0.50000000  0.00000000  1
  O  O35  1  0.25486450  0.50000000  0.50000000  1
  O  O36  1  0.73758936  0.00000000  0.00000000  1
  O  O37  1  0.74752522  0.00000000  0.50000000  1
  O  O38  1  0.74752522  0.50000000  0.00000000  1
  O  O39  1  0.74513550  0.50000000  0.50000000  1
  O  O40  1  0.24965673  0.25007372  0.25007372  1
  O  O41  1  0.24965673  0.25007372  0.74992628  1
  O  O42  1  0.24965673  0.74992628  0.25007372  1
  O  O43  1  0.24965673  0.74992628  0.74992628  1
  O  O44  1  0.75034327  0.25007372  0.25007372  1
  O  O45  1  0.75034327  0.25007372  0.74992628  1
  O  O46  1  0.75034327  0.74992628  0.25007372  1
  O  O47  1  0.75034327  0.74992628  0.74992628  1
  O  O48  1  0.00000000  0.00000000  0.26211857  1
  O  O49  1  0.00000000  0.00000000  0.73788143  1
  O  O50  1  0.00000000  0.50000000  0.24708908  1
  O  O51  1  0.00000000  0.50000000  0.75291092  1
  O  O52  1  0.50000000  0.00000000  0.25207794  1
  O  O53  1  0.50000000  0.00000000  0.74792206  1
  O  O54  1  0.50000000  0.50000000  0.25028469  1
  O  O55  1  0.50000000  0.50000000  0.74971531  1
  O  O56  1  0.00000000  0.26211857  0.00000000  1
  O  O57  1  0.00000000  0.24708908  0.50000000  1
  O  O58  1  0.00000000  0.73788143  0.00000000  1
  O  O59  1  0.00000000  0.75291092  0.50000000  1
  O  O60  1  0.50000000  0.25207794  0.00000000  1
  O  O61  1  0.50000000  0.25028469  0.50000000  1
  O  O62  1  0.50000000  0.74792206  0.00000000  1
  O  O63  1  0.50000000  0.74971531  0.50000000  1
