# generated using pymatgen
data_YMo(WO4)2
_symmetry_space_group_name_H-M   'P 1'
_cell_length_a   5.38522313
_cell_length_b   5.82203473
_cell_length_c   9.95300125
_cell_angle_alpha   89.99683098
_cell_angle_beta   92.50046997
_cell_angle_gamma   90.00167868
_symmetry_Int_Tables_number   1
_chemical_formula_structural   YMo(WO4)2
_chemical_formula_sum   'Y2 Mo2 W4 O16'
_cell_volume   311.75889081
_cell_formula_units_Z   2
loop_
 _symmetry_equiv_pos_site_id
 _symmetry_equiv_pos_as_xyz
  1  'x, y, z'
loop_
 _atom_site_type_symbol
 _atom_site_label
 _atom_site_symmetry_multiplicity
 _atom_site_fract_x
 _atom_site_fract_y
 _atom_site_fract_z
 _atom_site_occupancy
  Y  Y0  1  0.24974794  0.66954735  0.25000545  1
  Y  Y1  1  0.75025106  0.33045165  0.74999455  1
  Mo  Mo2  1  0.74976576  0.33987805  0.25006811  1
  Mo  Mo3  1  0.25023424  0.66012095  0.74993189  1
  W  W4  1  0.25236981  0.15602962  0.49660811  1
  W  W5  1  0.24761965  0.15593330  0.00342357  1
  W  W6  1  0.74763019  0.84397038  0.50339189  1
  W  W7  1  0.75238035  0.84406670  0.99657643  1
  O  O8  1  0.40466865  0.36430027  0.13725156  1
  O  O9  1  0.09471139  0.36460365  0.36304931  1
  O  O10  1  0.59533135  0.63569873  0.86274844  1
  O  O11  1  0.90528761  0.63539535  0.63695069  1
  O  O12  1  0.43835778  0.89351961  0.61045129  1
  O  O13  1  0.06186053  0.89331901  0.88961051  1
  O  O14  1  0.56164222  0.10648039  0.38954871  1
  O  O15  1  0.93813947  0.10668099  0.11038949  1
  O  O16  1  0.87722252  0.62568180  0.12619726  1
  O  O17  1  0.62215341  0.62557805  0.37395402  1
  O  O18  1  0.12277748  0.37431920  0.87380274  1
  O  O19  1  0.37784659  0.37442295  0.62604598  1
  O  O20  1  0.42231794  0.88822776  0.09698398  1
  O  O21  1  0.57768206  0.11177324  0.90301602  1
  O  O22  1  0.07762234  0.88836104  0.40301280  1
  O  O23  1  0.92237766  0.11163996  0.59698720  1
