# generated using pymatgen
data_BaMgTiF7
_symmetry_space_group_name_H-M   'P 1'
_cell_length_a   5.71290017
_cell_length_b   9.68460717
_cell_length_c   10.01736389
_cell_angle_alpha   90.00000000
_cell_angle_beta   90.00000000
_cell_angle_gamma   93.00952496
_symmetry_Int_Tables_number   1
_chemical_formula_structural   BaMgTiF7
_chemical_formula_sum   'Ba4 Mg4 Ti4 F28'
_cell_volume   553.46824849
_cell_formula_units_Z   4
loop_
 _symmetry_equiv_pos_site_id
 _symmetry_equiv_pos_as_xyz
  1  'x, y, z'
loop_
 _atom_site_type_symbol
 _atom_site_label
 _atom_site_symmetry_multiplicity
 _atom_site_fract_x
 _atom_site_fract_y
 _atom_site_fract_z
 _atom_site_occupancy
  Ba  Ba0  1  0.26770013  0.49917042  0.31844860  1
  Ba  Ba1  1  0.73229987  0.00082958  0.81844860  1
  Ba  Ba2  1  0.73229987  0.50082958  0.68155140  1
  Ba  Ba3  1  0.26770013  0.99917042  0.18155140  1
  Mg  Mg4  1  0.69318270  0.80950285  0.39511184  1
  Mg  Mg5  1  0.30681730  0.69049715  0.89511184  1
  Mg  Mg6  1  0.69318270  0.30950285  0.10488816  1
  Mg  Mg7  1  0.30681730  0.19049715  0.60488816  1
  Ti  Ti8  1  0.19410059  0.81174276  0.61032758  1
  Ti  Ti9  1  0.80589941  0.18825724  0.38967242  1
  Ti  Ti10  1  0.19410059  0.31174276  0.88967242  1
  Ti  Ti11  1  0.80589941  0.68825724  0.11032758  1
  F  F12  1  0.12061743  0.12521002  0.44915917  1
  F  F13  1  0.37446713  0.37188496  0.05405464  1
  F  F14  1  0.47850011  0.74917815  0.71526538  1
  F  F15  1  0.52149989  0.25082185  0.28473462  1
  F  F16  1  0.89098486  0.36778990  0.45618925  1
  F  F17  1  0.25826013  0.49735137  0.81029940  1
  F  F18  1  0.02740084  0.75039812  0.78365973  1
  F  F19  1  0.10901514  0.13221010  0.95618925  1
  F  F20  1  0.37446713  0.87188496  0.44594536  1
  F  F21  1  0.52149989  0.75082185  0.21526538  1
  F  F22  1  0.12061743  0.62521002  0.05084083  1
  F  F23  1  0.87938257  0.87478998  0.55084083  1
  F  F24  1  0.97259916  0.74960188  0.28365973  1
  F  F25  1  0.38787017  0.87486347  0.95874265  1
  F  F26  1  0.10901514  0.63221010  0.54381075  1
  F  F27  1  0.89098486  0.86778990  0.04381075  1
  F  F28  1  0.97259916  0.24960188  0.21634027  1
  F  F29  1  0.87938257  0.37478998  0.94915917  1
  F  F30  1  0.61212983  0.62513653  0.45874265  1
  F  F31  1  0.62553287  0.62811504  0.94594536  1
  F  F32  1  0.61212983  0.12513653  0.04125735  1
  F  F33  1  0.02740084  0.25039812  0.71634027  1
  F  F34  1  0.38787017  0.37486347  0.54125735  1
  F  F35  1  0.74173987  0.00264863  0.31029940  1
  F  F36  1  0.74173987  0.50264863  0.18970060  1
  F  F37  1  0.25826013  0.99735137  0.68970060  1
  F  F38  1  0.62553287  0.12811504  0.55405464  1
  F  F39  1  0.47850011  0.24917815  0.78473462  1
