# generated using pymatgen
data_ZnCrP2O7
_symmetry_space_group_name_H-M   'P 1'
_cell_length_a   5.53358885
_cell_length_b   6.54613510
_cell_length_c   7.58975172
_cell_angle_alpha   81.35118266
_cell_angle_beta   88.15271508
_cell_angle_gamma   71.38746994
_symmetry_Int_Tables_number   1
_chemical_formula_structural   ZnCrP2O7
_chemical_formula_sum   'Zn2 Cr2 P4 O14'
_cell_volume   257.54990994
_cell_formula_units_Z   2
loop_
 _symmetry_equiv_pos_site_id
 _symmetry_equiv_pos_as_xyz
  1  'x, y, z'
loop_
 _atom_site_type_symbol
 _atom_site_label
 _atom_site_symmetry_multiplicity
 _atom_site_fract_x
 _atom_site_fract_y
 _atom_site_fract_z
 _atom_site_occupancy
  Zn  Zn0  1  0.33126615  0.65911832  0.64403765  1
  Zn  Zn1  1  0.66872761  0.34086879  0.35595443  1
  Cr  Cr2  1  0.27676011  0.15057603  0.18284046  1
  Cr  Cr3  1  0.72321976  0.84944578  0.81719493  1
  P  P4  1  0.18333105  0.67667108  0.10301935  1
  P  P5  1  0.81667275  0.32333556  0.89697886  1
  P  P6  1  0.21673180  0.20812481  0.61138637  1
  P  P7  1  0.78327300  0.79186148  0.38861241  1
  O  O8  1  0.09204278  0.69845596  0.90958495  1
  O  O9  1  0.90796649  0.30152622  0.09041720  1
  O  O10  1  0.29391154  0.84985161  0.13705640  1
  O  O11  1  0.70606757  0.15018204  0.86292966  1
  O  O12  1  0.36239333  0.44348891  0.16844648  1
  O  O13  1  0.63763141  0.55652837  0.83156628  1
  O  O14  1  0.61623424  0.64472602  0.44096536  1
  O  O15  1  0.38376143  0.35526400  0.55902336  1
  O  O16  1  0.03047317  0.21880130  0.46360233  1
  O  O17  1  0.96953780  0.78117863  0.53639210  1
  O  O18  1  0.07414138  0.30266423  0.78343724  1
  O  O19  1  0.62368838  0.03126256  0.32184399  1
  O  O20  1  0.37631657  0.96872974  0.67815803  1
  O  O21  1  0.92585467  0.69733559  0.21655214  1
