# generated using pymatgen
data_CeMg2
_symmetry_space_group_name_H-M   'P 1'
_cell_length_a   11.47585333
_cell_length_b   3.20997227
_cell_length_c   8.34032765
_cell_angle_alpha   90.00000000
_cell_angle_beta   103.72282598
_cell_angle_gamma   90.00000000
_symmetry_Int_Tables_number   1
_chemical_formula_structural   CeMg2
_chemical_formula_sum   'Ce4 Mg8'
_cell_volume   298.46398334
_cell_formula_units_Z   4
loop_
 _symmetry_equiv_pos_site_id
 _symmetry_equiv_pos_as_xyz
  1  'x, y, z'
loop_
 _atom_site_type_symbol
 _atom_site_label
 _atom_site_symmetry_multiplicity
 _atom_site_fract_x
 _atom_site_fract_y
 _atom_site_fract_z
 _atom_site_occupancy
  Ce  Ce0  1  0.35543871  -0.00000000  0.47253187  1
  Ce  Ce1  1  0.14456129  0.50000000  0.52746813  1
  Ce  Ce2  1  0.85543871  0.50000000  0.47253187  1
  Ce  Ce3  1  0.64456129  0.00000000  0.52746813  1
  Mg  Mg4  1  0.19129030  0.50000000  0.12746731  1
  Mg  Mg5  1  0.47182086  0.50000000  0.18325425  1
  Mg  Mg6  1  0.02817914  -0.00000000  0.81674575  1
  Mg  Mg7  1  0.30870970  -0.00000000  0.87253269  1
  Mg  Mg8  1  0.69129030  -0.00000000  0.12746731  1
  Mg  Mg9  1  0.97182086  0.00000000  0.18325425  1
  Mg  Mg10  1  0.52817914  0.50000000  0.81674575  1
  Mg  Mg11  1  0.80870970  0.50000000  0.87253269  1
