# generated using pymatgen
data_ZnFeP2O7
_symmetry_space_group_name_H-M   'P 1'
_cell_length_a   5.73652878
_cell_length_b   6.40292677
_cell_length_c   7.41238196
_cell_angle_alpha   83.18688716
_cell_angle_beta   87.24150715
_cell_angle_gamma   71.59101110
_symmetry_Int_Tables_number   1
_chemical_formula_structural   ZnFeP2O7
_chemical_formula_sum   'Zn2 Fe2 P4 O14'
_cell_volume   256.48784043
_cell_formula_units_Z   2
loop_
 _symmetry_equiv_pos_site_id
 _symmetry_equiv_pos_as_xyz
  1  'x, y, z'
loop_
 _atom_site_type_symbol
 _atom_site_label
 _atom_site_symmetry_multiplicity
 _atom_site_fract_x
 _atom_site_fract_y
 _atom_site_fract_z
 _atom_site_occupancy
  Zn  Zn0  1  0.33193192  0.66091752  0.65853040  1
  Zn  Zn1  1  0.66806794  0.33908409  0.34147272  1
  Fe  Fe2  1  0.25250206  0.15183023  0.20570673  1
  Fe  Fe3  1  0.74748977  0.84818897  0.79429259  1
  P  P4  1  0.18720323  0.67536940  0.09815163  1
  P  P5  1  0.81279971  0.32462675  0.90184761  1
  P  P6  1  0.22081899  0.20654376  0.61314848  1
  P  P7  1  0.77918082  0.79345692  0.38685175  1
  O  O8  1  0.10893506  0.69811396  0.89938215  1
  O  O9  1  0.89106591  0.30186814  0.10061889  1
  O  O10  1  0.29616755  0.84998477  0.13973007  1
  O  O11  1  0.70383245  0.15001875  0.86026658  1
  O  O12  1  0.35237004  0.43847683  0.16098773  1
  O  O13  1  0.64763454  0.56151898  0.83901698  1
  O  O14  1  0.62311048  0.63716378  0.43338072  1
  O  O15  1  0.37688917  0.36283551  0.56661770  1
  O  O16  1  0.04977306  0.21588607  0.45711203  1
  O  O17  1  0.95023003  0.78411252  0.54288737  1
  O  O18  1  0.06729478  0.29662562  0.78953449  1
  O  O19  1  0.62114176  0.03272457  0.32689807  1
  O  O20  1  0.37885947  0.96727666  0.67310385  1
  O  O21  1  0.93270425  0.70337320  0.21046244  1
