# generated using pymatgen
data_MgV2CuO7
_symmetry_space_group_name_H-M   'P 1'
_cell_length_a   8.37894060
_cell_length_b   10.19836505
_cell_length_c   10.23669842
_cell_angle_alpha   92.88770240
_cell_angle_beta   90.00000000
_cell_angle_gamma   90.00000000
_symmetry_Int_Tables_number   1
_chemical_formula_structural   MgV2CuO7
_chemical_formula_sum   'Mg6 V12 Cu6 O42'
_cell_volume   873.63043108
_cell_formula_units_Z   6
loop_
 _symmetry_equiv_pos_site_id
 _symmetry_equiv_pos_as_xyz
  1  'x, y, z'
loop_
 _atom_site_type_symbol
 _atom_site_label
 _atom_site_symmetry_multiplicity
 _atom_site_fract_x
 _atom_site_fract_y
 _atom_site_fract_z
 _atom_site_occupancy
  Mg  Mg0  1  0.43358098  0.15339553  0.57714514  1
  Mg  Mg1  1  0.93343779  0.50000000  0.75000000  1
  Mg  Mg2  1  0.43358098  0.84660447  0.92285486  1
  Mg  Mg3  1  0.06656221  0.50000000  0.25000000  1
  Mg  Mg4  1  0.56641902  0.84660447  0.42285486  1
  Mg  Mg5  1  0.56641902  0.15339553  0.07714514  1
  V  V6  1  0.21428549  0.16671311  0.28557518  1
  V  V7  1  0.73845047  0.16313724  0.38168978  1
  V  V8  1  0.26154953  0.16313724  0.88168978  1
  V  V9  1  0.78571451  0.16671311  0.78557518  1
  V  V10  1  0.28523766  0.47661528  0.95746431  1
  V  V11  1  0.73845047  0.83686276  0.11831022  1
  V  V12  1  0.71476234  0.47661528  0.45746431  1
  V  V13  1  0.26154953  0.83686276  0.61831022  1
  V  V14  1  0.28523766  0.52338472  0.54253569  1
  V  V15  1  0.71476234  0.52338472  0.04253569  1
  V  V16  1  0.78571451  0.83328689  0.71442482  1
  V  V17  1  0.21428549  0.83328689  0.21442482  1
  Cu  Cu18  1  0.92748717  0.80166607  0.41092195  1
  Cu  Cu19  1  0.07251283  0.19833393  0.58907805  1
  Cu  Cu20  1  0.43429424  0.50000000  0.25000000  1
  Cu  Cu21  1  0.92748717  0.19833393  0.08907805  1
  Cu  Cu22  1  0.56570576  0.50000000  0.75000000  1
  Cu  Cu23  1  0.07251283  0.80166607  0.91092195  1
  O  O24  1  0.75531000  0.19232354  0.95634969  1
  O  O25  1  0.75763926  0.82995435  0.28943624  1
  O  O26  1  0.85221540  0.00000000  0.75000000  1
  O  O27  1  0.89440287  0.51283330  0.11267009  1
  O  O28  1  0.39561626  0.95285871  0.57422716  1
  O  O29  1  0.92574901  0.27424445  0.72127653  1
  O  O30  1  0.36148746  0.30987538  0.94064596  1
  O  O31  1  0.10559713  0.51283330  0.61267009  1
  O  O32  1  0.73940432  0.48363931  0.87397772  1
  O  O33  1  0.39561626  0.04714129  0.92577284  1
  O  O34  1  0.73940432  0.51636069  0.62602228  1
  O  O35  1  0.41993534  0.57606392  0.88042715  1
  O  O36  1  0.91566879  0.85030190  0.03854453  1
  O  O37  1  0.07425099  0.27424445  0.22127653  1
  O  O38  1  0.63851254  0.69012462  0.05935404  1
  O  O39  1  0.36148746  0.69012462  0.55935404  1
  O  O40  1  0.92574901  0.72575555  0.77872347  1
  O  O41  1  0.60438374  0.04714129  0.42577284  1
  O  O42  1  0.24469000  0.19232354  0.45634969  1
  O  O43  1  0.58006466  0.42393608  0.11957285  1
  O  O44  1  0.39101428  0.81515067  0.28938552  1
  O  O45  1  0.26059568  0.51636069  0.12602228  1
  O  O46  1  0.08433121  0.85030190  0.53854453  1
  O  O47  1  0.26059568  0.48363931  0.37397772  1
  O  O48  1  0.89440287  0.48716670  0.38732991  1
  O  O49  1  0.58006466  0.57606392  0.38042715  1
  O  O50  1  0.10559713  0.48716670  0.88732991  1
  O  O51  1  0.60898572  0.81515067  0.78938552  1
  O  O52  1  0.60898572  0.18484933  0.71061448  1
  O  O53  1  0.08433121  0.14969810  0.96145547  1
  O  O54  1  0.07425099  0.72575555  0.27872347  1
  O  O55  1  0.75531000  0.80767646  0.54365031  1
  O  O56  1  0.14778460  0.00000000  0.25000000  1
  O  O57  1  0.24236074  0.82995435  0.78943624  1
  O  O58  1  0.60438374  0.95285871  0.07422716  1
  O  O59  1  0.91566879  0.14969810  0.46145547  1
  O  O60  1  0.24469000  0.80767646  0.04365031  1
  O  O61  1  0.75763926  0.17004565  0.21056376  1
  O  O62  1  0.41993534  0.42393608  0.61957285  1
  O  O63  1  0.63851254  0.30987538  0.44064596  1
  O  O64  1  0.24236074  0.17004565  0.71056376  1
  O  O65  1  0.39101428  0.18484933  0.21061448  1
