# generated using pymatgen
data_CaNiP2O7
_symmetry_space_group_name_H-M   'P 1'
_cell_length_a   6.22406544
_cell_length_b   6.56936308
_cell_length_c   7.17734616
_cell_angle_alpha   82.90525176
_cell_angle_beta   89.23978059
_cell_angle_gamma   68.27665302
_symmetry_Int_Tables_number   1
_chemical_formula_structural   CaNiP2O7
_chemical_formula_sum   'Ca2 Ni2 P4 O14'
_cell_volume   270.37173524
_cell_formula_units_Z   2
loop_
 _symmetry_equiv_pos_site_id
 _symmetry_equiv_pos_as_xyz
  1  'x, y, z'
loop_
 _atom_site_type_symbol
 _atom_site_label
 _atom_site_symmetry_multiplicity
 _atom_site_fract_x
 _atom_site_fract_y
 _atom_site_fract_z
 _atom_site_occupancy
  Ca  Ca0  1  0.30194459  0.71196507  0.63994185  1
  Ca  Ca1  1  0.69804635  0.28804010  0.36005560  1
  Ni  Ni2  1  0.25373382  0.12959464  0.19710097  1
  Ni  Ni3  1  0.74628153  0.87040549  0.80287714  1
  P  P4  1  0.16274591  0.66119718  0.11996422  1
  P  P5  1  0.83727988  0.33879624  0.88004611  1
  P  P6  1  0.24404175  0.21654023  0.61903755  1
  P  P7  1  0.75593365  0.78346161  0.38095371  1
  O  O8  1  0.07168259  0.73766252  0.91424881  1
  O  O9  1  0.92836994  0.26231888  0.08574474  1
  O  O10  1  0.25107944  0.81710505  0.20347105  1
  O  O11  1  0.74892651  0.18288853  0.79654941  1
  O  O12  1  0.33078024  0.41859546  0.14616297  1
  O  O13  1  0.66925209  0.58139765  0.85385148  1
  O  O14  1  0.63745152  0.62665006  0.45222460  1
  O  O15  1  0.36254375  0.37334560  0.54777739  1
  O  O16  1  0.11531494  0.15946026  0.46235657  1
  O  O17  1  0.88465064  0.84055653  0.53763683  1
  O  O18  1  0.06139801  0.34632748  0.76201206  1
  O  O19  1  0.59383078  0.00225724  0.27060922  1
  O  O20  1  0.40612138  0.99774115  0.72940450  1
  O  O21  1  0.93859271  0.65369303  0.23797522  1
