# generated using pymatgen
data_CaNiSnP2O9
_symmetry_space_group_name_H-M   'P 1'
_cell_length_a   6.60833386
_cell_length_b   7.77174542
_cell_length_c   14.32125244
_cell_angle_alpha   89.98661936
_cell_angle_beta   90.00469348
_cell_angle_gamma   90.06159114
_symmetry_Int_Tables_number   1
_chemical_formula_structural   CaNiSnP2O9
_chemical_formula_sum   'Ca4 Ni4 Sn4 P8 O36'
_cell_volume   735.51456530
_cell_formula_units_Z   4
loop_
 _symmetry_equiv_pos_site_id
 _symmetry_equiv_pos_as_xyz
  1  'x, y, z'
loop_
 _atom_site_type_symbol
 _atom_site_label
 _atom_site_symmetry_multiplicity
 _atom_site_fract_x
 _atom_site_fract_y
 _atom_site_fract_z
 _atom_site_occupancy
  Ca  Ca0  1  0.74999295  0.91745850  0.79068638  1
  Ca  Ca1  1  0.75000241  0.58254481  0.29072663  1
  Ca  Ca2  1  0.25000852  0.08254575  0.20931551  1
  Ca  Ca3  1  0.24999699  0.41746086  0.70926843  1
  Ni  Ni4  1  0.49999952  0.00000100  0.00000076  1
  Ni  Ni5  1  0.49999760  0.49999668  0.49999785  1
  Ni  Ni6  1  0.00000088  0.49999607  0.49999783  1
  Ni  Ni7  1  0.00000026  0.00000046  0.00000086  1
  Sn  Sn8  1  0.74990568  0.34613180  0.88292479  1
  Sn  Sn9  1  0.25009456  0.65386850  0.11707625  1
  Sn  Sn10  1  0.24996021  0.84606910  0.61705108  1
  Sn  Sn11  1  0.75004082  0.15392333  0.38294792  1
  P  P12  1  0.24978884  0.34979517  0.93341161  1
  P  P13  1  0.75021115  0.65020637  0.06658911  1
  P  P14  1  0.74999221  0.84999510  0.56664904  1
  P  P15  1  0.25000821  0.15000236  0.43335053  1
  P  P16  1  0.74992559  0.38133384  0.68888080  1
  P  P17  1  0.25007379  0.61866660  0.31111878  1
  P  P18  1  0.25005946  0.88129566  0.81105460  1
  P  P19  1  0.74994146  0.11870543  0.18894641  1
  O  O20  1  0.05536585  0.60582442  0.36878915  1
  O  O21  1  0.55540448  0.39421807  0.63114790  1
  O  O22  1  0.94473191  0.10597752  0.13132104  1
  O  O23  1  0.44455872  0.89417798  0.86882878  1
  O  O24  1  0.94463139  0.39417547  0.63120929  1
  O  O25  1  0.44459695  0.60578240  0.36885053  1
  O  O26  1  0.05527017  0.89402437  0.86868043  1
  O  O27  1  0.55544107  0.10582349  0.13117267  1
  O  O28  1  0.25001632  0.32646603  0.48080011  1
  O  O29  1  0.74998242  0.67353444  0.51919691  1
  O  O30  1  0.75076354  0.82664286  0.01923629  1
  O  O31  1  0.24923630  0.17336012  0.98076590  1
  O  O32  1  0.74961963  0.11542093  0.93806302  1
  O  O33  1  0.25037991  0.88458028  0.06193958  1
  O  O34  1  0.24981056  0.61533710  0.56190284  1
  O  O35  1  0.75018741  0.38465637  0.43809332  1
  O  O36  1  0.74988078  0.21064164  0.74804381  1
  O  O37  1  0.25011919  0.78935878  0.25195657  1
  O  O38  1  0.25008171  0.71060440  0.75191120  1
  O  O39  1  0.74991805  0.28939433  0.24809024  1
  O  O40  1  0.43275436  0.13013204  0.36492686  1
  O  O41  1  0.93275946  0.86993150  0.63509061  1
  O  O42  1  0.56734329  0.63019596  0.13500637  1
  O  O43  1  0.06713726  0.36991479  0.86489650  1
  O  O44  1  0.56724573  0.86986559  0.63507328  1
  O  O45  1  0.06724208  0.13006627  0.36490957  1
  O  O46  1  0.43265707  0.36980614  0.86499467  1
  O  O47  1  0.93286247  0.63008668  0.13510453  1
  O  O48  1  0.74988500  0.97795423  0.27033729  1
  O  O49  1  0.25011578  0.02204237  0.72966161  1
  O  O50  1  0.25002951  0.47798302  0.22970559  1
  O  O51  1  0.74997042  0.52201646  0.77029454  1
  O  O52  1  0.75000878  0.99602693  0.49514860  1
  O  O53  1  0.24999165  0.00397480  0.50485380  1
  O  O54  1  0.25004029  0.49589763  0.00488641  1
  O  O55  1  0.74995936  0.50410525  0.99511404  1
