# generated using pymatgen
data_ZnCo(GeO3)2
_symmetry_space_group_name_H-M   'P 1'
_cell_length_a   5.48633387
_cell_length_b   9.21989156
_cell_length_c   9.77907130
_cell_angle_alpha   90.00000000
_cell_angle_beta   102.01205512
_cell_angle_gamma   90.00000000
_symmetry_Int_Tables_number   1
_chemical_formula_structural   ZnCo(GeO3)2
_chemical_formula_sum   'Zn4 Co4 Ge8 O24'
_cell_volume   483.82757889
_cell_formula_units_Z   4
loop_
 _symmetry_equiv_pos_site_id
 _symmetry_equiv_pos_as_xyz
  1  'x, y, z'
loop_
 _atom_site_type_symbol
 _atom_site_label
 _atom_site_symmetry_multiplicity
 _atom_site_fract_x
 _atom_site_fract_y
 _atom_site_fract_z
 _atom_site_occupancy
  Zn  Zn0  1  0.45503165  0.50068054  0.24685108  1
  Zn  Zn1  1  0.04496835  0.00068054  0.75314892  1
  Zn  Zn2  1  0.54496835  0.49931946  0.75314892  1
  Zn  Zn3  1  0.95503165  0.99931946  0.24685108  1
  Co  Co4  1  0.96013928  0.65299298  0.24570914  1
  Co  Co5  1  0.53986072  0.15299298  0.75429086  1
  Co  Co6  1  0.03986072  0.34700702  0.75429086  1
  Co  Co7  1  0.46013928  0.84700702  0.24570914  1
  Ge  Ge8  1  0.81015114  0.33699573  0.05544589  1
  Ge  Ge9  1  0.68984886  0.83699573  0.94455411  1
  Ge  Ge10  1  0.18984886  0.66300427  0.94455411  1
  Ge  Ge11  1  0.31015114  0.16300427  0.05544589  1
  Ge  Ge12  1  0.24212019  0.34137554  0.45376480  1
  Ge  Ge13  1  0.25787981  0.84137554  0.54623520  1
  Ge  Ge14  1  0.75787981  0.65862446  0.54623520  1
  Ge  Ge15  1  0.74212019  0.15862446  0.45376480  1
  O  O16  1  0.50167333  0.28343447  0.38264290  1
  O  O17  1  0.99832667  0.78343447  0.61735710  1
  O  O18  1  0.49832667  0.71656553  0.61735710  1
  O  O19  1  0.00167333  0.21656553  0.38264290  1
  O  O20  1  0.14331969  0.31441364  0.10860636  1
  O  O21  1  0.35668031  0.81441364  0.89139464  1
  O  O22  1  0.85668031  0.68558636  0.89139464  1
  O  O23  1  0.64331969  0.18558636  0.10860636  1
  O  O24  1  0.70294721  0.98990729  0.37242578  1
  O  O25  1  0.79705279  0.48990729  0.62757422  1
  O  O26  1  0.29705279  0.01009271  0.62757422  1
  O  O27  1  0.20294721  0.51009271  0.37242578  1
  O  O28  1  0.22597787  0.01011133  0.13918950  1
  O  O29  1  0.27402213  0.51011133  0.86081050  1
  O  O30  1  0.77402213  0.98988867  0.86081050  1
  O  O31  1  0.72597787  0.48988867  0.13918950  1
  O  O32  1  0.75257907  0.33462562  0.86940164  1
  O  O33  1  0.74742093  0.83462562  0.13059836  1
  O  O34  1  0.24742093  0.66537438  0.13059836  1
  O  O35  1  0.25257907  0.16537438  0.86940164  1
  O  O36  1  0.31483960  0.33557101  0.63818664  1
  O  O37  1  0.18516040  0.83557101  0.36181336  1
  O  O38  1  0.68516040  0.66442899  0.36181336  1
  O  O39  1  0.81483960  0.16442899  0.63818664  1
