# generated using pymatgen
data_CaFeP2O7
_symmetry_space_group_name_H-M   'P 1'
_cell_length_a   7.45517697
_cell_length_b   8.87163041
_cell_length_c   8.83104619
_cell_angle_alpha   90.00000000
_cell_angle_beta   111.25695892
_cell_angle_gamma   90.00000000
_symmetry_Int_Tables_number   1
_chemical_formula_structural   CaFeP2O7
_chemical_formula_sum   'Ca4 Fe4 P8 O28'
_cell_volume   544.34296857
_cell_formula_units_Z   4
loop_
 _symmetry_equiv_pos_site_id
 _symmetry_equiv_pos_as_xyz
  1  'x, y, z'
loop_
 _atom_site_type_symbol
 _atom_site_label
 _atom_site_symmetry_multiplicity
 _atom_site_fract_x
 _atom_site_fract_y
 _atom_site_fract_z
 _atom_site_occupancy
  Ca  Ca0  1  0.14386944  0.94965028  0.87242139  1
  Ca  Ca1  1  0.35613056  0.44965028  0.62757861  1
  Ca  Ca2  1  0.64386944  0.55034972  0.37242139  1
  Ca  Ca3  1  0.85613056  0.05034972  0.12757861  1
  Fe  Fe4  1  0.38547902  0.07281237  0.61447414  1
  Fe  Fe5  1  0.61452098  0.92718763  0.38552586  1
  Fe  Fe6  1  0.11452098  0.57281237  0.88552586  1
  Fe  Fe7  1  0.88547902  0.42718763  0.11447414  1
  P  P8  1  0.18853663  0.72590220  0.23756939  1
  P  P9  1  0.43555514  0.24404191  0.96436813  1
  P  P10  1  0.68853663  0.77409780  0.73756939  1
  P  P11  1  0.93555514  0.25595809  0.46436813  1
  P  P12  1  0.31146337  0.22590220  0.26243061  1
  P  P13  1  0.06444486  0.74404191  0.53563187  1
  P  P14  1  0.56444486  0.75595809  0.03563187  1
  P  P15  1  0.81146337  0.27409780  0.76243061  1
  O  O16  1  0.36047718  0.18004154  0.10326757  1
  O  O17  1  0.58813815  0.62850364  0.66143248  1
  O  O18  1  0.08813815  0.87149636  0.16143248  1
  O  O19  1  0.33038176  0.38936771  0.89036245  1
  O  O20  1  0.63952282  0.81995846  0.89673243  1
  O  O21  1  0.38724902  0.08785435  0.37502516  1
  O  O22  1  0.66961824  0.61063229  0.10963755  1
  O  O23  1  0.37967511  0.10783844  0.84723486  1
  O  O24  1  0.15403228  0.23981118  0.54435561  1
  O  O25  1  0.61275098  0.91214565  0.62497484  1
  O  O26  1  0.88724902  0.41214565  0.87502516  1
  O  O27  1  0.90869795  0.76473464  0.80470299  1
  O  O28  1  0.59130205  0.26473464  0.69529701  1
  O  O29  1  0.86047718  0.31995846  0.60326757  1
  O  O30  1  0.11275098  0.58785435  0.12497484  1
  O  O31  1  0.91186185  0.12850364  0.83856752  1
  O  O32  1  0.09130205  0.23526536  0.19529701  1
  O  O33  1  0.62032489  0.89216156  0.15276514  1
  O  O34  1  0.65403228  0.26018882  0.04435561  1
  O  O35  1  0.34596772  0.73981118  0.95564439  1
  O  O36  1  0.16961824  0.88936771  0.60963755  1
  O  O37  1  0.87967511  0.39216156  0.34723486  1
  O  O38  1  0.12032489  0.60783844  0.65276514  1
  O  O39  1  0.41186185  0.37149636  0.33856752  1
  O  O40  1  0.40869795  0.73526536  0.30470299  1
  O  O41  1  0.83038176  0.11063229  0.39036245  1
  O  O42  1  0.84596772  0.76018882  0.45564439  1
  O  O43  1  0.13952282  0.68004154  0.39673243  1
