# generated using pymatgen
data_CaTiMn(PO4)3
_symmetry_space_group_name_H-M   'P 1'
_cell_length_a   8.87469417
_cell_length_b   8.87469439
_cell_length_c   8.87469459
_cell_angle_alpha   58.43259698
_cell_angle_beta   58.43259985
_cell_angle_gamma   58.43260500
_symmetry_Int_Tables_number   1
_chemical_formula_structural   CaTiMn(PO4)3
_chemical_formula_sum   'Ca2 Ti2 Mn2 P6 O24'
_cell_volume   476.52008033
_cell_formula_units_Z   2
loop_
 _symmetry_equiv_pos_site_id
 _symmetry_equiv_pos_as_xyz
  1  'x, y, z'
loop_
 _atom_site_type_symbol
 _atom_site_label
 _atom_site_symmetry_multiplicity
 _atom_site_fract_x
 _atom_site_fract_y
 _atom_site_fract_z
 _atom_site_occupancy
  Ca  Ca0  1  0.99791226  0.99791226  0.99791226  1
  Ca  Ca1  1  0.49791226  0.49791226  0.49791226  1
  Ti  Ti2  1  0.14644755  0.14644755  0.14644755  1
  Ti  Ti3  1  0.64644755  0.64644755  0.64644755  1
  Mn  Mn4  1  0.35357438  0.35357438  0.35357438  1
  Mn  Mn5  1  0.85357438  0.85357438  0.85357438  1
  P  P6  1  0.03972132  0.46058732  0.75113379  1
  P  P7  1  0.46058732  0.75113379  0.03972132  1
  P  P8  1  0.75113379  0.03972132  0.46058732  1
  P  P9  1  0.25113379  0.96058732  0.53972132  1
  P  P10  1  0.53972132  0.25113379  0.96058732  1
  P  P11  1  0.96058732  0.53972132  0.25113379  1
  O  O12  1  0.12055890  0.51287338  0.29295776  1
  O  O13  1  0.29295776  0.12055890  0.51287338  1
  O  O14  1  0.05577418  0.27223687  0.92213104  1
  O  O15  1  0.51287338  0.29295776  0.12055890  1
  O  O16  1  0.01287338  0.62055890  0.79295776  1
  O  O17  1  0.22647938  0.43748240  0.58360788  1
  O  O18  1  0.27223687  0.92213104  0.05577418  1
  O  O19  1  0.43748240  0.58360788  0.22647938  1
  O  O20  1  0.20609264  0.99858065  0.37184430  1
  O  O21  1  0.58360788  0.22647938  0.43748240  1
  O  O22  1  0.08360788  0.93748240  0.72647938  1
  O  O23  1  0.37184430  0.20609264  0.99858065  1
  O  O24  1  0.62055890  0.79295776  0.01287338  1
  O  O25  1  0.92213104  0.05577418  0.27223687  1
  O  O26  1  0.42213104  0.77223687  0.55577418  1
  O  O27  1  0.79295776  0.01287338  0.62055890  1
  O  O28  1  0.55577418  0.42213104  0.77223687  1
  O  O29  1  0.72647938  0.08360788  0.93748240  1
  O  O30  1  0.77223687  0.55577418  0.42213104  1
  O  O31  1  0.99858065  0.37184430  0.20609264  1
  O  O32  1  0.49858065  0.70609264  0.87184430  1
  O  O33  1  0.93748240  0.72647938  0.08360788  1
  O  O34  1  0.70609264  0.87184430  0.49858065  1
  O  O35  1  0.87184430  0.49858065  0.70609264  1
