# generated using pymatgen
data_BaMgMnF7
_symmetry_space_group_name_H-M   'P 1'
_cell_length_a   5.77480106
_cell_length_b   9.58921837
_cell_length_c   9.96885359
_cell_angle_alpha   90.00000000
_cell_angle_beta   90.00000000
_cell_angle_gamma   93.75995567
_symmetry_Int_Tables_number   1
_chemical_formula_structural   BaMgMnF7
_chemical_formula_sum   'Ba4 Mg4 Mn4 F28'
_cell_volume   550.84529756
_cell_formula_units_Z   4
loop_
 _symmetry_equiv_pos_site_id
 _symmetry_equiv_pos_as_xyz
  1  'x, y, z'
loop_
 _atom_site_type_symbol
 _atom_site_label
 _atom_site_symmetry_multiplicity
 _atom_site_fract_x
 _atom_site_fract_y
 _atom_site_fract_z
 _atom_site_occupancy
  Ba  Ba0  1  0.27250802  0.50010414  0.31619156  1
  Ba  Ba1  1  0.72749198  0.99989586  0.81619156  1
  Ba  Ba2  1  0.72749198  0.49989586  0.68380844  1
  Ba  Ba3  1  0.27250802  0.00010414  0.18380844  1
  Mg  Mg4  1  0.69304191  0.80947306  0.39793311  1
  Mg  Mg5  1  0.30695809  0.69052694  0.89793311  1
  Mg  Mg6  1  0.69304191  0.30947306  0.10206689  1
  Mg  Mg7  1  0.30695809  0.19052694  0.60206689  1
  Mn  Mn8  1  0.19246329  0.81209606  0.61026828  1
  Mn  Mn9  1  0.80753671  0.18790394  0.38973172  1
  Mn  Mn10  1  0.19246329  0.31209606  0.88973172  1
  Mn  Mn11  1  0.80753671  0.68790394  0.11026828  1
  F  F12  1  0.13004468  0.12450543  0.44374245  1
  F  F13  1  0.37173611  0.36707915  0.04652592  1
  F  F14  1  0.47894750  0.74344993  0.72232737  1
  F  F15  1  0.52105250  0.25655007  0.27767263  1
  F  F16  1  0.88476550  0.36450956  0.45850987  1
  F  F17  1  0.26019328  0.49273748  0.81357926  1
  F  F18  1  0.03368924  0.74875266  0.77893956  1
  F  F19  1  0.11523450  0.13549044  0.95850987  1
  F  F20  1  0.37173611  0.86707915  0.45347408  1
  F  F21  1  0.52105250  0.75655007  0.22232737  1
  F  F22  1  0.13004468  0.62450543  0.05625755  1
  F  F23  1  0.86995532  0.87549457  0.55625755  1
  F  F24  1  0.96631076  0.75124734  0.27893956  1
  F  F25  1  0.38187482  0.87805277  0.95910920  1
  F  F26  1  0.11523450  0.63549044  0.54149013  1
  F  F27  1  0.88476550  0.86450956  0.04149013  1
  F  F28  1  0.96631076  0.25124734  0.22106044  1
  F  F29  1  0.86995532  0.37549457  0.94374245  1
  F  F30  1  0.61812518  0.62194723  0.45910920  1
  F  F31  1  0.62826389  0.63292085  0.95347408  1
  F  F32  1  0.61812518  0.12194723  0.04089080  1
  F  F33  1  0.03368924  0.24875266  0.72106044  1
  F  F34  1  0.38187482  0.37805277  0.54089080  1
  F  F35  1  0.73980672  0.00726252  0.31357926  1
  F  F36  1  0.73980672  0.50726252  0.18642074  1
  F  F37  1  0.26019328  0.99273748  0.68642074  1
  F  F38  1  0.62826389  0.13292085  0.54652592  1
  F  F39  1  0.47894750  0.24344993  0.77767263  1
