# generated using pymatgen
data_Mg2Ta2CoO8
_symmetry_space_group_name_H-M   'P 1'
_cell_length_a   5.20035940
_cell_length_b   6.00906504
_cell_length_c   10.00361453
_cell_angle_alpha   107.46779703
_cell_angle_beta   90.56293390
_cell_angle_gamma   89.99731633
_symmetry_Int_Tables_number   1
_chemical_formula_structural   Mg2Ta2CoO8
_chemical_formula_sum   'Mg4 Ta4 Co2 O16'
_cell_volume   298.17458899
_cell_formula_units_Z   2
loop_
 _symmetry_equiv_pos_site_id
 _symmetry_equiv_pos_as_xyz
  1  'x, y, z'
loop_
 _atom_site_type_symbol
 _atom_site_label
 _atom_site_symmetry_multiplicity
 _atom_site_fract_x
 _atom_site_fract_y
 _atom_site_fract_z
 _atom_site_occupancy
  Mg  Mg0  1  0.75598201  0.41679341  0.54684100  1
  Mg  Mg1  1  0.74577374  0.87034641  0.45462865  1
  Mg  Mg2  1  0.24581815  0.58400146  0.45408063  1
  Mg  Mg3  1  0.25598497  0.13055947  0.54668316  1
  Ta  Ta4  1  0.74207083  0.27928918  0.23244702  1
  Ta  Ta5  1  0.75992712  0.04809201  0.76876394  1
  Ta  Ta6  1  0.25987971  0.72166387  0.76846404  1
  Ta  Ta7  1  0.24206517  0.95332499  0.23249255  1
  Co  Co8  1  0.75098895  0.64279756  0.00070203  1
  Co  Co9  1  0.25121583  0.35869394  0.00038536  1
  O  O10  1  0.07682137  0.18430497  0.14369684  1
  O  O11  1  0.42493895  0.04162964  0.85733962  1
  O  O12  1  0.92503181  0.81679802  0.85737699  1
  O  O13  1  0.57693541  0.95954404  0.14372006  1
  O  O14  1  0.58695476  0.43021486  0.11607254  1
  O  O15  1  0.91515768  0.31507971  0.88494388  1
  O  O16  1  0.41529670  0.57113309  0.88482832  1
  O  O17  1  0.08710421  0.68608210  0.11607655  1
  O  O18  1  0.45400184  0.29003180  0.37272104  1
  O  O19  1  0.04753920  0.91827687  0.62829786  1
  O  O20  1  0.37894562  0.83832830  0.38351598  1
  O  O21  1  0.12297573  0.45557017  0.61755595  1
  O  O22  1  0.62282919  0.16284502  0.61768122  1
  O  O23  1  0.87877670  0.54532385  0.38350041  1
  O  O24  1  0.95407657  0.08267100  0.37279992  1
  O  O25  1  0.54763179  0.71091128  0.62810144  1
