# generated using pymatgen
data_ZnCrP2O7
_symmetry_space_group_name_H-M   'P 1'
_cell_length_a   7.10595395
_cell_length_b   8.45316076
_cell_length_c   9.61521629
_cell_angle_alpha   90.00000000
_cell_angle_beta   114.00034181
_cell_angle_gamma   90.00000000
_symmetry_Int_Tables_number   1
_chemical_formula_structural   ZnCrP2O7
_chemical_formula_sum   'Zn4 Cr4 P8 O28'
_cell_volume   527.63012562
_cell_formula_units_Z   4
loop_
 _symmetry_equiv_pos_site_id
 _symmetry_equiv_pos_as_xyz
  1  'x, y, z'
loop_
 _atom_site_type_symbol
 _atom_site_label
 _atom_site_symmetry_multiplicity
 _atom_site_fract_x
 _atom_site_fract_y
 _atom_site_fract_z
 _atom_site_occupancy
  Zn  Zn0  1  0.12156629  0.93793378  0.81351635  1
  Zn  Zn1  1  0.37843371  0.43793378  0.68648365  1
  Zn  Zn2  1  0.62156629  0.56206622  0.31351635  1
  Zn  Zn3  1  0.87843371  0.06206622  0.18648365  1
  Cr  Cr4  1  0.37232738  0.06648628  0.61216106  1
  Cr  Cr5  1  0.62767262  0.93351372  0.38783894  1
  Cr  Cr6  1  0.12767262  0.56648628  0.88783894  1
  Cr  Cr7  1  0.87232738  0.43351372  0.11216106  1
  P  P8  1  0.17949407  0.73827806  0.24870839  1
  P  P9  1  0.43404098  0.22843109  0.97252394  1
  P  P10  1  0.67949407  0.76172194  0.74870839  1
  P  P11  1  0.93404098  0.27156891  0.47252394  1
  P  P12  1  0.32050593  0.23827806  0.25129161  1
  P  P13  1  0.06595902  0.72843109  0.52747606  1
  P  P14  1  0.56595902  0.77156891  0.02747606  1
  P  P15  1  0.82050593  0.26172194  0.75129161  1
  O  O16  1  0.34541426  0.18924299  0.09637445  1
  O  O17  1  0.57636413  0.60399166  0.69297261  1
  O  O18  1  0.07636413  0.89600834  0.19297261  1
  O  O19  1  0.34851449  0.38977782  0.89566093  1
  O  O20  1  0.65458574  0.81075701  0.90362555  1
  O  O21  1  0.41138093  0.10225479  0.36342478  1
  O  O22  1  0.65148551  0.61022218  0.10433907  1
  O  O23  1  0.36348539  0.09084225  0.86087643  1
  O  O24  1  0.17169256  0.26084117  0.55429216  1
  O  O25  1  0.58861907  0.89774521  0.63657522  1
  O  O26  1  0.91138093  0.39774521  0.86342478  1
  O  O27  1  0.91620800  0.75508447  0.79987230  1
  O  O28  1  0.58379200  0.25508447  0.70012770  1
  O  O29  1  0.84541426  0.31075701  0.59637445  1
  O  O30  1  0.08861907  0.60225479  0.13657522  1
  O  O31  1  0.92363587  0.10399166  0.80702739  1
  O  O32  1  0.08379200  0.24491553  0.20012770  1
  O  O33  1  0.63651461  0.90915775  0.13912357  1
  O  O34  1  0.67169256  0.23915883  0.05429216  1
  O  O35  1  0.32830744  0.76084117  0.94570784  1
  O  O36  1  0.15148551  0.88977782  0.60433907  1
  O  O37  1  0.86348539  0.40915775  0.36087643  1
  O  O38  1  0.13651461  0.59084225  0.63912357  1
  O  O39  1  0.42363587  0.39600834  0.30702739  1
  O  O40  1  0.41620800  0.74491553  0.29987230  1
  O  O41  1  0.84851449  0.11022218  0.39566093  1
  O  O42  1  0.82830744  0.73915883  0.44570784  1
  O  O43  1  0.15458574  0.68924299  0.40362555  1
