# generated using pymatgen
data_Mn6HO12
_symmetry_space_group_name_H-M   'P 1'
_cell_length_a   5.52554173
_cell_length_b   5.52519872
_cell_length_c   13.91269189
_cell_angle_alpha   88.02246313
_cell_angle_beta   88.01953772
_cell_angle_gamma   64.88235474
_symmetry_Int_Tables_number   1
_chemical_formula_structural   Mn6HO12
_chemical_formula_sum   'Mn12 H2 O24'
_cell_volume   384.26322121
_cell_formula_units_Z   2
loop_
 _symmetry_equiv_pos_site_id
 _symmetry_equiv_pos_as_xyz
  1  'x, y, z'
loop_
 _atom_site_type_symbol
 _atom_site_label
 _atom_site_symmetry_multiplicity
 _atom_site_fract_x
 _atom_site_fract_y
 _atom_site_fract_z
 _atom_site_occupancy
  Mn  Mn0  1  0.25274801  0.75112561  0.49753014  1
  Mn  Mn1  1  0.74717994  0.25077262  0.49932943  1
  Mn  Mn2  1  0.51779566  0.01707497  0.84475705  1
  Mn  Mn3  1  0.01066862  0.51103217  0.84115550  1
  Mn  Mn4  1  0.48191329  0.99246155  0.15476419  1
  Mn  Mn5  1  0.99182971  0.48084675  0.15477542  1
  Mn  Mn6  1  0.50085043  0.50270131  0.99762521  1
  Mn  Mn7  1  0.00058887  0.99696101  0.99943138  1
  Mn  Mn8  1  0.26083533  0.26081227  0.34115938  1
  Mn  Mn9  1  0.76696212  0.76790906  0.34471138  1
  Mn  Mn10  1  0.23144081  0.24205582  0.65473210  1
  Mn  Mn11  1  0.74275704  0.73200762  0.65466081  1
  H  H12  1  0.28816129  0.77700719  0.74207228  1
  H  H13  1  0.52692939  0.53780681  0.24223871  1
  O  O14  1  0.33124114  0.83570871  0.06686746  1
  O  O15  1  0.83568475  0.33131783  0.06618215  1
  O  O16  1  0.66966688  0.16719955  0.92986800  1
  O  O17  1  0.16579484  0.66607650  0.93042628  1
  O  O18  1  0.58582790  0.58146437  0.56675913  1
  O  O19  1  0.08161859  0.08593452  0.56610605  1
  O  O20  1  0.41608163  0.41593239  0.43035218  1
  O  O21  1  0.91722675  0.91986835  0.42975973  1
  O  O22  1  0.83503840  0.83512928  0.09539307  1
  O  O23  1  0.33884385  0.33860695  0.09626010  1
  O  O24  1  0.66503545  0.66931483  0.90224664  1
  O  O25  1  0.16512334  0.16006552  0.90315376  1
  O  O26  1  0.58560263  0.08519900  0.59530293  1
  O  O27  1  0.08899242  0.58911047  0.59620658  1
  O  O28  1  0.41928040  0.91523056  0.40224407  1
  O  O29  1  0.91002184  0.41538959  0.40317821  1
  O  O30  1  0.63662596  0.63836421  0.23104647  1
  O  O31  1  0.14416464  0.14293285  0.22754351  1
  O  O32  1  0.85717575  0.85291406  0.76849479  1
  O  O33  1  0.35189511  0.35757424  0.76817775  1
  O  O34  1  0.38869908  0.88673815  0.73095907  1
  O  O35  1  0.89333809  0.39432797  0.72743321  1
  O  O36  1  0.60271061  0.10723384  0.26848748  1
  O  O37  1  0.10738941  0.60172553  0.26812240  1
