# generated using pymatgen
data_Sr5Ca3MnFe7O20
_symmetry_space_group_name_H-M   'P 1'
_cell_length_a   11.09389055
_cell_length_b   11.43105692
_cell_length_c   17.44052692
_cell_angle_alpha   109.06424158
_cell_angle_beta   108.68177285
_cell_angle_gamma   90.00765639
_symmetry_Int_Tables_number   1
_chemical_formula_structural   Sr5Ca3MnFe7O20
_chemical_formula_sum   'Sr20 Ca12 Mn4 Fe28 O80'
_cell_volume   1966.67249834
_cell_formula_units_Z   4
loop_
 _symmetry_equiv_pos_site_id
 _symmetry_equiv_pos_as_xyz
  1  'x, y, z'
loop_
 _atom_site_type_symbol
 _atom_site_label
 _atom_site_symmetry_multiplicity
 _atom_site_fract_x
 _atom_site_fract_y
 _atom_site_fract_z
 _atom_site_occupancy
  Sr  Sr0  1  0.30670550  0.06148892  0.60892153  1
  Sr  Sr1  1  0.30596937  0.55896402  0.60810133  1
  Sr  Sr2  1  0.80715225  0.06503583  0.60948831  1
  Sr  Sr3  1  0.80938957  0.56173829  0.61028346  1
  Sr  Sr4  1  0.19405967  0.43317805  0.38648478  1
  Sr  Sr5  1  0.19738098  0.43921318  0.89183063  1
  Sr  Sr6  1  0.69490792  0.43391895  0.38704229  1
  Sr  Sr7  1  0.69441426  0.93448668  0.38675422  1
  Sr  Sr8  1  0.69958044  0.93790288  0.89504382  1
  Sr  Sr9  1  0.05922369  0.29812220  0.61115508  1
  Sr  Sr10  1  0.05692464  0.79606223  0.60881453  1
  Sr  Sr11  1  0.55844446  0.30062060  0.61164060  1
  Sr  Sr12  1  0.55614211  0.79654344  0.60798512  1
  Sr  Sr13  1  0.44420641  0.20285553  0.38693302  1
  Sr  Sr14  1  0.44794562  0.20455330  0.89276358  1
  Sr  Sr15  1  0.44406355  0.70274510  0.38614591  1
  Sr  Sr16  1  0.44866589  0.70228638  0.89376674  1
  Sr  Sr17  1  0.94511236  0.20263160  0.38664773  1
  Sr  Sr18  1  0.94828828  0.20651046  0.89303182  1
  Sr  Sr19  1  0.94495344  0.70307253  0.38626246  1
  Ca  Ca20  1  0.30287077  0.06671331  0.10555080  1
  Ca  Ca21  1  0.30258067  0.56861057  0.10538739  1
  Ca  Ca22  1  0.80235770  0.06789027  0.10595072  1
  Ca  Ca23  1  0.80237492  0.56778488  0.10491161  1
  Ca  Ca24  1  0.19677691  0.93300756  0.39174870  1
  Ca  Ca25  1  0.20044884  0.93530777  0.89882400  1
  Ca  Ca26  1  0.70092777  0.43907594  0.89616328  1
  Ca  Ca27  1  0.05314065  0.28802068  0.10671002  1
  Ca  Ca28  1  0.05367729  0.78824697  0.10700312  1
  Ca  Ca29  1  0.55221653  0.28844498  0.10572299  1
  Ca  Ca30  1  0.55268818  0.78769717  0.10603914  1
  Ca  Ca31  1  0.95347686  0.71136571  0.89789174  1
  Mn  Mn32  1  0.11180635  0.60196382  0.75407652  1
  Mn  Mn33  1  0.61548511  0.59949181  0.75380510  1
  Mn  Mn34  1  0.36724068  0.40657739  0.75212642  1
  Mn  Mn35  1  0.35945039  0.90356789  0.75370258  1
  Fe  Fe36  1  0.00883557  0.00174318  0.00568691  1
  Fe  Fe37  1  0.00280396  0.99866646  0.49631681  1
  Fe  Fe38  1  0.00668758  0.50217296  0.00359879  1
  Fe  Fe39  1  0.00290912  0.49981073  0.49964496  1
  Fe  Fe40  1  0.50668599  0.00271987  0.00582578  1
  Fe  Fe41  1  0.50214539  0.99980170  0.49708753  1
  Fe  Fe42  1  0.50752206  0.50118830  0.00400837  1
  Fe  Fe43  1  0.50349453  0.49956507  0.49961496  1
  Fe  Fe44  1  0.25777844  0.25282042  0.00595533  1
  Fe  Fe45  1  0.25282038  0.24764201  0.49839648  1
  Fe  Fe46  1  0.25621180  0.75319267  0.00447907  1
  Fe  Fe47  1  0.25189042  0.74939114  0.49798262  1
  Fe  Fe48  1  0.75849065  0.25538606  0.00697443  1
  Fe  Fe49  1  0.75370113  0.24987296  0.49957554  1
  Fe  Fe50  1  0.75769925  0.75066739  0.00350317  1
  Fe  Fe51  1  0.75347165  0.74872428  0.49891861  1
  Fe  Fe52  1  0.10290804  0.08413792  0.24535189  1
  Fe  Fe53  1  0.11163334  0.08495364  0.75414423  1
  Fe  Fe54  1  0.10269557  0.58959036  0.24398846  1
  Fe  Fe55  1  0.60165232  0.08524078  0.24382620  1
  Fe  Fe56  1  0.61234716  0.09328671  0.75231076  1
  Fe  Fe57  1  0.60277443  0.58642425  0.24393307  1
  Fe  Fe58  1  0.35222650  0.40804138  0.24377694  1
  Fe  Fe59  1  0.35027233  0.90799921  0.24599710  1
  Fe  Fe60  1  0.85264129  0.40842191  0.24387731  1
  Fe  Fe61  1  0.85990248  0.41782352  0.75639933  1
  Fe  Fe62  1  0.85430906  0.90703200  0.24349729  1
  Fe  Fe63  1  0.86262011  0.90672648  0.75273017  1
  O  O64  1  0.12312853  0.11603702  0.48633732  1
  O  O65  1  0.12672358  0.11819276  0.99007412  1
  O  O66  1  0.12219865  0.62126156  0.48909460  1
  O  O67  1  0.12289360  0.62572455  0.99236003  1
  O  O68  1  0.62359719  0.12223246  0.49086014  1
  O  O69  1  0.62717207  0.12556607  0.99460020  1
  O  O70  1  0.62296726  0.62187182  0.49112151  1
  O  O71  1  0.62956919  0.62078347  0.99374246  1
  O  O72  1  0.13819657  0.38145528  0.01885942  1
  O  O73  1  0.12940591  0.37501739  0.50421332  1
  O  O74  1  0.13813396  0.88288164  0.01739785  1
  O  O75  1  0.13092433  0.87765502  0.50377377  1
  O  O76  1  0.63911490  0.38265201  0.01751301  1
  O  O77  1  0.63142245  0.37628476  0.50600126  1
  O  O78  1  0.63791730  0.88193786  0.01800719  1
  O  O79  1  0.63182230  0.87749067  0.50741903  1
  O  O80  1  0.36950895  0.11440162  0.48664106  1
  O  O81  1  0.37350083  0.11816199  0.99256568  1
  O  O82  1  0.37234187  0.62018243  0.49021563  1
  O  O83  1  0.37742480  0.62202948  0.99675227  1
  O  O84  1  0.87422324  0.11930103  0.49118864  1
  O  O85  1  0.87682525  0.11988290  0.99306115  1
  O  O86  1  0.87245350  0.61891621  0.48917416  1
  O  O87  1  0.87491292  0.61720383  0.98905300  1
  O  O88  1  0.38918857  0.38473092  0.01886733  1
  O  O89  1  0.38034880  0.37761280  0.50418688  1
  O  O90  1  0.38704139  0.88699017  0.01833960  1
  O  O91  1  0.37997865  0.87972030  0.50480743  1
  O  O92  1  0.88692978  0.38669595  0.01708602  1
  O  O93  1  0.88020116  0.37770330  0.50514181  1
  O  O94  1  0.88906359  0.88281019  0.01577118  1
  O  O95  1  0.88194241  0.87977185  0.50665576  1
  O  O96  1  0.09140228  0.10553459  0.14057702  1
  O  O97  1  0.08729672  0.09154439  0.64292454  1
  O  O98  1  0.08892143  0.60847227  0.13911937  1
  O  O99  1  0.07214642  0.58528120  0.63455925  1
  O  O100  1  0.58908729  0.10869415  0.14026518  1
  O  O101  1  0.58093798  0.09618768  0.63998362  1
  O  O102  1  0.59171596  0.60923795  0.14089208  1
  O  O103  1  0.57625253  0.58397018  0.63579721  1
  O  O104  1  0.43795330  0.40751131  0.35619953  1
  O  O105  1  0.44864625  0.41453068  0.86974598  1
  O  O106  1  0.44167570  0.90709445  0.35773952  1
  O  O107  1  0.44315296  0.91344547  0.86828719  1
  O  O108  1  0.93697816  0.40683989  0.35588082  1
  O  O109  1  0.94986740  0.40302680  0.86439310  1
  O  O110  1  0.94081526  0.90721725  0.35636323  1
  O  O111  1  0.94719214  0.89491913  0.86220766  1
  O  O112  1  0.33836019  0.28078340  0.14006958  1
  O  O113  1  0.32531978  0.29702585  0.63326419  1
  O  O114  1  0.33567812  0.78346236  0.14146569  1
  O  O115  1  0.32042226  0.80212891  0.63657391  1
  O  O116  1  0.84157214  0.28217157  0.14011057  1
  O  O117  1  0.83363453  0.30192344  0.64282318  1
  O  O118  1  0.84231237  0.78156733  0.13957871  1
  O  O119  1  0.83159293  0.79367674  0.63977490  1
  O  O120  1  0.18708087  0.20196136  0.35538057  1
  O  O121  1  0.19533045  0.20980007  0.86143719  1
  O  O122  1  0.18677826  0.70791175  0.35552590  1
  O  O123  1  0.19548587  0.71382060  0.87029337  1
  O  O124  1  0.68722682  0.19845552  0.35613962  1
  O  O125  1  0.69271548  0.21739035  0.86115373  1
  O  O126  1  0.68744329  0.70000685  0.35677480  1
  O  O127  1  0.69477833  0.70838732  0.86857134  1
  O  O128  1  0.42437681  0.05665862  0.23930636  1
  O  O129  1  0.44298128  0.05386530  0.75210492  1
  O  O130  1  0.42541552  0.55776570  0.23857764  1
  O  O131  1  0.44249807  0.56753636  0.75159203  1
  O  O132  1  0.92461743  0.05824354  0.23857842  1
  O  O133  1  0.93716803  0.05877730  0.75218044  1
  O  O134  1  0.92610744  0.55834672  0.23903128  1
  O  O135  1  0.92949402  0.57486524  0.76056779  1
  O  O136  1  0.17586971  0.43436467  0.23978340  1
  O  O137  1  0.19308035  0.44938659  0.75286559  1
  O  O138  1  0.17474692  0.92991589  0.24726904  1
  O  O139  1  0.18219769  0.93131093  0.76001455  1
  O  O140  1  0.67557987  0.43119927  0.23901333  1
  O  O141  1  0.68967246  0.43930163  0.75986958  1
  O  O142  1  0.67703276  0.93105368  0.23915655  1
  O  O143  1  0.69013410  0.94152823  0.75322053  1
