# generated using pymatgen
data_TmAgS2
_symmetry_space_group_name_H-M   'P 1'
_cell_length_a   5.38084005
_cell_length_b   5.38084005
_cell_length_c   7.09818915
_cell_angle_alpha   112.27355831
_cell_angle_beta   112.27355831
_cell_angle_gamma   90.00000000
_symmetry_Int_Tables_number   1
_chemical_formula_structural   TmAgS2
_chemical_formula_sum   'Tm2 Ag2 S4'
_cell_volume   173.49746620
_cell_formula_units_Z   2
loop_
 _symmetry_equiv_pos_site_id
 _symmetry_equiv_pos_as_xyz
  1  'x, y, z'
loop_
 _atom_site_type_symbol
 _atom_site_label
 _atom_site_symmetry_multiplicity
 _atom_site_fract_x
 _atom_site_fract_y
 _atom_site_fract_z
 _atom_site_occupancy
  Tm  Tm0  1  0.25384372  0.75384372  0.50768745  1
  Tm  Tm1  1  0.00384372  0.00384372  0.00768745  1
  Ag  Ag2  1  0.71889033  0.21889033  0.43778066  1
  Ag  Ag3  1  0.46889033  0.46889033  0.93778066  1
  S  S4  1  0.48260659  0.98260659  0.96521317  1
  S  S5  1  0.23260659  0.23260659  0.46521317  1
  S  S6  1  0.02916936  0.52916936  0.05833872  1
  S  S7  1  0.77916936  0.77916936  0.55833872  1
