# generated using pymatgen
data_CoSiW
_symmetry_space_group_name_H-M   'P 1'
_cell_length_a   4.85059205
_cell_length_b   4.71912753
_cell_length_c   7.57791023
_cell_angle_alpha   90.00000000
_cell_angle_beta   90.00000000
_cell_angle_gamma   120.92530901
_symmetry_Int_Tables_number   1
_chemical_formula_structural   CoSiW
_chemical_formula_sum   'Co4 Si4 W4'
_cell_volume   148.80282951
_cell_formula_units_Z   4
loop_
 _symmetry_equiv_pos_site_id
 _symmetry_equiv_pos_as_xyz
  1  'x, y, z'
loop_
 _atom_site_type_symbol
 _atom_site_label
 _atom_site_symmetry_multiplicity
 _atom_site_fract_x
 _atom_site_fract_y
 _atom_site_fract_z
 _atom_site_occupancy
  Co  Co0  1  0.83208466  0.66421238  0.75000000  1
  Co  Co1  1  0.82908941  0.18013348  0.75000000  1
  Co  Co2  1  0.35090519  0.18007672  0.75000000  1
  Co  Co3  1  0.14638974  0.29281092  0.25000000  1
  Si  Si4  1  0.16148621  0.80532208  0.25000000  1
  Si  Si5  1  0.64385463  0.80534196  0.25000000  1
  Si  Si6  1  0.01015326  0.02014446  0.51862046  1
  Si  Si7  1  0.01015326  0.02014446  0.98137954  1
  W  W8  1  0.66792033  0.33592492  0.06072152  1
  W  W9  1  0.34002148  0.67998185  0.93128365  1
  W  W10  1  0.34002148  0.67998185  0.56871635  1
  W  W11  1  0.66792033  0.33592492  0.43927848  1
