# generated using pymatgen
data_ZrCu
_symmetry_space_group_name_H-M   'P 1'
_cell_length_a   5.32613804
_cell_length_b   5.32613804
_cell_length_c   5.28213055
_cell_angle_alpha   97.63875896
_cell_angle_beta   97.63875896
_cell_angle_gamma   103.63771328
_symmetry_Int_Tables_number   1
_chemical_formula_structural   ZrCu
_chemical_formula_sum   'Zr4 Cu4'
_cell_volume   142.21080859
_cell_formula_units_Z   4
loop_
 _symmetry_equiv_pos_site_id
 _symmetry_equiv_pos_as_xyz
  1  'x, y, z'
loop_
 _atom_site_type_symbol
 _atom_site_label
 _atom_site_symmetry_multiplicity
 _atom_site_fract_x
 _atom_site_fract_y
 _atom_site_fract_z
 _atom_site_occupancy
  Zr  Zr0  1  0.08607728  0.08607728  0.97918985  1
  Zr  Zr1  1  0.58558867  0.58558867  0.03374375  1
  Zr  Zr2  1  0.74427898  0.17400105  0.40749142  1
  Zr  Zr3  1  0.17400105  0.74427898  0.40749142  1
  Cu  Cu4  1  0.29393073  0.29393073  0.54203659  1
  Cu  Cu5  1  0.69593363  0.69593363  0.56869287  1
  Cu  Cu6  1  0.04817672  0.54853295  0.85290955  1
  Cu  Cu7  1  0.54853295  0.04817672  0.85290955  1
