# generated using pymatgen
data_ZrTi(PbO3)2
_symmetry_space_group_name_H-M   'P 1'
_cell_length_a   4.43005995
_cell_length_b   5.69315138
_cell_length_c   5.69315138
_cell_angle_alpha   90.00000000
_cell_angle_beta   90.00000000
_cell_angle_gamma   90.00000000
_symmetry_Int_Tables_number   1
_chemical_formula_structural   ZrTi(PbO3)2
_chemical_formula_sum   'Zr1 Ti1 Pb2 O6'
_cell_volume   143.58698187
_cell_formula_units_Z   1
loop_
 _symmetry_equiv_pos_site_id
 _symmetry_equiv_pos_as_xyz
  1  'x, y, z'
loop_
 _atom_site_type_symbol
 _atom_site_label
 _atom_site_symmetry_multiplicity
 _atom_site_fract_x
 _atom_site_fract_y
 _atom_site_fract_z
 _atom_site_occupancy
  Zr  Zr0  1  0.54647403  0.50000000  0.00000000  1
  Ti  Ti1  1  0.53759513  -0.00000000  0.50000000  1
  Pb  Pb2  1  0.98460003  0.00000000  0.00000000  1
  Pb  Pb3  1  0.98460003  0.50000000  0.50000000  1
  O  O4  1  0.63644073  0.24134277  0.25865723  1
  O  O5  1  0.63644073  0.24134277  0.74134277  1
  O  O6  1  0.63644073  0.75865723  0.25865723  1
  O  O7  1  0.63644073  0.75865723  0.74134277  1
  O  O8  1  0.14198082  0.00000000  0.50000000  1
  O  O9  1  0.09798703  0.50000000  0.00000000  1
