# generated using pymatgen
data_SrAs3
_symmetry_space_group_name_H-M   'P 1'
_cell_length_a   6.02221515
_cell_length_b   6.18709449
_cell_length_c   7.05392179
_cell_angle_alpha   92.45830579
_cell_angle_beta   123.61738298
_cell_angle_gamma   74.26204566
_symmetry_Int_Tables_number   1
_chemical_formula_structural   SrAs3
_chemical_formula_sum   'Sr2 As6'
_cell_volume   208.77153483
_cell_formula_units_Z   2
loop_
 _symmetry_equiv_pos_site_id
 _symmetry_equiv_pos_as_xyz
  1  'x, y, z'
loop_
 _atom_site_type_symbol
 _atom_site_label
 _atom_site_symmetry_multiplicity
 _atom_site_fract_x
 _atom_site_fract_y
 _atom_site_fract_z
 _atom_site_occupancy
  Sr  Sr0  1  0.30997076  0.67784632  0.64852630  1
  Sr  Sr1  1  0.69002924  0.32215368  0.35147370  1
  As  As2  1  0.79664299  0.99988284  0.00873977  1
  As  As3  1  0.20335701  0.00011716  0.99126023  1
  As  As4  1  0.58409853  0.86347978  0.40080092  1
  As  As5  1  0.41590147  0.13652022  0.59919908  1
  As  As6  1  0.90804958  0.58993535  0.11473332  1
  As  As7  1  0.09195042  0.41006465  0.88526668  1
