# generated using pymatgen
data_Mg5Cd
_symmetry_space_group_name_H-M   'P 1'
_cell_length_a   5.11342420
_cell_length_b   3.21049411
_cell_length_c   16.40364747
_cell_angle_alpha   90.00000000
_cell_angle_beta   90.00000000
_cell_angle_gamma   90.00000000
_symmetry_Int_Tables_number   1
_chemical_formula_structural   Mg5Cd
_chemical_formula_sum   'Mg10 Cd2'
_cell_volume   269.29241885
_cell_formula_units_Z   2
loop_
 _symmetry_equiv_pos_site_id
 _symmetry_equiv_pos_as_xyz
  1  'x, y, z'
loop_
 _atom_site_type_symbol
 _atom_site_label
 _atom_site_symmetry_multiplicity
 _atom_site_fract_x
 _atom_site_fract_y
 _atom_site_fract_z
 _atom_site_occupancy
  Mg  Mg0  1  0.00000000  -0.00000000  0.99958367  1
  Mg  Mg1  1  -0.00000000  -0.00000000  0.66726936  1
  Mg  Mg2  1  -0.00000000  0.50000000  0.83324802  1
  Mg  Mg3  1  0.50000000  -0.00000000  0.88758999  1
  Mg  Mg4  1  0.50000000  0.00000000  0.55640139  1
  Mg  Mg5  1  0.00000000  0.50000000  0.49958367  1
  Mg  Mg6  1  0.00000000  0.50000000  0.16726936  1
  Mg  Mg7  1  0.00000000  0.00000000  0.33324802  1
  Mg  Mg8  1  0.50000000  0.50000000  0.38758999  1
  Mg  Mg9  1  0.50000000  0.50000000  0.05640139  1
  Cd  Cd10  1  0.50000000  0.50000000  0.72257457  1
  Cd  Cd11  1  0.50000000  -0.00000000  0.22257457  1
