# generated using pymatgen
data_LiMg2
_symmetry_space_group_name_H-M   'P 1'
_cell_length_a   11.32742911
_cell_length_b   3.20304553
_cell_length_c   7.37704953
_cell_angle_alpha   90.00000000
_cell_angle_beta   105.29138556
_cell_angle_gamma   90.00000000
_symmetry_Int_Tables_number   1
_chemical_formula_structural   LiMg2
_chemical_formula_sum   'Li4 Mg8'
_cell_volume   258.18030397
_cell_formula_units_Z   4
loop_
 _symmetry_equiv_pos_site_id
 _symmetry_equiv_pos_as_xyz
  1  'x, y, z'
loop_
 _atom_site_type_symbol
 _atom_site_label
 _atom_site_symmetry_multiplicity
 _atom_site_fract_x
 _atom_site_fract_y
 _atom_site_fract_z
 _atom_site_occupancy
  Li  Li0  1  0.47226880  0.00000000  0.19527480  1
  Li  Li1  1  0.02773120  0.50000000  0.80472520  1
  Li  Li2  1  0.97226880  0.50000000  0.19527480  1
  Li  Li3  1  0.52773120  0.00000000  0.80472520  1
  Mg  Mg4  1  0.19175127  0.00000000  0.13560786  1
  Mg  Mg5  1  0.36130734  0.50000000  0.47113205  1
  Mg  Mg6  1  0.13869266  -0.00000000  0.52886795  1
  Mg  Mg7  1  0.30824873  0.50000000  0.86439214  1
  Mg  Mg8  1  0.69175127  0.50000000  0.13560786  1
  Mg  Mg9  1  0.86130734  -0.00000000  0.47113205  1
  Mg  Mg10  1  0.63869266  0.50000000  0.52886795  1
  Mg  Mg11  1  0.80824873  -0.00000000  0.86439214  1
