# generated using pymatgen
data_Ca(MnAl2)4
_symmetry_space_group_name_H-M   'P 1'
_cell_length_a   5.18307278
_cell_length_b   6.72131567
_cell_length_c   6.72131595
_cell_angle_alpha   81.45048020
_cell_angle_beta   67.32088094
_cell_angle_gamma   67.32087507
_symmetry_Int_Tables_number   1
_chemical_formula_structural   Ca(MnAl2)4
_chemical_formula_sum   'Ca1 Mn4 Al8'
_cell_volume   199.34110100
_cell_formula_units_Z   1
loop_
 _symmetry_equiv_pos_site_id
 _symmetry_equiv_pos_as_xyz
  1  'x, y, z'
loop_
 _atom_site_type_symbol
 _atom_site_label
 _atom_site_symmetry_multiplicity
 _atom_site_fract_x
 _atom_site_fract_y
 _atom_site_fract_z
 _atom_site_occupancy
  Ca  Ca0  1  -0.00000000  0.00000000  -0.00000000  1
  Mn  Mn1  1  0.50000000  0.50000000  -0.00000000  1
  Mn  Mn2  1  -0.00000000  0.50000000  -0.00000000  1
  Mn  Mn3  1  -0.00000000  0.00000000  0.50000000  1
  Mn  Mn4  1  0.50000000  0.00000000  0.50000000  1
  Al  Al5  1  0.33336251  0.66663749  0.66663749  1
  Al  Al6  1  0.50000000  0.77158299  0.22841701  1
  Al  Al7  1  0.66663749  0.33336251  0.33336251  1
  Al  Al8  1  0.00000000  0.33336251  0.66663749  1
  Al  Al9  1  0.72841701  0.77158299  0.77158299  1
  Al  Al10  1  0.50000000  0.22841701  0.77158299  1
  Al  Al11  1  0.27158299  0.22841701  0.22841701  1
  Al  Al12  1  1.00000000  0.66663749  0.33336251  1
