# generated using pymatgen
data_PbS
_symmetry_space_group_name_H-M   'P 1'
_cell_length_a   4.27270428
_cell_length_b   6.07710747
_cell_length_c   8.56195461
_cell_angle_alpha   90.00000000
_cell_angle_beta   90.00000000
_cell_angle_gamma   90.00000000
_symmetry_Int_Tables_number   1
_chemical_formula_structural   PbS
_chemical_formula_sum   'Pb4 S4'
_cell_volume   222.31700009
_cell_formula_units_Z   4
loop_
 _symmetry_equiv_pos_site_id
 _symmetry_equiv_pos_as_xyz
  1  'x, y, z'
loop_
 _atom_site_type_symbol
 _atom_site_label
 _atom_site_symmetry_multiplicity
 _atom_site_fract_x
 _atom_site_fract_y
 _atom_site_fract_z
 _atom_site_occupancy
  Pb  Pb0  1  0.75000000  0.73569882  0.12348932  1
  Pb  Pb1  1  0.75000000  0.76430118  0.62348932  1
  Pb  Pb2  1  0.25000000  0.26430118  0.87651068  1
  Pb  Pb3  1  0.25000000  0.23569882  0.37651068  1
  S  S4  1  0.25000000  0.79474296  0.84835315  1
  S  S5  1  0.25000000  0.70525704  0.34835315  1
  S  S6  1  0.75000000  0.20525704  0.15164685  1
  S  S7  1  0.75000000  0.29474296  0.65164685  1
