# generated using pymatgen
data_VO2
_symmetry_space_group_name_H-M   'P 1'
_cell_length_a   5.21029310
_cell_length_b   5.40000240
_cell_length_c   9.19114008
_cell_angle_alpha   90.02193112
_cell_angle_beta   90.02051153
_cell_angle_gamma   90.00064303
_symmetry_Int_Tables_number   1
_chemical_formula_structural   VO2
_chemical_formula_sum   'V8 O16'
_cell_volume   258.59816160
_cell_formula_units_Z   8
loop_
 _symmetry_equiv_pos_site_id
 _symmetry_equiv_pos_as_xyz
  1  'x, y, z'
loop_
 _atom_site_type_symbol
 _atom_site_label
 _atom_site_symmetry_multiplicity
 _atom_site_fract_x
 _atom_site_fract_y
 _atom_site_fract_z
 _atom_site_occupancy
  V  V0  1  0.64083689  0.09840754  0.62902170  1
  V  V1  1  0.35818474  0.40168702  0.12850680  1
  V  V2  1  0.85859026  0.59870436  0.37157121  1
  V  V3  1  0.14129811  0.90155559  0.87122508  1
  V  V4  1  0.35914625  0.90162330  0.37099290  1
  V  V5  1  0.64181791  0.59830274  0.87149838  1
  V  V6  1  0.14139638  0.40126389  0.62844563  1
  V  V7  1  0.85870712  0.09846329  0.12877865  1
  O  O8  1  0.31005362  0.14107334  0.50602308  1
  O  O9  1  0.69017406  0.35890279  0.00623729  1
  O  O10  1  0.19022983  0.64130014  0.49401273  1
  O  O11  1  0.80980735  0.85902652  0.99377412  1
  O  O12  1  0.68995420  0.85889852  0.49396404  1
  O  O13  1  0.30982303  0.64110994  0.99375417  1
  O  O14  1  0.80977857  0.35872019  0.50597317  1
  O  O15  1  0.19018755  0.14095960  0.00621508  1
  O  O16  1  0.96698949  0.11917467  0.72690720  1
  O  O17  1  0.03322958  0.38051834  0.22723455  1
  O  O18  1  0.53311305  0.61951500  0.27269241  1
  O  O19  1  0.46679144  0.88068380  0.77303969  1
  O  O20  1  0.03302843  0.88082864  0.27309422  1
  O  O21  1  0.96675941  0.61948263  0.77276747  1
  O  O22  1  0.46690579  0.38048330  0.72730844  1
  O  O23  1  0.53319694  0.11931584  0.22696198  1
