# generated using pymatgen
data_Li9Mn7O16
_symmetry_space_group_name_H-M   'P 1'
_cell_length_a   5.27709982
_cell_length_b   11.47637218
_cell_length_c   5.33776276
_cell_angle_alpha   90.00000000
_cell_angle_beta   66.48223625
_cell_angle_gamma   90.00000000
_symmetry_Int_Tables_number   1
_chemical_formula_structural   Li9Mn7O16
_chemical_formula_sum   'Li9 Mn7 O16'
_cell_volume   296.41379774
_cell_formula_units_Z   1
loop_
 _symmetry_equiv_pos_site_id
 _symmetry_equiv_pos_as_xyz
  1  'x, y, z'
loop_
 _atom_site_type_symbol
 _atom_site_label
 _atom_site_symmetry_multiplicity
 _atom_site_fract_x
 _atom_site_fract_y
 _atom_site_fract_z
 _atom_site_occupancy
  Li  Li0  1  0.50000000  0.12320298  -0.00000000  1
  Li  Li1  1  0.50000000  0.25094885  0.50000000  1
  Li  Li2  1  0.50000000  0.37500000  -0.00000000  1
  Li  Li3  1  0.50000000  0.49905115  0.50000000  1
  Li  Li4  1  0.50000000  0.62679702  -0.00000000  1
  Li  Li5  1  0.50000000  0.75371361  0.50000000  1
  Li  Li6  1  0.50000000  0.87500000  -0.00000000  1
  Li  Li7  1  0.50000000  0.99628639  0.50000000  1
  Li  Li8  1  0.00000000  0.87500000  0.50000000  1
  Mn  Mn9  1  0.00000000  0.99839410  -0.00000000  1
  Mn  Mn10  1  0.00000000  0.75160590  -0.00000000  1
  Mn  Mn11  1  0.00000000  0.12195290  0.50000000  1
  Mn  Mn12  1  0.00000000  0.24878833  -0.00000000  1
  Mn  Mn13  1  0.00000000  0.37500000  0.50000000  1
  Mn  Mn14  1  0.00000000  0.50121167  -0.00000000  1
  Mn  Mn15  1  0.00000000  0.62804710  0.50000000  1
  O  O16  1  0.23533475  0.12225242  0.77437006  1
  O  O17  1  0.23281712  0.24980174  0.27584682  1
  O  O18  1  0.23457816  0.37500000  0.77865447  1
  O  O19  1  0.23281712  0.50019826  0.27584682  1
  O  O20  1  0.23533475  0.62774758  0.77437006  1
  O  O21  1  0.20833938  0.74523000  0.23537273  1
  O  O22  1  0.23636843  0.87500000  0.78030668  1
  O  O23  1  0.20833938  0.00477000  0.23537273  1
  O  O24  1  0.76466525  0.12225242  0.22562994  1
  O  O25  1  0.76718288  0.24980174  0.72415318  1
  O  O26  1  0.76542184  0.37500000  0.22134553  1
  O  O27  1  0.76718288  0.50019826  0.72415318  1
  O  O28  1  0.76466525  0.62774758  0.22562994  1
  O  O29  1  0.79166062  0.74523000  0.76462727  1
  O  O30  1  0.76363157  0.87500000  0.21969332  1
  O  O31  1  0.79166062  0.00477000  0.76462727  1
