# generated using pymatgen
data_ScFe2
_symmetry_space_group_name_H-M   'P 1'
_cell_length_a   4.92860015
_cell_length_b   4.92860015
_cell_length_c   8.06068802
_cell_angle_alpha   90.00000000
_cell_angle_beta   90.00000000
_cell_angle_gamma   120.01094597
_symmetry_Int_Tables_number   1
_chemical_formula_structural   ScFe2
_chemical_formula_sum   'Sc4 Fe8'
_cell_volume   169.55164337
_cell_formula_units_Z   4
loop_
 _symmetry_equiv_pos_site_id
 _symmetry_equiv_pos_as_xyz
  1  'x, y, z'
loop_
 _atom_site_type_symbol
 _atom_site_label
 _atom_site_symmetry_multiplicity
 _atom_site_fract_x
 _atom_site_fract_y
 _atom_site_fract_z
 _atom_site_occupancy
  Sc  Sc0  1  0.66668591  0.33331409  0.56264894  1
  Sc  Sc1  1  0.33331409  0.66668591  0.43735106  1
  Sc  Sc2  1  0.33331409  0.66668591  0.06264894  1
  Sc  Sc3  1  0.66668591  0.33331409  0.93735106  1
  Fe  Fe4  1  -0.00000000  -0.00000000  0.50000000  1
  Fe  Fe5  1  -0.00000000  -0.00000000  0.00000000  1
  Fe  Fe6  1  0.16811160  0.33619130  0.75000000  1
  Fe  Fe7  1  0.16809581  0.83190419  0.75000000  1
  Fe  Fe8  1  0.66380870  0.83188840  0.75000000  1
  Fe  Fe9  1  0.83188840  0.66380870  0.25000000  1
  Fe  Fe10  1  0.83190419  0.16809581  0.25000000  1
  Fe  Fe11  1  0.33619130  0.16811160  0.25000000  1
