# generated using pymatgen
data_Li9Mn7O16
_symmetry_space_group_name_H-M   'P 1'
_cell_length_a   5.34161799
_cell_length_b   5.74368539
_cell_length_c   9.90417286
_cell_angle_alpha   98.33694336
_cell_angle_beta   80.94951824
_cell_angle_gamma   89.99842274
_symmetry_Int_Tables_number   1
_chemical_formula_structural   Li9Mn7O16
_chemical_formula_sum   'Li9 Mn7 O16'
_cell_volume   296.83039371
_cell_formula_units_Z   1
loop_
 _symmetry_equiv_pos_site_id
 _symmetry_equiv_pos_as_xyz
  1  'x, y, z'
loop_
 _atom_site_type_symbol
 _atom_site_label
 _atom_site_symmetry_multiplicity
 _atom_site_fract_x
 _atom_site_fract_y
 _atom_site_fract_z
 _atom_site_occupancy
  Li  Li0  1  0.12657453  0.80831851  0.25009567  1
  Li  Li1  1  0.37797636  0.93901069  0.75579250  1
  Li  Li2  1  0.62202364  0.06098931  0.24420750  1
  Li  Li3  1  0.63306453  0.55982564  0.23903274  1
  Li  Li4  1  0.87343534  0.68326455  0.74993146  1
  Li  Li5  1  0.12656466  0.31673545  0.25006854  1
  Li  Li6  1  0.36693547  0.44017436  0.76096726  1
  Li  Li7  1  0.87342547  0.19168149  0.74990433  1
  Li  Li8  1  0.00000000  0.50000000  0.00000000  1
  Mn  Mn9  1  0.00000000  0.00000000  0.00000000  1
  Mn  Mn10  1  0.50001006  0.25130194  -0.00000364  1
  Mn  Mn11  1  0.24934562  0.12577190  0.50269894  1
  Mn  Mn12  1  0.74982427  0.37436601  0.49718875  1
  Mn  Mn13  1  0.25017573  0.62563399  0.50281125  1
  Mn  Mn14  1  0.49998994  0.74869806  0.00000364  1
  Mn  Mn15  1  0.75065438  0.87422810  0.49730106  1
  O  O16  1  0.78656053  0.78487917  0.10305487  1
  O  O17  1  0.08613127  0.90502835  0.62055936  1
  O  O18  1  0.33163639  0.02913168  0.11650139  1
  O  O19  1  0.34032198  0.52895290  0.11582828  1
  O  O20  1  0.58977944  0.65392389  0.61587979  1
  O  O21  1  0.78652064  0.26663396  0.10306986  1
  O  O22  1  0.08646432  0.40558670  0.62165717  1
  O  O23  1  0.58946718  0.15404607  0.61604090  1
  O  O24  1  0.41053282  0.84595393  0.38395910  1
  O  O25  1  0.66836361  0.97086832  0.88349861  1
  O  O26  1  0.91386873  0.09497165  0.37944064  1
  O  O27  1  0.91353568  0.59441330  0.37834283  1
  O  O28  1  0.21347936  0.73336604  0.89693014  1
  O  O29  1  0.41022056  0.34607611  0.38412021  1
  O  O30  1  0.65967802  0.47104710  0.88417172  1
  O  O31  1  0.21343947  0.21512083  0.89694513  1
