# generated using pymatgen
data_Ca2Co2O5
_symmetry_space_group_name_H-M   'P 1'
_cell_length_a   5.53597680
_cell_length_b   5.28573543
_cell_length_c   8.53294860
_cell_angle_alpha   108.04266002
_cell_angle_beta   108.92851740
_cell_angle_gamma   90.00000000
_symmetry_Int_Tables_number   1
_chemical_formula_structural   Ca2Co2O5
_chemical_formula_sum   'Ca4 Co4 O10'
_cell_volume   223.16672351
_cell_formula_units_Z   2
loop_
 _symmetry_equiv_pos_site_id
 _symmetry_equiv_pos_as_xyz
  1  'x, y, z'
loop_
 _atom_site_type_symbol
 _atom_site_label
 _atom_site_symmetry_multiplicity
 _atom_site_fract_x
 _atom_site_fract_y
 _atom_site_fract_z
 _atom_site_occupancy
  Ca  Ca0  1  0.36502830  0.92996034  0.77817822  1
  Ca  Ca1  1  0.63497170  0.15178212  0.22182178  1
  Ca  Ca2  1  0.91314992  0.42996034  0.77817822  1
  Ca  Ca3  1  0.08685008  0.65178212  0.22182178  1
  Co  Co4  1  0.69301448  0.76042716  0.50000000  1
  Co  Co5  1  0.30698552  0.26042716  0.50000000  1
  Co  Co6  1  0.00000000  0.04978564  0.00000000  1
  Co  Co7  1  0.50000000  0.54978564  0.00000000  1
  O  O8  1  0.28911576  0.43282001  0.71524447  1
  O  O9  1  0.71088424  0.71757555  0.28475553  1
  O  O10  1  0.92612871  0.93282001  0.71524447  1
  O  O11  1  0.07387129  0.21757555  0.28475553  1
  O  O12  1  0.36665823  0.89510301  0.50000000  1
  O  O13  1  0.63334177  0.39510301  0.50000000  1
  O  O14  1  0.73315704  0.28415077  0.97275537  1
  O  O15  1  0.26684296  0.31139540  0.02724463  1
  O  O16  1  0.73959833  0.78415077  0.97275537  1
  O  O17  1  0.26040167  0.81139540  0.02724463  1
