# generated using pymatgen
data_K5Na3Nb7WO24
_symmetry_space_group_name_H-M   'P 1'
_cell_length_a   8.07000545
_cell_length_b   8.07002598
_cell_length_c   8.06887725
_cell_angle_alpha   89.99685598
_cell_angle_beta   89.99679789
_cell_angle_gamma   89.99519152
_symmetry_Int_Tables_number   1
_chemical_formula_structural   K5Na3Nb7WO24
_chemical_formula_sum   'K5 Na3 Nb7 W1 O24'
_cell_volume   525.48686693
_cell_formula_units_Z   1
loop_
 _symmetry_equiv_pos_site_id
 _symmetry_equiv_pos_as_xyz
  1  'x, y, z'
loop_
 _atom_site_type_symbol
 _atom_site_label
 _atom_site_symmetry_multiplicity
 _atom_site_fract_x
 _atom_site_fract_y
 _atom_site_fract_z
 _atom_site_occupancy
  K  K0  1  0.25072331  0.25072151  0.25072903  1
  K  K1  1  0.25073057  0.74929123  0.25073704  1
  K  K2  1  0.74928648  0.25072888  0.25073881  1
  K  K3  1  0.74926842  0.74927264  0.25072064  1
  K  K4  1  0.74927220  0.74927376  0.74927109  1
  Na  Na5  1  0.25073638  0.25073571  0.74925699  1
  Na  Na6  1  0.25072734  0.74927016  0.74924961  1
  Na  Na7  1  0.74927019  0.25072839  0.74924995  1
  Nb  Nb8  1  0.00032162  0.00032187  0.50139598  1
  Nb  Nb9  1  0.00031652  0.49953647  0.99904870  1
  Nb  Nb10  1  0.00034073  0.49964797  0.50105835  1
  Nb  Nb11  1  0.49953994  0.00031496  0.99904903  1
  Nb  Nb12  1  0.49964964  0.00034104  0.50105588  1
  Nb  Nb13  1  0.49964787  0.49964720  0.99897212  1
  Nb  Nb14  1  0.49963864  0.49963842  0.50108665  1
  W  W15  1  0.00028470  0.00028438  0.99913849  1
  O  O16  1  0.24370303  0.00013312  0.99805338  1
  O  O17  1  0.24878060  0.00012557  0.50202648  1
  O  O18  1  0.24877705  0.49989520  0.99799312  1
  O  O19  1  0.24955813  0.49988426  0.50195918  1
  O  O20  1  0.75651360  0.00091480  0.99881885  1
  O  O21  1  0.75123036  0.00095001  0.50117949  1
  O  O22  1  0.75123448  0.49902547  0.99879637  1
  O  O23  1  0.75044875  0.49906759  0.50115928  1
  O  O24  1  0.00013322  0.24370346  0.99805378  1
  O  O25  1  0.00012538  0.24878171  0.50202778  1
  O  O26  1  0.00091593  0.75651252  0.99881857  1
  O  O27  1  0.00094886  0.75122967  0.50118010  1
  O  O28  1  0.49989633  0.24877783  0.99799339  1
  O  O29  1  0.49988462  0.24955859  0.50195874  1
  O  O30  1  0.49902526  0.75123429  0.99879707  1
  O  O31  1  0.49906820  0.75044799  0.50115996  1
  O  O32  1  0.00013044  0.00013179  0.24327477  1
  O  O33  1  0.00089434  0.00089467  0.75608889  1
  O  O34  1  0.00012535  0.49989672  0.24874993  1
  O  O35  1  0.00092991  0.49904894  0.75121253  1
  O  O36  1  0.49989742  0.00012535  0.24875021  1
  O  O37  1  0.49904831  0.00092936  0.75121204  1
  O  O38  1  0.49988648  0.49988722  0.24953485  1
  O  O39  1  0.49908940  0.49908928  0.75044291  1
