# generated using pymatgen
data_U2Te2PO
_symmetry_space_group_name_H-M   'P 1'
_cell_length_a   5.53227605
_cell_length_b   3.92358433
_cell_length_c   19.29314863
_cell_angle_alpha   84.17903962
_cell_angle_beta   98.24313883
_cell_angle_gamma   135.02229388
_symmetry_Int_Tables_number   1
_chemical_formula_structural   U2Te2PO
_chemical_formula_sum   'U4 Te4 P2 O2'
_cell_volume   292.95146265
_cell_formula_units_Z   2
loop_
 _symmetry_equiv_pos_site_id
 _symmetry_equiv_pos_as_xyz
  1  'x, y, z'
loop_
 _atom_site_type_symbol
 _atom_site_label
 _atom_site_symmetry_multiplicity
 _atom_site_fract_x
 _atom_site_fract_y
 _atom_site_fract_z
 _atom_site_occupancy
  U  U0  1  0.72083533  0.00546107  0.43525717  1
  U  U1  1  0.28557816  0.00546107  0.56474283  1
  U  U2  1  0.92742900  0.08267875  0.90034512  1
  U  U3  1  0.02708389  0.08267875  0.09965488  1
  Te  Te4  1  0.82852530  0.00844222  0.65174931  1
  Te  Te5  1  0.17677599  0.00844222  0.34825069  1
  Te  Te6  1  0.56556690  0.08204753  0.17452416  1
  Te  Te7  1  0.39104275  0.08204753  0.82547584  1
  P  P8  1  0.97604005  0.58309264  0.00000000  1
  P  P9  1  0.47767047  0.59039557  0.00000000  1
  O  O10  1  0.75407103  0.50572633  0.49988990  1
  O  O11  1  0.25418113  0.50572633  0.50011010  1
