# generated using pymatgen
data_NaMg30TiO32
_symmetry_space_group_name_H-M   'P 1'
_cell_length_a   8.55094511
_cell_length_b   8.55094511
_cell_length_c   8.52765347
_cell_angle_alpha   90.00000000
_cell_angle_beta   90.00000000
_cell_angle_gamma   90.00000000
_symmetry_Int_Tables_number   1
_chemical_formula_structural   NaMg30TiO32
_chemical_formula_sum   'Na1 Mg30 Ti1 O32'
_cell_volume   623.53061406
_cell_formula_units_Z   1
loop_
 _symmetry_equiv_pos_site_id
 _symmetry_equiv_pos_as_xyz
  1  'x, y, z'
loop_
 _atom_site_type_symbol
 _atom_site_label
 _atom_site_symmetry_multiplicity
 _atom_site_fract_x
 _atom_site_fract_y
 _atom_site_fract_z
 _atom_site_occupancy
  Na  Na0  1  0.00000000  0.00000000  0.50000000  1
  Mg  Mg1  1  0.00000000  0.50000000  0.00000000  1
  Mg  Mg2  1  0.00000000  0.50000000  0.50000000  1
  Mg  Mg3  1  0.50000000  0.00000000  -0.00000000  1
  Mg  Mg4  1  0.50000000  0.00000000  0.50000000  1
  Mg  Mg5  1  0.50000000  0.50000000  0.00000000  1
  Mg  Mg6  1  0.50000000  0.50000000  0.50000000  1
  Mg  Mg7  1  0.00000000  0.25312089  0.25399045  1
  Mg  Mg8  1  0.00000000  0.25312089  0.74600955  1
  Mg  Mg9  1  0.00000000  0.74687911  0.25399045  1
  Mg  Mg10  1  0.00000000  0.74687911  0.74600955  1
  Mg  Mg11  1  0.50000000  0.25020263  0.25098604  1
  Mg  Mg12  1  0.50000000  0.25020263  0.74901396  1
  Mg  Mg13  1  0.50000000  0.74979737  0.25098604  1
  Mg  Mg14  1  0.50000000  0.74979737  0.74901396  1
  Mg  Mg15  1  0.25312089  0.00000000  0.25399045  1
  Mg  Mg16  1  0.25312089  -0.00000000  0.74600955  1
  Mg  Mg17  1  0.25020263  0.50000000  0.25098604  1
  Mg  Mg18  1  0.25020263  0.50000000  0.74901396  1
  Mg  Mg19  1  0.74687911  0.00000000  0.25399045  1
  Mg  Mg20  1  0.74687911  -0.00000000  0.74600955  1
  Mg  Mg21  1  0.74979737  0.50000000  0.25098604  1
  Mg  Mg22  1  0.74979737  0.50000000  0.74901396  1
  Mg  Mg23  1  0.25105956  0.25105956  -0.00000000  1
  Mg  Mg24  1  0.24910189  0.24910189  0.50000000  1
  Mg  Mg25  1  0.25105956  0.74894044  0.00000000  1
  Mg  Mg26  1  0.24910189  0.75089811  0.50000000  1
  Mg  Mg27  1  0.74894044  0.25105956  -0.00000000  1
  Mg  Mg28  1  0.75089811  0.24910189  0.50000000  1
  Mg  Mg29  1  0.74894044  0.74894044  0.00000000  1
  Mg  Mg30  1  0.75089811  0.75089811  0.50000000  1
  Ti  Ti31  1  0.00000000  -0.00000000  0.00000000  1
  O  O32  1  0.25030030  -0.00000000  0.00000000  1
  O  O33  1  0.26236218  -0.00000000  0.50000000  1
  O  O34  1  0.24998001  0.50000000  -0.00000000  1
  O  O35  1  0.25189046  0.50000000  0.50000000  1
  O  O36  1  0.74969970  0.00000000  -0.00000000  1
  O  O37  1  0.73763782  0.00000000  0.50000000  1
  O  O38  1  0.75001999  0.50000000  0.00000000  1
  O  O39  1  0.74810954  0.50000000  0.50000000  1
  O  O40  1  0.24914268  0.24914268  0.24945753  1
  O  O41  1  0.24914268  0.24914268  0.75054247  1
  O  O42  1  0.24914268  0.75085732  0.24945753  1
  O  O43  1  0.24914268  0.75085732  0.75054247  1
  O  O44  1  0.75085732  0.24914268  0.24945753  1
  O  O45  1  0.75085732  0.24914268  0.75054247  1
  O  O46  1  0.75085732  0.75085732  0.24945753  1
  O  O47  1  0.75085732  0.75085732  0.75054247  1
  O  O48  1  0.00000000  0.00000000  0.23122672  1
  O  O49  1  0.00000000  -0.00000000  0.76877328  1
  O  O50  1  0.00000000  0.50000000  0.24675090  1
  O  O51  1  0.00000000  0.50000000  0.75324910  1
  O  O52  1  0.50000000  -0.00000000  0.24675090  1
  O  O53  1  0.50000000  0.00000000  0.75324910  1
  O  O54  1  0.50000000  0.50000000  0.24892124  1
  O  O55  1  0.50000000  0.50000000  0.75107876  1
  O  O56  1  0.00000000  0.25030030  0.00000000  1
  O  O57  1  0.00000000  0.26236218  0.50000000  1
  O  O58  1  0.00000000  0.74969970  -0.00000000  1
  O  O59  1  0.00000000  0.73763782  0.50000000  1
  O  O60  1  0.50000000  0.24998001  0.00000000  1
  O  O61  1  0.50000000  0.25189046  0.50000000  1
  O  O62  1  0.50000000  0.75001999  -0.00000000  1
  O  O63  1  0.50000000  0.74810954  0.50000000  1
