# generated using pymatgen
data_NdAsO4
_symmetry_space_group_name_H-M   'P 1'
_cell_length_a   5.17294569
_cell_length_b   5.17294569
_cell_length_c   6.92381996
_cell_angle_alpha   111.93543504
_cell_angle_beta   111.93543513
_cell_angle_gamma   90.00000000
_symmetry_Int_Tables_number   1
_chemical_formula_structural   NdAsO4
_chemical_formula_sum   'Nd2 As2 O8'
_cell_volume   157.31139660
_cell_formula_units_Z   2
loop_
 _symmetry_equiv_pos_site_id
 _symmetry_equiv_pos_as_xyz
  1  'x, y, z'
loop_
 _atom_site_type_symbol
 _atom_site_label
 _atom_site_symmetry_multiplicity
 _atom_site_fract_x
 _atom_site_fract_y
 _atom_site_fract_z
 _atom_site_occupancy
  Nd  Nd0  1  0.62500000  0.87500000  0.25000000  1
  Nd  Nd1  1  0.37500000  0.12500000  0.75000000  1
  As  As2  1  0.12500000  0.37500000  0.25000000  1
  As  As3  1  0.87500000  0.62500000  0.75000000  1
  O  O4  1  0.29640428  0.43438030  0.09489857  1
  O  O5  1  0.79849429  0.16051827  0.09489857  1
  O  O6  1  0.93438030  0.29849429  0.59489857  1
  O  O7  1  0.66051827  0.79640428  0.59489857  1
  O  O8  1  0.70359572  0.56561970  0.90510143  1
  O  O9  1  0.20150571  0.83948173  0.90510143  1
  O  O10  1  0.06561970  0.70150571  0.40510143  1
  O  O11  1  0.33948173  0.20359572  0.40510143  1
