# generated using pymatgen
data_ZrPOs
_symmetry_space_group_name_H-M   'P 1'
_cell_length_a   3.88410045
_cell_length_b   6.45447608
_cell_length_c   6.45803825
_cell_angle_alpha   119.98174386
_cell_angle_beta   90.00000000
_cell_angle_gamma   90.00000000
_symmetry_Int_Tables_number   1
_chemical_formula_structural   ZrPOs
_chemical_formula_sum   'Zr3 P3 Os3'
_cell_volume   140.23698206
_cell_formula_units_Z   3
loop_
 _symmetry_equiv_pos_site_id
 _symmetry_equiv_pos_as_xyz
  1  'x, y, z'
loop_
 _atom_site_type_symbol
 _atom_site_label
 _atom_site_symmetry_multiplicity
 _atom_site_fract_x
 _atom_site_fract_y
 _atom_site_fract_z
 _atom_site_occupancy
  Zr  Zr0  1  0.50000000  0.58401617  1.00000000  1
  Zr  Zr1  1  0.50000000  0.41578987  0.41572183  1
  Zr  Zr2  1  0.50000000  0.00006805  0.58427817  1
  P  P3  1  -0.00000000  0.33344733  0.66664978  1
  P  P4  1  -0.00000000  0.66679755  0.33335022  1
  P  P5  1  0.50000000  0.99946133  1.00000000  1
  Os  Os6  1  0.00000000  0.24622746  1.00000000  1
  Os  Os7  1  -0.00000000  0.75402164  0.75395104  1
  Os  Os8  1  -0.00000000  0.00007061  0.24604896  1
