# generated using pymatgen
data_SrMg2
_symmetry_space_group_name_H-M   'P 1'
_cell_length_a   3.76516772
_cell_length_b   18.21253791
_cell_length_c   5.59235273
_cell_angle_alpha   90.00000000
_cell_angle_beta   90.00000000
_cell_angle_gamma   90.00000000
_symmetry_Int_Tables_number   1
_chemical_formula_structural   SrMg2
_chemical_formula_sum   'Sr4 Mg8'
_cell_volume   383.48585686
_cell_formula_units_Z   4
loop_
 _symmetry_equiv_pos_site_id
 _symmetry_equiv_pos_as_xyz
  1  'x, y, z'
loop_
 _atom_site_type_symbol
 _atom_site_label
 _atom_site_symmetry_multiplicity
 _atom_site_fract_x
 _atom_site_fract_y
 _atom_site_fract_z
 _atom_site_occupancy
  Sr  Sr0  1  0.50000000  0.06896335  0.25000000  1
  Sr  Sr1  1  -0.00000000  0.43103665  0.75000000  1
  Sr  Sr2  1  -0.00000000  0.56896335  0.25000000  1
  Sr  Sr3  1  0.50000000  0.93103665  0.75000000  1
  Mg  Mg4  1  0.50000000  0.37323460  0.25000000  1
  Mg  Mg5  1  -0.00000000  0.23482924  0.25000000  1
  Mg  Mg6  1  0.50000000  0.26517076  0.75000000  1
  Mg  Mg7  1  -0.00000000  0.12676540  0.75000000  1
  Mg  Mg8  1  0.00000000  0.87323460  0.25000000  1
  Mg  Mg9  1  0.50000000  0.73482924  0.25000000  1
  Mg  Mg10  1  0.00000000  0.76517076  0.75000000  1
  Mg  Mg11  1  0.50000000  0.62676540  0.75000000  1
