# generated using pymatgen
data_Li9Mn7O16
_symmetry_space_group_name_H-M   'P 1'
_cell_length_a   5.09681848
_cell_length_b   6.48079836
_cell_length_c   9.38756404
_cell_angle_alpha   82.21071120
_cell_angle_beta   80.47192903
_cell_angle_gamma   96.65895728
_symmetry_Int_Tables_number   1
_chemical_formula_structural   Li9Mn7O16
_chemical_formula_sum   'Li9 Mn7 O16'
_cell_volume   299.93104153
_cell_formula_units_Z   1
loop_
 _symmetry_equiv_pos_site_id
 _symmetry_equiv_pos_as_xyz
  1  'x, y, z'
loop_
 _atom_site_type_symbol
 _atom_site_label
 _atom_site_symmetry_multiplicity
 _atom_site_fract_x
 _atom_site_fract_y
 _atom_site_fract_z
 _atom_site_occupancy
  Li  Li0  1  0.25509638  0.68982015  0.18473347  1
  Li  Li1  1  0.26498208  0.18720292  0.70684009  1
  Li  Li2  1  0.73370805  0.81986967  0.29959677  1
  Li  Li3  1  0.74719694  0.31477800  0.81543939  1
  Li  Li4  1  0.25280306  0.93522200  0.43456061  1
  Li  Li5  1  0.26629195  0.43013033  0.95040323  1
  Li  Li6  1  0.74490362  0.56017985  0.06526653  1
  Li  Li7  1  0.73501792  0.06279708  0.54315991  1
  Li  Li8  1  0.50000000  0.12500000  0.12500000  1
  Mn  Mn9  1  0.00245790  0.99944113  0.01097925  1
  Mn  Mn10  1  0.99754210  0.25055887  0.23902075  1
  Mn  Mn11  1  0.99247211  0.49923896  0.49553107  1
  Mn  Mn12  1  0.50000000  0.62500000  0.62500000  1
  Mn  Mn13  1  0.00752789  0.75076104  0.75446893  1
  Mn  Mn14  1  0.49081656  0.37237067  0.36035289  1
  Mn  Mn15  1  0.50918344  0.87762933  0.88964711  1
  O  O16  1  0.14411015  0.74121517  0.97224609  1
  O  O17  1  0.11237262  0.23160025  0.43853552  1
  O  O18  1  0.65567875  0.85322763  0.09219228  1
  O  O19  1  0.63644805  0.35926746  0.59566767  1
  O  O20  1  0.10399354  0.98376163  0.20149813  1
  O  O21  1  0.13787888  0.48468385  0.71655084  1
  O  O22  1  0.64582168  0.61408527  0.84590997  1
  O  O23  1  0.63196196  0.11293391  0.34065642  1
  O  O24  1  0.35417832  0.63591473  0.40409003  1
  O  O25  1  0.36803804  0.13706609  0.90934358  1
  O  O26  1  0.86212112  0.76531715  0.53344816  1
  O  O27  1  0.89600646  0.26623837  0.04850187  1
  O  O28  1  0.36355195  0.89073354  0.65433133  1
  O  O29  1  0.34432125  0.39677237  0.15780772  1
  O  O30  1  0.85588985  0.50878483  0.27775391  1
  O  O31  1  0.88762738  0.01839875  0.81146448  1
