# generated using pymatgen
data_LiFeP2O7
_symmetry_space_group_name_H-M   'P 1'
_cell_length_a   6.31285741
_cell_length_b   6.31285747
_cell_length_c   13.17796742
_cell_angle_alpha   78.61589676
_cell_angle_beta   78.39506967
_cell_angle_gamma   99.67387329
_symmetry_Int_Tables_number   1
_chemical_formula_structural   LiFeP2O7
_chemical_formula_sum   'Li4 Fe4 P8 O28'
_cell_volume   492.37111602
_cell_formula_units_Z   4
loop_
 _symmetry_equiv_pos_site_id
 _symmetry_equiv_pos_as_xyz
  1  'x, y, z'
loop_
 _atom_site_type_symbol
 _atom_site_label
 _atom_site_symmetry_multiplicity
 _atom_site_fract_x
 _atom_site_fract_y
 _atom_site_fract_z
 _atom_site_occupancy
  Li  Li0  1  0.60365313  0.01947110  0.62902506  1
  Li  Li1  1  0.85150484  0.76732181  0.12902506  1
  Li  Li2  1  0.39634687  0.98052890  0.37097494  1
  Li  Li3  1  0.14849516  0.23267819  0.87097494  1
  Fe  Fe4  1  0.26068612  0.12384186  0.14189090  1
  Fe  Fe5  1  0.76573276  0.40257702  0.35810910  1
  Fe  Fe6  1  0.73931388  0.87615814  0.85810910  1
  Fe  Fe7  1  0.23426724  0.59742298  0.64189090  1
  P  P8  1  0.11768029  0.09475182  0.63600299  1
  P  P9  1  0.24057211  0.42042205  0.42636643  1
  P  P10  1  0.34678848  0.66693854  0.07363357  1
  P  P11  1  0.76924518  0.24631672  0.13600299  1
  P  P12  1  0.75942789  0.57957795  0.57363357  1
  P  P13  1  0.23075482  0.75368328  0.86399701  1
  P  P14  1  0.88231971  0.90524818  0.36399701  1
  P  P15  1  0.65321152  0.33306146  0.92636643  1
  O  O16  1  0.32144642  0.43954798  0.14530052  1
  O  O17  1  0.81981337  0.42577281  0.19598601  1
  O  O18  1  0.43547677  0.33064695  0.37440913  1
  O  O19  1  0.90933787  0.78781766  0.47858649  1
  O  O20  1  0.30822707  0.61411122  0.47660604  1
  O  O21  1  0.40928273  0.21516689  0.97660604  1
  O  O22  1  0.45644035  0.91413136  0.81521297  1
  O  O23  1  0.59071727  0.78483311  0.02339396  1
  O  O24  1  0.67855358  0.56045202  0.85469948  1
  O  O25  1  0.18018663  0.57422719  0.80401399  1
  O  O26  1  0.27068970  0.93255823  0.61695313  1
  O  O27  1  0.20505608  0.80988590  0.12559087  1
  O  O28  1  0.76640515  0.38792436  0.02141351  1
  O  O29  1  0.79494392  0.19011410  0.87440913  1
  O  O30  1  0.08484850  0.46674694  0.35469948  1
  O  O31  1  0.09066213  0.21218234  0.52141351  1
  O  O32  1  0.23359485  0.61207564  0.97858649  1
  O  O33  1  0.91515150  0.53325306  0.64530052  1
  O  O34  1  0.12175882  0.01580038  0.30401399  1
  O  O35  1  0.95048864  0.11235616  0.11695313  1
  O  O36  1  0.56452323  0.66935305  0.62559087  1
  O  O37  1  0.54355965  0.08586864  0.18478703  1
  O  O38  1  0.72931030  0.06744177  0.38304687  1
  O  O39  1  0.87824118  0.98419962  0.69598601  1
  O  O40  1  0.04951136  0.88764384  0.88304687  1
  O  O41  1  0.69177293  0.38588878  0.52339396  1
  O  O42  1  0.77065567  0.72834668  0.31521297  1
  O  O43  1  0.22934433  0.27165332  0.68478703  1
