# generated using pymatgen
data_Li9Mn7O16
_symmetry_space_group_name_H-M   'P 1'
_cell_length_a   5.08906906
_cell_length_b   8.73000868
_cell_length_c   6.96292214
_cell_angle_alpha   100.04306936
_cell_angle_beta   101.06291498
_cell_angle_gamma   93.63544930
_symmetry_Int_Tables_number   1
_chemical_formula_structural   Li9Mn7O16
_chemical_formula_sum   'Li9 Mn7 O16'
_cell_volume   297.43970699
_cell_formula_units_Z   1
loop_
 _symmetry_equiv_pos_site_id
 _symmetry_equiv_pos_as_xyz
  1  'x, y, z'
loop_
 _atom_site_type_symbol
 _atom_site_label
 _atom_site_symmetry_multiplicity
 _atom_site_fract_x
 _atom_site_fract_y
 _atom_site_fract_z
 _atom_site_occupancy
  Li  Li0  1  0.74199782  0.18201865  0.30924151  1
  Li  Li1  1  0.74978191  0.44163011  0.06326251  1
  Li  Li2  1  0.26804331  0.06051228  0.41529582  1
  Li  Li3  1  0.25021809  0.30836989  0.18673749  1
  Li  Li4  1  0.73977146  0.93654036  0.56876883  1
  Li  Li5  1  0.73195669  0.68948772  0.83470418  1
  Li  Li6  1  0.25800218  0.56798135  0.94075849  1
  Li  Li7  1  0.26022854  0.81345964  0.68123117  1
  Li  Li8  1  0.50000000  0.87500000  0.12500000  1
  Mn  Mn9  1  0.00026019  0.99741678  0.01191988  1
  Mn  Mn10  1  -0.00026019  0.75258322  0.23808012  1
  Mn  Mn11  1  0.99633516  0.24742022  0.75275240  1
  Mn  Mn12  1  0.00366484  0.50257978  0.49724760  1
  Mn  Mn13  1  0.49574831  0.11872221  0.88879606  1
  Mn  Mn14  1  0.50000000  0.37500000  0.62500000  1
  Mn  Mn15  1  0.50425169  0.63127779  0.36120394  1
  O  O16  1  0.86062907  0.20169141  0.03188502  1
  O  O17  1  0.86165273  0.45523046  0.77402135  1
  O  O18  1  0.34848223  0.08584516  0.15108259  1
  O  O19  1  0.35901461  0.32524114  0.90115559  1
  O  O20  1  0.89620318  0.96220194  0.25663985  1
  O  O21  1  0.88287002  0.71704120  0.49204160  1
  O  O22  1  0.36159492  0.58243658  0.65489534  1
  O  O23  1  0.36125125  0.83046026  0.40235841  1
  O  O24  1  0.63840508  0.16756342  0.59510466  1
  O  O25  1  0.64098539  0.42475786  0.34884541  1
  O  O26  1  0.11712998  0.03295780  0.75795740  1
  O  O27  1  0.13834727  0.29476954  0.47597965  1
  O  O28  1  0.63874875  0.91953874  0.84764159  1
  O  O29  1  0.65151777  0.66415584  0.09891841  1
  O  O30  1  0.13937093  0.54830959  0.21811598  1
  O  O31  1  0.10379682  0.78779906  0.99336115  1
