# generated using pymatgen
data_UNbO5
_symmetry_space_group_name_H-M   'P 1'
_cell_length_a   4.14905338
_cell_length_b   13.03844838
_cell_length_c   7.53158574
_cell_angle_alpha   90.00000000
_cell_angle_beta   90.00000000
_cell_angle_gamma   90.00000000
_symmetry_Int_Tables_number   1
_chemical_formula_structural   UNbO5
_chemical_formula_sum   'U4 Nb4 O20'
_cell_volume   407.43783808
_cell_formula_units_Z   4
loop_
 _symmetry_equiv_pos_site_id
 _symmetry_equiv_pos_as_xyz
  1  'x, y, z'
loop_
 _atom_site_type_symbol
 _atom_site_label
 _atom_site_symmetry_multiplicity
 _atom_site_fract_x
 _atom_site_fract_y
 _atom_site_fract_z
 _atom_site_occupancy
  U  U0  1  -0.00000000  0.22809075  0.75000000  1
  U  U1  1  -0.00000000  0.27190925  0.25000000  1
  U  U2  1  0.00000000  0.72809075  0.75000000  1
  U  U3  1  0.00000000  0.77190925  0.25000000  1
  Nb  Nb4  1  0.08330103  0.00000000  0.50000000  1
  Nb  Nb5  1  0.08330103  0.50000000  0.00000000  1
  Nb  Nb6  1  0.91669897  0.00000000  0.00000000  1
  Nb  Nb7  1  0.91669897  0.50000000  0.50000000  1
  O  O8  1  0.98824295  0.15309338  0.04706112  1
  O  O9  1  0.01175705  0.15309338  0.45293888  1
  O  O10  1  0.00000000  0.45614668  0.25000000  1
  O  O11  1  0.98824295  0.34690662  0.54706112  1
  O  O12  1  0.01175705  0.65309338  0.04706112  1
  O  O13  1  0.01175705  0.34690662  0.95293888  1
  O  O14  1  0.98824295  0.65309338  0.45293888  1
  O  O15  1  -0.00000000  0.54385332  0.75000000  1
  O  O16  1  0.00000000  0.95614668  0.25000000  1
  O  O17  1  0.01175705  0.84690662  0.54706112  1
  O  O18  1  0.51509076  -0.00000000  0.50000000  1
  O  O19  1  0.48490924  0.50000000  0.50000000  1
  O  O20  1  0.50000000  0.22467195  0.75000000  1
  O  O21  1  0.50000000  0.27532805  0.25000000  1
  O  O22  1  0.48490924  0.00000000  0.00000000  1
  O  O23  1  0.50000000  0.72467195  0.75000000  1
  O  O24  1  0.50000000  0.77532805  0.25000000  1
  O  O25  1  0.51509076  0.50000000  0.00000000  1
  O  O26  1  0.00000000  0.04385332  0.75000000  1
  O  O27  1  0.98824295  0.84690662  0.95293888  1
