# generated using pymatgen
data_Li2Cr5(PO4)4
_symmetry_space_group_name_H-M   'P 1'
_cell_length_a   8.05584982
_cell_length_b   8.78200096
_cell_length_c   5.51195888
_cell_angle_alpha   85.56469988
_cell_angle_beta   100.83862596
_cell_angle_gamma   118.41700940
_symmetry_Int_Tables_number   1
_chemical_formula_structural   Li2Cr5(PO4)4
_chemical_formula_sum   'Li2 Cr5 P4 O16'
_cell_volume   336.81377097
_cell_formula_units_Z   1
loop_
 _symmetry_equiv_pos_site_id
 _symmetry_equiv_pos_as_xyz
  1  'x, y, z'
loop_
 _atom_site_type_symbol
 _atom_site_label
 _atom_site_symmetry_multiplicity
 _atom_site_fract_x
 _atom_site_fract_y
 _atom_site_fract_z
 _atom_site_occupancy
  Li  Li0  1  0.18574915  0.29017679  0.63011086  1
  Li  Li1  1  0.81425085  0.70982321  0.36988914  1
  Cr  Cr2  1  0.76376697  0.20641204  0.82431446  1
  Cr  Cr3  1  0.54367508  0.28990563  0.28980425  1
  Cr  Cr4  1  0.45632492  0.71009437  0.71019575  1
  Cr  Cr5  1  -0.00000000  0.00000000  0.00000000  1
  Cr  Cr6  1  0.23623303  0.79358796  0.17568554  1
  P  P7  1  0.21253054  0.41190429  0.12552788  1
  P  P8  1  0.29844312  0.99263434  0.66943855  1
  P  P9  1  0.70155688  0.00736566  0.33056145  1
  P  P10  1  0.78746946  0.58809571  0.87447212  1
  O  O11  1  0.83718877  0.47252033  0.74424196  1
  O  O12  1  0.68971774  0.50880554  0.10292341  1
  O  O13  1  0.84560445  0.09914236  0.56603080  1
  O  O14  1  0.50569461  0.86299536  0.39632450  1
  O  O15  1  0.97579425  0.75731464  0.98184461  1
  O  O16  1  0.15439555  0.90085764  0.43396920  1
  O  O17  1  0.34021060  0.85623151  0.83260895  1
  O  O18  1  0.02420575  0.24268536  0.01815539  1
  O  O19  1  0.77594193  0.91287580  0.18925836  1
  O  O20  1  0.31028226  0.49119446  0.89707659  1
  O  O21  1  0.22405807  0.08712520  0.81074164  1
  O  O22  1  0.16281123  0.52747967  0.25575804  1
  O  O23  1  0.32824719  0.34506275  0.32303747  1
  O  O24  1  0.67175281  0.65493725  0.67696253  1
  O  O25  1  0.49430539  0.13700464  0.60367550  1
  O  O26  1  0.65978940  0.14376849  0.16739105  1
