# generated using pymatgen
data_YbMg2
_symmetry_space_group_name_H-M   'P 1'
_cell_length_a   6.18150265
_cell_length_b   6.18150431
_cell_length_c   6.19188847
_cell_angle_alpha   119.94452141
_cell_angle_beta   60.05547240
_cell_angle_gamma   119.99999143
_symmetry_Int_Tables_number   1
_chemical_formula_structural   YbMg2
_chemical_formula_sum   'Yb2 Mg4'
_cell_volume   167.44031967
_cell_formula_units_Z   2
loop_
 _symmetry_equiv_pos_site_id
 _symmetry_equiv_pos_as_xyz
  1  'x, y, z'
loop_
 _atom_site_type_symbol
 _atom_site_label
 _atom_site_symmetry_multiplicity
 _atom_site_fract_x
 _atom_site_fract_y
 _atom_site_fract_z
 _atom_site_occupancy
  Yb  Yb0  1  0.87544068  0.45789232  0.37367795  1
  Yb  Yb1  1  0.12455832  0.20877368  0.62632305  1
  Mg  Mg2  1  0.99999900  0.83401756  0.00000100  1
  Mg  Mg3  1  0.50068356  0.33333300  0.00000000  1
  Mg  Mg4  1  0.49931644  0.83265044  1.00000000  1
  Mg  Mg5  1  0.50000100  0.83333400  0.49999900  1
