# generated using pymatgen
data_V3FeNi2(PO4)6
_symmetry_space_group_name_H-M   'P 1'
_cell_length_a   8.45598097
_cell_length_b   8.61141079
_cell_length_c   8.61141012
_cell_angle_alpha   59.99999904
_cell_angle_beta   59.39007685
_cell_angle_gamma   59.39007822
_symmetry_Int_Tables_number   1
_chemical_formula_structural   V3FeNi2(PO4)6
_chemical_formula_sum   'V3 Fe1 Ni2 P6 O24'
_cell_volume   439.27015156
_cell_formula_units_Z   1
loop_
 _symmetry_equiv_pos_site_id
 _symmetry_equiv_pos_as_xyz
  1  'x, y, z'
loop_
 _atom_site_type_symbol
 _atom_site_label
 _atom_site_symmetry_multiplicity
 _atom_site_fract_x
 _atom_site_fract_y
 _atom_site_fract_z
 _atom_site_occupancy
  V  V0  1  0.07131213  0.64289562  0.64289562  1
  V  V1  1  0.42591538  0.85802854  0.85802854  1
  V  V2  1  0.92693297  0.35768934  0.35768934  1
  Fe  Fe3  1  0.56936131  0.14354590  0.14354590  1
  Ni  Ni4  1  0.99747098  0.00084334  0.00084334  1
  Ni  Ni5  1  0.49870404  0.50043232  0.50043232  1
  P  P6  1  0.25017265  0.24958537  0.54454271  1
  P  P7  1  0.25017265  0.95569926  0.24958537  1
  P  P8  1  0.25017265  0.54454271  0.95569926  1
  P  P9  1  0.75136740  0.45454556  0.04377068  1
  P  P10  1  0.75136740  0.04377068  0.75031536  1
  P  P11  1  0.75136740  0.75031536  0.45454556  1
  O  O12  1  0.06409680  0.11568782  0.31633084  1
  O  O13  1  0.06409680  0.50388454  0.11568782  1
  O  O14  1  0.06409680  0.31633084  0.50388454  1
  O  O15  1  0.22473580  0.09077006  0.74406001  1
  O  O16  1  0.43500180  0.18408658  0.38834668  1
  O  O17  1  0.26961699  0.41145397  0.56202520  1
  O  O18  1  0.22473580  0.94043413  0.09077006  1
  O  O19  1  0.26961699  0.75690384  0.41145397  1
  O  O20  1  0.56575523  0.61422265  0.00424899  1
  O  O21  1  0.26961699  0.56202520  0.75690384  1
  O  O22  1  0.77860628  0.25781135  0.05536433  1
  O  O23  1  0.56575523  0.00424899  0.81577313  1
  O  O24  1  0.43500180  0.99256494  0.18408658  1
  O  O25  1  0.22473580  0.74406001  0.94043413  1
  O  O26  1  0.72825217  0.44030192  0.24275476  1
  O  O27  1  0.43500180  0.38834668  0.99256494  1
  O  O28  1  0.72825217  0.24275476  0.58869215  1
  O  O29  1  0.77860628  0.05536433  0.90821804  1
  O  O30  1  0.72825217  0.58869215  0.44030192  1
  O  O31  1  0.56575523  0.81577313  0.61422265  1
  O  O32  1  0.77860628  0.90821804  0.25781135  1
  O  O33  1  0.93582794  0.67748645  0.50024187  1
  O  O34  1  0.93582794  0.50024187  0.88644375  1
  O  O35  1  0.93582794  0.88644375  0.67748645  1
