# generated using pymatgen
data_Ti2FeO5
_symmetry_space_group_name_H-M   'P 1'
_cell_length_a   3.76673477
_cell_length_b   10.64412535
_cell_length_c   20.57093196
_cell_angle_alpha   91.18094672
_cell_angle_beta   89.98868311
_cell_angle_gamma   110.68995181
_symmetry_Int_Tables_number   1
_chemical_formula_structural   Ti2FeO5
_chemical_formula_sum   'Ti16 Fe8 O40'
_cell_volume   771.38440498
_cell_formula_units_Z   8
loop_
 _symmetry_equiv_pos_site_id
 _symmetry_equiv_pos_as_xyz
  1  'x, y, z'
loop_
 _atom_site_type_symbol
 _atom_site_label
 _atom_site_symmetry_multiplicity
 _atom_site_fract_x
 _atom_site_fract_y
 _atom_site_fract_z
 _atom_site_occupancy
  Ti  Ti0  1  0.13628626  0.63325947  0.22270617  1
  Ti  Ti1  1  0.12862950  0.63147886  0.71679104  1
  Ti  Ti2  1  0.13213162  0.63211650  0.53277948  1
  Ti  Ti3  1  0.13614352  0.64067651  0.03572023  1
  Ti  Ti4  1  0.13181651  0.13316738  0.71613876  1
  Ti  Ti5  1  0.13885726  0.13697424  0.03082483  1
  Ti  Ti6  1  0.12192430  0.12636702  0.53469713  1
  Ti  Ti7  1  0.18453300  0.18561249  0.37352470  1
  Ti  Ti8  1  0.86385648  0.85932349  0.46427977  1
  Ti  Ti9  1  0.86786838  0.86788350  0.96722052  1
  Ti  Ti10  1  0.86371374  0.86674053  0.27729383  1
  Ti  Ti11  1  0.87137050  0.86852114  0.78320896  1
  Ti  Ti12  1  0.81546700  0.31438751  0.12647530  1
  Ti  Ti13  1  0.87807570  0.37363298  0.96530287  1
  Ti  Ti14  1  0.86114274  0.36302576  0.46917517  1
  Ti  Ti15  1  0.86818349  0.36683262  0.78386124  1
  Fe  Fe16  1  0.18911105  0.68970346  0.37509271  1
  Fe  Fe17  1  0.19674589  0.69416105  0.87564360  1
  Fe  Fe18  1  0.13862157  0.13885094  0.21874481  1
  Fe  Fe19  1  0.19228062  0.19356334  0.87479563  1
  Fe  Fe20  1  0.81088895  0.81029654  0.12490729  1
  Fe  Fe21  1  0.80325411  0.80583895  0.62435640  1
  Fe  Fe22  1  0.80771938  0.30643666  0.62520437  1
  Fe  Fe23  1  0.86137843  0.36114906  0.28125519  1
  O  O24  1  0.03722866  0.53647096  0.44314836  1
  O  O25  1  0.06074766  0.55533094  0.30205377  1
  O  O26  1  0.06085384  0.54626197  0.94280267  1
  O  O27  1  0.05619641  0.54734215  0.80497312  1
  O  O28  1  0.21298709  0.71224195  0.12107278  1
  O  O29  1  0.20115010  0.70229469  0.62400026  1
  O  O30  1  0.31186055  0.81043629  0.47324724  1
  O  O31  1  0.31509622  0.81698083  0.28055633  1
  O  O32  1  0.31878451  0.81906079  0.97191704  1
  O  O33  1  0.31588825  0.81508566  0.78015518  1
  O  O34  1  0.03101464  0.03697472  0.31767744  1
  O  O35  1  0.05604399  0.04281201  0.44543554  1
  O  O36  1  0.05732994  0.04635553  0.80575513  1
  O  O37  1  0.05199010  0.04892116  0.94523626  1
  O  O38  1  0.26079329  0.26061986  0.11276331  1
  O  O39  1  0.20640631  0.20470734  0.62674219  1
  O  O40  1  0.29500635  0.29328736  0.29957533  1
  O  O41  1  0.31552785  0.31565090  0.77874434  1
  O  O42  1  0.30838950  0.30953875  0.46459180  1
  O  O43  1  0.31763721  0.31619959  0.96874297  1
  O  O44  1  0.68490378  0.68301917  0.21944367  1
  O  O45  1  0.68411175  0.68491434  0.71984482  1
  O  O46  1  0.68813945  0.68956371  0.02675276  1
  O  O47  1  0.68121549  0.68093921  0.52808296  1
  O  O48  1  0.78701291  0.78775805  0.37892722  1
  O  O49  1  0.79884990  0.79770531  0.87599974  1
  O  O50  1  0.96277134  0.96352904  0.05685164  1
  O  O51  1  0.93925234  0.94466906  0.19794623  1
  O  O52  1  0.93914616  0.95373803  0.55719733  1
  O  O53  1  0.94380359  0.95265785  0.69502688  1
  O  O54  1  0.70499365  0.20671264  0.20042467  1
  O  O55  1  0.68447215  0.18434910  0.72125566  1
  O  O56  1  0.69161050  0.19046125  0.03540820  1
  O  O57  1  0.68236279  0.18380041  0.53125703  1
  O  O58  1  0.73920671  0.23938014  0.38723669  1
  O  O59  1  0.79359369  0.29529266  0.87325781  1
  O  O60  1  0.94395601  0.45718799  0.05456446  1
  O  O61  1  0.96898536  0.46302528  0.18232256  1
  O  O62  1  0.94267006  0.45364447  0.69424487  1
  O  O63  1  0.94800990  0.45107884  0.55476374  1
