# generated using pymatgen
data_Co2As2H8O13
_symmetry_space_group_name_H-M   'P 1'
_cell_length_a   4.60342878
_cell_length_b   9.16688398
_cell_length_c   12.42813747
_cell_angle_alpha   90.00000000
_cell_angle_beta   98.65783996
_cell_angle_gamma   90.00000000
_symmetry_Int_Tables_number   1
_chemical_formula_structural   Co2As2H8O13
_chemical_formula_sum   'Co4 As4 H16 O26'
_cell_volume   518.47996593
_cell_formula_units_Z   2
loop_
 _symmetry_equiv_pos_site_id
 _symmetry_equiv_pos_as_xyz
  1  'x, y, z'
loop_
 _atom_site_type_symbol
 _atom_site_label
 _atom_site_symmetry_multiplicity
 _atom_site_fract_x
 _atom_site_fract_y
 _atom_site_fract_z
 _atom_site_occupancy
  Co  Co0  1  0.04104546  0.95717058  0.12276203  1
  Co  Co1  1  0.54104546  0.54282942  0.62276203  1
  Co  Co2  1  0.96043150  0.04327828  0.87869606  1
  Co  Co3  1  0.46043150  0.45672172  0.37869606  1
  As  As4  1  0.01071640  0.70320275  0.46366102  1
  As  As5  1  0.51071640  0.79679725  0.96366102  1
  As  As6  1  0.98590289  0.29625138  0.53782235  1
  As  As7  1  0.48590289  0.20374862  0.03782235  1
  H  H8  1  0.66144875  0.05870774  0.23128173  1
  H  H9  1  0.16144875  0.44129226  0.73128173  1
  H  H10  1  0.33980565  0.94168700  0.76906231  1
  H  H11  1  0.83980565  0.55831300  0.26906231  1
  H  H12  1  0.46793281  0.77873481  0.18664401  1
  H  H13  1  0.96793281  0.72126519  0.68664401  1
  H  H14  1  0.52659124  0.21949834  0.81295509  1
  H  H15  1  0.02659124  0.28050166  0.31295509  1
  H  H16  1  0.88230359  0.96654613  0.32143403  1
  H  H17  1  0.38230359  0.53345387  0.82143403  1
  H  H18  1  0.11153373  0.03345459  0.68023677  1
  H  H19  1  0.61153373  0.46654541  0.18023677  1
  H  H20  1  0.24750186  0.75516195  0.27303725  1
  H  H21  1  0.74750186  0.74483805  0.77303725  1
  H  H22  1  0.75047025  0.24472591  0.72718078  1
  H  H23  1  0.25047025  0.25527409  0.22718078  1
  O  O24  1  0.88434643  0.86928122  0.42649506  1
  O  O25  1  0.38434643  0.63071878  0.92649506  1
  O  O26  1  0.10054298  0.12919185  0.57582062  1
  O  O27  1  0.60054298  0.37080815  0.07582062  1
  O  O28  1  0.87127494  0.03062598  0.25401063  1
  O  O29  1  0.37127494  0.46937402  0.75401063  1
  O  O30  1  0.13010590  0.97009070  0.74843741  1
  O  O31  1  0.63010590  0.52990930  0.24843741  1
  O  O32  1  0.21611717  0.91134592  0.98514479  1
  O  O33  1  0.71611717  0.58865408  0.48514479  1
  O  O34  1  0.78259092  0.09013005  0.01620632  1
  O  O35  1  0.28259092  0.40986995  0.51620632  1
  O  O36  1  0.31630536  0.82825835  0.22172802  1
  O  O37  1  0.81630536  0.67174165  0.72172802  1
  O  O38  1  0.68481284  0.17273674  0.77980229  1
  O  O39  1  0.18481284  0.32726326  0.27980229  1
  O  O40  1  0.74824167  0.80334603  0.08669852  1
  O  O41  1  0.24824167  0.69665397  0.58669852  1
  O  O42  1  0.24986856  0.19686923  0.91436358  1
  O  O43  1  0.74986856  0.30313077  0.41436358  1
  O  O44  1  0.33691506  0.12079414  0.14513179  1
  O  O45  1  0.83691506  0.37920586  0.64513179  1
  O  O46  1  0.66208791  0.87694435  0.85647540  1
  O  O47  1  0.16208791  0.62305565  0.35647540  1
  O  O48  1  0.09110614  0.55554535  0.05711215  1
  O  O49  1  0.59110614  0.94445465  0.55711215  1
