# generated using pymatgen
data_Eu2GeS4
_symmetry_space_group_name_H-M   'P 1'
_cell_length_a   6.70527032
_cell_length_b   6.85946313
_cell_length_c   8.04824766
_cell_angle_alpha   90.00000000
_cell_angle_beta   107.76549311
_cell_angle_gamma   90.00000000
_symmetry_Int_Tables_number   1
_chemical_formula_structural   Eu2GeS4
_chemical_formula_sum   'Eu4 Ge2 S8'
_cell_volume   352.52312488
_cell_formula_units_Z   2
loop_
 _symmetry_equiv_pos_site_id
 _symmetry_equiv_pos_as_xyz
  1  'x, y, z'
loop_
 _atom_site_type_symbol
 _atom_site_label
 _atom_site_symmetry_multiplicity
 _atom_site_fract_x
 _atom_site_fract_y
 _atom_site_fract_z
 _atom_site_occupancy
  Eu  Eu0  1  0.71881289  0.26210653  0.05319314  1
  Eu  Eu1  1  0.28118711  0.76210653  0.94680686  1
  Eu  Eu2  1  0.75601368  0.27822022  0.56374744  1
  Eu  Eu3  1  0.24398632  0.77822022  0.43625256  1
  Ge  Ge4  1  0.26355802  0.23389199  0.19459474  1
  Ge  Ge5  1  0.73644198  0.73389199  0.80540526  1
  S  S6  1  0.08020943  0.18278901  0.91450686  1
  S  S7  1  0.91979057  0.68278901  0.08549314  1
  S  S8  1  0.06872002  0.19354408  0.37577747  1
  S  S9  1  0.93127998  0.69354408  0.62422253  1
  S  S10  1  0.46866823  0.49910611  0.24966493  1
  S  S11  1  0.53133177  0.99910611  0.75033507  1
  S  S12  1  0.49030083  0.49974207  0.73868581  1
  S  S13  1  0.50969917  0.99974207  0.26131419  1
