# generated using pymatgen
data_Eu2Zn3Ge
_symmetry_space_group_name_H-M   'P 1'
_cell_length_a   5.94641891
_cell_length_b   5.94641891
_cell_length_c   8.74960763
_cell_angle_alpha   106.11226068
_cell_angle_beta   106.11226068
_cell_angle_gamma   100.56256262
_symmetry_Int_Tables_number   1
_chemical_formula_structural   Eu2Zn3Ge
_chemical_formula_sum   'Eu4 Zn6 Ge2'
_cell_volume   273.96351685
_cell_formula_units_Z   2
loop_
 _symmetry_equiv_pos_site_id
 _symmetry_equiv_pos_as_xyz
  1  'x, y, z'
loop_
 _atom_site_type_symbol
 _atom_site_label
 _atom_site_symmetry_multiplicity
 _atom_site_fract_x
 _atom_site_fract_y
 _atom_site_fract_z
 _atom_site_occupancy
  Eu  Eu0  1  0.24150223  0.24150223  0.00000000  1
  Eu  Eu1  1  0.75849677  0.75849677  0.00000000  1
  Eu  Eu2  1  0.75000000  0.25000000  0.50000000  1
  Eu  Eu3  1  0.25000000  0.75000000  0.50000000  1
  Zn  Zn4  1  0.83043470  0.33604659  0.16648229  1
  Zn  Zn5  1  0.33604659  0.83043470  0.16648229  1
  Zn  Zn6  1  0.16736726  0.16736726  0.33473552  1
  Zn  Zn7  1  0.83263174  0.83263174  0.66526448  1
  Zn  Zn8  1  0.66395241  0.16956530  0.83351671  1
  Zn  Zn9  1  0.16956530  0.66395241  0.83351671  1
  Ge  Ge10  1  0.66443260  0.66443260  0.32886520  1
  Ge  Ge11  1  0.33556740  0.33556740  0.67113380  1
