# generated using pymatgen
data_CeMn10Cu
_symmetry_space_group_name_H-M   'P 1'
_cell_length_a   4.74348295
_cell_length_b   8.20966767
_cell_length_c   8.20966767
_cell_angle_alpha   89.75077931
_cell_angle_beta   90.00000000
_cell_angle_gamma   90.00000000
_symmetry_Int_Tables_number   1
_chemical_formula_structural   CeMn10Cu
_chemical_formula_sum   'Ce2 Mn20 Cu2'
_cell_volume   319.70129039
_cell_formula_units_Z   2
loop_
 _symmetry_equiv_pos_site_id
 _symmetry_equiv_pos_as_xyz
  1  'x, y, z'
loop_
 _atom_site_type_symbol
 _atom_site_label
 _atom_site_symmetry_multiplicity
 _atom_site_fract_x
 _atom_site_fract_y
 _atom_site_fract_z
 _atom_site_occupancy
  Ce  Ce0  1  0.99409882  0.50000000  0.50000000  1
  Ce  Ce1  1  0.99409882  0.00000000  -0.00000000  1
  Mn  Mn2  1  0.00026075  0.11288761  0.61288761  1
  Mn  Mn3  1  0.00026075  0.88711239  0.38711239  1
  Mn  Mn4  1  0.99852393  0.38217518  0.11782482  1
  Mn  Mn5  1  0.99852393  0.61782482  0.88217518  1
  Mn  Mn6  1  0.49408070  0.57220358  0.71803696  1
  Mn  Mn7  1  0.49408070  0.42779642  0.28196304  1
  Mn  Mn8  1  0.49244665  0.93685275  0.22083259  1
  Mn  Mn9  1  0.49244665  0.06314725  0.77916741  1
  Mn  Mn10  1  0.49244665  0.72083259  0.43685275  1
  Mn  Mn11  1  0.49244665  0.27916741  0.56314725  1
  Mn  Mn12  1  0.49408070  0.21803696  0.07220358  1
  Mn  Mn13  1  0.49408070  0.78196304  0.92779642  1
  Mn  Mn14  1  0.76972778  0.17668860  0.32331140  1
  Mn  Mn15  1  0.76972778  0.82331140  0.67668860  1
  Mn  Mn16  1  0.26166127  0.67814314  0.17814314  1
  Mn  Mn17  1  0.26166127  0.32185686  0.82185686  1
  Mn  Mn18  1  0.23016035  0.82288646  0.67711354  1
  Mn  Mn19  1  0.23016035  0.17711354  0.32288646  1
  Mn  Mn20  1  0.49805934  0.00000000  0.50000000  1
  Mn  Mn21  1  0.49826914  0.50000000  -0.00000000  1
  Cu  Cu22  1  0.77434815  0.32109892  0.82109892  1
  Cu  Cu23  1  0.77434815  0.67890108  0.17890108  1
