# generated using pymatgen
data_Cu5(AsO5)2
_symmetry_space_group_name_H-M   'P 1'
_cell_length_a   5.21785831
_cell_length_b   6.33067595
_cell_length_c   6.38287382
_cell_angle_alpha   100.39793769
_cell_angle_beta   95.45371720
_cell_angle_gamma   94.65111397
_symmetry_Int_Tables_number   1
_chemical_formula_structural   Cu5(AsO5)2
_chemical_formula_sum   'Cu5 As2 O10'
_cell_volume   205.39972674
_cell_formula_units_Z   1
loop_
 _symmetry_equiv_pos_site_id
 _symmetry_equiv_pos_as_xyz
  1  'x, y, z'
loop_
 _atom_site_type_symbol
 _atom_site_label
 _atom_site_symmetry_multiplicity
 _atom_site_fract_x
 _atom_site_fract_y
 _atom_site_fract_z
 _atom_site_occupancy
  Cu  Cu0  1  0.00000000  0.00000000  0.50000000  1
  Cu  Cu1  1  0.85844540  0.33899377  0.27889641  1
  Cu  Cu2  1  0.14155460  0.66100623  0.72110359  1
  Cu  Cu3  1  0.25272254  0.12322215  0.04898838  1
  Cu  Cu4  1  0.74727746  0.87677785  0.95101162  1
  As  As5  1  0.59270019  0.33868411  0.72996315  1
  As  As6  1  0.40729981  0.66131589  0.27003685  1
  O  O7  1  0.02115206  0.94263639  0.78468835  1
  O  O8  1  0.97884794  0.05736361  0.21531165  1
  O  O9  1  0.57880357  0.18519984  0.93094545  1
  O  O10  1  0.42119643  0.81480016  0.06905455  1
  O  O11  1  0.80404287  0.56643487  0.83091163  1
  O  O12  1  0.19595713  0.43356513  0.16908837  1
  O  O13  1  0.71230703  0.18834474  0.50870081  1
  O  O14  1  0.28769297  0.81165526  0.49129919  1
  O  O15  1  0.28402107  0.38993260  0.65123377  1
  O  O16  1  0.71597893  0.61006740  0.34876623  1
