# generated using pymatgen
data_TlV5S8
_symmetry_space_group_name_H-M   'P 1'
_cell_length_a   3.25596810
_cell_length_b   8.53970334
_cell_length_c   8.93633968
_cell_angle_alpha   104.42605116
_cell_angle_beta   100.49651464
_cell_angle_gamma   90.00000000
_symmetry_Int_Tables_number   1
_chemical_formula_structural   TlV5S8
_chemical_formula_sum   'Tl1 V5 S8'
_cell_volume   236.34475012
_cell_formula_units_Z   1
loop_
 _symmetry_equiv_pos_site_id
 _symmetry_equiv_pos_as_xyz
  1  'x, y, z'
loop_
 _atom_site_type_symbol
 _atom_site_label
 _atom_site_symmetry_multiplicity
 _atom_site_fract_x
 _atom_site_fract_y
 _atom_site_fract_z
 _atom_site_occupancy
  Tl  Tl0  1  0.50000000  0.00000000  0.00000000  1
  V  V1  1  0.00000000  0.50000000  0.00000000  1
  V  V2  1  0.71134893  0.85855977  0.42269786  1
  V  V3  1  0.28865107  0.14144023  0.57730214  1
  V  V4  1  0.64791378  0.49563364  0.29582755  1
  V  V5  1  0.35208622  0.50436636  0.70417245  1
  S  S6  1  0.83941615  0.00010105  0.67883230  1
  S  S7  1  0.16058385  0.99989895  0.32116770  1
  S  S8  1  0.75873160  0.34015879  0.51746321  1
  S  S9  1  0.24126840  0.65984121  0.48253679  1
  S  S10  1  0.91549701  0.68116373  0.83099402  1
  S  S11  1  0.08450299  0.31883627  0.16900598  1
  S  S12  1  0.57448727  0.67910665  0.14897454  1
  S  S13  1  0.42551273  0.32089335  0.85102546  1
