# generated using pymatgen
data_TmCo4B
_symmetry_space_group_name_H-M   'P 1'
_cell_length_a   4.95797376
_cell_length_b   4.95873337
_cell_length_c   6.82728920
_cell_angle_alpha   90.00000000
_cell_angle_beta   90.00000000
_cell_angle_gamma   119.99493435
_symmetry_Int_Tables_number   1
_chemical_formula_structural   TmCo4B
_chemical_formula_sum   'Tm2 Co8 B2'
_cell_volume   145.37043106
_cell_formula_units_Z   2
loop_
 _symmetry_equiv_pos_site_id
 _symmetry_equiv_pos_as_xyz
  1  'x, y, z'
loop_
 _atom_site_type_symbol
 _atom_site_label
 _atom_site_symmetry_multiplicity
 _atom_site_fract_x
 _atom_site_fract_y
 _atom_site_fract_z
 _atom_site_occupancy
  Tm  Tm0  1  0.99998746  1.00000000  0.00000000  1
  Tm  Tm1  1  0.99999698  -0.00000000  0.50000000  1
  Co  Co2  1  0.33330373  0.66668868  -0.00000000  1
  Co  Co3  1  0.66661505  0.33331132  -0.00000000  1
  Co  Co4  1  0.49999934  0.00000000  0.28830479  1
  Co  Co5  1  0.49999568  0.50000375  0.28831015  1
  Co  Co6  1  0.99999193  0.49999625  0.28831015  1
  Co  Co7  1  0.49999934  0.00000000  0.71169521  1
  Co  Co8  1  0.49999568  0.50000375  0.71168985  1
  Co  Co9  1  0.99999193  0.49999625  0.71168985  1
  B  B10  1  0.33329369  0.66666447  0.50000000  1
  B  B11  1  0.66662921  0.33333553  0.50000000  1
