# generated using pymatgen
data_VPO5
_symmetry_space_group_name_H-M   'P 1'
_cell_length_a   5.61581815
_cell_length_b   5.61581815
_cell_length_c   6.26577088
_cell_angle_alpha   79.09965435
_cell_angle_beta   79.09965435
_cell_angle_gamma   67.73285216
_symmetry_Int_Tables_number   1
_chemical_formula_structural   VPO5
_chemical_formula_sum   'V2 P2 O10'
_cell_volume   178.06468247
_cell_formula_units_Z   2
loop_
 _symmetry_equiv_pos_site_id
 _symmetry_equiv_pos_as_xyz
  1  'x, y, z'
loop_
 _atom_site_type_symbol
 _atom_site_label
 _atom_site_symmetry_multiplicity
 _atom_site_fract_x
 _atom_site_fract_y
 _atom_site_fract_z
 _atom_site_occupancy
  V  V0  1  0.18841766  0.18841766  0.27589324  1
  V  V1  1  0.81158234  0.81158234  0.72410676  1
  P  P2  1  0.24825612  0.24825612  0.75028550  1
  P  P3  1  0.75174388  0.75174388  0.24971450  1
  O  O4  1  0.36307753  0.36307753  0.22648532  1
  O  O5  1  0.63692247  0.63692247  0.77351468  1
  O  O6  1  0.13749140  0.13749140  0.59755935  1
  O  O7  1  0.86250860  0.86250860  0.40244065  1
  O  O8  1  0.15094905  0.54820521  0.70787778  1
  O  O9  1  0.54820521  0.15094905  0.70787778  1
  O  O10  1  0.84905095  0.45179479  0.29212222  1
  O  O11  1  0.45179479  0.84905095  0.29212222  1
  O  O12  1  0.84567966  0.84567966  0.01184907  1
  O  O13  1  0.15432034  0.15432034  0.98815093  1
