# generated using pymatgen
data_Gd3BiO3
_symmetry_space_group_name_H-M   'P 1'
_cell_length_a   3.92113282
_cell_length_b   7.03994785
_cell_length_c   10.84580842
_cell_angle_alpha   82.04928407
_cell_angle_beta   79.58555209
_cell_angle_gamma   73.82980366
_symmetry_Int_Tables_number   1
_chemical_formula_structural   Gd3BiO3
_chemical_formula_sum   'Gd6 Bi2 O6'
_cell_volume   281.58304240
_cell_formula_units_Z   2
loop_
 _symmetry_equiv_pos_site_id
 _symmetry_equiv_pos_as_xyz
  1  'x, y, z'
loop_
 _atom_site_type_symbol
 _atom_site_label
 _atom_site_symmetry_multiplicity
 _atom_site_fract_x
 _atom_site_fract_y
 _atom_site_fract_z
 _atom_site_occupancy
  Gd  Gd0  1  0.12262929  0.19477641  0.55996502  1
  Gd  Gd1  1  0.87737071  0.80522359  0.44003498  1
  Gd  Gd2  1  0.34607457  0.10312106  0.20472980  1
  Gd  Gd3  1  0.65392543  0.89687894  0.79527020  1
  Gd  Gd4  1  0.87143635  0.35332603  0.90380127  1
  Gd  Gd5  1  0.12856365  0.64667397  0.09619873  1
  Bi  Bi6  1  0.38267392  0.55630559  0.67834658  1
  Bi  Bi7  1  0.61732608  0.44369441  0.32165342  1
  O  O8  1  0.30850211  0.97575930  0.40723648  1
  O  O9  1  0.69149789  0.02424070  0.59276352  1
  O  O10  1  0.33552957  0.31263644  0.01630441  1
  O  O11  1  0.66447043  0.68736356  0.98369559  1
  O  O12  1  0.93843265  0.92979174  0.19334297  1
  O  O13  1  0.06156735  0.07020826  0.80665703  1
