# generated using pymatgen
data_PrNiGe
_symmetry_space_group_name_H-M   'P 1'
_cell_length_a   4.34999766
_cell_length_b   7.27935081
_cell_length_c   7.45292712
_cell_angle_alpha   90.00000000
_cell_angle_beta   90.00000000
_cell_angle_gamma   90.00000000
_symmetry_Int_Tables_number   1
_chemical_formula_structural   PrNiGe
_chemical_formula_sum   'Pr4 Ni4 Ge4'
_cell_volume   235.99812219
_cell_formula_units_Z   4
loop_
 _symmetry_equiv_pos_site_id
 _symmetry_equiv_pos_as_xyz
  1  'x, y, z'
loop_
 _atom_site_type_symbol
 _atom_site_label
 _atom_site_symmetry_multiplicity
 _atom_site_fract_x
 _atom_site_fract_y
 _atom_site_fract_z
 _atom_site_occupancy
  Pr  Pr0  1  0.75000000  0.51269469  0.19415725  1
  Pr  Pr1  1  0.75000000  0.01269469  0.30584275  1
  Pr  Pr2  1  0.25000000  0.48730531  0.80584275  1
  Pr  Pr3  1  0.25000000  0.98730531  0.69415725  1
  Ni  Ni4  1  0.75000000  0.35074956  0.57272942  1
  Ni  Ni5  1  0.75000000  0.85074956  0.92727058  1
  Ni  Ni6  1  0.25000000  0.64925044  0.42727058  1
  Ni  Ni7  1  0.25000000  0.14925044  0.07272942  1
  Ge  Ge8  1  0.75000000  0.19873179  0.90327774  1
  Ge  Ge9  1  0.75000000  0.69873179  0.59672226  1
  Ge  Ge10  1  0.25000000  0.80126821  0.09672226  1
  Ge  Ge11  1  0.25000000  0.30126821  0.40327774  1
