# generated using pymatgen
data_Pr3GaCo3
_symmetry_space_group_name_H-M   'P 1'
_cell_length_a   4.15056006
_cell_length_b   5.59542596
_cell_length_c   13.27729472
_cell_angle_alpha   90.00000000
_cell_angle_beta   90.00000000
_cell_angle_gamma   111.77043361
_symmetry_Int_Tables_number   1
_chemical_formula_structural   Pr3GaCo3
_chemical_formula_sum   'Pr6 Ga2 Co6'
_cell_volume   286.36128371
_cell_formula_units_Z   2
loop_
 _symmetry_equiv_pos_site_id
 _symmetry_equiv_pos_as_xyz
  1  'x, y, z'
loop_
 _atom_site_type_symbol
 _atom_site_label
 _atom_site_symmetry_multiplicity
 _atom_site_fract_x
 _atom_site_fract_y
 _atom_site_fract_z
 _atom_site_occupancy
  Pr  Pr0  1  0.20827183  0.41654366  0.39448241  1
  Pr  Pr1  1  0.79172817  0.58345634  0.60551759  1
  Pr  Pr2  1  0.20827183  0.41654366  0.10551759  1
  Pr  Pr3  1  0.79172817  0.58345634  0.89448241  1
  Pr  Pr4  1  0.49430468  0.98860936  0.25000000  1
  Pr  Pr5  1  0.50569532  0.01139064  0.75000000  1
  Ga  Ga6  1  0.50000000  -0.00000000  0.50000000  1
  Ga  Ga7  1  0.50000000  0.00000000  0.00000000  1
  Co  Co8  1  0.91965638  0.83931277  0.40702046  1
  Co  Co9  1  0.08034362  0.16068723  0.59297954  1
  Co  Co10  1  0.91965638  0.83931277  0.09297954  1
  Co  Co11  1  0.08034362  0.16068723  0.90702046  1
  Co  Co12  1  0.80067374  0.60134748  0.25000000  1
  Co  Co13  1  0.19932626  0.39865252  0.75000000  1
