# generated using pymatgen
data_Rb2Mn3S4
_symmetry_space_group_name_H-M   'P 1'
_cell_length_a   6.08300506
_cell_length_b   9.44307469
_cell_length_c   9.44307469
_cell_angle_alpha   74.47569776
_cell_angle_beta   71.21074723
_cell_angle_gamma   71.21074723
_symmetry_Int_Tables_number   1
_chemical_formula_structural   Rb2Mn3S4
_chemical_formula_sum   'Rb4 Mn6 S8'
_cell_volume   477.96058351
_cell_formula_units_Z   2
loop_
 _symmetry_equiv_pos_site_id
 _symmetry_equiv_pos_as_xyz
  1  'x, y, z'
loop_
 _atom_site_type_symbol
 _atom_site_label
 _atom_site_symmetry_multiplicity
 _atom_site_fract_x
 _atom_site_fract_y
 _atom_site_fract_z
 _atom_site_occupancy
  Rb  Rb0  1  0.73686262  0.37853254  0.62146746  1
  Rb  Rb1  1  0.26313738  0.62146746  0.37853254  1
  Rb  Rb2  1  0.76313738  0.87853254  0.12146746  1
  Rb  Rb3  1  0.23686262  0.12146746  0.87853254  1
  Mn  Mn4  1  0.75000000  0.75000000  0.75000000  1
  Mn  Mn5  1  0.25000000  0.25000000  0.25000000  1
  Mn  Mn6  1  0.25000000  0.52559564  0.97440436  1
  Mn  Mn7  1  0.25000000  0.97440436  0.52559564  1
  Mn  Mn8  1  0.75000000  0.47440436  0.02559564  1
  Mn  Mn9  1  0.75000000  0.02559564  0.47440436  1
  S  S10  1  0.56663474  0.28574354  0.01694143  1
  S  S11  1  0.13068029  0.01694143  0.28574354  1
  S  S12  1  0.93336526  0.48305857  0.21425646  1
  S  S13  1  0.36931971  0.21425646  0.48305857  1
  S  S14  1  0.43336526  0.71425646  0.98305857  1
  S  S15  1  0.86931971  0.98305857  0.71425646  1
  S  S16  1  0.06663474  0.51694143  0.78574354  1
  S  S17  1  0.63068029  0.78574354  0.51694143  1
