# generated using pymatgen
data_Dy2Fe17
_symmetry_space_group_name_H-M   'P 1'
_cell_length_a   6.40629487
_cell_length_b   6.40629487
_cell_length_c   6.40629477
_cell_angle_alpha   83.15476755
_cell_angle_beta   83.15476755
_cell_angle_gamma   83.15476942
_symmetry_Int_Tables_number   1
_chemical_formula_structural   Dy2Fe17
_chemical_formula_sum   'Dy2 Fe17'
_cell_volume   257.70941119
_cell_formula_units_Z   1
loop_
 _symmetry_equiv_pos_site_id
 _symmetry_equiv_pos_as_xyz
  1  'x, y, z'
loop_
 _atom_site_type_symbol
 _atom_site_label
 _atom_site_symmetry_multiplicity
 _atom_site_fract_x
 _atom_site_fract_y
 _atom_site_fract_z
 _atom_site_occupancy
  Dy  Dy0  1  0.65822305  0.65822305  0.65822305  1
  Dy  Dy1  1  0.34177695  0.34177695  0.34177695  1
  Fe  Fe2  1  0.90235635  0.90235635  0.90235635  1
  Fe  Fe3  1  0.09764365  0.09764365  0.09764365  1
  Fe  Fe4  1  0.00000000  0.00000000  0.50000000  1
  Fe  Fe5  1  0.00000000  0.50000000  0.00000000  1
  Fe  Fe6  1  0.50000000  0.00000000  0.00000000  1
  Fe  Fe7  1  0.29314126  0.70685874  -0.00000000  1
  Fe  Fe8  1  0.70685874  0.00000000  0.29314126  1
  Fe  Fe9  1  1.00000000  0.29314126  0.70685874  1
  Fe  Fe10  1  0.29314126  1.00000000  0.70685874  1
  Fe  Fe11  1  0.00000000  0.70685874  0.29314126  1
  Fe  Fe12  1  0.70685874  0.29314126  0.00000000  1
  Fe  Fe13  1  0.34422290  0.34422290  0.84477097  1
  Fe  Fe14  1  0.34422290  0.84477097  0.34422290  1
  Fe  Fe15  1  0.84477097  0.34422290  0.34422290  1
  Fe  Fe16  1  0.65577710  0.65577710  0.15522903  1
  Fe  Fe17  1  0.65577710  0.15522903  0.65577710  1
  Fe  Fe18  1  0.15522903  0.65577710  0.65577710  1
