# generated using pymatgen
data_CeAlRu
_symmetry_space_group_name_H-M   'P 1'
_cell_length_a   5.59430364
_cell_length_b   5.59415069
_cell_length_c   8.29070071
_cell_angle_alpha   90.00000000
_cell_angle_beta   90.00000000
_cell_angle_gamma   60.88845763
_symmetry_Int_Tables_number   1
_chemical_formula_structural   CeAlRu
_chemical_formula_sum   'Ce4 Al4 Ru4'
_cell_volume   226.68404828
_cell_formula_units_Z   4
loop_
 _symmetry_equiv_pos_site_id
 _symmetry_equiv_pos_as_xyz
  1  'x, y, z'
loop_
 _atom_site_type_symbol
 _atom_site_label
 _atom_site_symmetry_multiplicity
 _atom_site_fract_x
 _atom_site_fract_y
 _atom_site_fract_z
 _atom_site_occupancy
  Ce  Ce0  1  0.33525757  0.33524733  0.53901803  1
  Ce  Ce1  1  0.67199131  0.67200031  0.41927702  1
  Ce  Ce2  1  0.67199131  0.67200031  0.08072298  1
  Ce  Ce3  1  0.33525757  0.33524733  0.96098197  1
  Al  Al4  1  0.99582939  0.99581469  0.49216209  1
  Al  Al5  1  0.99582939  0.99581469  0.00783791  1
  Al  Al6  1  0.83343414  0.33890167  0.75000000  1
  Al  Al7  1  0.33889447  0.83343703  0.75000000  1
  Ru  Ru8  1  0.82881881  0.82882445  0.75000000  1
  Ru  Ru9  1  0.16501019  0.66387824  0.25000000  1
  Ru  Ru10  1  0.66386940  0.16495462  0.25000000  1
  Ru  Ru11  1  0.16381646  0.16387932  0.25000000  1
