# generated using pymatgen
data_Dy6Ni2Sn
_symmetry_space_group_name_H-M   'P 1'
_cell_length_a   8.44374882
_cell_length_b   8.44311909
_cell_length_c   8.44270656
_cell_angle_alpha   106.47622541
_cell_angle_beta   109.75323256
_cell_angle_gamma   112.23596942
_symmetry_Int_Tables_number   1
_chemical_formula_structural   Dy6Ni2Sn
_chemical_formula_sum   'Dy12 Ni4 Sn2'
_cell_volume   462.16189462
_cell_formula_units_Z   2
loop_
 _symmetry_equiv_pos_site_id
 _symmetry_equiv_pos_as_xyz
  1  'x, y, z'
loop_
 _atom_site_type_symbol
 _atom_site_label
 _atom_site_symmetry_multiplicity
 _atom_site_fract_x
 _atom_site_fract_y
 _atom_site_fract_z
 _atom_site_occupancy
  Dy  Dy0  1  0.70446488  0.26784216  0.97228910  1
  Dy  Dy1  1  0.29552820  0.73216424  0.02771074  1
  Dy  Dy2  1  0.70448766  0.73216726  0.43666640  1
  Dy  Dy3  1  0.29550722  0.26783412  0.56332983  1
  Dy  Dy4  1  0.81010622  0.13500832  0.32490910  1
  Dy  Dy5  1  0.81007787  0.48516090  0.67509899  1
  Dy  Dy6  1  0.18990183  0.86499640  0.67508642  1
  Dy  Dy7  1  0.18991267  0.51482681  0.32489645  1
  Dy  Dy8  1  0.61118525  0.79397765  0.81721879  1
  Dy  Dy9  1  0.97672671  0.79393790  0.18272644  1
  Dy  Dy10  1  0.02326749  0.20606515  0.81727834  1
  Dy  Dy11  1  0.38881704  0.20603354  0.18278596  1
  Ni  Ni12  1  0.85359435  0.49998460  0.35363582  1
  Ni  Ni13  1  0.14642207  0.50002947  0.64639656  1
  Ni  Ni14  1  0.99994607  0.12421276  0.12412530  1
  Ni  Ni15  1  0.00005743  0.87575749  0.87584807  1
  Sn  Sn16  1  0.49999700  0.50000009  0.99999668  1
  Sn  Sn17  1  0.50000003  0.00000113  0.50000099  1
