# generated using pymatgen
data_SrHo31Al2Si14N13O59
_symmetry_space_group_name_H-M   'P 1'
_cell_length_a   7.58375170
_cell_length_b   10.46224782
_cell_length_c   21.90008396
_cell_angle_alpha   89.83777065
_cell_angle_beta   109.87388505
_cell_angle_gamma   89.82289458
_symmetry_Int_Tables_number   1
_chemical_formula_structural   SrHo31Al2Si14N13O59
_chemical_formula_sum   'Sr1 Ho31 Al2 Si14 N13 O59'
_cell_volume   1634.11143969
_cell_formula_units_Z   1
loop_
 _symmetry_equiv_pos_site_id
 _symmetry_equiv_pos_as_xyz
  1  'x, y, z'
loop_
 _atom_site_type_symbol
 _atom_site_label
 _atom_site_symmetry_multiplicity
 _atom_site_fract_x
 _atom_site_fract_y
 _atom_site_fract_z
 _atom_site_occupancy
  Sr  Sr0  1  0.02704547  0.09427712  0.89890679  1
  Ho  Ho1  1  0.01228041  0.40573660  0.64223882  1
  Ho  Ho2  1  0.14281899  0.87172866  0.77966474  1
  Ho  Ho3  1  0.33794181  0.38075347  0.96014050  1
  Ho  Ho4  1  0.02072412  0.09975025  0.39228398  1
  Ho  Ho5  1  0.15183656  0.63170203  0.52917760  1
  Ho  Ho6  1  0.33651836  0.12229752  0.70973784  1
  Ho  Ho7  1  0.47778677  0.58548684  0.84703095  1
  Ho  Ho8  1  0.51976125  0.08410366  0.89882975  1
  Ho  Ho9  1  0.01412723  0.40198183  0.14330221  1
  Ho  Ho10  1  0.16502544  0.88153890  0.28450463  1
  Ho  Ho11  1  0.33960085  0.37928758  0.46126316  1
  Ho  Ho12  1  0.47732589  0.91036222  0.59626406  1
  Ho  Ho13  1  0.52771464  0.41917684  0.65147027  1
  Ho  Ho14  1  0.66960097  0.87204100  0.79081041  1
  Ho  Ho15  1  0.14827750  0.62845549  0.03025514  1
  Ho  Ho16  1  0.83499430  0.37956917  0.96583254  1
  Ho  Ho17  1  0.34137526  0.12618684  0.20989897  1
  Ho  Ho18  1  0.47570345  0.58656101  0.34770043  1
  Ho  Ho19  1  0.52889390  0.08585039  0.40424521  1
  Ho  Ho20  1  0.67062248  0.62663777  0.54638354  1
  Ho  Ho21  1  0.83212901  0.12083179  0.71737330  1
  Ho  Ho22  1  0.97343047  0.60552309  0.85472456  1
  Ho  Ho23  1  0.47630558  0.91291310  0.09701509  1
  Ho  Ho24  1  0.52751702  0.41721401  0.15281398  1
  Ho  Ho25  1  0.66371693  0.87536485  0.29285439  1
  Ho  Ho26  1  0.83306428  0.38161219  0.46499422  1
  Ho  Ho27  1  0.97200533  0.89426960  0.60610914  1
  Ho  Ho28  1  0.67217908  0.62178757  0.04538797  1
  Ho  Ho29  1  0.82999904  0.12329013  0.21840941  1
  Ho  Ho30  1  0.97719142  0.60173805  0.35667220  1
  Ho  Ho31  1  0.97340995  0.89613073  0.10725313  1
  Al  Al32  1  0.27529615  0.81165465  0.43412629  1
  Al  Al33  1  0.72861456  0.31251618  0.31546125  1
  Si  Si34  1  0.14816186  0.31730573  0.80902397  1
  Si  Si35  1  0.27648157  0.80846549  0.93590794  1
  Si  Si36  1  0.14850525  0.18479720  0.55989522  1
  Si  Si37  1  0.27169014  0.68727531  0.68547162  1
  Si  Si38  1  0.15279220  0.31323654  0.31020135  1
  Si  Si39  1  0.15074847  0.18894206  0.06182624  1
  Si  Si40  1  0.27014387  0.68944854  0.18541587  1
  Si  Si41  1  0.72912053  0.31314831  0.81393137  1
  Si  Si42  1  0.84731530  0.80898098  0.94276573  1
  Si  Si43  1  0.72995095  0.18722147  0.56472647  1
  Si  Si44  1  0.85264221  0.68335212  0.69201936  1
  Si  Si45  1  0.84905260  0.80988807  0.44165804  1
  Si  Si46  1  0.72731347  0.18609678  0.06352958  1
  Si  Si47  1  0.85290050  0.68300116  0.19064814  1
  N  N48  1  0.06132689  0.76905858  0.93638663  1
  N  N49  1  0.06538580  0.73945989  0.68847243  1
  N  N50  1  0.05245554  0.75468691  0.43513231  1
  N  N51  1  0.06736810  0.74228500  0.19292812  1
  N  N52  1  0.86028900  0.72617179  0.76739150  1
  N  N53  1  0.79111099  0.53433492  0.65985446  1
  N  N54  1  0.93027192  0.27193370  0.80296103  1
  N  N55  1  0.85151036  0.77693328  0.51688331  1
  N  N56  1  0.93326993  0.23595696  0.55704755  1
  N  N57  1  0.79501269  0.53292654  0.16266010  1
  N  N58  1  0.94639254  0.25324016  0.30881856  1
  N  N59  1  0.86138679  0.77099139  0.01901573  1
  N  N60  1  0.93144873  0.23337549  0.05629398  1
  O  O61  1  0.06544407  0.48549501  0.94767421  1
  O  O62  1  0.17528785  0.22999606  0.99343493  1
  O  O63  1  0.06531045  0.02011057  0.69752682  1
  O  O64  1  0.20408245  0.46726770  0.83470675  1
  O  O65  1  0.16568223  0.28678951  0.73734202  1
  O  O66  1  0.31412940  0.95804519  0.92221807  1
  O  O67  1  0.28641560  0.72514363  0.87206311  1
  O  O68  1  0.29409081  0.23334402  0.87013238  1
  O  O69  1  0.06826621  0.48164624  0.44636275  1
  O  O70  1  0.19976732  0.03346178  0.58336599  1
  O  O71  1  0.16096836  0.21531165  0.48725896  1
  O  O72  1  0.28621708  0.53367334  0.66993008  1
  O  O73  1  0.28733504  0.76940723  0.62190024  1
  O  O74  1  0.29288009  0.26867507  0.62028204  1
  O  O75  1  0.41803597  0.00211915  0.80133981  1
  O  O76  1  0.56953546  0.22694840  0.99374238  1
  O  O77  1  0.42700591  0.72402391  0.75685312  1
  O  O78  1  0.57665766  0.50023378  0.94798054  1
  O  O79  1  0.06712461  0.02278751  0.19854707  1
  O  O80  1  0.19949990  0.46461613  0.33397996  1
  O  O81  1  0.16906412  0.28804051  0.23781824  1
  O  O82  1  0.28525620  0.97468153  0.41382046  1
  O  O83  1  0.27160095  0.72632788  0.36233015  1
  O  O84  1  0.30573213  0.23278048  0.37124458  1
  O  O85  1  0.41595123  0.49540788  0.55178438  1
  O  O86  1  0.56757739  0.27338241  0.74465626  1
  O  O87  1  0.42340387  0.76845510  0.51262207  1
  O  O88  1  0.57013156  0.00064048  0.69655390  1
  O  O89  1  0.71241247  0.71897071  0.88015384  1
  O  O90  1  0.71781220  0.23294283  0.87897853  1
  O  O91  1  0.20362748  0.03651620  0.08391425  1
  O  O92  1  0.71234169  0.46475439  0.83307565  1
  O  O93  1  0.28150902  0.53642393  0.16839526  1
  O  O94  1  0.77270836  0.95462936  0.91329791  1
  O  O95  1  0.28019010  0.77209902  0.12089626  1
  O  O96  1  0.28564833  0.27286238  0.12378647  1
  O  O97  1  0.42825044  0.00253279  0.30290044  1
  O  O98  1  0.56831407  0.22602326  0.49522926  1
  O  O99  1  0.43307147  0.72728739  0.25421825  1
  O  O100  1  0.57121884  0.50045173  0.44729267  1
  O  O101  1  0.71759554  0.78276027  0.63136008  1
  O  O102  1  0.72132171  0.26815972  0.62930899  1
  O  O103  1  0.71174245  0.03505037  0.58131941  1
  O  O104  1  0.92434729  0.98621938  0.79827332  1
  O  O105  1  0.41779243  0.49693594  0.05229721  1
  O  O106  1  0.57345648  0.26835261  0.23848823  1
  O  O107  1  0.42066032  0.76524251  0.00865655  1
  O  O108  1  0.57101985  0.99778573  0.19626708  1
  O  O109  1  0.69671073  0.73184219  0.37714209  1
  O  O110  1  0.73542923  0.22316823  0.38664480  1
  O  O111  1  0.71554855  0.47372849  0.33598234  1
  O  O112  1  0.79735044  0.96207678  0.41239544  1
  O  O113  1  0.93633166  0.50994102  0.55041694  1
  O  O114  1  0.71497992  0.78143517  0.13186046  1
  O  O115  1  0.72115796  0.26704680  0.12867436  1
  O  O116  1  0.70973510  0.03378612  0.08088198  1
  O  O117  1  0.84459277  0.72194465  0.26337051  1
  O  O118  1  0.92715095  0.98256392  0.30153381  1
  O  O119  1  0.93463560  0.50680848  0.05151322  1
