# generated using pymatgen
data_Sr2NdGaCu2O7
_symmetry_space_group_name_H-M   'P 1'
_cell_length_a   5.48418165
_cell_length_b   5.60782152
_cell_length_c   12.22251330
_cell_angle_alpha   103.10044915
_cell_angle_beta   102.94085770
_cell_angle_gamma   90.05350196
_symmetry_Int_Tables_number   1
_chemical_formula_structural   Sr2NdGaCu2O7
_chemical_formula_sum   'Sr4 Nd2 Ga2 Cu4 O14'
_cell_volume   356.28393182
_cell_formula_units_Z   2
loop_
 _symmetry_equiv_pos_site_id
 _symmetry_equiv_pos_as_xyz
  1  'x, y, z'
loop_
 _atom_site_type_symbol
 _atom_site_label
 _atom_site_symmetry_multiplicity
 _atom_site_fract_x
 _atom_site_fract_y
 _atom_site_fract_z
 _atom_site_occupancy
  Sr  Sr0  1  0.15246870  0.17616826  0.30510451  1
  Sr  Sr1  1  0.33169530  0.36954129  0.69282888  1
  Sr  Sr2  1  0.65111211  0.63701268  0.30555196  1
  Sr  Sr3  1  0.83692836  0.82986112  0.69433134  1
  Nd  Nd4  1  0.49744669  0.49489546  0.00021101  1
  Nd  Nd5  1  0.99823412  0.99608471  0.00112885  1
  Ga  Ga6  1  0.21914313  0.82353000  0.50143652  1
  Ga  Ga7  1  0.71714529  0.18384540  0.49592524  1
  Cu  Cu8  1  0.07688181  0.57596579  0.15011853  1
  Cu  Cu9  1  0.92078490  0.41947192  0.85260042  1
  Cu  Cu10  1  0.58074758  0.07695603  0.15706266  1
  Cu  Cu11  1  0.41732350  0.91860716  0.84621882  1
  O  O12  1  0.81439970  0.32436279  0.13188074  1
  O  O13  1  0.67475266  0.67000154  0.86841693  1
  O  O14  1  0.30726666  0.30822363  0.13072591  1
  O  O15  1  0.32490990  0.81053340  0.13715285  1
  O  O16  1  0.17306504  0.68334739  0.87103422  1
  O  O17  1  0.18164366  0.18360601  0.86401848  1
  O  O18  1  0.82558842  0.81942658  0.13687266  1
  O  O19  1  0.21749863  0.62559217  0.35887770  1
  O  O20  1  0.35488802  0.77935711  0.64758285  1
  O  O21  1  0.37550140  0.12826179  0.50031576  1
  O  O22  1  0.68619167  0.17263970  0.86696994  1
  O  O23  1  0.70423148  0.22459707  0.34880085  1
  O  O24  1  0.86286099  0.38760539  0.63523759  1
  O  O25  1  0.87349029  0.88050563  0.49959477  1
