# generated using pymatgen
data_Li4Mn3O7
_symmetry_space_group_name_H-M   'P 1'
_cell_length_a   5.09089092
_cell_length_b   5.30976711
_cell_length_c   10.09340847
_cell_angle_alpha   78.34161736
_cell_angle_beta   79.08953777
_cell_angle_gamma   96.97339295
_symmetry_Int_Tables_number   1
_chemical_formula_structural   Li4Mn3O7
_chemical_formula_sum   'Li8 Mn6 O14'
_cell_volume   258.73941043
_cell_formula_units_Z   2
loop_
 _symmetry_equiv_pos_site_id
 _symmetry_equiv_pos_as_xyz
  1  'x, y, z'
loop_
 _atom_site_type_symbol
 _atom_site_label
 _atom_site_symmetry_multiplicity
 _atom_site_fract_x
 _atom_site_fract_y
 _atom_site_fract_z
 _atom_site_occupancy
  Li  Li0  1  0.56665697  0.28049901  0.93039684  1
  Li  Li1  1  0.43962333  0.71174058  0.07490515  1
  Li  Li2  1  0.71774599  0.85711865  0.78619777  1
  Li  Li3  1  0.85714300  0.42857100  0.64285700  1
  Li  Li4  1  0.99654001  0.00002435  0.49951623  1
  Li  Li5  1  0.14762903  0.57664399  0.35531716  1
  Li  Li6  1  0.27466167  0.14540242  0.21080985  1
  Li  Li7  1  0.85714300  0.42857100  0.14285700  1
  Mn  Mn8  1  0.99883089  0.99851943  0.00172406  1
  Mn  Mn9  1  0.71545511  0.85862357  0.28398994  1
  Mn  Mn10  1  0.57434945  0.28727462  0.42452611  1
  Mn  Mn11  1  0.42963596  0.71455702  0.57100354  1
  Mn  Mn12  1  0.28464904  0.14258598  0.71471146  1
  Mn  Mn13  1  0.13993655  0.56986838  0.86118789  1
  O  O14  1  0.33800367  0.94527878  0.89295098  1
  O  O15  1  0.19240901  0.33261664  0.02491046  1
  O  O16  1  0.48614090  0.51989727  0.74783245  1
  O  O17  1  0.62687745  0.09164667  0.60522659  1
  O  O18  1  0.77304345  0.66142106  0.45912704  1
  O  O19  1  0.89156513  0.18230257  0.32224835  1
  O  O20  1  0.05322365  0.80899873  0.17556237  1
  O  O21  1  0.82271987  0.67484043  0.96346665  1
  O  O22  1  0.66106135  0.04814427  0.11015263  1
  O  O23  1  0.94124255  0.19572194  0.82658696  1
  O  O24  1  0.08740855  0.76549633  0.68048741  1
  O  O25  1  0.22814510  0.33724473  0.53788155  1
  O  O26  1  0.37628233  0.91186422  0.39276302  1
  O  O27  1  0.52187699  0.52452636  0.26080354  1
