# generated using pymatgen
data_NaNO2
_symmetry_space_group_name_H-M   'P 1'
_cell_length_a   3.86294003
_cell_length_b   8.44019774
_cell_length_c   6.56677445
_cell_angle_alpha   39.07128141
_cell_angle_beta   57.50557557
_cell_angle_gamma   65.67775245
_symmetry_Int_Tables_number   1
_chemical_formula_structural   NaNO2
_chemical_formula_sum   'Na2 N2 O4'
_cell_volume   113.81411890
_cell_formula_units_Z   2
loop_
 _symmetry_equiv_pos_site_id
 _symmetry_equiv_pos_as_xyz
  1  'x, y, z'
loop_
 _atom_site_type_symbol
 _atom_site_label
 _atom_site_symmetry_multiplicity
 _atom_site_fract_x
 _atom_site_fract_y
 _atom_site_fract_z
 _atom_site_occupancy
  Na  Na0  1  0.44993419  0.99973677  0.54224555  1
  Na  Na1  1  0.55006581  0.50026323  0.45775445  1
  N  N2  1  0.90414213  0.99384979  0.09650888  1
  N  N3  1  0.09585787  0.50615021  0.90349112  1
  O  O4  1  0.93828819  0.69263229  0.85887866  1
  O  O5  1  0.98512978  0.29224329  0.21948938  1
  O  O6  1  0.06171181  0.80736771  0.14112134  1
  O  O7  1  0.01487022  0.20775671  0.78051062  1
