# generated using pymatgen
data_Rb2Cu4H5(SO5)4
_symmetry_space_group_name_H-M   'P 1'
_cell_length_a   11.42491292
_cell_length_b   6.50584224
_cell_length_c   7.99033589
_cell_angle_alpha   88.64379508
_cell_angle_beta   65.31973686
_cell_angle_gamma   54.59682772
_symmetry_Int_Tables_number   1
_chemical_formula_structural   Rb2Cu4H5(SO5)4
_chemical_formula_sum   'Rb2 Cu4 H5 S4 O20'
_cell_volume   420.34478531
_cell_formula_units_Z   1
loop_
 _symmetry_equiv_pos_site_id
 _symmetry_equiv_pos_as_xyz
  1  'x, y, z'
loop_
 _atom_site_type_symbol
 _atom_site_label
 _atom_site_symmetry_multiplicity
 _atom_site_fract_x
 _atom_site_fract_y
 _atom_site_fract_z
 _atom_site_occupancy
  Rb  Rb0  1  -0.00000000  0.50000000  0.50000000  1
  Rb  Rb1  1  0.50000000  0.50000000  0.50000000  1
  Cu  Cu2  1  0.25518038  0.99593386  0.99854849  1
  Cu  Cu3  1  0.25137521  0.49594647  0.99667742  1
  Cu  Cu4  1  0.74481962  0.00406614  0.00145151  1
  Cu  Cu5  1  0.74862479  0.50405353  0.00332258  1
  H  H6  1  0.19916302  0.30071463  0.81342759  1
  H  H7  1  0.29376927  0.70162114  0.20339085  1
  H  H8  1  0.50000000  0.50000000  -0.00000000  1
  H  H9  1  0.70623073  0.29837886  0.79660915  1
  H  H10  1  0.80083698  0.69928537  0.18657241  1
  S  S11  1  0.42499565  0.07246758  0.28539793  1
  S  S12  1  0.07088726  0.93034555  0.71934493  1
  S  S13  1  0.92911274  0.06965445  0.28065507  1
  S  S14  1  0.57500435  0.92753242  0.71460207  1
  O  O15  1  0.03794550  0.15135981  0.22299596  1
  O  O16  1  0.03745043  0.77190537  0.22440758  1
  O  O17  1  0.32732392  0.17419843  0.18580776  1
  O  O18  1  0.32128447  0.17405641  0.49538326  1
  O  O19  1  0.16805738  0.32863991  0.95091011  1
  O  O20  1  0.34906496  0.65026649  0.06092368  1
  O  O21  1  0.17575369  0.82767246  0.50864570  1
  O  O22  1  0.53199475  0.15908219  0.22760477  1
  O  O23  1  0.17117050  0.82603294  0.81648405  1
  O  O24  1  0.46675353  0.22555035  0.77192200  1
  O  O25  1  0.53324647  0.77444965  0.22807800  1
  O  O26  1  0.82882950  0.17396706  0.18351595  1
  O  O27  1  0.46800525  0.84091781  0.77239523  1
  O  O28  1  0.82424631  0.17232754  0.49135430  1
  O  O29  1  0.65093504  0.34973351  0.93907632  1
  O  O30  1  0.83194262  0.67136009  0.04908989  1
  O  O31  1  0.67871553  0.82594359  0.50461674  1
  O  O32  1  0.67267608  0.82580157  0.81419224  1
  O  O33  1  0.96254957  0.22809463  0.77559242  1
  O  O34  1  0.96205450  0.84864019  0.77700404  1
