# generated using pymatgen
data_Li4Mn3O7
_symmetry_space_group_name_H-M   'P 1'
_cell_length_a   5.31891830
_cell_length_b   5.99562760
_cell_length_c   8.69189090
_cell_angle_alpha   88.32936289
_cell_angle_beta   93.90562730
_cell_angle_gamma   69.70072967
_symmetry_Int_Tables_number   1
_chemical_formula_structural   Li4Mn3O7
_chemical_formula_sum   'Li8 Mn6 O14'
_cell_volume   258.95471280
_cell_formula_units_Z   2
loop_
 _symmetry_equiv_pos_site_id
 _symmetry_equiv_pos_as_xyz
  1  'x, y, z'
loop_
 _atom_site_type_symbol
 _atom_site_label
 _atom_site_symmetry_multiplicity
 _atom_site_fract_x
 _atom_site_fract_y
 _atom_site_fract_z
 _atom_site_occupancy
  Li  Li0  1  0.14955152  0.20832985  0.28118778  1
  Li  Li1  1  0.28583248  0.92785013  0.56829767  1
  Li  Li2  1  0.71652096  0.07165839  0.42755094  1
  Li  Li3  1  0.85704920  0.78642645  0.71742274  1
  Li  Li4  1  0.42634074  0.64261556  0.85814414  1
  Li  Li5  1  0.99331921  0.50597342  0.00452203  1
  Li  Li6  1  0.57139345  0.35716784  0.14285915  1
  Li  Li7  1  0.57138489  0.85712989  0.14285548  1
  Mn  Mn8  1  0.00075363  0.99898503  0.00144727  1
  Mn  Mn9  1  0.14208801  0.71534491  0.28427744  1
  Mn  Mn10  1  0.28585865  0.42769167  0.57074431  1
  Mn  Mn11  1  0.43026757  0.13888776  0.86028581  1
  Mn  Mn12  1  0.71259874  0.57537222  0.42543306  1
  Mn  Mn13  1  0.85701346  0.28658382  0.71495262  1
  O  O14  1  0.88573891  0.02239684  0.20835997  1
  O  O15  1  0.02258827  0.73992282  0.49221862  1
  O  O16  1  0.41401265  0.85967543  0.35288671  1
  O  O17  1  0.59654818  0.59421787  0.64016501  1
  O  O18  1  0.16890537  0.45136994  0.77911267  1
  O  O19  1  0.73697847  0.30945336  0.92807136  1
  O  O20  1  0.26454850  0.15773065  0.05374722  1
  O  O21  1  0.40583470  0.40487482  0.35762991  1
  O  O22  1  0.54634521  0.12002270  0.64554513  1
  O  O23  1  0.97400233  0.26284594  0.50659673  1
  O  O24  1  0.12027106  0.97434922  0.79350784  1
  O  O25  1  0.72886332  0.85461066  0.93284697  1
  O  O26  1  0.25707603  0.69196042  0.07736220  1
  O  O27  1  0.87831451  0.55655239  0.23196923  1
