# generated using pymatgen
data_LiMn3(PO4)3
_symmetry_space_group_name_H-M   'P 1'
_cell_length_a   13.42517762
_cell_length_b   8.64522695
_cell_length_c   8.60240267
_cell_angle_alpha   89.26458511
_cell_angle_beta   108.86337770
_cell_angle_gamma   108.71593984
_symmetry_Int_Tables_number   1
_chemical_formula_structural   LiMn3(PO4)3
_chemical_formula_sum   'Li4 Mn12 P12 O48'
_cell_volume   890.22809431
_cell_formula_units_Z   4
loop_
 _symmetry_equiv_pos_site_id
 _symmetry_equiv_pos_as_xyz
  1  'x, y, z'
loop_
 _atom_site_type_symbol
 _atom_site_label
 _atom_site_symmetry_multiplicity
 _atom_site_fract_x
 _atom_site_fract_y
 _atom_site_fract_z
 _atom_site_occupancy
  Li  Li0  1  0.51071341  0.01081229  0.01795336  1
  Li  Li1  1  0.98990814  0.48955097  0.48437819  1
  Li  Li2  1  0.25222310  0.75204033  0.74994358  1
  Li  Li3  1  0.87497369  0.88795422  0.86394133  1
  Mn  Mn4  1  0.07583563  0.00924998  0.68936119  1
  Mn  Mn5  1  0.17510605  0.56228457  0.24173760  1
  Mn  Mn6  1  0.37508196  0.11532050  0.63750615  1
  Mn  Mn7  1  0.12702933  0.38833643  0.86317706  1
  Mn  Mn8  1  0.57304220  0.50658526  0.18662363  1
  Mn  Mn9  1  0.32702080  0.94131431  0.25876294  1
  Mn  Mn10  1  0.67304311  0.06144517  0.73994955  1
  Mn  Mn11  1  0.42639491  0.49263204  0.80986177  1
  Mn  Mn12  1  0.62703699  0.89170106  0.36025573  1
  Mn  Mn13  1  0.86878280  0.59475216  0.14488703  1
  Mn  Mn14  1  0.82204667  0.43783640  0.75667232  1
  Mn  Mn15  1  0.92822314  0.99438314  0.31242778  1
  P  P16  1  0.18405633  0.31975605  0.53314382  1
  P  P17  1  0.37487256  0.66334384  0.08503821  1
  P  P18  1  0.12530469  0.83708583  0.41395380  1
  P  P19  1  0.31626796  0.18128295  0.96677071  1
  P  P20  1  0.56168621  0.21355418  0.42684021  1
  P  P21  1  0.06275438  0.71717100  0.93254530  1
  P  P22  1  0.93768962  0.28426182  0.06873064  1
  P  P23  1  0.43406843  0.78323253  0.56888372  1
  P  P24  1  0.68589434  0.81542301  0.03006269  1
  P  P25  1  0.87655516  0.16433548  0.58568318  1
  P  P26  1  0.62296070  0.33525856  0.91482097  1
  P  P27  1  0.81755814  0.68671105  0.47102989  1
  O  O28  1  0.05075007  0.37736513  0.04456076  1
  O  O29  1  0.09511071  0.13955773  0.50386343  1
  O  O30  1  0.31342434  0.12397242  0.13609298  1
  O  O31  1  0.18612381  0.37674883  0.36340682  1
  O  O32  1  0.26739021  0.53585917  0.10068959  1
  O  O33  1  0.01684350  0.85104412  0.28576968  1
  O  O34  1  0.40478116  0.36084212  0.99554993  1
  O  O35  1  0.15435464  0.75026295  0.11048053  1
  O  O36  1  0.11802757  0.65385694  0.39178851  1
  O  O37  1  0.15074662  0.43256671  0.62800912  1
  O  O38  1  0.44838219  0.12294503  0.45250052  1
  O  O39  1  0.20051263  0.19639243  0.87002044  1
  O  O40  1  0.29842458  0.30251772  0.63093377  1
  O  O41  1  0.34774802  0.06677639  0.87133911  1
  O  O42  1  0.58125257  0.10727272  0.30776217  1
  O  O43  1  0.09555928  0.62615566  0.81702226  1
  O  O44  1  0.62836725  0.36030710  0.09604843  1
  O  O45  1  0.38109071  0.84563845  0.10530649  1
  O  O46  1  0.13319969  0.85918664  0.59859678  1
  O  O47  1  0.34525709  0.75448999  0.38782342  1
  O  O48  1  0.23209740  0.96491289  0.39879499  1
  O  O49  1  0.48330223  0.64958314  0.21304425  1
  O  O50  1  0.56247725  0.38443874  0.37252488  1
  O  O51  1  0.04950385  0.88280458  0.87012428  1
  O  O52  1  0.93588465  0.10944892  0.11646188  1
  O  O53  1  0.43682377  0.61414759  0.62462105  1
  O  O54  1  0.76957605  0.03430080  0.60266936  1
  O  O55  1  0.51713666  0.35232321  0.78193393  1
  O  O56  1  0.65513426  0.24401659  0.60574668  1
  O  O57  1  0.87427779  0.14236704  0.40619401  1
  O  O58  1  0.61392576  0.15220816  0.88901145  1
  O  O59  1  0.36604443  0.63855254  0.90040670  1
  O  O60  1  0.91875172  0.38468597  0.19328615  1
  O  O61  1  0.65112278  0.92736409  0.12093238  1
  O  O62  1  0.40116839  0.87685937  0.68299729  1
  O  O63  1  0.70316901  0.70185975  0.36945256  1
  O  O64  1  0.80113374  0.79659141  0.12562480  1
  O  O65  1  0.54962557  0.88065383  0.55387316  1
  O  O66  1  0.85259692  0.57193482  0.38332461  1
  O  O67  1  0.88532963  0.34701922  0.61313459  1
  O  O68  1  0.84316793  0.25509837  0.89170451  1
  O  O69  1  0.59530318  0.63791542  0.99564759  1
  O  O70  1  0.98064935  0.14294624  0.72193793  1
  O  O71  1  0.73209441  0.46220407  0.90101891  1
  O  O72  1  0.81501938  0.63560772  0.64416275  1
  O  O73  1  0.70086583  0.88100737  0.86540071  1
  O  O74  1  0.90727640  0.86588011  0.50080598  1
  O  O75  1  0.94806257  0.62235966  0.95218557  1
