# generated using pymatgen
data_Na2LiFePCO7
_symmetry_space_group_name_H-M   'P 1'
_cell_length_a   8.79545395
_cell_length_b   6.74927687
_cell_length_c   10.28040250
_cell_angle_alpha   89.85830463
_cell_angle_beta   87.51743491
_cell_angle_gamma   90.71133045
_symmetry_Int_Tables_number   1
_chemical_formula_structural   Na2LiFePCO7
_chemical_formula_sum   'Na8 Li4 Fe4 P4 C4 O28'
_cell_volume   609.65252937
_cell_formula_units_Z   4
loop_
 _symmetry_equiv_pos_site_id
 _symmetry_equiv_pos_as_xyz
  1  'x, y, z'
loop_
 _atom_site_type_symbol
 _atom_site_label
 _atom_site_symmetry_multiplicity
 _atom_site_fract_x
 _atom_site_fract_y
 _atom_site_fract_z
 _atom_site_occupancy
  Na  Na0  1  0.08551651  0.25267904  0.38067749  1
  Na  Na1  1  0.25879552  0.00110592  0.63255607  1
  Na  Na2  1  0.26474396  0.00292533  0.12080379  1
  Na  Na3  1  0.26435379  0.49757138  0.12599194  1
  Na  Na4  1  0.74167099  0.50365543  0.87430297  1
  Na  Na5  1  0.74020677  0.99782032  0.87355478  1
  Na  Na6  1  0.73744899  0.50539484  0.37437616  1
  Na  Na7  1  0.73733768  0.99341071  0.37177849  1
  Li  Li8  1  0.09194091  0.26289084  0.87694330  1
  Li  Li9  1  0.28341214  0.47034170  0.62247349  1
  Li  Li10  1  0.90306361  0.73814292  0.62181904  1
  Li  Li11  1  0.90061046  0.74937177  0.12068381  1
  Fe  Fe12  1  0.35220638  0.74517975  0.88593577  1
  Fe  Fe13  1  0.34832320  0.74513553  0.39742495  1
  Fe  Fe14  1  0.65205650  0.24979318  0.61495837  1
  Fe  Fe15  1  0.65185150  0.25343685  0.10909188  1
  P  P16  1  0.40289709  0.25452465  0.85421114  1
  P  P17  1  0.41502792  0.24733727  0.36210784  1
  P  P18  1  0.59085699  0.74549297  0.64765794  1
  P  P19  1  0.59028766  0.75155679  0.14250821  1
  C  C20  1  0.04858283  0.74788599  0.85858982  1
  C  C21  1  0.05016284  0.74971993  0.35705630  1
  C  C22  1  0.94862797  0.26074834  0.64421465  1
  C  C23  1  0.95010945  0.25075545  0.13245193  1
  O  O24  1  0.09343080  0.27632756  0.66116873  1
  O  O25  1  0.09317239  0.24511237  0.15317960  1
  O  O26  1  0.07394465  0.74882601  0.98223912  1
  O  O27  1  0.07785957  0.75287091  0.48032081  1
  O  O28  1  0.16303604  0.74100787  0.77326663  1
  O  O29  1  0.16389980  0.74326681  0.27082721  1
  O  O30  1  0.30379941  0.06600058  0.88366388  1
  O  O31  1  0.30179029  0.43004450  0.90074428  1
  O  O32  1  0.31821471  0.05931811  0.40106465  1
  O  O33  1  0.31894785  0.42890345  0.41082752  1
  O  O34  1  0.43430010  0.27426699  0.70291623  1
  O  O35  1  0.43182841  0.72904636  0.58818948  1
  O  O36  1  0.43780907  0.25552129  0.21077593  1
  O  O37  1  0.43791340  0.75208280  0.07291023  1
  O  O38  1  0.55727843  0.24982803  0.92044000  1
  O  O39  1  0.56710928  0.74895541  0.79876074  1
  O  O40  1  0.57181851  0.24682839  0.42331008  1
  O  O41  1  0.55887968  0.74916530  0.29253570  1
  O  O42  1  0.69566144  0.56871756  0.60830022  1
  O  O43  1  0.68270484  0.93356495  0.60240539  1
  O  O44  1  0.69066297  0.56951866  0.10342072  1
  O  O45  1  0.69148538  0.93646408  0.10452994  1
  O  O46  1  0.85347908  0.24940611  0.74446942  1
  O  O47  1  0.85100494  0.25290519  0.23127830  1
  O  O48  1  0.89257089  0.25495725  0.52909026  1
  O  O49  1  0.90154660  0.25472239  0.01465798  1
  O  O50  1  0.91263601  0.75323014  0.81599828  1
  O  O51  1  0.91312281  0.75226302  0.31654051  1
