# generated using pymatgen
data_Na2LiFePCO7
_symmetry_space_group_name_H-M   'P 1'
_cell_length_a   8.83640789
_cell_length_b   6.72206759
_cell_length_c   10.26651000
_cell_angle_alpha   90.14875568
_cell_angle_beta   88.37834928
_cell_angle_gamma   90.23061733
_symmetry_Int_Tables_number   1
_chemical_formula_structural   Na2LiFePCO7
_chemical_formula_sum   'Na8 Li4 Fe4 P4 C4 O28'
_cell_volume   609.56866524
_cell_formula_units_Z   4
loop_
 _symmetry_equiv_pos_site_id
 _symmetry_equiv_pos_as_xyz
  1  'x, y, z'
loop_
 _atom_site_type_symbol
 _atom_site_label
 _atom_site_symmetry_multiplicity
 _atom_site_fract_x
 _atom_site_fract_y
 _atom_site_fract_z
 _atom_site_occupancy
  Na  Na0  1  0.08291355  0.25379500  0.88007889  1
  Na  Na1  1  0.08382190  0.25499320  0.38062287  1
  Na  Na2  1  0.25588973  0.99811075  0.62868081  1
  Na  Na3  1  0.26228375  0.00084544  0.12231725  1
  Na  Na4  1  0.26236724  0.49940661  0.12512265  1
  Na  Na5  1  0.74459714  0.50281719  0.87331709  1
  Na  Na6  1  0.73856060  0.50496554  0.37766396  1
  Na  Na7  1  0.73943444  0.99738926  0.37576335  1
  Li  Li8  1  0.28238012  0.46996812  0.61565619  1
  Li  Li9  1  0.72447671  0.97822676  0.88130210  1
  Li  Li10  1  0.90347600  0.75197428  0.62565791  1
  Li  Li11  1  0.90026797  0.75490542  0.12297499  1
  Fe  Fe12  1  0.35682827  0.74515762  0.88203252  1
  Fe  Fe13  1  0.35236828  0.74844942  0.39618427  1
  Fe  Fe14  1  0.65043752  0.24739483  0.61782355  1
  Fe  Fe15  1  0.64981809  0.24707312  0.10602515  1
  P  P16  1  0.41381773  0.24675825  0.84966584  1
  P  P17  1  0.41550345  0.24964125  0.35982538  1
  P  P18  1  0.59455794  0.74876678  0.65122617  1
  P  P19  1  0.58938360  0.74934359  0.14205053  1
  C  C20  1  0.04434513  0.75769654  0.86508437  1
  C  C21  1  0.05139346  0.75113519  0.36004525  1
  C  C22  1  0.94758431  0.25914366  0.63497022  1
  C  C23  1  0.94186628  0.24965153  0.13580647  1
  O  O24  1  0.09311935  0.27645096  0.64257939  1
  O  O25  1  0.08703387  0.24875939  0.14552836  1
  O  O26  1  0.07467955  0.75043537  0.98803640  1
  O  O27  1  0.08323488  0.75652614  0.48320145  1
  O  O28  1  0.15429448  0.74083263  0.77756058  1
  O  O29  1  0.16145843  0.74601091  0.27230539  1
  O  O30  1  0.31357156  0.06254261  0.88306036  1
  O  O31  1  0.32664142  0.43086524  0.90246879  1
  O  O32  1  0.32009527  0.06180680  0.39884808  1
  O  O33  1  0.31885247  0.43316128  0.40655516  1
  O  O34  1  0.43171358  0.26586714  0.69729267  1
  O  O35  1  0.43386873  0.72903997  0.59351576  1
  O  O36  1  0.43732058  0.25459156  0.20835871  1
  O  O37  1  0.43535617  0.75162861  0.07464743  1
  O  O38  1  0.57440185  0.22843177  0.90635527  1
  O  O39  1  0.57495862  0.76785580  0.80292389  1
  O  O40  1  0.57089591  0.25126894  0.42355972  1
  O  O41  1  0.56260297  0.75532614  0.29260644  1
  O  O42  1  0.69729795  0.56733415  0.61745724  1
  O  O43  1  0.68514029  0.93116843  0.59925543  1
  O  O44  1  0.68623702  0.56281579  0.10486737  1
  O  O45  1  0.69100563  0.93009652  0.09774156  1
  O  O46  1  0.86098983  0.24684282  0.73941615  1
  O  O47  1  0.85359614  0.24700331  0.23959148  1
  O  O48  1  0.88283761  0.25241596  0.52264824  1
  O  O49  1  0.88016424  0.25296805  0.02214530  1
  O  O50  1  0.90702829  0.78011612  0.82587531  1
  O  O51  1  0.91323013  0.75022827  0.32170330  1
