# generated using pymatgen
data_LiV(SO4)2
_symmetry_space_group_name_H-M   'P 1'
_cell_length_a   9.27118787
_cell_length_b   9.10877968
_cell_length_c   13.85923989
_cell_angle_alpha   89.85357909
_cell_angle_beta   90.37729826
_cell_angle_gamma   90.13809673
_symmetry_Int_Tables_number   1
_chemical_formula_structural   LiV(SO4)2
_chemical_formula_sum   'Li8 V8 S16 O64'
_cell_volume   1170.36927772
_cell_formula_units_Z   8
loop_
 _symmetry_equiv_pos_site_id
 _symmetry_equiv_pos_as_xyz
  1  'x, y, z'
loop_
 _atom_site_type_symbol
 _atom_site_label
 _atom_site_symmetry_multiplicity
 _atom_site_fract_x
 _atom_site_fract_y
 _atom_site_fract_z
 _atom_site_occupancy
  Li  Li0  1  0.05468722  0.29235552  0.87804376  1
  Li  Li1  1  0.22757321  0.96480847  0.37208256  1
  Li  Li2  1  0.28045969  0.45406291  0.37668667  1
  Li  Li3  1  0.44297842  0.78514209  0.87231354  1
  Li  Li4  1  0.76702159  0.44565876  0.12578414  1
  Li  Li5  1  0.76601447  0.05227337  0.62436612  1
  Li  Li6  1  0.95204503  0.77146492  0.62718919  1
  Li  Li7  1  0.95608450  0.72684498  0.12544133  1
  V  V8  1  0.14454431  0.10405826  0.12641818  1
  V  V9  1  0.14124543  0.39429892  0.62398164  1
  V  V10  1  0.35921521  0.60607699  0.12630471  1
  V  V11  1  0.36275887  0.89308343  0.62427420  1
  V  V12  1  0.64193003  0.10450705  0.37361118  1
  V  V13  1  0.63641392  0.39253326  0.87287613  1
  V  V14  1  0.85465793  0.60266701  0.37625394  1
  V  V15  1  0.86122092  0.89479743  0.87551359  1
  S  S16  1  0.07768316  0.06377946  0.72346985  1
  S  S17  1  0.07290656  0.43505812  0.22420876  1
  S  S18  1  0.15478388  0.68853675  0.48897666  1
  S  S19  1  0.16029964  0.81608714  0.99025832  1
  S  S20  1  0.34837047  0.18792816  0.49137891  1
  S  S21  1  0.34173108  0.31670503  0.99099613  1
  S  S22  1  0.42760045  0.93422785  0.22054148  1
  S  S23  1  0.42219229  0.56716185  0.72008398  1
  S  S24  1  0.57414243  0.43141552  0.27623997  1
  S  S25  1  0.57663907  0.06296767  0.77847072  1
  S  S26  1  0.65877844  0.68318670  0.01038237  1
  S  S27  1  0.65858282  0.81331732  0.51211252  1
  S  S28  1  0.84526427  0.18353854  0.00818689  1
  S  S29  1  0.84527451  0.31263091  0.50886177  1
  S  S30  1  0.92111472  0.56384964  0.77789299  1
  S  S31  1  0.92361530  0.93036327  0.27704311  1
  O  O32  1  0.99325829  0.69687807  0.47666855  1
  O  O33  1  0.99845095  0.80451443  0.97351933  1
  O  O34  1  0.01951902  0.98123758  0.35276134  1
  O  O35  1  0.01476253  0.50450213  0.85220580  1
  O  O36  1  0.02348860  0.47106139  0.32367967  1
  O  O37  1  0.02843822  0.03052779  0.82359601  1
  O  O38  1  0.08242170  0.22965189  0.71960291  1
  O  O39  1  0.07887591  0.27278873  0.21573990  1
  O  O40  1  0.18046417  0.72202811  0.07872834  1
  O  O41  1  0.18155185  0.77387049  0.57958922  1
  O  O42  1  0.19910287  0.96937010  0.01706053  1
  O  O43  1  0.19767155  0.53142033  0.50740853  1
  O  O44  1  0.22604613  0.00545383  0.71152814  1
  O  O45  1  0.22482956  0.49604520  0.22025712  1
  O  O46  1  0.23214718  0.74269602  0.40561100  1
  O  O47  1  0.24116314  0.76915407  0.90764268  1
  O  O48  1  0.26682136  0.23560274  0.40638260  1
  O  O49  1  0.25633895  0.27661425  0.90730282  1
  O  O50  1  0.27178215  0.99537318  0.22091345  1
  O  O51  1  0.26916078  0.50933316  0.71267688  1
  O  O52  1  0.30776744  0.02816883  0.51069835  1
  O  O53  1  0.30743570  0.47305134  0.01909690  1
  O  O54  1  0.31321238  0.22481428  0.07771507  1
  O  O55  1  0.31486488  0.27290696  0.57937473  1
  O  O56  1  0.41232409  0.76901718  0.21858679  1
  O  O57  1  0.40958880  0.73662330  0.72267517  1
  O  O58  1  0.47369780  0.53486256  0.82127397  1
  O  O59  1  0.47737256  0.97005642  0.32177294  1
  O  O60  1  0.48242403  0.49022665  0.35053886  1
  O  O61  1  0.48728117  0.99595762  0.85122534  1
  O  O62  1  0.50701302  0.19506586  0.47519569  1
  O  O63  1  0.50005885  0.30658681  0.97100823  1
  O  O64  1  0.50002230  0.69864419  0.02725499  1
  O  O65  1  0.50045344  0.80030421  0.53121991  1
  O  O66  1  0.51456633  0.51647406  0.64508262  1
  O  O67  1  0.51486400  0.99193947  0.14485193  1
  O  O68  1  0.52582315  0.46914894  0.17574241  1
  O  O69  1  0.53153359  0.02726224  0.67696125  1
  O  O70  1  0.58616312  0.26831086  0.28027331  1
  O  O71  1  0.58066447  0.22619953  0.78476809  1
  O  O72  1  0.68682445  0.72390666  0.42550574  1
  O  O73  1  0.68517950  0.77269470  0.92197124  1
  O  O74  1  0.69346782  0.52499425  0.98707591  1
  O  O75  1  0.69484014  0.97185380  0.48792663  1
  O  O76  1  0.72646347  0.49435773  0.28068387  1
  O  O77  1  0.73280147  0.00860069  0.78289851  1
  O  O78  1  0.74619955  0.72186089  0.09381781  1
  O  O79  1  0.74513511  0.77678099  0.59681531  1
  O  O80  1  0.76793235  0.23631038  0.09136676  1
  O  O81  1  0.76855491  0.26243149  0.59350158  1
  O  O82  1  0.76960310  0.50779665  0.78522749  1
  O  O83  1  0.77626578  0.99395062  0.28390478  1
  O  O84  1  0.80592734  0.46864283  0.48477196  1
  O  O85  1  0.80447099  0.02875068  0.98469648  1
  O  O86  1  0.81485639  0.22305779  0.42129339  1
  O  O87  1  0.82045712  0.27525189  0.91911589  1
  O  O88  1  0.91579343  0.73139996  0.78080810  1
  O  O89  1  0.91006366  0.76288082  0.27723017  1
  O  O90  1  0.97400384  0.53429825  0.67746754  1
  O  O91  1  0.98018027  0.96120145  0.17733336  1
  O  O92  1  0.97849135  0.00267210  0.65059768  1
  O  O93  1  0.97939110  0.50043527  0.14972446  1
  O  O94  1  0.00720367  0.19090404  0.02278539  1
  O  O95  1  0.00643934  0.30778995  0.52504331  1
