# generated using pymatgen
data_Na2NiPCO7
_symmetry_space_group_name_H-M   'P 1'
_cell_length_a   10.17771650
_cell_length_b   10.45155379
_cell_length_c   8.40333811
_cell_angle_alpha   108.54037152
_cell_angle_beta   72.36006919
_cell_angle_gamma   60.21411910
_symmetry_Int_Tables_number   1
_chemical_formula_structural   Na2NiPCO7
_chemical_formula_sum   'Na8 Ni4 P4 C4 O28'
_cell_volume   609.26232979
_cell_formula_units_Z   4
loop_
 _symmetry_equiv_pos_site_id
 _symmetry_equiv_pos_as_xyz
  1  'x, y, z'
loop_
 _atom_site_type_symbol
 _atom_site_label
 _atom_site_symmetry_multiplicity
 _atom_site_fract_x
 _atom_site_fract_y
 _atom_site_fract_z
 _atom_site_occupancy
  Na  Na0  1  0.75110429  0.98247669  0.48140739  1
  Na  Na1  1  0.99528743  0.75595036  0.00713780  1
  Na  Na2  1  0.73785170  0.52324614  0.51048190  1
  Na  Na3  1  0.49669346  0.75813623  0.99979001  1
  Na  Na4  1  0.79014651  0.30064947  0.73478651  1
  Na  Na5  1  0.48244838  0.25261327  0.01621605  1
  Na  Na6  1  0.25134425  0.50240573  0.49339268  1
  Na  Na7  1  0.03844968  0.22420844  0.96138347  1
  Ni  Ni8  1  0.83970406  0.81070906  0.75146829  1
  Ni  Ni9  1  0.65172121  0.69566856  0.25415375  1
  Ni  Ni10  1  0.34117482  0.30783283  0.74886921  1
  Ni  Ni11  1  0.15560261  0.19377011  0.25682468  1
  P  P12  1  0.48018608  0.93950828  0.75189962  1
  P  P13  1  0.97358600  0.44961370  0.75252804  1
  P  P14  1  0.02215720  0.55412137  0.24801056  1
  P  P15  1  0.52092284  0.05534715  0.25235016  1
  C  C16  1  0.94063747  0.98272936  0.75329839  1
  C  C17  1  0.55583468  0.51631002  0.24362341  1
  C  C18  1  0.45547500  0.47346585  0.74905219  1
  C  C19  1  0.04823556  0.02401268  0.25333475  1
  O  O20  1  0.99111756  0.94096252  0.25376108  1
  O  O21  1  0.69899690  0.97663785  0.06446907  1
  O  O22  1  0.98199601  0.59425528  0.75455622  1
  O  O23  1  0.85687659  0.68809221  0.24632517  1
  O  O24  1  0.64603980  0.80986289  0.75835449  1
  O  O25  1  0.51805330  0.90788422  0.24526716  1
  O  O26  1  0.50347144  0.82125169  0.56191519  1
  O  O27  1  0.79268818  0.52865630  0.93677897  1
  O  O28  1  0.97788886  0.34979693  0.56664616  1
  O  O29  1  0.19185226  0.97688267  0.25471074  1
  O  O30  1  0.70173597  0.47003211  0.24163568  1
  O  O31  1  0.47085263  0.65946210  0.24580399  1
  O  O32  1  0.96401606  0.16992218  0.25806488  1
  O  O33  1  0.52111468  0.55028222  0.75091307  1
  O  O34  1  0.50456352  0.42814191  0.24041931  1
  O  O35  1  0.02544964  0.83739034  0.74890825  1
  O  O36  1  0.53610215  0.32784379  0.74755089  1
  O  O37  1  0.30987170  0.52811427  0.74837879  1
  O  O38  1  0.79758254  0.02691712  0.74741232  1
  O  O39  1  0.01177439  0.65771221  0.43677341  1
  O  O40  1  0.20288453  0.46971186  0.06047166  1
  O  O41  1  0.51411457  0.15682673  0.43878552  1
  O  O42  1  0.48569304  0.08370465  0.74824639  1
  O  O43  1  0.35343911  0.19190830  0.25549141  1
  O  O44  1  0.13731294  0.32072551  0.75696372  1
  O  O45  1  0.01441402  0.40901316  0.24616754  1
  O  O46  1  0.30211849  0.02346126  0.94194842  1
  O  O47  1  0.98653288  0.07497642  0.76342966  1
