# generated using pymatgen
data_Li7Mn4CoO12
_symmetry_space_group_name_H-M   'P 1'
_cell_length_a   5.02457646
_cell_length_b   5.02457565
_cell_length_c   9.77620218
_cell_angle_alpha   94.24413944
_cell_angle_beta   94.24413987
_cell_angle_gamma   118.39776269
_symmetry_Int_Tables_number   1
_chemical_formula_structural   Li7Mn4CoO12
_chemical_formula_sum   'Li7 Mn4 Co1 O12'
_cell_volume   214.83427123
_cell_formula_units_Z   1
loop_
 _symmetry_equiv_pos_site_id
 _symmetry_equiv_pos_as_xyz
  1  'x, y, z'
loop_
 _atom_site_type_symbol
 _atom_site_label
 _atom_site_symmetry_multiplicity
 _atom_site_fract_x
 _atom_site_fract_y
 _atom_site_fract_z
 _atom_site_occupancy
  Li  Li0  1  0.40846187  0.06956556  0.24777373  1
  Li  Li1  1  0.93043444  0.59153813  0.75222627  1
  Li  Li2  1  0.08740300  0.42300342  0.24564302  1
  Li  Li3  1  0.57699658  0.91259700  0.75435698  1
  Li  Li4  1  0.74959097  0.75313518  0.24871859  1
  Li  Li5  1  0.24686482  0.25040903  0.75128141  1
  Li  Li6  1  0.33343519  0.66656481  1.00000000  1
  Mn  Mn7  1  0.00056069  0.99943931  1.00000000  1
  Mn  Mn8  1  0.66583666  0.33416334  0.00000000  1
  Mn  Mn9  1  0.49676218  0.50323782  0.50000000  1
  Mn  Mn10  1  0.83660778  0.16339222  0.50000000  1
  Co  Co11  1  0.16667498  0.83332502  0.50000000  1
  O  O12  1  0.00588476  0.69522092  0.11014646  1
  O  O13  1  0.52534684  0.19226984  0.60594189  1
  O  O14  1  0.72655676  0.06113243  0.11336380  1
  O  O15  1  0.22936158  0.56595689  0.61976912  1
  O  O16  1  0.36267055  0.33933269  0.11143824  1
  O  O17  1  0.89928354  0.89482043  0.61751048  1
  O  O18  1  0.80773016  0.47465316  0.39405811  1
  O  O19  1  0.30477908  0.99411524  0.88985354  1
  O  O20  1  0.43404311  0.77063842  0.38023088  1
  O  O21  1  0.93886757  0.27344324  0.88663620  1
  O  O22  1  0.10517957  0.10071646  0.38248952  1
  O  O23  1  0.66066731  0.63732945  0.88856176  1
