# generated using pymatgen
data_LiMnF4
_symmetry_space_group_name_H-M   'P 1'
_cell_length_a   4.64081166
_cell_length_b   5.55489008
_cell_length_c   5.33779767
_cell_angle_alpha   90.00000000
_cell_angle_beta   95.10877838
_cell_angle_gamma   90.00000000
_symmetry_Int_Tables_number   1
_chemical_formula_structural   LiMnF4
_chemical_formula_sum   'Li2 Mn2 F8'
_cell_volume   137.05750498
_cell_formula_units_Z   2
loop_
 _symmetry_equiv_pos_site_id
 _symmetry_equiv_pos_as_xyz
  1  'x, y, z'
loop_
 _atom_site_type_symbol
 _atom_site_label
 _atom_site_symmetry_multiplicity
 _atom_site_fract_x
 _atom_site_fract_y
 _atom_site_fract_z
 _atom_site_occupancy
  Li  Li0  1  0.50000000  0.64535415  0.75000000  1
  Li  Li1  1  0.50000000  0.35464585  0.25000000  1
  Mn  Mn2  1  0.00000000  0.15471261  0.75000000  1
  Mn  Mn3  1  -0.00000000  0.84528739  0.25000000  1
  F  F4  1  0.22734151  0.90213617  0.91126468  1
  F  F5  1  0.22734151  0.09786383  0.41126468  1
  F  F6  1  0.25560412  0.38089469  0.90164615  1
  F  F7  1  0.25560412  0.61910531  0.40164615  1
  F  F8  1  0.74439588  0.38089469  0.59835385  1
  F  F9  1  0.74439588  0.61910531  0.09835385  1
  F  F10  1  0.77265849  0.90213617  0.58873532  1
  F  F11  1  0.77265849  0.09786383  0.08873532  1
