# generated using pymatgen
data_Na2LiFePCO7
_symmetry_space_group_name_H-M   'P 1'
_cell_length_a   8.86076628
_cell_length_b   6.65493383
_cell_length_c   5.16067695
_cell_angle_alpha   90.13948563
_cell_angle_beta   87.95226415
_cell_angle_gamma   90.97851072
_symmetry_Int_Tables_number   1
_chemical_formula_structural   Na2LiFePCO7
_chemical_formula_sum   'Na4 Li2 Fe2 P2 C2 O14'
_cell_volume   304.07464440
_cell_formula_units_Z   2
loop_
 _symmetry_equiv_pos_site_id
 _symmetry_equiv_pos_as_xyz
  1  'x, y, z'
loop_
 _atom_site_type_symbol
 _atom_site_label
 _atom_site_symmetry_multiplicity
 _atom_site_fract_x
 _atom_site_fract_y
 _atom_site_fract_z
 _atom_site_occupancy
  Na  Na0  1  0.08282056  0.26128239  0.75953963  1
  Na  Na1  1  0.26045098  0.99974766  0.25248965  1
  Na  Na2  1  0.73973702  0.50484509  0.75018000  1
  Na  Na3  1  0.73970667  0.99675903  0.74955047  1
  Li  Li4  1  0.28064628  0.47749116  0.23539604  1
  Li  Li5  1  0.91151977  0.73633987  0.24928415  1
  Fe  Fe6  1  0.34855735  0.74478387  0.78648944  1
  Fe  Fe7  1  0.64914188  0.25233115  0.22135413  1
  P  P8  1  0.41059783  0.25345240  0.71324575  1
  P  P9  1  0.58707726  0.74638725  0.29904986  1
  C  C10  1  0.05150684  0.74707699  0.71333199  1
  C  C11  1  0.94802124  0.26008674  0.27098778  1
  O  O12  1  0.09383954  0.27261712  0.28219935  1
  O  O13  1  0.08494825  0.75135446  0.95743002  1
  O  O14  1  0.15920814  0.73442200  0.53434168  1
  O  O15  1  0.31536862  0.05928949  0.77786890  1
  O  O16  1  0.31610810  0.43158589  0.82552597  1
  O  O17  1  0.42945799  0.27499206  0.41124227  1
  O  O18  1  0.43120250  0.73085018  0.17245593  1
  O  O19  1  0.56742045  0.24789573  0.83339192  1
  O  O20  1  0.56298590  0.74801592  0.59935277  1
  O  O21  1  0.69272123  0.56815398  0.21934829  1
  O  O22  1  0.67855553  0.93879018  0.21317701  1
  O  O23  1  0.86283400  0.25273699  0.48199024  1
  O  O24  1  0.88262908  0.25438843  0.04849177  1
  O  O25  1  0.91293498  0.75432297  0.64228298  1
