# generated using pymatgen
data_Li7V4(PO4)6
_symmetry_space_group_name_H-M   'P 1'
_cell_length_a   8.52133060
_cell_length_b   8.52133032
_cell_length_c   9.05896279
_cell_angle_alpha   61.94454530
_cell_angle_beta   118.05545301
_cell_angle_gamma   120.00000306
_symmetry_Int_Tables_number   1
_chemical_formula_structural   Li7V4(PO4)6
_chemical_formula_sum   'Li7 V4 P6 O24'
_cell_volume   478.33961741
_cell_formula_units_Z   1
loop_
 _symmetry_equiv_pos_site_id
 _symmetry_equiv_pos_as_xyz
  1  'x, y, z'
loop_
 _atom_site_type_symbol
 _atom_site_label
 _atom_site_symmetry_multiplicity
 _atom_site_fract_x
 _atom_site_fract_y
 _atom_site_fract_z
 _atom_site_occupancy
  Li  Li0  1  0.65888047  0.72679818  0.85503750  1
  Li  Li1  1  0.27320182  0.07704479  0.85503750  1
  Li  Li2  1  0.92295521  0.34111953  0.85503750  1
  Li  Li3  1  0.17354288  0.58183601  0.34641333  1
  Li  Li4  1  0.03370335  0.96629665  0.10111104  1
  Li  Li5  1  0.75470646  0.82645712  0.34641333  1
  Li  Li6  1  0.41816399  0.24529354  0.34641333  1
  V  V7  1  0.14933240  0.85066760  0.44799821  1
  V  V8  1  0.85734965  0.14265035  0.57204895  1
  V  V9  1  0.65229220  0.34770780  0.95687561  1
  V  V10  1  0.34737122  0.65262878  0.04211366  1
  P  P11  1  0.24909479  0.45379292  0.75268768  1
  P  P12  1  0.95738582  0.75090521  0.75268768  1
  P  P13  1  0.54620708  0.04261418  0.75268768  1
  P  P14  1  0.45937222  0.95910749  0.24650388  1
  P  P15  1  0.04089251  0.25376086  0.24650388  1
  P  P16  1  0.74623914  0.54062778  0.24650388  1
  O  O17  1  0.16319558  0.79839274  0.88528431  1
  O  O18  1  0.52048146  0.83680442  0.88528431  1
  O  O19  1  0.20160726  0.47951854  0.88528431  1
  O  O20  1  0.46323571  0.48617971  0.81129900  1
  O  O21  1  0.12477717  0.24369386  0.74915002  1
  O  O22  1  0.19852266  0.59116251  0.56893327  1
  O  O23  1  0.86806671  0.87522283  0.74915002  1
  O  O24  1  0.83424400  0.53676429  0.81129900  1
  O  O25  1  0.51382029  0.16575600  0.81129900  1
  O  O26  1  0.61442921  0.99367325  0.41784623  1
  O  O27  1  0.25400557  0.86677214  0.25907007  1
  O  O28  1  0.00632675  0.20291072  0.41784623  1
  O  O29  1  0.96157312  0.80147734  0.56893327  1
  O  O30  1  0.75630614  0.13193329  0.74915002  1
  O  O31  1  0.40883749  0.03842688  0.56893327  1
  O  O32  1  0.49280040  0.82097118  0.20587671  1
  O  O33  1  0.17902882  0.46595251  0.20587671  1
  O  O34  1  0.13322786  0.12816435  0.25907007  1
  O  O35  1  0.79708928  0.38557079  0.41784623  1
  O  O36  1  0.87183565  0.74599443  0.25907007  1
  O  O37  1  0.53404749  0.50719960  0.20587671  1
  O  O38  1  0.77800387  0.53520945  0.09356817  1
  O  O39  1  0.46479055  0.14922525  0.09356817  1
  O  O40  1  0.85077475  0.22199613  0.09356817  1
