# generated using pymatgen
data_LiMn3(PO4)3
_symmetry_space_group_name_H-M   'P 1'
_cell_length_a   9.05435856
_cell_length_b   9.04112742
_cell_length_c   12.26691526
_cell_angle_alpha   70.10123825
_cell_angle_beta   109.51391146
_cell_angle_gamma   95.89137150
_symmetry_Int_Tables_number   1
_chemical_formula_structural   LiMn3(PO4)3
_chemical_formula_sum   'Li4 Mn12 P12 O48'
_cell_volume   889.92915845
_cell_formula_units_Z   4
loop_
 _symmetry_equiv_pos_site_id
 _symmetry_equiv_pos_as_xyz
  1  'x, y, z'
loop_
 _atom_site_type_symbol
 _atom_site_label
 _atom_site_symmetry_multiplicity
 _atom_site_fract_x
 _atom_site_fract_y
 _atom_site_fract_z
 _atom_site_occupancy
  Li  Li0  1  0.50620623  0.48764857  0.01157721  1
  Li  Li1  1  0.38774541  0.63501166  0.37467262  1
  Li  Li2  1  0.99334895  0.01187485  0.48934791  1
  Li  Li3  1  0.25063272  0.74994499  0.75098123  1
  Mn  Mn4  1  0.16284154  0.51827000  0.09825438  1
  Mn  Mn5  1  0.33426234  0.98874814  0.39947914  1
  Mn  Mn6  1  0.76837387  0.91576191  0.15087265  1
  Mn  Mn7  1  0.39453130  0.14103323  0.12633774  1
  Mn  Mn8  1  0.09614799  0.35576040  0.37122540  1
  Mn  Mn9  1  0.73516572  0.58766548  0.34680444  1
  Mn  Mn10  1  0.27000743  0.41122060  0.65386551  1
  Mn  Mn11  1  0.88845137  0.63615440  0.62580956  1
  Mn  Mn12  1  0.61357696  0.86181304  0.87571407  1
  Mn  Mn13  1  0.66566972  0.01810244  0.59761794  1
  Mn  Mn14  1  0.23185374  0.08493695  0.84907031  1
  Mn  Mn15  1  0.83477121  0.48128421  0.90311734  1
  P  P16  1  0.42334630  0.79299610  0.07513387  1
  P  P17  1  0.04606303  0.16854873  0.17817884  1
  P  P18  1  0.08098390  0.70505668  0.42507870  1
  P  P19  1  0.83314986  0.58717212  0.12455234  1
  P  P20  1  0.66684400  0.91306520  0.37447910  1
  P  P21  1  0.45107593  0.33509818  0.32184143  1
  P  P22  1  0.54170013  0.67450724  0.67412435  1
  P  P23  1  0.33684168  0.08549148  0.62635084  1
  P  P24  1  0.16316066  0.41431368  0.87470553  1
  P  P25  1  0.92470145  0.29044689  0.57695075  1
  P  P26  1  0.95829522  0.82623292  0.82398220  1
  P  P27  1  0.57515943  0.20915634  0.92420975  1
  O  O28  1  0.36479709  0.96443408  0.03517531  1
  O  O29  1  0.02673793  0.33623257  0.07439936  1
  O  O30  1  0.01222431  0.54933684  0.18218999  1
  O  O31  1  0.31136317  0.68098752  0.13773250  1
  O  O32  1  0.20868096  0.80711866  0.37383049  1
  O  O33  1  0.80079856  0.76793904  0.06571608  1
  O  O34  1  0.48655132  0.94596367  0.31820255  1
  O  O35  1  0.58839336  0.77808424  0.17856549  1
  O  O36  1  0.74547294  0.51617923  0.02056332  1
  O  O37  1  0.74271372  0.99350140  0.27388016  1
  O  O38  1  0.54937206  0.25380240  0.02598634  1
  O  O39  1  0.01796619  0.17815586  0.29115254  1
  O  O40  1  0.06007980  0.74714444  0.52971074  1
  O  O41  1  0.28094288  0.39255782  0.29234175  1
  O  O42  1  0.21812330  0.11277510  0.21253559  1
  O  O43  1  0.13866578  0.53327366  0.46165096  1
  O  O44  1  0.47969384  0.32295839  0.21028592  1
  O  O45  1  0.75976793  0.50453006  0.22774847  1
  O  O46  1  0.75398571  0.98163006  0.47958006  1
  O  O47  1  0.52687964  0.84037949  0.56943488  1
  O  O48  1  0.91786200  0.72496392  0.32013670  1
  O  O49  1  0.69316106  0.72938308  0.43234958  1
  O  O50  1  0.55587046  0.45874582  0.37545237  1
  O  O51  1  0.06817208  0.94168283  0.88047069  1
  O  O52  1  0.93462094  0.05514114  0.12053387  1
  O  O53  1  0.43034309  0.56268594  0.61203905  1
  O  O54  1  0.30097790  0.26525917  0.56875751  1
  O  O55  1  0.47416817  0.16807764  0.42612639  1
  O  O56  1  0.08832971  0.27579570  0.68256108  1
  O  O57  1  0.24965099  0.01236455  0.52361016  1
  O  O58  1  0.23623289  0.50251606  0.77054915  1
  O  O59  1  0.49738147  0.69388717  0.77855166  1
  O  O60  1  0.86772108  0.46326512  0.53401718  1
  O  O61  1  0.78649180  0.88356170  0.78351238  1
  O  O62  1  0.71274136  0.61573388  0.71497747  1
  O  O63  1  0.94903446  0.24419545  0.47540258  1
  O  O64  1  0.00096431  0.80404173  0.71936544  1
  O  O65  1  0.44149025  0.74981882  0.96985093  1
  O  O66  1  0.26317827  0.99701972  0.72937126  1
  O  O67  1  0.24928656  0.48986143  0.97627920  1
  O  O68  1  0.41109049  0.22305356  0.81855062  1
  O  O69  1  0.51569159  0.04969269  0.68267880  1
  O  O70  1  0.19990915  0.23552719  0.93280802  1
  O  O71  1  0.80572638  0.18250642  0.63120544  1
  O  O72  1  0.69193969  0.31912732  0.86849233  1
  O  O73  1  0.98404589  0.44992849  0.81752479  1
  O  O74  1  0.97332758  0.66115743  0.92958748  1
  O  O75  1  0.63294075  0.03717704  0.96521928  1
