# generated using pymatgen
data_Li7V3P8O29
_symmetry_space_group_name_H-M   'P 1'
_cell_length_a   9.87619708
_cell_length_b   9.87102103
_cell_length_c   13.94552894
_cell_angle_alpha   89.64995732
_cell_angle_beta   89.99418707
_cell_angle_gamma   59.96210791
_symmetry_Int_Tables_number   1
_chemical_formula_structural   Li7V3P8O29
_chemical_formula_sum   'Li14 V6 P16 O58'
_cell_volume   1176.90351087
_cell_formula_units_Z   2
loop_
 _symmetry_equiv_pos_site_id
 _symmetry_equiv_pos_as_xyz
  1  'x, y, z'
loop_
 _atom_site_type_symbol
 _atom_site_label
 _atom_site_symmetry_multiplicity
 _atom_site_fract_x
 _atom_site_fract_y
 _atom_site_fract_z
 _atom_site_occupancy
  Li  Li0  1  0.90528556  0.75842810  0.06299235  1
  Li  Li1  1  0.76944981  0.90629738  0.56290385  1
  Li  Li2  1  0.91218753  0.31990549  0.56201188  1
  Li  Li3  1  0.66162898  0.66730614  0.38482426  1
  Li  Li4  1  0.67082289  0.66708016  0.88470945  1
  Li  Li5  1  0.76806577  0.31963881  0.06195043  1
  Li  Li6  1  0.32402401  0.90661351  0.06288646  1
  Li  Li7  1  0.67836608  0.22839903  0.43566901  1
  Li  Li8  1  0.33642342  0.75844190  0.56286215  1
  Li  Li9  1  0.31444160  0.34337955  0.61129946  1
  Li  Li10  1  0.34241556  0.34310003  0.11115481  1
  Li  Li11  1  0.09333509  0.22847284  0.93569163  1
  Li  Li12  1  0.98469139  0.96156396  0.99685973  1
  Li  Li13  1  0.05379967  0.96143746  0.49682952  1
  V  V14  1  0.56302057  0.43790849  0.24690930  1
  V  V15  1  0.43206541  0.56538455  0.75524368  1
  V  V16  1  0.56687451  0.00045986  0.74832421  1
  V  V17  1  0.43301479  0.00113191  0.24849663  1
  V  V18  1  0.00216152  0.56543171  0.25504226  1
  V  V19  1  0.99919549  0.43777881  0.74699459  1
  P  P20  1  0.90790171  0.77301347  0.84403362  1
  P  P21  1  0.77045272  0.91058130  0.34473359  1
  P  P22  1  0.91030516  0.31559156  0.34473855  1
  P  P23  1  0.67101656  0.66732327  0.12563115  1
  P  P24  1  0.66162487  0.66718906  0.62557536  1
  P  P25  1  0.77399529  0.31559802  0.84479022  1
  P  P26  1  0.68035757  0.23093231  0.65835379  1
  P  P27  1  0.31894612  0.91057600  0.84487957  1
  P  P28  1  0.69066700  0.08445137  0.15786665  1
  P  P29  1  0.31908622  0.77334249  0.34420279  1
  P  P30  1  0.21825693  0.69299545  0.15951440  1
  P  P31  1  0.33441973  0.32899919  0.37194974  1
  P  P32  1  0.33698368  0.32847371  0.87205521  1
  P  P33  1  0.08884595  0.69298222  0.65933019  1
  P  P34  1  0.22502958  0.08429844  0.65802006  1
  P  P35  1  0.08868616  0.23075886  0.15831903  1
  O  O36  1  0.99265268  0.80169851  0.57964013  1
  O  O37  1  0.91435292  0.74717188  0.34010901  1
  O  O38  1  0.79478063  0.98378374  0.07913477  1
  O  O39  1  0.74278536  0.91812582  0.82755161  1
  O  O40  1  0.88927868  0.62808858  0.83284075  1
  O  O41  1  0.81967869  0.66427171  0.17033156  1
  O  O42  1  0.89036087  0.48197467  0.33125710  1
  O  O43  1  0.99864182  0.23371602  0.06996052  1
  O  O44  1  0.92130051  0.33089849  0.83850660  1
  O  O45  1  0.66652488  0.81383330  0.66405306  1
  O  O46  1  0.62346510  0.89454807  0.32960904  1
  O  O47  1  0.81205186  0.51594065  0.65813955  1
  O  O48  1  0.67799852  0.67861091  0.01816722  1
  O  O49  1  0.64316560  0.67848342  0.51809183  1
  O  O50  1  0.67194824  0.51623589  0.15826862  1
  O  O51  1  0.48181289  0.89428891  0.82915568  1
  O  O52  1  0.51980843  0.81433864  0.16460459  1
  O  O53  1  0.74770105  0.33096381  0.33848578  1
  O  O54  1  0.78254544  0.21262422  0.75209194  1
  O  O55  1  0.76765393  0.23351636  0.56997570  1
  O  O56  1  0.77427654  0.23180447  0.93458439  1
  O  O57  1  0.62762980  0.48199645  0.83131918  1
  O  O58  1  0.51608972  0.66410076  0.67037982  1
  O  O59  1  0.66151659  0.25236908  0.15383532  1
  O  O60  1  0.48262760  0.62777348  0.33296772  1
  O  O61  1  0.33855969  0.91790592  0.32777874  1
  O  O62  1  0.78052192  0.01348342  0.25856013  1
  O  O63  1  0.76466201  0.99726511  0.43521375  1
  O  O64  1  0.22144929  0.98404762  0.57915958  1
  O  O65  1  0.66121107  0.08396869  0.65644538  1
  O  O66  1  0.51688878  0.37756957  0.66874245  1
  O  O67  1  0.33810543  0.74738692  0.84023377  1
  O  O68  1  0.48003769  0.33585032  0.33760080  1
  O  O69  1  0.36723597  0.52957706  0.16394937  1
  O  O70  1  0.20579600  0.80153204  0.07967219  1
  O  O71  1  0.23771227  0.78469793  0.43691736  1
  O  O72  1  0.20649222  0.77898721  0.26001766  1
  O  O73  1  0.25585924  0.66870490  0.66012999  1
  O  O74  1  0.47590742  0.18582113  0.82323479  1
  O  O75  1  0.52861751  0.09412624  0.16699783  1
  O  O76  1  0.34267431  0.47494038  0.82694370  1
  O  O77  1  0.34767563  0.32813208  0.97871426  1
  O  O78  1  0.32422748  0.32773216  0.47856244  1
  O  O79  1  0.18237984  0.47462835  0.32692592  1
  O  O80  1  0.37806625  0.09320086  0.66754438  1
  O  O81  1  0.33934016  0.18498167  0.32293763  1
  O  O82  1  0.07548303  0.66859607  0.16019367  1
  O  O83  1  0.01422142  0.77938469  0.75996966  1
  O  O84  1  0.97711775  0.78489471  0.93682608  1
  O  O85  1  0.10322286  0.52968328  0.66396668  1
  O  O86  1  0.18386209  0.33604265  0.83781684  1
  O  O87  1  0.10538166  0.37754754  0.16882583  1
  O  O88  1  0.25478069  0.08428742  0.15633019  1
  O  O89  1  0.23782921  0.99735094  0.93530946  1
  O  O90  1  0.20603826  0.01356940  0.75860716  1
  O  O91  1  0.08657676  0.25238936  0.65396499  1
  O  O92  1  0.99380062  0.23200285  0.43462462  1
  O  O93  1  0.00481022  0.21262627  0.25214564  1
