# generated using pymatgen
data_Li6Ti2O7
_symmetry_space_group_name_H-M   'P 1'
_cell_length_a   9.94923029
_cell_length_b   5.86292607
_cell_length_c   5.13627266
_cell_angle_alpha   90.00000000
_cell_angle_beta   110.85507571
_cell_angle_gamma   90.00000000
_symmetry_Int_Tables_number   1
_chemical_formula_structural   Li6Ti2O7
_chemical_formula_sum   'Li12 Ti4 O14'
_cell_volume   279.97792690
_cell_formula_units_Z   2
loop_
 _symmetry_equiv_pos_site_id
 _symmetry_equiv_pos_as_xyz
  1  'x, y, z'
loop_
 _atom_site_type_symbol
 _atom_site_label
 _atom_site_symmetry_multiplicity
 _atom_site_fract_x
 _atom_site_fract_y
 _atom_site_fract_z
 _atom_site_occupancy
  Li  Li0  1  0.13597628  0.78334531  0.77406029  1
  Li  Li1  1  0.13221505  0.22946353  0.76758176  1
  Li  Li2  1  0.12860325  0.50261313  0.18492678  1
  Li  Li3  1  0.37139675  0.00261313  0.81507322  1
  Li  Li4  1  0.36778495  0.72946353  0.23241824  1
  Li  Li5  1  0.36402372  0.28334531  0.22593971  1
  Li  Li6  1  0.63597628  0.71665469  0.77406029  1
  Li  Li7  1  0.63221505  0.27053647  0.76758176  1
  Li  Li8  1  0.62860325  0.99738687  0.18492678  1
  Li  Li9  1  0.87139675  0.49738687  0.81507322  1
  Li  Li10  1  0.86778495  0.77053647  0.23241824  1
  Li  Li11  1  0.86402372  0.21665469  0.22593971  1
  Ti  Ti12  1  0.13538358  0.00589366  0.26134142  1
  Ti  Ti13  1  0.36461642  0.50589366  0.73865858  1
  Ti  Ti14  1  0.63538358  0.49410634  0.26134142  1
  Ti  Ti15  1  0.86461642  0.99410634  0.73865858  1
  O  O16  1  -0.00000000  0.00000000  0.50000000  1
  O  O17  1  0.00204698  0.77250862  0.00463561  1
  O  O18  1  0.24513481  0.50641403  0.94672429  1
  O  O19  1  0.24461594  0.26262640  0.49372957  1
  O  O20  1  0.25538406  0.76262640  0.50627043  1
  O  O21  1  0.25486519  0.00641403  0.05327571  1
  O  O22  1  0.49795302  0.27250862  0.99536439  1
  O  O23  1  0.50000000  0.50000000  0.50000000  1
  O  O24  1  0.50204698  0.72749138  0.00463561  1
  O  O25  1  0.74513481  0.99358597  0.94672429  1
  O  O26  1  0.74461594  0.23737360  0.49372957  1
  O  O27  1  0.75538406  0.73737360  0.50627043  1
  O  O28  1  0.75486519  0.49358597  0.05327571  1
  O  O29  1  0.99795302  0.22749138  0.99536439  1
