# generated using pymatgen
data_Li6MnV3(PO4)6
_symmetry_space_group_name_H-M   'P 1'
_cell_length_a   8.69679337
_cell_length_b   8.70498321
_cell_length_c   12.38943083
_cell_angle_alpha   90.00000000
_cell_angle_beta   90.93164713
_cell_angle_gamma   90.00000000
_symmetry_Int_Tables_number   1
_chemical_formula_structural   Li6MnV3(PO4)6
_chemical_formula_sum   'Li12 Mn2 V6 P12 O48'
_cell_volume   937.82332291
_cell_formula_units_Z   2
loop_
 _symmetry_equiv_pos_site_id
 _symmetry_equiv_pos_as_xyz
  1  'x, y, z'
loop_
 _atom_site_type_symbol
 _atom_site_label
 _atom_site_symmetry_multiplicity
 _atom_site_fract_x
 _atom_site_fract_y
 _atom_site_fract_z
 _atom_site_occupancy
  Li  Li0  1  0.08136671  0.09201462  0.69712994  1
  Li  Li1  1  0.08144094  0.70486248  0.75686544  1
  Li  Li2  1  0.20948984  0.77535684  0.17801010  1
  Li  Li3  1  0.28972881  0.27442794  0.32229190  1
  Li  Li4  1  0.41686838  0.20146490  0.74243190  1
  Li  Li5  1  0.42076343  0.59553797  0.80240939  1
  Li  Li6  1  0.58136671  0.40798538  0.19712994  1
  Li  Li7  1  0.58144094  0.79513752  0.25686544  1
  Li  Li8  1  0.70948984  0.72464316  0.67801010  1
  Li  Li9  1  0.78972881  0.22557206  0.82229190  1
  Li  Li10  1  0.91686838  0.29853510  0.24243190  1
  Li  Li11  1  0.92076343  0.90446203  0.30240939  1
  Mn  Mn12  1  0.25340548  0.03528381  0.89499473  1
  Mn  Mn13  1  0.75340548  0.46471619  0.39499473  1
  V  V14  1  0.24775173  0.53183688  0.60929321  1
  V  V15  1  0.24620762  0.45900603  0.11164408  1
  V  V16  1  0.25304073  0.95723443  0.38871576  1
  V  V17  1  0.74620762  0.04099397  0.61164408  1
  V  V18  1  0.74775173  0.96816312  0.10929321  1
  V  V19  1  0.75304073  0.54276557  0.88871576  1
  P  P20  1  0.03825300  0.24810292  0.49403687  1
  P  P21  1  0.10623117  0.38750961  0.85374195  1
  P  P22  1  0.10410006  0.09873336  0.15245346  1
  P  P23  1  0.39405325  0.88871320  0.64340049  1
  P  P24  1  0.39721927  0.59720074  0.35155515  1
  P  P25  1  0.45886446  0.75038555  0.00588295  1
  P  P26  1  0.53825300  0.25189708  0.99403687  1
  P  P27  1  0.60410006  0.40126664  0.65245346  1
  P  P28  1  0.60623117  0.11249039  0.35374195  1
  P  P29  1  0.89721927  0.90279926  0.85155515  1
  P  P30  1  0.89405325  0.61128680  0.14340049  1
  P  P31  1  0.95886446  0.74961445  0.50588295  1
  O  O32  1  0.04776835  0.86384365  0.43405024  1
  O  O33  1  0.06335956  0.67324970  0.59299662  1
  O  O34  1  0.06955957  0.59416164  0.16514881  1
  O  O35  1  0.07721548  0.89487708  0.84915435  1
  O  O36  1  0.11458115  0.35983863  0.57438375  1
  O  O37  1  0.14998336  0.41449433  0.97197165  1
  O  O38  1  0.14998628  0.21907093  0.82025578  1
  O  O39  1  0.14742546  0.97616598  0.24123665  1
  O  O40  1  0.15597893  0.26205741  0.18906145  1
  O  O41  1  0.16594742  0.16598556  0.43039601  1
  O  O42  1  0.17087437  0.04701019  0.04727338  1
  O  O43  1  0.19294625  0.50678690  0.78233711  1
  O  O44  1  0.30444380  0.01014540  0.70857208  1
  O  O45  1  0.33074402  0.54841364  0.45809988  1
  O  O46  1  0.33012351  0.66911243  0.06862589  1
  O  O47  1  0.34542880  0.76026027  0.31317858  1
  O  O48  1  0.35098240  0.72152135  0.67954255  1
  O  O49  1  0.35174476  0.47599981  0.26268016  1
  O  O50  1  0.35564488  0.90882543  0.52323957  1
  O  O51  1  0.38733154  0.86267520  0.92227765  1
  O  O52  1  0.42490390  0.39388309  0.65479290  1
  O  O53  1  0.43068221  0.09563583  0.33398890  1
  O  O54  1  0.43459012  0.17446301  0.90586878  1
  O  O55  1  0.44896605  0.36503684  0.06600896  1
  O  O56  1  0.54776835  0.63615635  0.93405024  1
  O  O57  1  0.56335956  0.82675030  0.09299662  1
  O  O58  1  0.56955957  0.90583836  0.66514881  1
  O  O59  1  0.57721548  0.60512292  0.34915435  1
  O  O60  1  0.61458115  0.14016137  0.07438375  1
  O  O61  1  0.64998336  0.08550567  0.47197165  1
  O  O62  1  0.64742546  0.52383402  0.74123665  1
  O  O63  1  0.64998628  0.28092907  0.32025578  1
  O  O64  1  0.65597893  0.23794259  0.68906145  1
  O  O65  1  0.66594742  0.33401444  0.93039601  1
  O  O66  1  0.67087437  0.45298981  0.54727338  1
  O  O67  1  0.69294625  0.99321310  0.28233711  1
  O  O68  1  0.80444380  0.48985460  0.20857208  1
  O  O69  1  0.83074402  0.95158636  0.95809988  1
  O  O70  1  0.83012351  0.83088757  0.56862589  1
  O  O71  1  0.84542880  0.73973973  0.81317858  1
  O  O72  1  0.85174476  0.02400019  0.76268016  1
  O  O73  1  0.85098240  0.77847865  0.17954255  1
  O  O74  1  0.85564488  0.59117457  0.02323957  1
  O  O75  1  0.88733154  0.63732480  0.42227765  1
  O  O76  1  0.92490390  0.10611691  0.15479290  1
  O  O77  1  0.93068221  0.40436417  0.83398890  1
  O  O78  1  0.93459012  0.32553699  0.40586878  1
  O  O79  1  0.94896605  0.13496316  0.56600896  1
