# generated using pymatgen
data_Li8MnFe7(PO4)12
_symmetry_space_group_name_H-M   'P 1'
_cell_length_a   8.65073353
_cell_length_b   8.79167443
_cell_length_c   12.19299778
_cell_angle_alpha   90.06921914
_cell_angle_beta   89.97783509
_cell_angle_gamma   89.91046481
_symmetry_Int_Tables_number   1
_chemical_formula_structural   Li8MnFe7(PO4)12
_chemical_formula_sum   'Li8 Mn1 Fe7 P12 O48'
_cell_volume   927.32965061
_cell_formula_units_Z   1
loop_
 _symmetry_equiv_pos_site_id
 _symmetry_equiv_pos_as_xyz
  1  'x, y, z'
loop_
 _atom_site_type_symbol
 _atom_site_label
 _atom_site_symmetry_multiplicity
 _atom_site_fract_x
 _atom_site_fract_y
 _atom_site_fract_z
 _atom_site_occupancy
  Li  Li0  1  0.21697849  0.72191471  0.18147839  1
  Li  Li1  1  0.21716482  0.77762726  0.81871502  1
  Li  Li2  1  0.28368643  0.22231396  0.31930708  1
  Li  Li3  1  0.28257320  0.27832879  0.68131577  1
  Li  Li4  1  0.71683667  0.72217175  0.31887475  1
  Li  Li5  1  0.71617021  0.77980867  0.68090556  1
  Li  Li6  1  0.78289848  0.22216850  0.18147737  1
  Li  Li7  1  0.78361461  0.27766792  0.81904343  1
  Mn  Mn8  1  0.75257989  0.46152294  0.61162270  1
  Fe  Fe9  1  0.24776642  0.95857791  0.61298135  1
  Fe  Fe10  1  0.25020824  0.54098982  0.38690411  1
  Fe  Fe11  1  0.25023115  0.04143757  0.11338098  1
  Fe  Fe12  1  0.24991050  0.45878459  0.88601026  1
  Fe  Fe13  1  0.75002183  0.54099768  0.11285619  1
  Fe  Fe14  1  0.74975867  0.95945009  0.88687844  1
  Fe  Fe15  1  0.75076303  0.03939005  0.38616898  1
  P  P16  1  0.03731200  0.25081970  0.50029202  1
  P  P17  1  0.46043481  0.74988895  0.99993001  1
  P  P18  1  0.54010564  0.25016768  0.00027413  1
  P  P19  1  0.95958814  0.74743993  0.49935954  1
  P  P20  1  0.10607199  0.39320117  0.14700661  1
  P  P21  1  0.10617094  0.10663145  0.85266808  1
  P  P22  1  0.39591804  0.60429033  0.64646462  1
  P  P23  1  0.39370105  0.89267304  0.35310757  1
  P  P24  1  0.60547850  0.10933840  0.64520960  1
  P  P25  1  0.60768874  0.39326169  0.35455454  1
  P  P26  1  0.89381471  0.60711127  0.85031624  1
  P  P27  1  0.89411053  0.89272806  0.14685038  1
  O  O28  1  0.05523863  0.63957935  0.42918651  1
  O  O29  1  0.05405374  0.85424726  0.57243625  1
  O  O30  1  0.07297506  0.89536408  0.15604623  1
  O  O31  1  0.07225883  0.60404824  0.84208317  1
  O  O32  1  0.14590408  0.16421551  0.58037277  1
  O  O33  1  0.14700170  0.33809246  0.42179106  1
  O  O34  1  0.15653104  0.43351845  0.03021891  1
  O  O35  1  0.15683360  0.06617772  0.96936788  1
  O  O36  1  0.16312252  0.23287900  0.18078259  1
  O  O37  1  0.16289293  0.26696445  0.81928139  1
  O  O38  1  0.17387526  0.51399468  0.22619106  1
  O  O39  1  0.17410582  0.98525222  0.77329332  1
  O  O40  1  0.32618290  0.01420746  0.27387305  1
  O  O41  1  0.32778419  0.48470533  0.72593382  1
  O  O42  1  0.34309905  0.76630050  0.68043914  1
  O  O43  1  0.33662635  0.73274996  0.31952287  1
  O  O44  1  0.34582048  0.56532636  0.53008549  1
  O  O45  1  0.34283086  0.93388074  0.46991619  1
  O  O46  1  0.35068752  0.83717739  0.07897801  1
  O  O47  1  0.35085988  0.66269280  0.92110195  1
  O  O48  1  0.42703908  0.10702724  0.65614364  1
  O  O49  1  0.42893336  0.39549880  0.34594908  1
  O  O50  1  0.44345074  0.14231847  0.07064014  1
  O  O51  1  0.44298559  0.35777527  0.92965143  1
  O  O52  1  0.55708173  0.64258599  0.07095497  1
  O  O53  1  0.55701956  0.85746656  0.92913698  1
  O  O54  1  0.57748413  0.60240113  0.65628491  1
  O  O55  1  0.57255352  0.89536588  0.34370164  1
  O  O56  1  0.64904948  0.33750297  0.07936671  1
  O  O57  1  0.64926533  0.16315384  0.92073803  1
  O  O58  1  0.65626275  0.06794290  0.52957051  1
  O  O59  1  0.65545699  0.43607662  0.47356983  1
  O  O60  1  0.66487513  0.23338421  0.32128769  1
  O  O61  1  0.66338632  0.27275859  0.67835219  1
  O  O62  1  0.67606358  0.51420555  0.27601859  1
  O  O63  1  0.67473931  0.99099655  0.72584108  1
  O  O64  1  0.82594143  0.01388724  0.22596946  1
  O  O65  1  0.82275261  0.48481757  0.77023659  1
  O  O66  1  0.83708416  0.73226661  0.17997094  1
  O  O67  1  0.83607356  0.76729748  0.81763489  1
  O  O68  1  0.84076070  0.56232509  0.96560964  1
  O  O69  1  0.84349286  0.93291225  0.03011632  1
  O  O70  1  0.85081400  0.65855570  0.58165928  1
  O  O71  1  0.84925724  0.83547447  0.42196762  1
  O  O72  1  0.92724258  0.10443600  0.84394588  1
  O  O73  1  0.92702656  0.39576016  0.15556545  1
  O  O74  1  0.94140932  0.14373260  0.43010035  1
  O  O75  1  0.94225124  0.35999941  0.57516076  1
