# generated using pymatgen
data_Li7V3P8O29
_symmetry_space_group_name_H-M   'P 1'
_cell_length_a   9.86125291
_cell_length_b   9.85904622
_cell_length_c   13.94511157
_cell_angle_alpha   90.23614117
_cell_angle_beta   90.73335652
_cell_angle_gamma   60.07484685
_symmetry_Int_Tables_number   1
_chemical_formula_structural   Li7V3P8O29
_chemical_formula_sum   'Li14 V6 P16 O58'
_cell_volume   1174.92358451
_cell_formula_units_Z   2
loop_
 _symmetry_equiv_pos_site_id
 _symmetry_equiv_pos_as_xyz
  1  'x, y, z'
loop_
 _atom_site_type_symbol
 _atom_site_label
 _atom_site_symmetry_multiplicity
 _atom_site_fract_x
 _atom_site_fract_y
 _atom_site_fract_z
 _atom_site_occupancy
  Li  Li0  1  0.67793846  0.67486290  0.38819654  1
  Li  Li1  1  0.67497340  0.66505640  0.88711632  1
  Li  Li2  1  0.76744724  0.32271801  0.06232772  1
  Li  Li3  1  0.32352177  0.90903760  0.06497218  1
  Li  Li4  1  0.66998275  0.23538767  0.43787235  1
  Li  Li5  1  0.32084270  0.76934819  0.56450802  1
  Li  Li6  1  0.66606296  0.09713065  0.93785517  1
  Li  Li7  1  0.23613143  0.66459004  0.93808411  1
  Li  Li8  1  0.33701368  0.33560529  0.61420345  1
  Li  Li9  1  0.09268657  0.67411518  0.43770513  1
  Li  Li10  1  0.22746418  0.09603389  0.43761596  1
  Li  Li11  1  0.09971187  0.23572028  0.94113905  1
  Li  Li12  1  0.97707796  0.96215699  0.00556446  1
  Li  Li13  1  0.94503005  0.03063622  0.50625695  1
  V  V14  1  0.56561791  0.43353073  0.25005355  1
  V  V15  1  0.43561903  0.56403330  0.75127791  1
  V  V16  1  0.56628815  0.99776904  0.74856056  1
  V  V17  1  0.43610396  0.00138706  0.25053296  1
  V  V18  1  0.00002990  0.56355846  0.24718698  1
  V  V19  1  0.00023217  0.43681050  0.74651594  1
  P  P20  1  0.91533621  0.77862355  0.83955718  1
  P  P21  1  0.78342556  0.91257614  0.33893673  1
  P  P22  1  0.91180674  0.31081308  0.34102945  1
  P  P23  1  0.66709196  0.66066669  0.12808134  1
  P  P24  1  0.66403928  0.67002857  0.62768230  1
  P  P25  1  0.77675850  0.31664345  0.84090734  1
  P  P26  1  0.68125400  0.22403429  0.65616849  1
  P  P27  1  0.31864134  0.91081114  0.84566104  1
  P  P28  1  0.68521688  0.08736441  0.15383723  1
  P  P29  1  0.32063428  0.77154071  0.34520964  1
  P  P30  1  0.22576766  0.68696153  0.16021141  1
  P  P31  1  0.33001557  0.33690415  0.37351261  1
  P  P32  1  0.33267444  0.32923928  0.87258793  1
  P  P33  1  0.08665995  0.68594316  0.65238510  1
  P  P34  1  0.22509985  0.09115031  0.65867974  1
  P  P35  1  0.08266075  0.22937371  0.15549321  1
  O  O36  1  0.00509489  0.76462044  0.56072002  1
  O  O37  1  0.92549922  0.74503269  0.34031370  1
  O  O38  1  0.77222909  0.02058597  0.06162562  1
  O  O39  1  0.74717929  0.91957776  0.84323036  1
  O  O40  1  0.90755195  0.62538844  0.83469574  1
  O  O41  1  0.81236185  0.66111878  0.17770920  1
  O  O42  1  0.90337095  0.47152425  0.33476682  1
  O  O43  1  0.99543593  0.23496365  0.06387726  1
  O  O44  1  0.92557224  0.33109942  0.84134234  1
  O  O45  1  0.65697966  0.81881834  0.67543078  1
  O  O46  1  0.63410794  0.89915254  0.33374172  1
  O  O47  1  0.81457330  0.52965008  0.67587637  1
  O  O48  1  0.67928316  0.65024649  0.02082942  1
  O  O49  1  0.67377490  0.67237453  0.52135760  1
  O  O50  1  0.67494070  0.50636395  0.16629649  1
  O  O51  1  0.48285940  0.89289257  0.83367560  1
  O  O52  1  0.51570233  0.80696461  0.16235030  1
  O  O53  1  0.73959872  0.34253431  0.34185544  1
  O  O54  1  0.78843346  0.21736128  0.74691570  1
  O  O55  1  0.76756078  0.21571236  0.56616333  1
  O  O56  1  0.77202907  0.22730172  0.92795251  1
  O  O57  1  0.63309333  0.48222584  0.83136288  1
  O  O58  1  0.51646488  0.66743394  0.66078878  1
  O  O59  1  0.66460173  0.25477595  0.16504046  1
  O  O60  1  0.48490586  0.62738305  0.32911417  1
  O  O61  1  0.33569321  0.91863031  0.34706226  1
  O  O62  1  0.80095818  0.98647708  0.23973482  1
  O  O63  1  0.79279216  0.01143607  0.41832963  1
  O  O64  1  0.22823961  0.00003550  0.57032116  1
  O  O65  1  0.66211288  0.08005789  0.66565458  1
  O  O66  1  0.51905196  0.37207293  0.66593321  1
  O  O67  1  0.33389908  0.74841101  0.84684163  1
  O  O68  1  0.48107435  0.33198264  0.33452829  1
  O  O69  1  0.38489937  0.53316326  0.17385697  1
  O  O70  1  0.22346892  0.77477852  0.07039131  1
  O  O71  1  0.23889854  0.75784043  0.43250950  1
  O  O72  1  0.21166360  0.79227292  0.25218011  1
  O  O73  1  0.24921883  0.67074666  0.66037780  1
  O  O74  1  0.48090968  0.18145914  0.82860853  1
  O  O75  1  0.53119511  0.09068432  0.16488146  1
  O  O76  1  0.33162047  0.47962324  0.83802771  1
  O  O77  1  0.33227334  0.31398279  0.97870859  1
  O  O78  1  0.32502132  0.35181372  0.48121253  1
  O  O79  1  0.18188300  0.48586695  0.33008658  1
  O  O80  1  0.37439635  0.10614130  0.66912918  1
  O  O81  1  0.32548620  0.18926714  0.33987143  1
  O  O82  1  0.09063813  0.65528204  0.16158070  1
  O  O83  1  0.98629174  0.79485497  0.73995476  1
  O  O84  1  0.01325070  0.78883475  0.91973024  1
  O  O85  1  0.10714105  0.51981195  0.66858066  1
  O  O86  1  0.18305361  0.33220288  0.82631423  1
  O  O87  1  0.09319189  0.37819257  0.17088904  1
  O  O88  1  0.24392988  0.08153392  0.16053567  1
  O  O89  1  0.23377311  0.00528989  0.93307174  1
  O  O90  1  0.21569981  0.99856876  0.75130694  1
  O  O91  1  0.08210766  0.25512746  0.66057628  1
  O  O92  1  0.00360086  0.20530099  0.42255034  1
  O  O93  1  0.98184063  0.21768145  0.24229745  1
