# generated using pymatgen
data_Li7Fe4(P2O7)4
_symmetry_space_group_name_H-M   'P 1'
_cell_length_a   9.89522211
_cell_length_b   9.88811338
_cell_length_c   11.15011068
_cell_angle_alpha   90.13890847
_cell_angle_beta   102.33764975
_cell_angle_gamma   89.99204659
_symmetry_Int_Tables_number   1
_chemical_formula_structural   Li7Fe4(P2O7)4
_chemical_formula_sum   'Li14 Fe8 P16 O56'
_cell_volume   1065.78438841
_cell_formula_units_Z   2
loop_
 _symmetry_equiv_pos_site_id
 _symmetry_equiv_pos_as_xyz
  1  'x, y, z'
loop_
 _atom_site_type_symbol
 _atom_site_label
 _atom_site_symmetry_multiplicity
 _atom_site_fract_x
 _atom_site_fract_y
 _atom_site_fract_z
 _atom_site_occupancy
  Li  Li0  1  0.11179916  0.72388515  0.44852776  1
  Li  Li1  1  0.18137919  0.40993063  0.55240328  1
  Li  Li2  1  0.08536681  0.10734353  0.02939620  1
  Li  Li3  1  0.34884703  0.90674976  0.95461850  1
  Li  Li4  1  0.15343338  0.40694109  0.04245912  1
  Li  Li5  1  0.41178453  0.60679132  0.97009866  1
  Li  Li6  1  0.34910675  0.93585456  0.46943891  1
  Li  Li7  1  0.65089325  0.06414544  0.53056109  1
  Li  Li8  1  0.58821547  0.39320868  0.02990134  1
  Li  Li9  1  0.84656662  0.59305891  0.95754088  1
  Li  Li10  1  0.65115297  0.09325024  0.04538150  1
  Li  Li11  1  0.91463319  0.89265647  0.97060380  1
  Li  Li12  1  0.81862081  0.59006937  0.44759672  1
  Li  Li13  1  0.88819984  0.27611485  0.55147224  1
  Fe  Fe14  1  0.19935676  0.92712994  0.67196317  1
  Fe  Fe15  1  0.25389954  0.21262034  0.82020013  1
  Fe  Fe16  1  0.24996958  0.71397731  0.18049051  1
  Fe  Fe17  1  0.30088356  0.42145898  0.32941224  1
  Fe  Fe18  1  0.69911644  0.57854102  0.67058776  1
  Fe  Fe19  1  0.75003042  0.28602269  0.81950949  1
  Fe  Fe20  1  0.74610046  0.78737966  0.17979987  1
  Fe  Fe21  1  0.80064324  0.07287006  0.32803683  1
  P  P22  1  0.02274177  0.45588873  0.75793310  1
  P  P23  1  0.11937359  0.70523020  0.89061425  1
  P  P24  1  0.06064758  0.92956458  0.24164716  1
  P  P25  1  0.12428731  0.15123870  0.42352160  1
  P  P26  1  0.37836325  0.64517304  0.57332817  1
  P  P27  1  0.43812138  0.43119525  0.75661495  1
  P  P28  1  0.52410745  0.04821114  0.75919775  1
  P  P29  1  0.38026201  0.20657759  0.11413894  1
  P  P30  1  0.61973799  0.79342241  0.88586106  1
  P  P31  1  0.47589255  0.95178886  0.24080225  1
  P  P32  1  0.56187862  0.56880475  0.24338505  1
  P  P33  1  0.62163675  0.35482696  0.42667183  1
  P  P34  1  0.87571269  0.84876130  0.57647840  1
  P  P35  1  0.93935242  0.07043542  0.75835284  1
  P  P36  1  0.88062641  0.29476980  0.10938575  1
  P  P37  1  0.97725823  0.54411127  0.24206690  1
  O  O38  1  0.02282794  0.41418420  0.62690007  1
  O  O39  1  0.02365475  0.83126759  0.55837183  1
  O  O40  1  0.08464961  0.08914518  0.73098901  1
  O  O41  1  0.09639924  0.60235139  0.77392873  1
  O  O42  1  0.10764762  0.36585488  0.85761756  1
  O  O43  1  0.18536651  0.82909106  0.84449804  1
  O  O44  1  0.22192727  0.63519166  0.99949795  1
  O  O45  1  0.02026331  0.27541106  0.07797537  1
  O  O46  1  0.11548198  0.07739032  0.29211970  1
  O  O47  1  0.06451824  0.93359667  0.10693149  1
  O  O48  1  0.12939627  0.52588987  0.22142331  1
  O  O49  1  0.18724832  0.29180536  0.40636373  1
  O  O50  1  0.16455215  0.82293277  0.30904476  1
  O  O51  1  0.21545790  0.06153138  0.51855553  1
  O  O52  1  0.28282039  0.55571671  0.47582882  1
  O  O53  1  0.33238633  0.32604112  0.69323554  1
  O  O54  1  0.31268769  0.78416598  0.57635636  1
  O  O55  1  0.37797802  0.03149540  0.79032437  1
  O  O56  1  0.37541137  0.57648168  0.70418131  1
  O  O57  1  0.44363752  0.43728134  0.89277845  1
  O  O58  1  0.48191382  0.76971447  0.91958226  1
  O  O59  1  0.27346943  0.14694484  0.00336696  1
  O  O60  1  0.31601416  0.33044241  0.16729676  1
  O  O61  1  0.40229463  0.10104746  0.22484815  1
  O  O62  1  0.41515752  0.58002568  0.27356798  1
  O  O63  1  0.38428155  0.86354087  0.14121152  1
  O  O64  1  0.47009535  0.35168595  0.43553582  1
  O  O65  1  0.52202561  0.08323107  0.62824328  1
  O  O66  1  0.47797439  0.91676893  0.37175672  1
  O  O67  1  0.52990465  0.64831405  0.56446418  1
  O  O68  1  0.61571845  0.13645913  0.85878848  1
  O  O69  1  0.58484248  0.41997432  0.72643202  1
  O  O70  1  0.59770537  0.89895254  0.77515185  1
  O  O71  1  0.68398584  0.66955759  0.83270324  1
  O  O72  1  0.72653057  0.85305516  0.99663304  1
  O  O73  1  0.51808618  0.23028553  0.08041774  1
  O  O74  1  0.55636248  0.56271866  0.10722155  1
  O  O75  1  0.62458863  0.42351832  0.29581869  1
  O  O76  1  0.62202198  0.96850460  0.20967563  1
  O  O77  1  0.68731231  0.21583402  0.42364364  1
  O  O78  1  0.66761367  0.67395888  0.30676446  1
  O  O79  1  0.71717961  0.44428329  0.52417118  1
  O  O80  1  0.78454210  0.93846862  0.48144447  1
  O  O81  1  0.83544785  0.17706723  0.69095524  1
  O  O82  1  0.81275168  0.70819464  0.59363627  1
  O  O83  1  0.87060373  0.47410913  0.77857669  1
  O  O84  1  0.93548176  0.06640333  0.89306851  1
  O  O85  1  0.88451802  0.92260968  0.70788030  1
  O  O86  1  0.97973669  0.72458894  0.92202463  1
  O  O87  1  0.77807273  0.36480834  0.00050205  1
  O  O88  1  0.81463349  0.17090894  0.15550196  1
  O  O89  1  0.89235238  0.63414512  0.14238244  1
  O  O90  1  0.90360076  0.39764861  0.22607127  1
  O  O91  1  0.91535039  0.91085482  0.26901099  1
  O  O92  1  0.97634525  0.16873241  0.44162817  1
  O  O93  1  0.97717206  0.58581580  0.37309993  1
