# generated using pymatgen
data_Li2MnV(PO4)3
_symmetry_space_group_name_H-M   'P 1'
_cell_length_a   8.94021738
_cell_length_b   8.57976529
_cell_length_c   8.29438777
_cell_angle_alpha   59.38961044
_cell_angle_beta   63.75256530
_cell_angle_gamma   91.84142087
_symmetry_Int_Tables_number   1
_chemical_formula_structural   Li2MnV(PO4)3
_chemical_formula_sum   'Li4 Mn2 V2 P6 O24'
_cell_volume   463.01366984
_cell_formula_units_Z   2
loop_
 _symmetry_equiv_pos_site_id
 _symmetry_equiv_pos_as_xyz
  1  'x, y, z'
loop_
 _atom_site_type_symbol
 _atom_site_label
 _atom_site_symmetry_multiplicity
 _atom_site_fract_x
 _atom_site_fract_y
 _atom_site_fract_z
 _atom_site_occupancy
  Li  Li0  1  0.13738022  0.73704496  0.18264923  1
  Li  Li1  1  0.15807394  0.32758840  0.94085995  1
  Li  Li2  1  0.85842670  0.92540084  0.40677968  1
  Li  Li3  1  0.86077938  0.26728417  0.81282442  1
  Mn  Mn4  1  0.05113034  0.34873443  0.30456760  1
  Mn  Mn5  1  0.94910005  0.65120991  0.70200374  1
  V  V6  1  0.56359380  0.85299160  0.29513451  1
  V  V7  1  0.43838605  0.14686873  0.70170427  1
  P  P8  1  0.25138903  0.03585755  0.21431950  1
  P  P9  1  0.25298547  0.45291095  0.50419266  1
  P  P10  1  0.24839090  0.75193812  0.78179964  1
  P  P11  1  0.75555723  0.25305848  0.20676391  1
  P  P12  1  0.75512564  0.54350117  0.49244178  1
  P  P13  1  0.74339454  0.97054484  0.78720856  1
  O  O14  1  0.08892471  0.83950454  0.37191243  1
  O  O15  1  0.27167943  0.12043920  0.98491370  1
  O  O16  1  0.20471507  0.17089355  0.27985785  1
  O  O17  1  0.20360451  0.49213362  0.33261602  1
  O  O18  1  0.09662829  0.42947646  0.70847192  1
  O  O19  1  0.10647906  0.78580267  0.72263204  1
  O  O20  1  0.42031263  0.99468867  0.20075488  1
  O  O21  1  0.29677476  0.26315789  0.59420474  1
  O  O22  1  0.41629748  0.61824006  0.39066830  1
  O  O23  1  0.20198655  0.53915763  0.96761142  1
  O  O24  1  0.27037980  0.88170142  0.85331395  1
  O  O25  1  0.42763110  0.80628545  0.57409786  1
  O  O26  1  0.58706080  0.19106652  0.41776528  1
  O  O27  1  0.73603951  0.11529430  0.14211538  1
  O  O28  1  0.80448205  0.46175253  0.01982418  1
  O  O29  1  0.58363257  0.38204399  0.61295450  1
  O  O30  1  0.72524161  0.74258054  0.39654604  1
  O  O31  1  0.56744282  0.00489288  0.80612093  1
  O  O32  1  0.91306915  0.21721150  0.24792203  1
  O  O33  1  0.91270351  0.55422988  0.30284205  1
  O  O34  1  0.79833762  0.50731250  0.67058328  1
  O  O35  1  0.78946500  0.84499598  0.70642186  1
  O  O36  1  0.71296118  0.88634421  0.01947886  1
  O  O37  1  0.88989250  0.17127083  0.63195306  1
