# generated using pymatgen
data_Li32Ti3Cr13O48
_symmetry_space_group_name_H-M   'P 1'
_cell_length_a   5.05992852
_cell_length_b   8.75030600
_cell_length_c   19.52877433
_cell_angle_alpha   98.27646220
_cell_angle_beta   94.91990282
_cell_angle_gamma   89.83269809
_symmetry_Int_Tables_number   1
_chemical_formula_structural   Li32Ti3Cr13O48
_chemical_formula_sum   'Li32 Ti3 Cr13 O48'
_cell_volume   852.45759557
_cell_formula_units_Z   1
loop_
 _symmetry_equiv_pos_site_id
 _symmetry_equiv_pos_as_xyz
  1  'x, y, z'
loop_
 _atom_site_type_symbol
 _atom_site_label
 _atom_site_symmetry_multiplicity
 _atom_site_fract_x
 _atom_site_fract_y
 _atom_site_fract_z
 _atom_site_occupancy
  Li  Li0  1  0.99138166  0.17293565  0.24952773  1
  Li  Li1  1  0.87680626  0.37488537  0.37426174  1
  Li  Li2  1  0.74688549  0.25067811  0.99979449  1
  Li  Li3  1  0.74023336  0.91895596  0.00096613  1
  Li  Li4  1  0.99045930  0.16881866  0.74998907  1
  Li  Li5  1  0.75472316  0.57997215  0.50048146  1
  Li  Li6  1  0.87330505  0.37510060  0.87582197  1
  Li  Li7  1  0.74437690  0.25193703  0.50049352  1
  Li  Li8  1  0.74361505  0.92205179  0.50020248  1
  Li  Li9  1  0.62530927  0.12521601  0.12518555  1
  Li  Li10  1  0.75829831  0.58048989  0.00060233  1
  Li  Li11  1  0.50817175  0.33327334  0.25003238  1
  Li  Li12  1  0.62587694  0.12589843  0.62524206  1
  Li  Li13  1  0.50374774  0.99899414  0.25007253  1
  Li  Li14  1  0.48542746  0.66579441  0.24949364  1
  Li  Li15  1  0.51521172  0.33058263  0.75047684  1
  Li  Li16  1  0.37635326  0.87414810  0.37504293  1
  Li  Li17  1  0.49134912  0.00239322  0.75006888  1
  Li  Li18  1  0.24484775  0.75334545  0.00071243  1
  Li  Li19  1  0.49205327  0.66883597  0.74966687  1
  Li  Li20  1  0.24250342  0.41943099  0.99948923  1
  Li  Li21  1  0.37355524  0.87598044  0.87483874  1
  Li  Li22  1  0.25561586  0.07818809  0.49924327  1
  Li  Li23  1  0.25781831  0.74673323  0.49967347  1
  Li  Li24  1  0.12482278  0.62495910  0.12495720  1
  Li  Li25  1  0.24265249  0.42304934  0.50012198  1
  Li  Li26  1  0.01039423  0.83012753  0.25009846  1
  Li  Li27  1  0.26327525  0.07934921  0.00009572  1
  Li  Li28  1  0.12741123  0.62469371  0.62422660  1
  Li  Li29  1  0.00447517  0.49694251  0.24961175  1
  Li  Li30  1  0.01004163  0.82954803  0.75035959  1
  Li  Li31  1  0.00061907  0.49899553  0.74994095  1
  Ti  Ti32  1  0.87500225  0.71213758  0.37645585  1
  Ti  Ti33  1  0.87383950  0.03727396  0.87339158  1
  Ti  Ti34  1  0.12869128  0.28853867  0.62651626  1
  Cr  Cr35  1  0.87395306  0.04729153  0.37474562  1
  Cr  Cr36  1  0.87623023  0.70267574  0.87527213  1
  Cr  Cr37  1  0.61496143  0.78853530  0.12377066  1
  Cr  Cr38  1  0.63516960  0.46142380  0.12660392  1
  Cr  Cr39  1  0.62240743  0.79666664  0.62418198  1
  Cr  Cr40  1  0.62858927  0.46151387  0.62500383  1
  Cr  Cr41  1  0.38027530  0.53836119  0.37466303  1
  Cr  Cr42  1  0.37004595  0.20300979  0.37355861  1
  Cr  Cr43  1  0.38003282  0.54760287  0.87644152  1
  Cr  Cr44  1  0.36908855  0.21213888  0.87536033  1
  Cr  Cr45  1  0.11375291  0.96048314  0.12389470  1
  Cr  Cr46  1  0.13677861  0.28947075  0.12605229  1
  Cr  Cr47  1  0.12183124  0.95235787  0.62451343  1
  O  O48  1  0.96469931  0.10143956  0.06812430  1
  O  O49  1  0.92026857  0.78161697  0.06896202  1
  O  O50  1  0.92132957  0.42522871  0.06854592  1
  O  O51  1  0.96420284  0.10381781  0.56863555  1
  O  O52  1  0.82797027  0.96213648  0.18054808  1
  O  O53  1  0.83004755  0.31887098  0.18215006  1
  O  O54  1  0.93622540  0.78804302  0.56850743  1
  O  O55  1  0.91929517  0.42919126  0.56732392  1
  O  O56  1  0.78573556  0.63807066  0.18180717  1
  O  O57  1  0.71505796  0.85944280  0.31811805  1
  O  O58  1  0.81376394  0.95960518  0.68152448  1
  O  O59  1  0.82622764  0.32066226  0.68395169  1
  O  O60  1  0.67065433  0.53291221  0.31845547  1
  O  O61  1  0.68464837  0.17461569  0.31715045  1
  O  O62  1  0.78421023  0.64102837  0.67977897  1
  O  O63  1  0.71219806  0.85221915  0.81820850  1
  O  O64  1  0.46294944  0.61215282  0.06873377  1
  O  O65  1  0.57503164  0.71750550  0.43250569  1
  O  O66  1  0.56519248  0.07771147  0.43234429  1
  O  O67  1  0.68833344  0.53749536  0.81893681  1
  O  O68  1  0.67408640  0.17949724  0.81795557  1
  O  O69  1  0.42108723  0.93142735  0.06784362  1
  O  O70  1  0.42323696  0.28821412  0.06950025  1
  O  O71  1  0.53262536  0.39444907  0.42982232  1
  O  O72  1  0.46079977  0.61122905  0.56879525  1
  O  O73  1  0.56347531  0.71343506  0.93147242  1
  O  O74  1  0.56899470  0.07488102  0.93248806  1
  O  O75  1  0.32820486  0.82463694  0.18158368  1
  O  O76  1  0.32867596  0.46816754  0.18095820  1
  O  O77  1  0.43447000  0.92516532  0.56746593  1
  O  O78  1  0.43154611  0.28750752  0.56851055  1
  O  O79  1  0.53862020  0.39865792  0.93184108  1
  O  O80  1  0.28620574  0.14807436  0.18140623  1
  O  O81  1  0.21188020  0.35214431  0.31855587  1
  O  O82  1  0.31374903  0.82480759  0.68230157  1
  O  O83  1  0.32592376  0.46671043  0.68150811  1
  O  O84  1  0.18102030  0.67554891  0.31735856  1
  O  O85  1  0.18553567  0.03724021  0.31811329  1
  O  O86  1  0.28767686  0.13973899  0.68160678  1
  O  O87  1  0.21756238  0.35586242  0.82007546  1
  O  O88  1  0.07567925  0.57036955  0.43195020  1
  O  O89  1  0.06215858  0.21210975  0.43097930  1
  O  O90  1  0.18500542  0.67244903  0.81737624  1
  O  O91  1  0.17459975  0.03305159  0.81741355  1
  O  O92  1  0.03791598  0.89726374  0.43141469  1
  O  O93  1  0.06479734  0.57495775  0.93293748  1
  O  O94  1  0.07967414  0.21688661  0.93199335  1
  O  O95  1  0.03448100  0.88996416  0.93124106  1
