# generated using pymatgen
data_Li11Mn12(BO3)12
_symmetry_space_group_name_H-M   'P 1'
_cell_length_a   9.11414252
_cell_length_b   9.10014333
_cell_length_c   11.67145975
_cell_angle_alpha   66.85223790
_cell_angle_beta   68.90404857
_cell_angle_gamma   60.24906783
_symmetry_Int_Tables_number   1
_chemical_formula_structural   Li11Mn12(BO3)12
_chemical_formula_sum   'Li11 Mn12 B12 O36'
_cell_volume   756.11696940
_cell_formula_units_Z   1
loop_
 _symmetry_equiv_pos_site_id
 _symmetry_equiv_pos_as_xyz
  1  'x, y, z'
loop_
 _atom_site_type_symbol
 _atom_site_label
 _atom_site_symmetry_multiplicity
 _atom_site_fract_x
 _atom_site_fract_y
 _atom_site_fract_z
 _atom_site_occupancy
  Li  Li0  1  0.07591084  0.42392542  0.08603739  1
  Li  Li1  1  0.44642537  0.09677434  0.33237297  1
  Li  Li2  1  0.74355964  0.09220704  0.08279622  1
  Li  Li3  1  0.11299451  0.75921757  0.33387660  1
  Li  Li4  1  0.24276717  0.58090611  0.58335646  1
  Li  Li5  1  0.41002268  0.75874874  0.08281681  1
  Li  Li6  1  0.77885689  0.43019326  0.33546599  1
  Li  Li7  1  0.61446775  0.29298793  0.83132445  1
  Li  Li8  1  0.27893042  0.95904505  0.83177192  1
  Li  Li9  1  0.57603760  0.91639654  0.58181627  1
  Li  Li10  1  0.94656222  0.62511261  0.83056813  1
  Mn  Mn11  1  0.07010701  0.07240095  0.11657643  1
  Mn  Mn12  1  0.09999042  0.41742092  0.37286398  1
  Mn  Mn13  1  0.40111243  0.40662458  0.11792589  1
  Mn  Mn14  1  0.27164044  0.27283296  0.86628988  1
  Mn  Mn15  1  0.77146932  0.09086943  0.36734845  1
  Mn  Mn16  1  0.58687663  0.23580369  0.61784115  1
  Mn  Mn17  1  0.43429061  0.75999558  0.36790586  1
  Mn  Mn18  1  0.22420424  0.92179918  0.61405967  1
  Mn  Mn19  1  0.73680768  0.73947756  0.11712745  1
  Mn  Mn20  1  0.60088711  0.60604260  0.86773680  1
  Mn  Mn21  1  0.89777663  0.56187669  0.61816080  1
  Mn  Mn22  1  0.93344779  0.94244818  0.86354183  1
  B  B23  1  0.09807325  0.09334039  0.36843961  1
  B  B24  1  0.40240616  0.06708735  0.12421876  1
  B  B25  1  0.24586819  0.24212066  0.62190988  1
  B  B26  1  0.06846179  0.73356471  0.12505116  1
  B  B27  1  0.42928673  0.42476681  0.37532230  1
  B  B28  1  0.73486797  0.40064193  0.12484984  1
  B  B29  1  0.26058707  0.60612803  0.87439089  1
  B  B30  1  0.55861591  0.58128742  0.62643952  1
  B  B31  1  0.92869880  0.26977188  0.87419858  1
  B  B32  1  0.76143950  0.75918367  0.37418678  1
  B  B33  1  0.59614454  0.93628831  0.87463933  1
  B  B34  1  0.90211792  0.89907591  0.62483321  1
  O  O35  1  0.04280220  0.00164450  0.33250774  1
  O  O36  1  0.24894018  0.17618400  0.07964333  1
  O  O37  1  0.25857784  0.00616174  0.40487315  1
  O  O38  1  0.49614826  0.13716570  0.13976513  1
  O  O39  1  0.12658216  0.54977729  0.15938886  1
  O  O40  1  0.09674758  0.34161928  0.57156662  1
  O  O41  1  0.33010872  0.06294675  0.63774273  1
  O  O42  1  0.09260093  0.16469589  0.90430692  1
  O  O43  1  0.37370621  0.34154784  0.33178392  1
  O  O44  1  0.30769384  0.32753612  0.65788993  1
  O  O45  1  0.16341131  0.80362595  0.13918790  1
  O  O46  1  0.79451952  0.21683844  0.15757716  1
  O  O47  1  0.58066909  0.50910410  0.08101996  1
  O  O48  1  0.32516693  0.59294127  0.38924555  1
  O  O49  1  0.59273194  0.33542253  0.40774216  1
  O  O50  1  0.54404054  0.11802423  0.83138564  1
  O  O51  1  0.15494857  0.52834194  0.88901806  1
  O  O52  1  0.96087313  0.98530050  0.66121293  1
  O  O53  1  0.82865030  0.47198914  0.13815228  1
  O  O54  1  0.46117699  0.88368166  0.15620281  1
  O  O55  1  0.40717778  0.67614807  0.57880220  1
  O  O56  1  0.64371833  0.40412309  0.64685410  1
  O  O57  1  0.42349555  0.49804666  0.90724774  1
  O  O58  1  0.99908294  0.26564601  0.36737185  1
  O  O59  1  0.20708715  0.78806091  0.83145005  1
  O  O60  1  0.82069188  0.19338908  0.89298328  1
  O  O61  1  0.70578295  0.67583968  0.33098062  1
  O  O62  1  0.62551846  0.67004104  0.65620271  1
  O  O63  1  0.91538222  0.84269228  0.08016898  1
  O  O64  1  0.65737908  0.92746395  0.38805021  1
  O  O65  1  0.92417948  0.66853216  0.40739528  1
  O  O66  1  0.87405913  0.45273457  0.82809372  1
  O  O67  1  0.48832792  0.86097000  0.88942988  1
  O  O68  1  0.74780177  0.99336443  0.57922685  1
  O  O69  1  0.99197950  0.72015060  0.63668942  1
  O  O70  1  0.75881543  0.82788058  0.90656108  1
