# generated using pymatgen
data_Li2V3WO8
_symmetry_space_group_name_H-M   'P 1'
_cell_length_a   8.68108098
_cell_length_b   8.63673105
_cell_length_c   8.51249958
_cell_angle_alpha   90.17146225
_cell_angle_beta   90.11317952
_cell_angle_gamma   90.05997523
_symmetry_Int_Tables_number   1
_chemical_formula_structural   Li2V3WO8
_chemical_formula_sum   'Li8 V12 W4 O32'
_cell_volume   638.23008723
_cell_formula_units_Z   4
loop_
 _symmetry_equiv_pos_site_id
 _symmetry_equiv_pos_as_xyz
  1  'x, y, z'
loop_
 _atom_site_type_symbol
 _atom_site_label
 _atom_site_symmetry_multiplicity
 _atom_site_fract_x
 _atom_site_fract_y
 _atom_site_fract_z
 _atom_site_occupancy
  Li  Li0  1  0.00128989  0.00189633  0.99858045  1
  Li  Li1  1  0.24958080  0.25084119  0.24929573  1
  Li  Li2  1  0.25296318  0.75080100  0.75136059  1
  Li  Li3  1  0.49727426  0.99791710  0.50191585  1
  Li  Li4  1  0.49610863  0.49694461  0.99823599  1
  Li  Li5  1  0.74813601  0.24963761  0.74812069  1
  Li  Li6  1  0.75440670  0.75213327  0.24956303  1
  Li  Li7  1  0.00069435  0.50302984  0.50151653  1
  V  V8  1  0.11871189  0.12976408  0.62675239  1
  V  V9  1  0.12308273  0.37791976  0.86946716  1
  V  V10  1  0.13130703  0.62726843  0.11748252  1
  V  V11  1  0.36744904  0.37405642  0.62218405  1
  V  V12  1  0.37514235  0.62077207  0.37213336  1
  V  V13  1  0.38036860  0.86779521  0.12456068  1
  V  V14  1  0.61692016  0.36968196  0.37265463  1
  V  V15  1  0.62243913  0.11769753  0.12635651  1
  V  V16  1  0.63150326  0.87473958  0.87997474  1
  V  V17  1  0.87049644  0.12154101  0.37846840  1
  V  V18  1  0.87575362  0.88147158  0.63244279  1
  V  V19  1  0.88236231  0.63183053  0.87442353  1
  W  W20  1  0.12671878  0.87543206  0.37638400  1
  W  W21  1  0.37566106  0.12595609  0.87702977  1
  W  W22  1  0.62537930  0.62466793  0.62517459  1
  W  W23  1  0.87362707  0.37610698  0.12314039  1
  O  O24  1  0.11013595  0.10393847  0.37691963  1
  O  O25  1  0.11549604  0.88986873  0.61474438  1
  O  O26  1  0.11210446  0.61370216  0.88328022  1
  O  O27  1  0.13291381  0.14502150  0.86729706  1
  O  O28  1  0.10758062  0.38597962  0.11368654  1
  O  O29  1  0.13484214  0.36425046  0.63261941  1
  O  O30  1  0.13195935  0.64658391  0.36399289  1
  O  O31  1  0.14472822  0.86921490  0.13634150  1
  O  O32  1  0.35503116  0.13211217  0.63657506  1
  O  O33  1  0.36291509  0.36285181  0.86303022  1
  O  O34  1  0.36438760  0.63533370  0.13579711  1
  O  O35  1  0.39090753  0.61532722  0.61242692  1
  O  O36  1  0.36073294  0.85856498  0.36901153  1
  O  O37  1  0.38732332  0.38740633  0.38285503  1
  O  O38  1  0.39260051  0.11006989  0.12048353  1
  O  O39  1  0.39729860  0.88789929  0.88158819  1
  O  O40  1  0.60760855  0.38687150  0.61515736  1
  O  O41  1  0.62054838  0.61162248  0.39305049  1
  O  O42  1  0.61442219  0.88849397  0.11813747  1
  O  O43  1  0.63617630  0.35577918  0.13094869  1
  O  O44  1  0.62498724  0.11629106  0.90191767  1
  O  O45  1  0.63640337  0.13394947  0.35333629  1
  O  O46  1  0.63575940  0.86083275  0.63819325  1
  O  O47  1  0.63833629  0.62904046  0.85592732  1
  O  O48  1  0.86055954  0.36732891  0.35473288  1
  O  O49  1  0.85843905  0.13820532  0.13632058  1
  O  O50  1  0.86368700  0.86219712  0.86896158  1
  O  O51  1  0.89055832  0.88331090  0.39015124  1
  O  O52  1  0.86164207  0.64270662  0.63145200  1
  O  O53  1  0.88387392  0.11596261  0.61211877  1
  O  O54  1  0.87610818  0.38793733  0.89323845  1
  O  O55  1  0.89256026  0.61158401  0.11863036  1
