# generated using pymatgen
data_Li3Ni3TeO8
_symmetry_space_group_name_H-M   'P 1'
_cell_length_a   10.44614755
_cell_length_b   10.44589504
_cell_length_c   14.78377079
_cell_angle_alpha   19.36946022
_cell_angle_beta   19.36870724
_cell_angle_gamma   33.38602192
_symmetry_Int_Tables_number   1
_chemical_formula_structural   Li3Ni3TeO8
_chemical_formula_sum   'Li3 Ni3 Te1 O8'
_cell_volume   153.64169322
_cell_formula_units_Z   1
loop_
 _symmetry_equiv_pos_site_id
 _symmetry_equiv_pos_as_xyz
  1  'x, y, z'
loop_
 _atom_site_type_symbol
 _atom_site_label
 _atom_site_symmetry_multiplicity
 _atom_site_fract_x
 _atom_site_fract_y
 _atom_site_fract_z
 _atom_site_occupancy
  Li  Li0  1  0.00000713  0.49996518  0.50001219  1
  Li  Li1  1  0.49996451  0.00000185  0.50001634  1
  Li  Li2  1  0.50003946  0.50003581  0.49994393  1
  Ni  Ni3  1  -0.00000652  0.49998264  0.00001561  1
  Ni  Ni4  1  0.49996749  0.00001171  0.00001077  1
  Ni  Ni5  1  0.49999555  0.49999348  0.00001172  1
  Te  Te6  1  0.00001941  0.00000777  -0.00001045  1
  O  O7  1  0.00143220  0.00161891  0.26080793  1
  O  O8  1  0.99948926  0.53683764  0.23404290  1
  O  O9  1  0.53680620  0.99946402  0.23408232  1
  O  O10  1  0.99857362  0.99838326  0.73919353  1
  O  O11  1  0.46273716  0.46266698  0.30790869  1
  O  O12  1  0.00050720  0.46316367  0.76595841  1
  O  O13  1  0.46319862  0.00052925  0.76592369  1
  O  O14  1  0.53727070  0.53733782  0.69208143  1
