# generated using pymatgen
data_Li24MnCr11O36
_symmetry_space_group_name_H-M   'P 1'
_cell_length_a   8.77521639
_cell_length_b   8.63782914
_cell_length_c   9.69533266
_cell_angle_alpha   90.00000271
_cell_angle_beta   97.85160640
_cell_angle_gamma   60.51656540
_symmetry_Int_Tables_number   1
_chemical_formula_structural   Li24MnCr11O36
_chemical_formula_sum   'Li24 Mn1 Cr11 O36'
_cell_volume   631.79802187
_cell_formula_units_Z   1
loop_
 _symmetry_equiv_pos_site_id
 _symmetry_equiv_pos_as_xyz
  1  'x, y, z'
loop_
 _atom_site_type_symbol
 _atom_site_label
 _atom_site_symmetry_multiplicity
 _atom_site_fract_x
 _atom_site_fract_y
 _atom_site_fract_z
 _atom_site_occupancy
  Li  Li0  1  0.16654477  0.00843236  0.99914590  1
  Li  Li1  1  1.00000000  0.25028140  0.75000000  1
  Li  Li2  1  0.16591721  0.16650470  0.49977251  1
  Li  Li3  1  0.33337713  0.08290509  0.24949547  1
  Li  Li4  1  0.16699050  0.32781662  0.00131345  1
  Li  Li5  1  0.50008192  0.99966709  0.99979668  1
  Li  Li6  1  0.50112995  0.15832545  0.50085638  1
  Li  Li7  1  0.16529457  0.50836386  0.49956267  1
  Li  Li8  1  0.00000000  0.74810799  0.25000000  1
  Li  Li9  1  0.49867589  0.34142409  0.99969015  1
  Li  Li10  1  0.16629055  0.66610440  0.00001725  1
  Li  Li11  1  0.33300844  0.58282301  0.74953917  1
  Li  Li12  1  0.16615468  0.82580627  0.49968512  1
  Li  Li13  1  0.49991808  0.49974801  0.50020332  1
  Li  Li14  1  0.83345523  0.17497713  0.50085410  1
  Li  Li15  1  0.66662287  0.41628122  0.25050453  1
  Li  Li16  1  0.49887005  0.65945640  0.99914362  1
  Li  Li17  1  0.83408279  0.33242191  0.00022749  1
  Li  Li18  1  0.83300950  0.49480813  0.49868655  1
  Li  Li19  1  0.50132411  0.84009998  0.50030985  1
  Li  Li20  1  0.83470543  0.67365943  0.00043733  1
  Li  Li21  1  0.66699156  0.91583146  0.75046083  1
  Li  Li22  1  0.83370945  0.83239495  0.49998275  1
  Li  Li23  1  0.83384532  0.99195995  0.00031488  1
  Mn  Mn24  1  0.00000000  0.41739851  0.25000000  1
  Cr  Cr25  1  0.00000000  0.07722782  0.25000000  1
  Cr  Cr26  1  0.00000000  0.57861079  0.75000000  1
  Cr  Cr27  1  0.33293404  0.25451460  0.74987359  1
  Cr  Cr28  1  0.33000358  0.41497387  0.24911148  1
  Cr  Cr29  1  0.66530685  0.08917842  0.25076836  1
  Cr  Cr30  1  1.00000000  0.92110584  0.75000000  1
  Cr  Cr31  1  0.66654291  0.24523950  0.74991415  1
  Cr  Cr32  1  0.33469315  0.75448527  0.24923164  1
  Cr  Cr33  1  0.33345709  0.91178240  0.75008585  1
  Cr  Cr34  1  0.66706596  0.58744965  0.75012641  1
  Cr  Cr35  1  0.66999642  0.74497746  0.25088852  1
  O  O36  1  0.09059604  0.02393097  0.63681080  1
  O  O37  1  0.07102148  0.21476626  0.13629917  1
  O  O38  1  0.26261172  0.11866757  0.86385175  1
  O  O39  1  0.40341397  0.04831660  0.63581591  1
  O  O40  1  0.09030067  0.38565736  0.63672542  1
  O  O41  1  0.23690895  0.31021817  0.36109001  1
  O  O42  1  0.24298718  0.44801813  0.86293514  1
  O  O43  1  0.09034060  0.52721946  0.13642374  1
  O  O44  1  0.57579153  0.14277122  0.86297133  1
  O  O45  1  0.42344188  0.21989270  0.13694170  1
  O  O46  1  0.07054426  0.71481016  0.63605650  1
  O  O47  1  0.42331594  0.35753231  0.63623483  1
  O  O48  1  0.75700010  0.05199099  0.63670503  1
  O  O49  1  0.57421942  0.28216184  0.36347427  1
  O  O50  1  0.26438357  0.61771753  0.36414293  1
  O  O51  1  0.90940396  0.11452801  0.86318920  1
  O  O52  1  0.40405042  0.54818405  0.13554144  1
  O  O53  1  0.75697133  0.19002181  0.13687596  1
  O  O54  1  0.24299990  0.80899110  0.86329497  1
  O  O55  1  0.59658603  0.45173057  0.86418409  1
  O  O56  1  0.09114611  0.88602827  0.13599793  1
  O  O57  1  0.73738828  0.38128029  0.63614825  1
  O  O58  1  0.42420847  0.71856275  0.63702867  1
  O  O59  1  0.24302867  0.94699313  0.36312404  1
  O  O60  1  0.57655812  0.64333558  0.36305830  1
  O  O61  1  0.92897852  0.28578774  0.36370083  1
  O  O62  1  0.57668406  0.78084825  0.86376517  1
  O  O63  1  0.42578058  0.85638126  0.13652573  1
  O  O64  1  0.90969933  0.47595703  0.86327458  1
  O  O65  1  0.76309105  0.54712812  0.13890999  1
  O  O66  1  0.75701282  0.69100532  0.63706486  1
  O  O67  1  0.90965940  0.61755906  0.36357626  1
  O  O68  1  0.59594958  0.95223448  0.36445856  1
  O  O69  1  0.73561643  0.88210110  0.13585707  1
  O  O70  1  0.92945574  0.78535442  0.86394350  1
  O  O71  1  0.90885389  0.97717438  0.36400207  1
