# generated using pymatgen
data_Li6Mn3V(PO4)6
_symmetry_space_group_name_H-M   'P 1'
_cell_length_a   8.61239872
_cell_length_b   12.37088272
_cell_length_c   8.72330284
_cell_angle_alpha   89.88344561
_cell_angle_beta   90.16346330
_cell_angle_gamma   91.89554944
_symmetry_Int_Tables_number   1
_chemical_formula_structural   Li6Mn3V(PO4)6
_chemical_formula_sum   'Li12 Mn6 V2 P12 O48'
_cell_volume   928.89251940
_cell_formula_units_Z   2
loop_
 _symmetry_equiv_pos_site_id
 _symmetry_equiv_pos_as_xyz
  1  'x, y, z'
loop_
 _atom_site_type_symbol
 _atom_site_label
 _atom_site_symmetry_multiplicity
 _atom_site_fract_x
 _atom_site_fract_y
 _atom_site_fract_z
 _atom_site_occupancy
  Li  Li0  1  0.07873719  0.69589201  0.08936267  1
  Li  Li1  1  0.07254396  0.75974421  0.69415168  1
  Li  Li2  1  0.21128527  0.17651254  0.77686006  1
  Li  Li3  1  0.29423205  0.32651964  0.28166709  1
  Li  Li4  1  0.42265762  0.74188043  0.19696876  1
  Li  Li5  1  0.41691958  0.80467164  0.58368755  1
  Li  Li6  1  0.58231065  0.19629105  0.41382945  1
  Li  Li7  1  0.58235605  0.26273310  0.80550672  1
  Li  Li8  1  0.70650722  0.67031256  0.71671894  1
  Li  Li9  1  0.78941111  0.82762088  0.21810087  1
  Li  Li10  1  0.91685612  0.23702071  0.30488234  1
  Li  Li11  1  0.92057144  0.30054093  0.91761293  1
  Mn  Mn12  1  0.24711508  0.60315051  0.53833467  1
  Mn  Mn13  1  0.25265717  0.39095478  0.95970619  1
  Mn  Mn14  1  0.74739175  0.60936884  0.04416619  1
  Mn  Mn15  1  0.75212040  0.89126604  0.54025960  1
  Mn  Mn16  1  0.74929444  0.09949325  0.96062349  1
  Mn  Mn17  1  0.75131389  0.39977909  0.46373966  1
  V  V18  1  0.25190733  0.89269803  0.03066382  1
  V  V19  1  0.24887781  0.11125108  0.45538393  1
  P  P20  1  0.03746796  0.49443801  0.25547259  1
  P  P21  1  0.10119595  0.85721288  0.38585085  1
  P  P22  1  0.10447271  0.15114789  0.09838894  1
  P  P23  1  0.40317685  0.34693454  0.59832718  1
  P  P24  1  0.39555289  0.64453491  0.88554404  1
  P  P25  1  0.46374234  0.00714299  0.74468509  1
  P  P26  1  0.54049051  0.99675038  0.24364753  1
  P  P27  1  0.60427964  0.36162990  0.11554997  1
  P  P28  1  0.59837446  0.65700386  0.40280151  1
  P  P29  1  0.89368112  0.84114058  0.90158147  1
  P  P30  1  0.89697824  0.13849066  0.61645732  1
  P  P31  1  0.96288344  0.50254176  0.74881653  1
  O  O32  1  0.05090072  0.43068464  0.86560387  1
  O  O33  1  0.07500699  0.84725559  0.89316155  1
  O  O34  1  0.07227279  0.59438144  0.68192518  1
  O  O35  1  0.07230228  0.16570063  0.59243039  1
  O  O36  1  0.09914076  0.57702709  0.37482543  1
  O  O37  1  0.13984725  0.82091519  0.21823354  1
  O  O38  1  0.13974327  0.97846543  0.40126982  1
  O  O39  1  0.14632677  0.24295410  0.97757439  1
  O  O40  1  0.15653898  0.18948627  0.26105835  1
  O  O41  1  0.16976271  0.43421875  0.18095218  1
  O  O42  1  0.17430716  0.04727810  0.04493619  1
  O  O43  1  0.19326582  0.79395004  0.50740756  1
  O  O44  1  0.30499620  0.71365465  0.00297788  1
  O  O45  1  0.32995895  0.44961217  0.54567176  1
  O  O46  1  0.33103778  0.06647218  0.66439856  1
  O  O47  1  0.35438621  0.30622711  0.75951909  1
  O  O48  1  0.35618564  0.52345527  0.90560690  1
  O  O49  1  0.35870680  0.67855691  0.71611039  1
  O  O50  1  0.36427832  0.25690714  0.47548206  1
  O  O51  1  0.39344491  0.92791727  0.86315145  1
  O  O52  1  0.43164288  0.90556746  0.17616667  1
  O  O53  1  0.41584881  0.65056969  0.39357821  1
  O  O54  1  0.42682568  0.33642162  0.09239321  1
  O  O55  1  0.45261989  0.06747389  0.35887811  1
  O  O56  1  0.55037183  0.93597721  0.62919422  1
  O  O57  1  0.57287221  0.66620935  0.90716067  1
  O  O58  1  0.58585631  0.35255694  0.60800364  1
  O  O59  1  0.57195517  0.09759603  0.81474872  1
  O  O60  1  0.60007294  0.07964076  0.12185875  1
  O  O61  1  0.63572759  0.74902258  0.52365341  1
  O  O62  1  0.64081511  0.32384337  0.28405788  1
  O  O63  1  0.63355013  0.48503295  0.10749607  1
  O  O64  1  0.64766843  0.69622783  0.24125981  1
  O  O65  1  0.67694970  0.94116702  0.31943496  1
  O  O66  1  0.67297356  0.55561761  0.46018771  1
  O  O67  1  0.69856252  0.30110678  0.99518435  1
  O  O68  1  0.80070109  0.19855308  0.49551534  1
  O  O69  1  0.82056557  0.94269024  0.95910327  1
  O  O70  1  0.82934765  0.56046545  0.82557989  1
  O  O71  1  0.84281314  0.80098284  0.74165593  1
  O  O72  1  0.85866466  0.75033913  0.02640507  1
  O  O73  1  0.86807322  0.01477289  0.60907306  1
  O  O74  1  0.86078056  0.17538805  0.78553959  1
  O  O75  1  0.90099607  0.42116722  0.62804527  1
  O  O76  1  0.92375550  0.83312092  0.40746245  1
  O  O77  1  0.92695130  0.40349216  0.32360248  1
  O  O78  1  0.92230775  0.14878983  0.10640040  1
  O  O79  1  0.95096018  0.56441947  0.13671669  1
