# generated using pymatgen
data_Li2MnVP2(O4F)2
_symmetry_space_group_name_H-M   'P 1'
_cell_length_a   5.19032701
_cell_length_b   14.92904665
_cell_length_c   7.53938436
_cell_angle_alpha   93.56459005
_cell_angle_beta   71.23732981
_cell_angle_gamma   87.36202220
_symmetry_Int_Tables_number   1
_chemical_formula_structural   Li2MnVP2(O4F)2
_chemical_formula_sum   'Li6 Mn3 V3 P6 O24 F6'
_cell_volume   550.73730712
_cell_formula_units_Z   3
loop_
 _symmetry_equiv_pos_site_id
 _symmetry_equiv_pos_as_xyz
  1  'x, y, z'
loop_
 _atom_site_type_symbol
 _atom_site_label
 _atom_site_symmetry_multiplicity
 _atom_site_fract_x
 _atom_site_fract_y
 _atom_site_fract_z
 _atom_site_occupancy
  Li  Li0  1  0.06379412  0.20562126  0.01631700  1
  Li  Li1  1  0.26785113  0.46126700  0.65189306  1
  Li  Li2  1  0.60287288  0.12771174  0.31701700  1
  Li  Li3  1  0.39881487  0.87206700  0.68143994  1
  Li  Li4  1  0.73028006  0.53909984  0.35243169  1
  Li  Li5  1  0.93638694  0.79423316  0.98090131  1
  Mn  Mn6  1  0.99906037  0.99955814  0.00025860  1
  Mn  Mn7  1  0.33333300  0.66666700  0.16666700  1
  Mn  Mn8  1  0.66760563  0.33377586  0.33307540  1
  V  V9  1  0.00036985  0.00016508  0.49949307  1
  V  V10  1  0.33333300  0.66666700  0.66666700  1
  V  V11  1  0.66629715  0.33316792  0.83383993  1
  P  P12  1  0.11057470  0.21579949  0.45057329  1
  P  P13  1  0.22513511  0.45219017  0.21578266  1
  P  P14  1  0.44153089  0.88114283  0.11755134  1
  P  P15  1  0.55609130  0.11753351  0.88275971  1
  P  P16  1  0.77026347  0.54778002  0.78804868  1
  P  P17  1  0.89640353  0.78555298  0.54528432  1
  O  O18  1  0.01574171  0.73694299  0.34726788  1
  O  O19  1  0.14047354  0.55365288  0.21484911  1
  O  O20  1  0.23745951  0.88998314  0.00180806  1
  O  O21  1  0.34102367  0.40412898  0.01975237  1
  O  O22  1  0.19464010  0.11479418  0.45267574  1
  O  O23  1  0.04151160  0.58510645  0.67138307  1
  O  O24  1  0.09997399  0.77835061  0.65983684  1
  O  O25  1  0.38579482  0.25237737  0.33341110  1
  O  O26  1  0.32564333  0.92920402  0.31358163  1
  O  O27  1  0.42920649  0.44334986  0.33152494  1
  O  O28  1  0.52619346  0.77968112  0.11848389  1
  O  O29  1  0.28087218  0.08095563  -0.00007810  1
  O  O30  1  0.71826767  0.91711334  0.00119189  1
  O  O31  1  0.47202590  0.21853882  0.88065826  1
  O  O32  1  0.56669301  0.55498239  0.67349716  1
  O  O33  1  0.67409659  0.07024068  0.68624901  1
  O  O34  1  0.62515440  0.74822655  0.66195093  1
  O  O35  1  0.90534732  0.22415280  0.33506061  1
  O  O36  1  0.94839833  0.41621966  0.33214111  1
  O  O37  1  0.80793157  0.88592933  0.53931238  1
  O  O38  1  0.65092429  0.59639001  0.98606512  1
  O  O39  1  0.76131868  0.10918020  0.99827239  1
  O  O40  1  0.85873443  0.44740367  0.79402162  1
  O  O41  1  0.99257041  0.26309232  0.64708399  1
  F  F42  1  0.16094472  0.97495256  0.70194462  1
  F  F43  1  0.17359887  0.69183976  0.94749431  1
  F  F44  1  0.49306813  0.64149324  0.38583869  1
  F  F45  1  0.50572128  0.35838044  0.63138838  1
  F  F46  1  0.82836333  0.30774902  0.03532146  1
  F  F47  1  0.83830267  0.02558398  0.29801254  1
