# generated using pymatgen
data_Bi4(TeS)3
_symmetry_space_group_name_H-M   'P 1'
_cell_length_a   4.23084526
_cell_length_b   4.23084511
_cell_length_c   20.26763556
_cell_angle_alpha   84.00887352
_cell_angle_beta   90.00000084
_cell_angle_gamma   120.00000702
_symmetry_Int_Tables_number   1
_chemical_formula_structural   Bi4(TeS)3
_chemical_formula_sum   'Bi4 Te3 S3'
_cell_volume   311.89662878
_cell_formula_units_Z   1
loop_
 _symmetry_equiv_pos_site_id
 _symmetry_equiv_pos_as_xyz
  1  'x, y, z'
loop_
 _atom_site_type_symbol
 _atom_site_label
 _atom_site_symmetry_multiplicity
 _atom_site_fract_x
 _atom_site_fract_y
 _atom_site_fract_z
 _atom_site_occupancy
  Bi  Bi0  1  0.19687131  0.39374262  0.40938607  1
  Bi  Bi1  1  0.69404092  0.38808184  0.91787724  1
  Bi  Bi2  1  0.30160046  0.60320091  0.09519863  1
  Bi  Bi3  1  0.80466595  0.60933190  0.58600215  1
  Te  Te4  1  0.10781277  0.21562555  0.67656168  1
  Te  Te5  1  0.89345161  0.78690321  0.31964518  1
  Te  Te6  1  0.39079879  0.78159758  0.82760363  1
  S  S7  1  0.99776237  0.99552475  0.00671288  1
  S  S8  1  0.50024982  0.00049963  0.49925055  1
  S  S9  1  0.61274600  0.22549201  0.16176199  1
