# generated using pymatgen
data_YFe2
_symmetry_space_group_name_H-M   'P 1'
_cell_length_a   12.57725074
_cell_length_b   12.57725074
_cell_length_c   12.57725074
_cell_angle_alpha   109.47122063
_cell_angle_beta   109.47122063
_cell_angle_gamma   109.47122063
_symmetry_Int_Tables_number   1
_chemical_formula_structural   YFe2
_chemical_formula_sum   'Y32 Fe64'
_cell_volume   1531.56441234
_cell_formula_units_Z   32
loop_
 _symmetry_equiv_pos_site_id
 _symmetry_equiv_pos_as_xyz
  1  'x, y, z'
loop_
 _atom_site_type_symbol
 _atom_site_label
 _atom_site_symmetry_multiplicity
 _atom_site_fract_x
 _atom_site_fract_y
 _atom_site_fract_z
 _atom_site_occupancy
  Y  Y0  1  -0.00000000  0.00000000  0.00000000  1
  Y  Y1  1  0.50000000  0.50000000  0.00000000  1
  Y  Y2  1  0.50000000  0.00000000  0.50000000  1
  Y  Y3  1  -0.00000000  0.50000000  0.50000000  1
  Y  Y4  1  -0.00000000  -0.00000000  0.74818549  1
  Y  Y5  1  0.00000000  0.74818549  0.00000000  1
  Y  Y6  1  0.74818549  0.00000000  0.00000000  1
  Y  Y7  1  0.25181451  0.25181451  0.25181451  1
  Y  Y8  1  -0.00000000  0.24771685  0.74588603  1
  Y  Y9  1  0.75228315  0.75228315  0.49816918  1
  Y  Y10  1  0.24771685  0.00000000  0.74588603  1
  Y  Y11  1  -0.00000000  0.74588603  0.24771685  1
  Y  Y12  1  0.24771685  0.74588603  0.00000000  1
  Y  Y13  1  0.75228315  0.49816918  0.75228315  1
  Y  Y14  1  0.49816918  0.75228315  0.75228315  1
  Y  Y15  1  0.74588603  0.24771685  0.00000000  1
  Y  Y16  1  0.74588603  -0.00000000  0.24771685  1
  Y  Y17  1  0.50183082  0.25411397  0.25411397  1
  Y  Y18  1  0.25411397  0.25411397  0.50183082  1
  Y  Y19  1  0.25411397  0.50183082  0.25411397  1
  Y  Y20  1  0.75054895  0.75054895  0.24643045  1
  Y  Y21  1  0.24945105  0.00000000  0.49588150  1
  Y  Y22  1  -0.00000000  0.24945105  0.49588150  1
  Y  Y23  1  0.24945105  0.49588150  0.00000000  1
  Y  Y24  1  0.75054895  0.24643045  0.75054895  1
  Y  Y25  1  -0.00000000  0.49588150  0.24945105  1
  Y  Y26  1  0.49588150  0.24945105  0.00000000  1
  Y  Y27  1  0.49588150  0.00000000  0.24945105  1
  Y  Y28  1  0.24643045  0.75054895  0.75054895  1
  Y  Y29  1  0.50411850  0.50411850  0.75356955  1
  Y  Y30  1  0.50411850  0.75356955  0.50411850  1
  Y  Y31  1  0.75356955  0.50411850  0.50411850  1
  Fe  Fe32  1  -0.00000000  0.00000000  0.37052668  1
  Fe  Fe33  1  -0.00000000  0.37052668  -0.00000000  1
  Fe  Fe34  1  0.37052668  0.00000000  0.00000000  1
  Fe  Fe35  1  0.62947332  0.62947332  0.62947332  1
  Fe  Fe36  1  -0.00000000  0.49545186  0.87519655  1
  Fe  Fe37  1  0.50454814  0.50454814  0.37974470  1
  Fe  Fe38  1  0.49545186  0.00000000  0.87519655  1
  Fe  Fe39  1  -0.00000000  0.87519655  0.49545186  1
  Fe  Fe40  1  0.49545186  0.87519655  0.00000000  1
  Fe  Fe41  1  0.50454814  0.37974470  0.50454814  1
  Fe  Fe42  1  0.37974470  0.50454814  0.50454814  1
  Fe  Fe43  1  0.87519655  0.49545186  0.00000000  1
  Fe  Fe44  1  0.87519655  -0.00000000  0.49545186  1
  Fe  Fe45  1  0.62025530  0.12480345  0.12480345  1
  Fe  Fe46  1  0.12480345  0.12480345  0.62025530  1
  Fe  Fe47  1  0.12480345  0.62025530  0.12480345  1
  Fe  Fe48  1  0.00000000  0.24903171  0.12578883  1
  Fe  Fe49  1  0.75096829  0.75096829  0.87675712  1
  Fe  Fe50  1  0.24903171  -0.00000000  0.12578883  1
  Fe  Fe51  1  0.00000000  0.12578883  0.24903171  1
  Fe  Fe52  1  0.24903171  0.12578883  -0.00000000  1
  Fe  Fe53  1  0.75096829  0.87675712  0.75096829  1
  Fe  Fe54  1  0.87675712  0.75096829  0.75096829  1
  Fe  Fe55  1  0.12578883  0.24903171  0.00000000  1
  Fe  Fe56  1  0.12578883  -0.00000000  0.24903171  1
  Fe  Fe57  1  0.12324288  0.87421117  0.87421117  1
  Fe  Fe58  1  0.87421117  0.87421117  0.12324288  1
  Fe  Fe59  1  0.87421117  0.12324288  0.87421117  1
  Fe  Fe60  1  -0.00000000  0.75089138  0.62272252  1
  Fe  Fe61  1  0.24910862  0.24910862  0.87183214  1
  Fe  Fe62  1  0.75089138  -0.00000000  0.62272252  1
  Fe  Fe63  1  -0.00000000  0.62272252  0.75089138  1
  Fe  Fe64  1  0.75089138  0.62272252  -0.00000000  1
  Fe  Fe65  1  0.24910862  0.87183214  0.24910862  1
  Fe  Fe66  1  0.87183214  0.24910862  0.24910862  1
  Fe  Fe67  1  0.62272252  0.75089138  0.00000000  1
  Fe  Fe68  1  0.62272252  0.00000000  0.75089138  1
  Fe  Fe69  1  0.12816786  0.37727748  0.37727748  1
  Fe  Fe70  1  0.37727748  0.37727748  0.12816786  1
  Fe  Fe71  1  0.37727748  0.12816786  0.37727748  1
  Fe  Fe72  1  0.74916167  0.49789299  0.12456778  1
  Fe  Fe73  1  0.50210701  0.25126868  0.62667479  1
  Fe  Fe74  1  0.74873132  0.25083833  0.37540611  1
  Fe  Fe75  1  0.25083833  0.74873132  0.37540611  1
  Fe  Fe76  1  0.49789299  0.74916167  0.12456778  1
  Fe  Fe77  1  0.25126868  0.50210701  0.62667479  1
  Fe  Fe78  1  0.25083833  0.37540611  0.74873132  1
  Fe  Fe79  1  0.49789299  0.12456778  0.74916167  1
  Fe  Fe80  1  0.25126868  0.62667479  0.50210701  1
  Fe  Fe81  1  0.74916167  0.12456778  0.49789299  1
  Fe  Fe82  1  0.50210701  0.62667479  0.25126868  1
  Fe  Fe83  1  0.74873132  0.37540611  0.25083833  1
  Fe  Fe84  1  0.62667479  0.50210701  0.25126868  1
  Fe  Fe85  1  0.37540611  0.74873132  0.25083833  1
  Fe  Fe86  1  0.12456778  0.74916167  0.49789299  1
  Fe  Fe87  1  0.62667479  0.25126868  0.50210701  1
  Fe  Fe88  1  0.37540611  0.25083833  0.74873132  1
  Fe  Fe89  1  0.12456778  0.49789299  0.74916167  1
  Fe  Fe90  1  0.37332521  0.62459389  0.87543222  1
  Fe  Fe91  1  0.62459389  0.87543222  0.37332521  1
  Fe  Fe92  1  0.87543222  0.37332521  0.62459389  1
  Fe  Fe93  1  0.37332521  0.87543222  0.62459389  1
  Fe  Fe94  1  0.62459389  0.37332521  0.87543222  1
  Fe  Fe95  1  0.87543222  0.62459389  0.37332521  1
