# generated using pymatgen
data_TlAsO4
_symmetry_space_group_name_H-M   'P 1'
_cell_length_a   4.88153846
_cell_length_b   4.95923088
_cell_length_c   12.86529263
_cell_angle_alpha   89.59187427
_cell_angle_beta   90.00000000
_cell_angle_gamma   90.00000000
_symmetry_Int_Tables_number   1
_chemical_formula_structural   TlAsO4
_chemical_formula_sum   'Tl4 As4 O16'
_cell_volume   311.44380326
_cell_formula_units_Z   4
loop_
 _symmetry_equiv_pos_site_id
 _symmetry_equiv_pos_as_xyz
  1  'x, y, z'
loop_
 _atom_site_type_symbol
 _atom_site_label
 _atom_site_symmetry_multiplicity
 _atom_site_fract_x
 _atom_site_fract_y
 _atom_site_fract_z
 _atom_site_occupancy
  Tl  Tl0  1  0.50531041  0.74680276  0.36411142  1
  Tl  Tl1  1  0.00531041  0.25319724  0.13588858  1
  Tl  Tl2  1  0.49468959  0.25319724  0.63588858  1
  Tl  Tl3  1  0.99468959  0.74680276  0.86411142  1
  As  As4  1  0.00546153  0.24728083  0.39375169  1
  As  As5  1  0.50546153  0.75271917  0.10624831  1
  As  As6  1  0.99453847  0.75271917  0.60624831  1
  As  As7  1  0.49453847  0.24728083  0.89375169  1
  O  O8  1  0.75526850  0.05672539  0.45662420  1
  O  O9  1  0.25526850  0.94327461  0.04337580  1
  O  O10  1  0.24473150  0.94327461  0.54337580  1
  O  O11  1  0.74473150  0.05672539  0.95662420  1
  O  O12  1  0.24884651  0.44112944  0.45783227  1
  O  O13  1  0.74884651  0.55887056  0.04216773  1
  O  O14  1  0.75115349  0.55887056  0.54216773  1
  O  O15  1  0.25115349  0.44112944  0.95783227  1
  O  O16  1  0.83625278  0.46340482  0.30761591  1
  O  O17  1  0.33625278  0.53659518  0.19238409  1
  O  O18  1  0.16374722  0.53659518  0.69238409  1
  O  O19  1  0.66374722  0.46340482  0.80761591  1
  O  O20  1  0.17801813  0.03747607  0.30783817  1
  O  O21  1  0.67801813  0.96252393  0.19216183  1
  O  O22  1  0.82198187  0.96252393  0.69216183  1
  O  O23  1  0.32198187  0.03747607  0.80783817  1
