# generated using pymatgen
data_LiLuRh2
_symmetry_space_group_name_H-M   'P 1'
_cell_length_a   4.48419713
_cell_length_b   4.48413570
_cell_length_c   4.48423637
_cell_angle_alpha   60.00151361
_cell_angle_beta   60.00013004
_cell_angle_gamma   60.00004413
_symmetry_Int_Tables_number   1
_chemical_formula_structural   LiLuRh2
_chemical_formula_sum   'Li1 Lu1 Rh2'
_cell_volume   63.75914455
_cell_formula_units_Z   1
loop_
 _symmetry_equiv_pos_site_id
 _symmetry_equiv_pos_as_xyz
  1  'x, y, z'
loop_
 _atom_site_type_symbol
 _atom_site_label
 _atom_site_symmetry_multiplicity
 _atom_site_fract_x
 _atom_site_fract_y
 _atom_site_fract_z
 _atom_site_occupancy
  Li  Li0  1  0.24999917  0.25000269  0.25000060  1
  Lu  Lu1  1  0.74999946  0.74999579  0.75000497  1
  Rh  Rh2  1  0.99999885  0.00000274  0.99999718  1
  Rh  Rh3  1  0.50000352  0.49999978  0.49999825  1
