# generated using pymatgen
data_Ba5Nb2O11
_symmetry_space_group_name_H-M   'P 1'
_cell_length_a   6.13830646
_cell_length_b   6.13831742
_cell_length_c   18.62049095
_cell_angle_alpha   89.71559388
_cell_angle_beta   90.28430351
_cell_angle_gamma   60.02976603
_symmetry_Int_Tables_number   1
_chemical_formula_structural   Ba5Nb2O11
_chemical_formula_sum   'Ba10 Nb4 O22'
_cell_volume   607.75491313
_cell_formula_units_Z   2
loop_
 _symmetry_equiv_pos_site_id
 _symmetry_equiv_pos_as_xyz
  1  'x, y, z'
loop_
 _atom_site_type_symbol
 _atom_site_label
 _atom_site_symmetry_multiplicity
 _atom_site_fract_x
 _atom_site_fract_y
 _atom_site_fract_z
 _atom_site_occupancy
  Ba  Ba0  1  0.33350252  0.33345959  0.74999970  1
  Ba  Ba1  1  0.66649748  0.66654041  0.25000030  1
  Ba  Ba2  1  0.32765407  0.34404239  0.52218943  1
  Ba  Ba3  1  0.67234593  0.65595761  0.47781057  1
  Ba  Ba4  1  0.65595751  0.67234689  0.02218878  1
  Ba  Ba5  1  0.34404249  0.32765311  0.97781122  1
  Ba  Ba6  1  0.00148345  0.99744687  0.63972319  1
  Ba  Ba7  1  0.99851655  0.00255313  0.36027681  1
  Ba  Ba8  1  0.00253963  0.99853081  0.13972425  1
  Ba  Ba9  1  0.99746037  0.00146919  0.86027575  1
  Nb  Nb10  1  0.33382618  0.33253692  0.17026873  1
  Nb  Nb11  1  0.66617382  0.66746308  0.82973127  1
  Nb  Nb12  1  0.66746268  0.66617703  0.67026791  1
  Nb  Nb13  1  0.33253732  0.33382297  0.32973209  1
  O  O14  1  0.49094159  0.01681364  0.12052034  1
  O  O15  1  0.01900862  0.49032157  0.11684891  1
  O  O16  1  0.49139923  0.49210438  0.12059158  1
  O  O17  1  0.50905841  0.98318636  0.87947966  1
  O  O18  1  0.98099138  0.50967843  0.88315109  1
  O  O19  1  0.50860077  0.50789562  0.87940842  1
  O  O20  1  0.50967163  0.98099407  0.61685063  1
  O  O21  1  0.98318483  0.50906439  0.62051827  1
  O  O22  1  0.50788546  0.50861233  0.62059075  1
  O  O23  1  0.49032837  0.01900593  0.38314937  1
  O  O24  1  0.01681517  0.49093561  0.37948173  1
  O  O25  1  0.49211454  0.49138767  0.37940925  1
  O  O26  1  0.18453916  0.62808671  0.24944810  1
  O  O27  1  0.62809687  0.18452577  0.25055202  1
  O  O28  1  0.18539238  0.18537737  0.25000020  1
  O  O29  1  0.81546084  0.37191329  0.75055190  1
  O  O30  1  0.37190313  0.81547423  0.74944798  1
  O  O31  1  0.81460762  0.81462263  0.74999980  1
  O  O32  1  0.07137057  0.85722970  0.49860867  1
  O  O33  1  0.92862943  0.14277030  0.50139133  1
  O  O34  1  0.14276711  0.92863622  0.99860864  1
  O  O35  1  0.85723289  0.07136378  0.00139136  1
