# generated using pymatgen
data_Cu(SnS2)4
_symmetry_space_group_name_H-M   'P 1'
_cell_length_a   7.49635058
_cell_length_b   7.49635058
_cell_length_c   7.49635058
_cell_angle_alpha   120.00000000
_cell_angle_beta   90.00000000
_cell_angle_gamma   120.00000000
_symmetry_Int_Tables_number   1
_chemical_formula_structural   Cu(SnS2)4
_chemical_formula_sum   'Cu1 Sn4 S8'
_cell_volume   297.87542092
_cell_formula_units_Z   1
loop_
 _symmetry_equiv_pos_site_id
 _symmetry_equiv_pos_as_xyz
  1  'x, y, z'
loop_
 _atom_site_type_symbol
 _atom_site_label
 _atom_site_symmetry_multiplicity
 _atom_site_fract_x
 _atom_site_fract_y
 _atom_site_fract_z
 _atom_site_occupancy
  Cu  Cu0  1  0.75000100  0.50000100  0.25000000  1
  Sn  Sn1  1  0.37149912  0.74299823  0.11449835  1
  Sn  Sn2  1  0.37149912  0.74299823  0.62849988  1
  Sn  Sn3  1  0.37149912  0.25700077  0.62849988  1
  Sn  Sn4  1  0.88550165  0.25700077  0.62850088  1
  S  S5  1  0.62292621  0.24585342  0.37707279  1
  S  S6  1  0.13121937  0.75414558  0.37707279  1
  S  S7  1  0.62292621  0.75414558  0.37707279  1
  S  S8  1  0.12610970  0.25221840  0.37832809  1
  S  S9  1  0.62292721  0.24585342  0.86878063  1
  S  S10  1  0.12610970  0.25221840  0.87389030  1
  S  S11  1  0.12610970  0.74778060  0.87389030  1
  S  S12  1  0.62167091  0.74778060  0.87389030  1
