# generated using pymatgen
data_CsPb3
_symmetry_space_group_name_H-M   'P 1'
_cell_length_a   8.27542274
_cell_length_b   8.27542382
_cell_length_c   5.75883080
_cell_angle_alpha   90.00000000
_cell_angle_beta   90.00000000
_cell_angle_gamma   120.00000043
_symmetry_Int_Tables_number   1
_chemical_formula_structural   CsPb3
_chemical_formula_sum   'Cs2 Pb6'
_cell_volume   341.54299451
_cell_formula_units_Z   2
loop_
 _symmetry_equiv_pos_site_id
 _symmetry_equiv_pos_as_xyz
  1  'x, y, z'
loop_
 _atom_site_type_symbol
 _atom_site_label
 _atom_site_symmetry_multiplicity
 _atom_site_fract_x
 _atom_site_fract_y
 _atom_site_fract_z
 _atom_site_occupancy
  Cs  Cs0  1  0.33333300  0.66666600  0.75000000  1
  Cs  Cs1  1  0.66666800  0.33333300  0.25000000  1
  Pb  Pb2  1  0.12945865  0.25891631  0.25000000  1
  Pb  Pb3  1  0.74108169  0.87054035  0.25000000  1
  Pb  Pb4  1  0.12945865  0.87054035  0.25000000  1
  Pb  Pb5  1  0.87054135  0.74108169  0.75000000  1
  Pb  Pb6  1  0.25891831  0.12945865  0.75000000  1
  Pb  Pb7  1  0.87054135  0.12945865  0.75000000  1
