# generated using pymatgen
data_B13P
_symmetry_space_group_name_H-M   'P 1'
_cell_length_a   5.18457025
_cell_length_b   5.18457018
_cell_length_c   5.18457006
_cell_angle_alpha   68.48675988
_cell_angle_beta   68.48675492
_cell_angle_gamma   68.48675529
_symmetry_Int_Tables_number   1
_chemical_formula_structural   B13P
_chemical_formula_sum   'B13 P1'
_cell_volume   116.19570362
_cell_formula_units_Z   1
loop_
 _symmetry_equiv_pos_site_id
 _symmetry_equiv_pos_as_xyz
  1  'x, y, z'
loop_
 _atom_site_type_symbol
 _atom_site_label
 _atom_site_symmetry_multiplicity
 _atom_site_fract_x
 _atom_site_fract_y
 _atom_site_fract_z
 _atom_site_occupancy
  B  B0  1  0.19535995  0.69445917  0.19535995  1
  B  B1  1  0.19535995  0.19535995  0.69445917  1
  B  B2  1  0.69445917  0.19535995  0.19535995  1
  B  B3  1  0.81355636  0.29009769  0.81355636  1
  B  B4  1  0.81355636  0.81355636  0.29009769  1
  B  B5  1  0.29009769  0.81355636  0.81355636  1
  B  B6  1  0.01080059  0.32772911  0.01080059  1
  B  B7  1  0.01080059  0.01080059  0.32772911  1
  B  B8  1  0.32772911  0.01080059  0.01080059  1
  B  B9  1  0.98862887  0.67666209  0.98862887  1
  B  B10  1  0.98862887  0.98862887  0.67666209  1
  B  B11  1  0.67666209  0.98862887  0.98862887  1
  B  B12  1  0.41326293  0.41326293  0.41326293  1
  P  P13  1  0.58109747  0.58109747  0.58109747  1
