# generated using pymatgen
data_Pa
_symmetry_space_group_name_H-M   'P 1'
_cell_length_a   3.12652748
_cell_length_b   3.18832671
_cell_length_c   5.68505329
_cell_angle_alpha   90.00000000
_cell_angle_beta   90.00000000
_cell_angle_gamma   60.63914719
_symmetry_Int_Tables_number   1
_chemical_formula_structural   Pa
_chemical_formula_sum   Pa2
_cell_volume   49.39140999
_cell_formula_units_Z   2
loop_
 _symmetry_equiv_pos_site_id
 _symmetry_equiv_pos_as_xyz
  1  'x, y, z'
loop_
 _atom_site_type_symbol
 _atom_site_label
 _atom_site_symmetry_multiplicity
 _atom_site_fract_x
 _atom_site_fract_y
 _atom_site_fract_z
 _atom_site_occupancy
  Pa  Pa0  1  0.85777458  0.28444984  0.25000000  1
  Pa  Pa1  1  0.14222742  0.71554816  0.75000000  1
