# generated using pymatgen
data_MgSc2
_symmetry_space_group_name_H-M   'P 1'
_cell_length_a   3.26414154
_cell_length_b   6.18761563
_cell_length_c   7.68693975
_cell_angle_alpha   76.25559844
_cell_angle_beta   90.00000008
_cell_angle_gamma   105.29351700
_symmetry_Int_Tables_number   1
_chemical_formula_structural   MgSc2
_chemical_formula_sum   'Mg2 Sc4'
_cell_volume   145.14307421
_cell_formula_units_Z   2
loop_
 _symmetry_equiv_pos_site_id
 _symmetry_equiv_pos_as_xyz
  1  'x, y, z'
loop_
 _atom_site_type_symbol
 _atom_site_label
 _atom_site_symmetry_multiplicity
 _atom_site_fract_x
 _atom_site_fract_y
 _atom_site_fract_z
 _atom_site_occupancy
  Mg  Mg0  1  0.66741374  0.33482748  0.66919510  1
  Mg  Mg1  1  0.38814226  0.77628352  0.71969390  1
  Sc  Sc2  1  0.00240827  0.00481655  0.00113268  1
  Sc  Sc3  1  0.72397777  0.44795554  0.06040942  1
  Sc  Sc4  1  0.33157823  0.66315746  0.32847858  1
  Sc  Sc5  1  0.05314673  0.10629345  0.38775632  1
