# generated using pymatgen
data_MgTi3
_symmetry_space_group_name_H-M   'P 1'
_cell_length_a   2.87647732
_cell_length_b   9.65566576
_cell_length_c   5.20708859
_cell_angle_alpha   90.00000000
_cell_angle_beta   90.00000000
_cell_angle_gamma   90.00000000
_symmetry_Int_Tables_number   1
_chemical_formula_structural   MgTi3
_chemical_formula_sum   'Mg2 Ti6'
_cell_volume   144.62325920
_cell_formula_units_Z   2
loop_
 _symmetry_equiv_pos_site_id
 _symmetry_equiv_pos_as_xyz
  1  'x, y, z'
loop_
 _atom_site_type_symbol
 _atom_site_label
 _atom_site_symmetry_multiplicity
 _atom_site_fract_x
 _atom_site_fract_y
 _atom_site_fract_z
 _atom_site_occupancy
  Mg  Mg0  1  0.00000000  0.00000000  0.32855929  1
  Mg  Mg1  1  0.50000000  0.50000000  0.82855929  1
  Ti  Ti2  1  0.50000000  -0.00000000  0.84080143  1
  Ti  Ti3  1  0.00000000  0.24882606  0.99865264  1
  Ti  Ti4  1  0.50000000  0.25117394  0.49865264  1
  Ti  Ti5  1  -0.00000000  0.50000000  0.34080143  1
  Ti  Ti6  1  0.50000000  0.74882606  0.49865264  1
  Ti  Ti7  1  0.00000000  0.75117394  0.99865264  1
