# generated using pymatgen
data_Al(SiO3)2
_symmetry_space_group_name_H-M   'P 1'
_cell_length_a   7.87756477
_cell_length_b   7.87756477
_cell_length_c   8.41310948
_cell_angle_alpha   90.00000000
_cell_angle_beta   90.00000000
_cell_angle_gamma   90.00000000
_symmetry_Int_Tables_number   1
_chemical_formula_structural   Al(SiO3)2
_chemical_formula_sum   'Al4 Si8 O24'
_cell_volume   522.08414657
_cell_formula_units_Z   4
loop_
 _symmetry_equiv_pos_site_id
 _symmetry_equiv_pos_as_xyz
  1  'x, y, z'
loop_
 _atom_site_type_symbol
 _atom_site_label
 _atom_site_symmetry_multiplicity
 _atom_site_fract_x
 _atom_site_fract_y
 _atom_site_fract_z
 _atom_site_occupancy
  Al  Al0  1  0.91159303  0.08840697  0.25000000  1
  Al  Al1  1  0.08840697  0.91159303  0.75000000  1
  Al  Al2  1  0.58840697  0.58840697  0.50000000  1
  Al  Al3  1  0.41159303  0.41159303  -0.00000000  1
  Si  Si4  1  0.82566278  0.38788034  0.98149977  1
  Si  Si5  1  0.17433722  0.61211966  0.48149977  1
  Si  Si6  1  0.88788034  0.67433722  0.23149977  1
  Si  Si7  1  0.11211966  0.32566278  0.73149977  1
  Si  Si8  1  0.61211966  0.17433722  0.51850023  1
  Si  Si9  1  0.38788034  0.82566278  0.01850023  1
  Si  Si10  1  0.67433722  0.88788034  0.76850023  1
  Si  Si11  1  0.32566278  0.11211966  0.26850023  1
  O  O12  1  0.62395773  0.38531605  0.94518714  1
  O  O13  1  0.37604227  0.61468395  0.44518714  1
  O  O14  1  0.88531605  0.87604227  0.19518714  1
  O  O15  1  0.11468395  0.12395773  0.69518714  1
  O  O16  1  0.61468395  0.37604227  0.55481286  1
  O  O17  1  0.38531605  0.62395773  0.05481286  1
  O  O18  1  0.87604227  0.88531605  0.80481286  1
  O  O19  1  0.12395773  0.11468395  0.30481286  1
  O  O20  1  0.87131804  0.22762849  0.09354398  1
  O  O21  1  0.12868196  0.77237151  0.59354398  1
  O  O22  1  0.72762849  0.62868196  0.34354398  1
  O  O23  1  0.27237151  0.37131804  0.84354398  1
  O  O24  1  0.77237151  0.12868196  0.40645602  1
  O  O25  1  0.22762849  0.87131804  0.90645602  1
  O  O26  1  0.62868196  0.72762849  0.65645602  1
  O  O27  1  0.37131804  0.27237151  0.15645602  1
  O  O28  1  0.93169566  0.37779746  0.81507570  1
  O  O29  1  0.06830434  0.62220254  0.31507570  1
  O  O30  1  0.87779746  0.56830434  0.06507570  1
  O  O31  1  0.12220254  0.43169566  0.56507570  1
  O  O32  1  0.62220254  0.06830434  0.68492430  1
  O  O33  1  0.37779746  0.93169566  0.18492430  1
  O  O34  1  0.56830434  0.87779746  0.93492430  1
  O  O35  1  0.43169566  0.12220254  0.43492430  1
