# generated using pymatgen
data_TaIr3
_symmetry_space_group_name_H-M   'P 1'
_cell_length_a   5.58848017
_cell_length_b   5.58848093
_cell_length_c   4.48947422
_cell_angle_alpha   90.00000000
_cell_angle_beta   90.00000000
_cell_angle_gamma   119.99998873
_symmetry_Int_Tables_number   1
_chemical_formula_structural   TaIr3
_chemical_formula_sum   'Ta2 Ir6'
_cell_volume   121.42654855
_cell_formula_units_Z   2
loop_
 _symmetry_equiv_pos_site_id
 _symmetry_equiv_pos_as_xyz
  1  'x, y, z'
loop_
 _atom_site_type_symbol
 _atom_site_label
 _atom_site_symmetry_multiplicity
 _atom_site_fract_x
 _atom_site_fract_y
 _atom_site_fract_z
 _atom_site_occupancy
  Ta  Ta0  1  0.33333300  0.66666600  0.74999900  1
  Ta  Ta1  1  0.66666700  0.33333400  0.25000000  1
  Ir  Ir2  1  0.16389833  0.32779666  0.25000000  1
  Ir  Ir3  1  0.67220534  0.83610267  0.25000000  1
  Ir  Ir4  1  0.16389733  0.83610267  0.25000000  1
  Ir  Ir5  1  0.83610267  0.67220434  0.74999900  1
  Ir  Ir6  1  0.32779566  0.16389833  0.74999900  1
  Ir  Ir7  1  0.83610167  0.16389833  0.74999900  1
