# generated using pymatgen
data_U3CrSb5
_symmetry_space_group_name_H-M   'P 1'
_cell_length_a   6.12582388
_cell_length_b   9.06689351
_cell_length_c   9.06350858
_cell_angle_alpha   120.01235713
_cell_angle_beta   90.00000000
_cell_angle_gamma   90.00000000
_symmetry_Int_Tables_number   1
_chemical_formula_structural   U3CrSb5
_chemical_formula_sum   'U6 Cr2 Sb10'
_cell_volume   435.90907707
_cell_formula_units_Z   2
loop_
 _symmetry_equiv_pos_site_id
 _symmetry_equiv_pos_as_xyz
  1  'x, y, z'
loop_
 _atom_site_type_symbol
 _atom_site_label
 _atom_site_symmetry_multiplicity
 _atom_site_fract_x
 _atom_site_fract_y
 _atom_site_fract_z
 _atom_site_occupancy
  U  U0  1  0.74999406  0.61111281  1.00000000  1
  U  U1  1  0.75000508  0.38882796  0.38862377  1
  U  U2  1  0.75000508  0.00020419  0.61137623  1
  U  U3  1  0.24999406  0.38888719  0.00000000  1
  U  U4  1  0.25000508  0.61117204  0.61137623  1
  U  U5  1  0.25000508  0.99979581  0.38862377  1
  Cr  Cr6  1  0.49998061  0.99997776  0.00000000  1
  Cr  Cr7  1  0.99998061  0.00002224  -0.00000000  1
  Sb  Sb8  1  0.75000559  0.25710225  1.00000000  1
  Sb  Sb9  1  0.75000222  0.74282716  0.74311136  1
  Sb  Sb10  1  0.75000222  0.99971580  0.25688864  1
  Sb  Sb11  1  0.25000559  0.74289775  0.00000000  1
  Sb  Sb12  1  0.25000222  0.25717284  0.25688864  1
  Sb  Sb13  1  0.25000222  0.00028420  0.74311136  1
  Sb  Sb14  1  0.50000257  0.33332855  0.66665310  1
  Sb  Sb15  1  0.50000257  0.66667545  0.33334690  1
  Sb  Sb16  1  0.00000257  0.66667145  0.33334690  1
  Sb  Sb17  1  0.00000257  0.33332455  0.66665310  1
