# generated using pymatgen
data_Al2Fe3(BiO4)3
_symmetry_space_group_name_H-M   'P 1'
_cell_length_a   5.36031508
_cell_length_b   5.61647517
_cell_length_c   9.52113890
_cell_angle_alpha   106.97060694
_cell_angle_beta   89.84334009
_cell_angle_gamma   118.96076781
_symmetry_Int_Tables_number   1
_chemical_formula_structural   Al2Fe3(BiO4)3
_chemical_formula_sum   'Al2 Fe3 Bi3 O12'
_cell_volume   236.56580939
_cell_formula_units_Z   1
loop_
 _symmetry_equiv_pos_site_id
 _symmetry_equiv_pos_as_xyz
  1  'x, y, z'
loop_
 _atom_site_type_symbol
 _atom_site_label
 _atom_site_symmetry_multiplicity
 _atom_site_fract_x
 _atom_site_fract_y
 _atom_site_fract_z
 _atom_site_occupancy
  Al  Al0  1  0.52245809  0.06267170  0.50719478  1
  Al  Al1  1  0.05481598  0.13307208  0.36696158  1
  Fe  Fe2  1  0.59010844  0.16144533  0.84600078  1
  Fe  Fe3  1  0.33093478  0.65855833  0.12544122  1
  Fe  Fe4  1  0.84134042  0.68197097  0.59514207  1
  Bi  Bi5  1  0.25390062  0.47878333  0.74293777  1
  Bi  Bi6  1  0.72971038  0.45615545  0.24442129  1
  Bi  Bi7  1  0.99117731  0.96781190  -0.00091109  1
  O  O8  1  0.77004524  0.37609039  0.70897227  1
  O  O9  1  0.23334248  0.32460982  0.22489153  1
  O  O10  1  0.38014800  0.32848199  0.51676039  1
  O  O11  1  0.91113691  0.37871977  0.02158118  1
  O  O12  1  0.37711270  0.35104000  0.94127575  1
  O  O13  1  0.85117812  0.33460199  0.43727312  1
  O  O14  1  0.27299862  0.88928391  0.64329354  1
  O  O15  1  0.74806533  0.85028700  0.19889162  1
  O  O16  1  0.72681773  0.87245627  0.76842516  1
  O  O17  1  0.23140271  0.86261587  0.31328238  1
  O  O18  1  0.37040481  0.87263516  0.97861777  1
  O  O19  1  0.77490133  0.88270875  0.47354690  1
