# generated using pymatgen
data_TmZr3
_symmetry_space_group_name_H-M   'P 1'
_cell_length_a   6.63360033
_cell_length_b   6.63329324
_cell_length_c   5.20788100
_cell_angle_alpha   89.99074783
_cell_angle_beta   90.01307649
_cell_angle_gamma   119.99158974
_symmetry_Int_Tables_number   1
_chemical_formula_structural   TmZr3
_chemical_formula_sum   'Tm2 Zr6'
_cell_volume   198.47552954
_cell_formula_units_Z   2
loop_
 _symmetry_equiv_pos_site_id
 _symmetry_equiv_pos_as_xyz
  1  'x, y, z'
loop_
 _atom_site_type_symbol
 _atom_site_label
 _atom_site_symmetry_multiplicity
 _atom_site_fract_x
 _atom_site_fract_y
 _atom_site_fract_z
 _atom_site_occupancy
  Tm  Tm0  1  0.33331633  0.66666206  0.75000118  1
  Tm  Tm1  1  0.66665760  0.33332885  0.24999973  1
  Zr  Zr2  1  0.16243029  0.32485957  0.24996697  1
  Zr  Zr3  1  0.67513446  0.83757788  0.24995581  1
  Zr  Zr4  1  0.16242068  0.83757403  0.25006178  1
  Zr  Zr5  1  0.83758676  0.67512987  0.75003964  1
  Zr  Zr6  1  0.32486383  0.16242637  0.75004032  1
  Zr  Zr7  1  0.83759405  0.16244437  0.74993857  1
