# generated using pymatgen
data_La2Co7
_symmetry_space_group_name_H-M   'P 1'
_cell_length_a   5.03141394
_cell_length_b   5.03141394
_cell_length_c   12.71403418
_cell_angle_alpha   78.58765748
_cell_angle_beta   78.58765748
_cell_angle_gamma   59.99999917
_symmetry_Int_Tables_number   1
_chemical_formula_structural   La2Co7
_chemical_formula_sum   'La4 Co14'
_cell_volume   271.36376667
_cell_formula_units_Z   2
loop_
 _symmetry_equiv_pos_site_id
 _symmetry_equiv_pos_as_xyz
  1  'x, y, z'
loop_
 _atom_site_type_symbol
 _atom_site_label
 _atom_site_symmetry_multiplicity
 _atom_site_fract_x
 _atom_site_fract_y
 _atom_site_fract_z
 _atom_site_occupancy
  La  La0  1  0.05167833  0.05167833  0.84496500  1
  La  La1  1  0.94832167  0.94832167  0.15503500  1
  La  La2  1  0.14844362  0.14844362  0.55466913  1
  La  La3  1  0.85155638  0.85155638  0.44533087  1
  Co  Co4  1  0.50000000  0.50000000  0.50000000  1
  Co  Co5  1  0.27837211  0.27837211  0.16488366  1
  Co  Co6  1  0.72162789  0.72162789  0.83511634  1
  Co  Co7  1  0.38733582  0.38733582  0.83799254  1
  Co  Co8  1  0.61266418  0.61266418  0.16200746  1
  Co  Co9  1  0.50000000  0.50000000  0.00000000  1
  Co  Co10  1  0.50000000  0.00000000  0.00000000  1
  Co  Co11  1  -0.00000000  0.50000000  0.00000000  1
  Co  Co12  1  0.11012036  0.60592788  0.67802388  1
  Co  Co13  1  0.60592788  0.60592788  0.67802388  1
  Co  Co14  1  0.60592788  0.11012036  0.67802388  1
  Co  Co15  1  0.88987964  0.39407212  0.32197612  1
  Co  Co16  1  0.39407212  0.39407212  0.32197612  1
  Co  Co17  1  0.39407212  0.88987964  0.32197612  1
