# generated using pymatgen
data_Ti3Ge
_symmetry_space_group_name_H-M   'P 1'
_cell_length_a   5.13889206
_cell_length_b   7.66857723
_cell_length_c   7.66857724
_cell_angle_alpha   83.55402327
_cell_angle_beta   70.42371027
_cell_angle_gamma   70.42371025
_symmetry_Int_Tables_number   1
_chemical_formula_structural   Ti3Ge
_chemical_formula_sum   'Ti12 Ge4'
_cell_volume   268.27597037
_cell_formula_units_Z   4
loop_
 _symmetry_equiv_pos_site_id
 _symmetry_equiv_pos_as_xyz
  1  'x, y, z'
loop_
 _atom_site_type_symbol
 _atom_site_label
 _atom_site_symmetry_multiplicity
 _atom_site_fract_x
 _atom_site_fract_y
 _atom_site_fract_z
 _atom_site_occupancy
  Ti  Ti0  1  0.67808105  0.18814084  0.02230828  1
  Ti  Ti1  1  0.88853017  0.81185916  0.97769172  1
  Ti  Ti2  1  0.13377811  0.97769172  0.18814084  1
  Ti  Ti3  1  0.29961067  0.02230828  0.81185916  1
  Ti  Ti4  1  0.99154304  0.38014370  0.66943644  1
  Ti  Ti5  1  0.04112318  0.61985630  0.33056356  1
  Ti  Ti6  1  0.62831326  0.33056356  0.38014370  1
  Ti  Ti7  1  0.33902052  0.66943644  0.61985630  1
  Ti  Ti8  1  0.02186659  0.40290468  0.02935919  1
  Ti  Ti9  1  0.45413046  0.59709532  0.97064081  1
  Ti  Ti10  1  0.57522873  0.97064081  0.40290468  1
  Ti  Ti11  1  0.94877422  0.02935919  0.59709532  1
  Ge  Ge12  1  0.48842556  0.32451749  0.74222733  1
  Ge  Ge13  1  0.55517038  0.67548251  0.25777267  1
  Ge  Ge14  1  0.18705695  0.25777267  0.32451749  1
  Ge  Ge15  1  0.76934710  0.74222733  0.67548251  1
