# generated using pymatgen
data_Lu3AlNi8
_symmetry_space_group_name_H-M   'P 1'
_cell_length_a   4.99318842
_cell_length_b   4.99318842
_cell_length_c   15.84163177
_cell_angle_alpha   90.00000000
_cell_angle_beta   90.00000000
_cell_angle_gamma   119.98272081
_symmetry_Int_Tables_number   1
_chemical_formula_structural   Lu3AlNi8
_chemical_formula_sum   'Lu6 Al2 Ni16'
_cell_volume   342.10706803
_cell_formula_units_Z   2
loop_
 _symmetry_equiv_pos_site_id
 _symmetry_equiv_pos_as_xyz
  1  'x, y, z'
loop_
 _atom_site_type_symbol
 _atom_site_label
 _atom_site_symmetry_multiplicity
 _atom_site_fract_x
 _atom_site_fract_y
 _atom_site_fract_z
 _atom_site_occupancy
  Lu  Lu0  1  0.66666402  0.33333598  0.04384507  1
  Lu  Lu1  1  0.33333598  0.66666402  0.95615493  1
  Lu  Lu2  1  0.33333598  0.66666402  0.54384507  1
  Lu  Lu3  1  0.66666402  0.33333598  0.45615493  1
  Lu  Lu4  1  0.66668126  0.33331874  0.25000000  1
  Lu  Lu5  1  0.33331874  0.66668126  0.75000000  1
  Al  Al6  1  0.00000000  0.00000000  0.50000000  1
  Al  Al7  1  0.00000000  0.00000000  -0.00000000  1
  Ni  Ni8  1  0.83074381  0.66150378  0.62491736  1
  Ni  Ni9  1  0.83076132  0.16923868  0.62490473  1
  Ni  Ni10  1  0.33849622  0.16925619  0.62491736  1
  Ni  Ni11  1  0.16925619  0.33849622  0.37508264  1
  Ni  Ni12  1  0.16923868  0.83076132  0.37509527  1
  Ni  Ni13  1  0.66150378  0.83074381  0.37508264  1
  Ni  Ni14  1  0.16925619  0.33849622  0.12491736  1
  Ni  Ni15  1  0.16923868  0.83076132  0.12490473  1
  Ni  Ni16  1  0.66150378  0.83074381  0.12491736  1
  Ni  Ni17  1  0.83074381  0.66150378  0.87508264  1
  Ni  Ni18  1  0.83076132  0.16923868  0.87509527  1
  Ni  Ni19  1  0.33849622  0.16925619  0.87508264  1
  Ni  Ni20  1  0.66668154  0.33331846  0.75000000  1
  Ni  Ni21  1  0.33331846  0.66668154  0.25000000  1
  Ni  Ni22  1  0.99998889  0.00001111  0.75000000  1
  Ni  Ni23  1  0.00001111  0.99998889  0.25000000  1
