# generated using pymatgen
data_CeP2
_symmetry_space_group_name_H-M   'P 1'
_cell_length_a   8.61516806
_cell_length_b   8.53391511
_cell_length_c   9.11064077
_cell_angle_alpha   118.04117977
_cell_angle_beta   118.32997168
_cell_angle_gamma   89.78704908
_symmetry_Int_Tables_number   1
_chemical_formula_structural   CeP2
_chemical_formula_sum   'Ce8 P16'
_cell_volume   499.20947421
_cell_formula_units_Z   8
loop_
 _symmetry_equiv_pos_site_id
 _symmetry_equiv_pos_as_xyz
  1  'x, y, z'
loop_
 _atom_site_type_symbol
 _atom_site_label
 _atom_site_symmetry_multiplicity
 _atom_site_fract_x
 _atom_site_fract_y
 _atom_site_fract_z
 _atom_site_occupancy
  Ce  Ce0  1  0.24404666  0.09305208  0.91583684  1
  Ce  Ce1  1  0.32820981  0.67721524  0.08416316  1
  Ce  Ce2  1  0.72522028  0.47505285  0.08402069  1
  Ce  Ce3  1  0.64119959  0.89103216  0.91597931  1
  Ce  Ce4  1  0.88202170  0.49294985  0.55215111  1
  Ce  Ce5  1  0.32987060  0.44079875  0.44784889  1
  Ce  Ce6  1  0.70785646  0.12242119  0.61680410  1
  Ce  Ce7  1  0.09105236  0.00561709  0.38319590  1
  P  P8  1  0.11955319  0.62597650  0.25144917  1
  P  P9  1  0.86810402  0.87452734  0.74855083  1
  P  P10  1  0.00667189  0.30550938  0.05894045  1
  P  P11  1  0.94773143  0.74656893  0.94105955  1
  P  P12  1  0.26491105  0.70706645  0.74418282  1
  P  P13  1  0.52072823  0.46288363  0.25581718  1
  P  P14  1  0.92984291  0.24200415  0.23231303  1
  P  P15  1  0.69752988  0.50969112  0.76768697  1
  P  P16  1  0.06156633  0.73234152  0.49170599  1
  P  P17  1  0.56986034  0.74063553  0.50829401  1
  P  P18  1  0.34342715  0.06379932  0.26147105  1
  P  P19  1  0.08195610  0.30232828  0.73852895  1
  P  P20  1  0.71102510  0.86277084  0.25049353  1
  P  P21  1  0.46053157  0.11227731  0.74950647  1
  P  P22  1  0.59714838  0.09834696  0.25521342  1
  P  P23  1  0.34193496  0.34313354  0.74478658  1
