# generated using pymatgen
data_NaTl
_symmetry_space_group_name_H-M   'P 1'
_cell_length_a   7.79282624
_cell_length_b   9.76360180
_cell_length_c   9.76360180
_cell_angle_alpha   92.91531218
_cell_angle_beta   90.00000000
_cell_angle_gamma   90.00000000
_symmetry_Int_Tables_number   1
_chemical_formula_structural   NaTl
_chemical_formula_sum   'Na12 Tl12'
_cell_volume   741.91248998
_cell_formula_units_Z   12
loop_
 _symmetry_equiv_pos_site_id
 _symmetry_equiv_pos_as_xyz
  1  'x, y, z'
loop_
 _atom_site_type_symbol
 _atom_site_label
 _atom_site_symmetry_multiplicity
 _atom_site_fract_x
 _atom_site_fract_y
 _atom_site_fract_z
 _atom_site_occupancy
  Na  Na0  1  0.25000000  0.93346265  0.56653735  1
  Na  Na1  1  0.75000000  0.56653735  0.93346265  1
  Na  Na2  1  0.75000000  0.06653735  0.43346265  1
  Na  Na3  1  0.25000000  0.43346265  0.06653735  1
  Na  Na4  1  0.50000000  0.34391596  0.34391596  1
  Na  Na5  1  -0.00000000  0.84391596  0.84391596  1
  Na  Na6  1  0.50000000  0.65608404  0.65608404  1
  Na  Na7  1  -0.00000000  0.15608404  0.15608404  1
  Na  Na8  1  0.56006098  0.70868750  0.29131250  1
  Na  Na9  1  0.43993902  0.29131250  0.70868750  1
  Na  Na10  1  0.06006098  0.79131250  0.20868750  1
  Na  Na11  1  0.93993902  0.20868750  0.79131250  1
  Tl  Tl12  1  0.37066732  0.02669631  0.25523586  1
  Tl  Tl13  1  0.62933268  0.25523586  0.02669631  1
  Tl  Tl14  1  0.87066732  0.75523586  0.52669631  1
  Tl  Tl15  1  0.12933268  0.52669631  0.75523586  1
  Tl  Tl16  1  0.62933268  0.97330369  0.74476414  1
  Tl  Tl17  1  0.37066732  0.74476414  0.97330369  1
  Tl  Tl18  1  0.12933268  0.24476414  0.47330369  1
  Tl  Tl19  1  0.87066732  0.47330369  0.24476414  1
  Tl  Tl20  1  0.29767804  0.07003733  0.92996267  1
  Tl  Tl21  1  0.70232196  0.92996267  0.07003733  1
  Tl  Tl22  1  0.79767804  0.42996267  0.57003733  1
  Tl  Tl23  1  0.20232196  0.57003733  0.42996267  1
