# generated using pymatgen
data_Ho2CuTe2(SO7)2
_symmetry_space_group_name_H-M   'P 1'
_cell_length_a   5.20046001
_cell_length_b   7.93868760
_cell_length_c   8.19231871
_cell_angle_alpha   62.33634557
_cell_angle_beta   74.16660639
_cell_angle_gamma   85.30339146
_symmetry_Int_Tables_number   1
_chemical_formula_structural   Ho2CuTe2(SO7)2
_chemical_formula_sum   'Ho2 Cu1 Te2 S2 O14'
_cell_volume   287.79220687
_cell_formula_units_Z   1
loop_
 _symmetry_equiv_pos_site_id
 _symmetry_equiv_pos_as_xyz
  1  'x, y, z'
loop_
 _atom_site_type_symbol
 _atom_site_label
 _atom_site_symmetry_multiplicity
 _atom_site_fract_x
 _atom_site_fract_y
 _atom_site_fract_z
 _atom_site_occupancy
  Ho  Ho0  1  0.92638974  0.74840550  0.98207055  1
  Ho  Ho1  1  0.07361026  0.25159450  0.01792945  1
  Cu  Cu2  1  -0.00000000  -0.00000000  0.50000000  1
  Te  Te3  1  0.48928386  0.72796586  0.65540554  1
  Te  Te4  1  0.51071614  0.27203414  0.34459446  1
  S  S5  1  0.25167556  0.74793592  0.25051991  1
  S  S6  1  0.74832444  0.25206408  0.74948009  1
  O  O7  1  0.13581957  0.58680019  0.24172172  1
  O  O8  1  0.86418043  0.41319981  0.75827828  1
  O  O9  1  0.14072125  0.74797963  0.43565432  1
  O  O10  1  0.85927875  0.25202037  0.56434568  1
  O  O11  1  0.54776021  0.73617442  0.21382178  1
  O  O12  1  0.45223979  0.26382558  0.78617822  1
  O  O13  1  0.17570416  0.92250471  0.09200124  1
  O  O14  1  0.82429584  0.07749529  0.90799876  1
  O  O15  1  0.24865536  0.56081502  0.89178907  1
  O  O16  1  0.75134464  0.43918498  0.10821093  1
  O  O17  1  0.72924854  0.81242551  0.74631956  1
  O  O18  1  0.27075146  0.18757449  0.25368044  1
  O  O19  1  0.24926699  0.92780624  0.65876425  1
  O  O20  1  0.75073301  0.07219376  0.34123575  1
