# generated using pymatgen
data_Np2Tc3Ge4
_symmetry_space_group_name_H-M   'P 1'
_cell_length_a   5.72622576
_cell_length_b   6.81198138
_cell_length_c   8.22007641
_cell_angle_alpha   90.00000000
_cell_angle_beta   90.00000000
_cell_angle_gamma   104.40399590
_symmetry_Int_Tables_number   1
_chemical_formula_structural   Np2Tc3Ge4
_chemical_formula_sum   'Np4 Tc6 Ge8'
_cell_volume   310.56099484
_cell_formula_units_Z   2
loop_
 _symmetry_equiv_pos_site_id
 _symmetry_equiv_pos_as_xyz
  1  'x, y, z'
loop_
 _atom_site_type_symbol
 _atom_site_label
 _atom_site_symmetry_multiplicity
 _atom_site_fract_x
 _atom_site_fract_y
 _atom_site_fract_z
 _atom_site_occupancy
  Np  Np0  1  0.92293418  0.24867738  0.44943208  1
  Np  Np1  1  0.57706582  0.75132262  0.94943208  1
  Np  Np2  1  0.07706582  0.75132262  0.55056792  1
  Np  Np3  1  0.42293418  0.24867738  0.05056792  1
  Tc  Tc4  1  0.87839640  0.10610166  0.79404314  1
  Tc  Tc5  1  0.62160360  0.89389834  0.29404314  1
  Tc  Tc6  1  0.12160360  0.89389834  0.20595686  1
  Tc  Tc7  1  0.37839640  0.10610166  0.70595686  1
  Tc  Tc8  1  -0.00000000  0.50000000  0.00000000  1
  Tc  Tc9  1  0.50000000  0.50000000  0.50000000  1
  Ge  Ge10  1  0.88089811  0.13419029  0.09995951  1
  Ge  Ge11  1  0.61910189  0.86580971  0.59995951  1
  Ge  Ge12  1  0.11910189  0.86580971  0.90004049  1
  Ge  Ge13  1  0.38089811  0.13419029  0.40004049  1
  Ge  Ge14  1  0.77137595  0.57327073  0.24983353  1
  Ge  Ge15  1  0.72862405  0.42672927  0.74983353  1
  Ge  Ge16  1  0.22862405  0.42672927  0.75016647  1
  Ge  Ge17  1  0.27137595  0.57327073  0.25016647  1
