# generated using pymatgen
data_LiCr(MoO4)2
_symmetry_space_group_name_H-M   'P 1'
_cell_length_a   6.84145642
_cell_length_b   7.29728693
_cell_length_c   7.42084412
_cell_angle_alpha   91.26267606
_cell_angle_beta   110.37751018
_cell_angle_gamma   105.23971808
_symmetry_Int_Tables_number   1
_chemical_formula_structural   LiCr(MoO4)2
_chemical_formula_sum   'Li2 Cr2 Mo4 O16'
_cell_volume   332.42909143
_cell_formula_units_Z   2
loop_
 _symmetry_equiv_pos_site_id
 _symmetry_equiv_pos_as_xyz
  1  'x, y, z'
loop_
 _atom_site_type_symbol
 _atom_site_label
 _atom_site_symmetry_multiplicity
 _atom_site_fract_x
 _atom_site_fract_y
 _atom_site_fract_z
 _atom_site_occupancy
  Li  Li0  1  0.72917678  0.04958952  0.74027349  1
  Li  Li1  1  0.27082322  0.95041048  0.25972651  1
  Cr  Cr2  1  0.09183449  0.40062680  0.67744539  1
  Cr  Cr3  1  0.90816551  0.59937320  0.32255461  1
  Mo  Mo4  1  0.67615462  0.53034802  0.78327724  1
  Mo  Mo5  1  0.32384538  0.46965198  0.21672276  1
  Mo  Mo6  1  0.16800511  0.92491762  0.71086487  1
  Mo  Mo7  1  0.83199489  0.07508238  0.28913513  1
  O  O8  1  0.07640724  0.66001533  0.61019587  1
  O  O9  1  0.92359276  0.33998467  0.38980413  1
  O  O10  1  0.25176446  0.92715452  0.96027765  1
  O  O11  1  0.74823554  0.07284548  0.03972235  1
  O  O12  1  0.38407228  0.44646108  0.65379209  1
  O  O13  1  0.61592772  0.55353892  0.34620791  1
  O  O14  1  0.74226620  0.53529366  0.03919360  1
  O  O15  1  0.25773380  0.46470634  0.96080640  1
  O  O16  1  0.02022134  0.11503591  0.65662712  1
  O  O17  1  0.97977866  0.88496409  0.34337288  1
  O  O18  1  0.81020303  0.36714929  0.71950989  1
  O  O19  1  0.18979697  0.63285071  0.28049011  1
  O  O20  1  0.77911391  0.76853471  0.74296495  1
  O  O21  1  0.22088609  0.23146529  0.25703505  1
  O  O22  1  0.40629891  0.01620145  0.66415543  1
  O  O23  1  0.59370109  0.98379855  0.33584457  1
