# generated using pymatgen
data_ErScS3
_symmetry_space_group_name_H-M   'P 1'
_cell_length_a   6.35345201
_cell_length_b   6.97091474
_cell_length_c   9.53949522
_cell_angle_alpha   90.00000000
_cell_angle_beta   90.00000000
_cell_angle_gamma   90.00000000
_symmetry_Int_Tables_number   1
_chemical_formula_structural   ErScS3
_chemical_formula_sum   'Er4 Sc4 S12'
_cell_volume   422.49825503
_cell_formula_units_Z   4
loop_
 _symmetry_equiv_pos_site_id
 _symmetry_equiv_pos_as_xyz
  1  'x, y, z'
loop_
 _atom_site_type_symbol
 _atom_site_label
 _atom_site_symmetry_multiplicity
 _atom_site_fract_x
 _atom_site_fract_y
 _atom_site_fract_z
 _atom_site_occupancy
  Er  Er0  1  0.54144201  0.39887357  0.99186156  1
  Er  Er1  1  0.45855799  0.60112643  0.49186156  1
  Er  Er2  1  0.04144201  0.10112643  0.49186156  1
  Er  Er3  1  0.95855799  0.89887357  0.99186156  1
  Sc  Sc4  1  0.00350413  0.49598431  0.23818421  1
  Sc  Sc5  1  0.99649587  0.50401569  0.73818421  1
  Sc  Sc6  1  0.50350413  0.00401569  0.73818421  1
  Sc  Sc7  1  0.49649587  0.99598431  0.23818421  1
  S  S8  1  0.82617336  0.18634529  0.81574031  1
  S  S9  1  0.17382664  0.81365471  0.31574031  1
  S  S10  1  0.32617336  0.31365471  0.31574031  1
  S  S11  1  0.67382664  0.68634529  0.81574031  1
  S  S12  1  0.82312246  0.18103387  0.16961224  1
  S  S13  1  0.17687754  0.81896613  0.66961224  1
  S  S14  1  0.32312246  0.31896613  0.66961224  1
  S  S15  1  0.67687754  0.68103387  0.16961224  1
  S  S16  1  0.85290101  0.45018770  0.48960168  1
  S  S17  1  0.14709899  0.54981230  0.98960168  1
  S  S18  1  0.35290101  0.04981230  0.98960168  1
  S  S19  1  0.64709899  0.95018770  0.48960168  1
