# generated using pymatgen
data_CsV2CrO7
_symmetry_space_group_name_H-M   'P 1'
_cell_length_a   4.99396923
_cell_length_b   7.00263987
_cell_length_c   9.00882627
_cell_angle_alpha   99.58051016
_cell_angle_beta   90.00000000
_cell_angle_gamma   90.00000000
_symmetry_Int_Tables_number   1
_chemical_formula_structural   CsV2CrO7
_chemical_formula_sum   'Cs2 V4 Cr2 O14'
_cell_volume   310.65331813
_cell_formula_units_Z   2
loop_
 _symmetry_equiv_pos_site_id
 _symmetry_equiv_pos_as_xyz
  1  'x, y, z'
loop_
 _atom_site_type_symbol
 _atom_site_label
 _atom_site_symmetry_multiplicity
 _atom_site_fract_x
 _atom_site_fract_y
 _atom_site_fract_z
 _atom_site_occupancy
  Cs  Cs0  1  0.61423842  0.75000000  0.50000000  1
  Cs  Cs1  1  0.38576158  0.25000000  0.50000000  1
  V  V2  1  0.99454437  0.87247968  0.15611995  1
  V  V3  1  0.99454437  0.62752032  0.84388005  1
  V  V4  1  0.00545563  0.12752032  0.84388005  1
  V  V5  1  0.00545563  0.37247968  0.15611995  1
  Cr  Cr6  1  0.50000000  -0.00000000  -0.00000000  1
  Cr  Cr7  1  0.50000000  0.50000000  -0.00000000  1
  O  O8  1  0.11695375  0.87236945  0.32548711  1
  O  O9  1  0.11695375  0.62763055  0.67451289  1
  O  O10  1  0.88304625  0.12763055  0.67451289  1
  O  O11  1  0.88304625  0.37236945  0.32548711  1
  O  O12  1  0.84281362  0.60888822  0.10075110  1
  O  O13  1  0.84281362  0.89111178  0.89924890  1
  O  O14  1  0.15718638  0.39111178  0.89924890  1
  O  O15  1  0.15718638  0.10888822  0.10075110  1
  O  O16  1  0.32290123  0.03068432  0.80876239  1
  O  O17  1  0.32290123  0.46931568  0.19123761  1
  O  O18  1  0.67709877  0.96931568  0.19123761  1
  O  O19  1  0.67709877  0.53068432  0.80876239  1
  O  O20  1  0.28601368  0.75000000  -0.00000000  1
  O  O21  1  0.71398632  0.25000000  -0.00000000  1
