# generated using pymatgen
data_Al(SiO3)2
_symmetry_space_group_name_H-M   'P 1'
_cell_length_a   9.71377496
_cell_length_b   9.57905991
_cell_length_c   9.56346918
_cell_angle_alpha   94.63304201
_cell_angle_beta   95.04810527
_cell_angle_gamma   94.47840957
_symmetry_Int_Tables_number   1
_chemical_formula_structural   Al(SiO3)2
_chemical_formula_sum   'Al4 Si8 O24'
_cell_volume   880.26326698
_cell_formula_units_Z   4
loop_
 _symmetry_equiv_pos_site_id
 _symmetry_equiv_pos_as_xyz
  1  'x, y, z'
loop_
 _atom_site_type_symbol
 _atom_site_label
 _atom_site_symmetry_multiplicity
 _atom_site_fract_x
 _atom_site_fract_y
 _atom_site_fract_z
 _atom_site_occupancy
  Al  Al0  1  0.66032088  0.12745474  0.88555151  1
  Al  Al1  1  0.88953242  0.65888167  0.12482718  1
  Al  Al2  1  0.12202897  0.89056561  0.66457079  1
  Al  Al3  1  0.33710478  0.87633300  0.10584491  1
  Si  Si4  1  0.89375304  0.12590180  0.66060519  1
  Si  Si5  1  0.66797274  0.89815819  0.12819499  1
  Si  Si6  1  0.12337663  0.65681411  0.89438765  1
  Si  Si7  1  0.10550723  0.87929780  0.33479619  1
  Si  Si8  1  0.09854404  0.33107949  0.87646807  1
  Si  Si9  1  0.33131437  0.11417556  0.87576703  1
  Si  Si10  1  0.88095385  0.10403295  0.33558348  1
  Si  Si11  1  0.88178515  0.32868592  0.10774400  1
  O  O12  1  0.98616275  0.65967862  0.97901604  1
  O  O13  1  0.97579572  0.98581761  0.66484808  1
  O  O14  1  0.66406686  0.98132765  0.98584695  1
  O  O15  1  0.01963724  0.32666560  0.01980234  1
  O  O16  1  0.01939994  0.01965253  0.33715388  1
  O  O17  1  0.33280493  0.02693647  0.01389627  1
  O  O18  1  0.74660240  0.00261445  0.26192613  1
  O  O19  1  0.25976886  0.00678704  0.74516948  1
  O  O20  1  0.25634785  0.73143711  0.99680643  1
  O  O21  1  0.74757039  0.25854596  0.00661953  1
  O  O22  1  0.99657003  0.26022792  0.74007252  1
  O  O23  1  0.00425600  0.74596639  0.26084815  1
  O  O24  1  0.85171987  0.48586260  0.16215670  1
  O  O25  1  0.14777770  0.49212029  0.84909094  1
  O  O26  1  0.15749935  0.84625235  0.49194186  1
  O  O27  1  0.85558977  0.15914895  0.49595563  1
  O  O28  1  0.48862896  0.16631907  0.84954911  1
  O  O29  1  0.50952035  0.85837313  0.16110410  1
  O  O30  1  0.75323710  0.10883918  0.73842128  1
  O  O31  1  0.74763175  0.75781938  0.10638189  1
  O  O32  1  0.10737187  0.74054186  0.75530542  1
  O  O33  1  0.23594563  0.90347160  0.24446782  1
  O  O34  1  0.23705396  0.24744156  0.89669163  1
  O  O35  1  0.90684664  0.23677184  0.24258684  1
