# generated using pymatgen
data_BaDyFe4O7
_symmetry_space_group_name_H-M   'P 1'
_cell_length_a   6.29466197
_cell_length_b   6.44869873
_cell_length_c   9.37838086
_cell_angle_alpha   90.00000000
_cell_angle_beta   90.00000000
_cell_angle_gamma   88.47751574
_symmetry_Int_Tables_number   1
_chemical_formula_structural   BaDyFe4O7
_chemical_formula_sum   'Ba2 Dy2 Fe8 O14'
_cell_volume   380.55639385
_cell_formula_units_Z   2
loop_
 _symmetry_equiv_pos_site_id
 _symmetry_equiv_pos_as_xyz
  1  'x, y, z'
loop_
 _atom_site_type_symbol
 _atom_site_label
 _atom_site_symmetry_multiplicity
 _atom_site_fract_x
 _atom_site_fract_y
 _atom_site_fract_z
 _atom_site_occupancy
  Ba  Ba0  1  0.23840972  0.27097222  0.99843465  1
  Ba  Ba1  1  0.76159028  0.72902778  0.49843465  1
  Dy  Dy2  1  0.74556385  0.25067975  0.24805589  1
  Dy  Dy3  1  0.25443615  0.74932025  0.74805589  1
  Fe  Fe4  1  0.99475560  0.26779245  0.63153208  1
  Fe  Fe5  1  0.00524440  0.73220755  0.13153208  1
  Fe  Fe6  1  0.72795869  0.50174500  0.87481422  1
  Fe  Fe7  1  0.27204131  0.49825500  0.37481422  1
  Fe  Fe8  1  0.76973121  0.00805949  0.87753451  1
  Fe  Fe9  1  0.23026879  0.99194051  0.37753451  1
  Fe  Fe10  1  0.51900998  0.21842442  0.64254832  1
  Fe  Fe11  1  0.48099002  0.78157558  0.14254832  1
  O  O12  1  0.77194499  0.25161054  0.00866206  1
  O  O13  1  0.22805501  0.74838946  0.50866206  1
  O  O14  1  0.76305542  0.26299221  0.49949446  1
  O  O15  1  0.23694458  0.73700779  0.99949446  1
  O  O16  1  0.45941281  0.45560362  0.77319888  1
  O  O17  1  0.54058719  0.54439638  0.27319888  1
  O  O18  1  0.05073758  0.05140144  0.76920333  1
  O  O19  1  0.94926242  0.94859856  0.26920333  1
  O  O20  1  0.55863303  0.93676137  0.72237142  1
  O  O21  1  0.44136697  0.06323863  0.22237142  1
  O  O22  1  0.96860883  0.53328386  0.72651800  1
  O  O23  1  0.03139117  0.46671614  0.22651800  1
  O  O24  1  0.24521511  0.25061356  0.50963220  1
  O  O25  1  0.75478489  0.74938644  0.00963220  1
