# generated using pymatgen
data_CuPPb2SO9
_symmetry_space_group_name_H-M   'P 1'
_cell_length_a   5.75296459
_cell_length_b   8.36852281
_cell_length_c   8.53180750
_cell_angle_alpha   111.44956094
_cell_angle_beta   90.00000000
_cell_angle_gamma   90.00000000
_symmetry_Int_Tables_number   1
_chemical_formula_structural   CuPPb2SO9
_chemical_formula_sum   'Cu2 P2 Pb4 S2 O18'
_cell_volume   382.30489733
_cell_formula_units_Z   2
loop_
 _symmetry_equiv_pos_site_id
 _symmetry_equiv_pos_as_xyz
  1  'x, y, z'
loop_
 _atom_site_type_symbol
 _atom_site_label
 _atom_site_symmetry_multiplicity
 _atom_site_fract_x
 _atom_site_fract_y
 _atom_site_fract_z
 _atom_site_occupancy
  Cu  Cu0  1  0.50000000  0.00000000  0.00000000  1
  Cu  Cu1  1  -0.00000000  0.00000000  0.00000000  1
  P  P2  1  0.25000000  0.97311523  0.66685646  1
  P  P3  1  0.75000000  0.02688477  0.33314354  1
  Pb  Pb4  1  0.75000000  0.28863226  0.75740527  1
  Pb  Pb5  1  0.25000000  0.71136774  0.24259473  1
  Pb  Pb6  1  0.75000000  0.72792610  0.62506328  1
  Pb  Pb7  1  0.25000000  0.27207390  0.37493672  1
  S  S8  1  0.25000000  0.54673216  0.82291389  1
  S  S9  1  0.75000000  0.45326784  0.17708611  1
  O  O10  1  0.47784956  0.00730282  0.78049838  1
  O  O11  1  0.97784956  0.99269718  0.21950162  1
  O  O12  1  0.52215044  0.99269718  0.21950162  1
  O  O13  1  0.02215044  0.00730282  0.78049838  1
  O  O14  1  0.25000000  0.78052896  0.55258435  1
  O  O15  1  0.75000000  0.21947104  0.44741565  1
  O  O16  1  0.25000000  0.09636693  0.57299571  1
  O  O17  1  0.75000000  0.90363307  0.42700429  1
  O  O18  1  0.46216426  0.50336758  0.70947369  1
  O  O19  1  0.96216426  0.49663242  0.29052631  1
  O  O20  1  0.53783574  0.49663242  0.29052631  1
  O  O21  1  0.03783574  0.50336758  0.70947369  1
  O  O22  1  0.25000000  0.44311847  0.93089442  1
  O  O23  1  0.75000000  0.55688153  0.06910558  1
  O  O24  1  0.25000000  0.73325084  0.92812000  1
  O  O25  1  0.75000000  0.26674916  0.07188000  1
  O  O26  1  0.25000000  0.14247500  0.07055354  1
  O  O27  1  0.75000000  0.85752500  0.92944646  1
