# generated using pymatgen
data_Al11O18
_symmetry_space_group_name_H-M   'P 1'
_cell_length_a   5.65138801
_cell_length_b   5.66758830
_cell_length_c   22.86009616
_cell_angle_alpha   90.00000000
_cell_angle_beta   90.00000000
_cell_angle_gamma   60.03658367
_symmetry_Int_Tables_number   1
_chemical_formula_structural   Al11O18
_chemical_formula_sum   'Al22 O36'
_cell_volume   634.33998270
_cell_formula_units_Z   2
loop_
 _symmetry_equiv_pos_site_id
 _symmetry_equiv_pos_as_xyz
  1  'x, y, z'
loop_
 _atom_site_type_symbol
 _atom_site_label
 _atom_site_symmetry_multiplicity
 _atom_site_fract_x
 _atom_site_fract_y
 _atom_site_fract_z
 _atom_site_occupancy
  Al  Al0  1  0.33304205  0.33366116  0.52466149  1
  Al  Al1  1  0.66695795  0.66633884  0.47533851  1
  Al  Al2  1  0.66695795  0.66633884  0.02466149  1
  Al  Al3  1  0.33304205  0.33366116  0.97533851  1
  Al  Al4  1  0.83351107  0.33383955  0.60677345  1
  Al  Al5  1  0.33463026  0.83248409  0.60686604  1
  Al  Al6  1  0.83322126  0.83205594  0.60699569  1
  Al  Al7  1  0.16648893  0.66616045  0.39322655  1
  Al  Al8  1  0.66536974  0.16751591  0.39313396  1
  Al  Al9  1  0.16677874  0.16794406  0.39300431  1
  Al  Al10  1  0.16648893  0.66616045  0.10677345  1
  Al  Al11  1  0.66536974  0.16751591  0.10686604  1
  Al  Al12  1  0.16677874  0.16794406  0.10699569  1
  Al  Al13  1  0.83351107  0.33383955  0.89322655  1
  Al  Al14  1  0.33463026  0.83248409  0.89313396  1
  Al  Al15  1  0.83322126  0.83205594  0.89300431  1
  Al  Al16  1  0.00000000  -0.00000000  0.50000000  1
  Al  Al17  1  0.00000000  -0.00000000  0.00000000  1
  Al  Al18  1  0.33637731  0.33166650  0.67539744  1
  Al  Al19  1  0.66362269  0.66833350  0.32460256  1
  Al  Al20  1  0.66362269  0.66833350  0.17539744  1
  Al  Al21  1  0.33637731  0.33166650  0.82460256  1
  O  O22  1  0.99958444  0.00041653  0.64044456  1
  O  O23  1  0.00041556  0.99958347  0.35955544  1
  O  O24  1  0.00041556  0.99958347  0.14044456  1
  O  O25  1  0.99958444  0.00041653  0.85955544  1
  O  O26  1  0.15738635  0.68479862  0.54953414  1
  O  O27  1  0.68516517  0.15755223  0.54935207  1
  O  O28  1  0.15708880  0.15782430  0.54943703  1
  O  O29  1  0.84261365  0.31520138  0.45046586  1
  O  O30  1  0.31483483  0.84244777  0.45064793  1
  O  O31  1  0.84291120  0.84217570  0.45056297  1
  O  O32  1  0.84261365  0.31520138  0.04953414  1
  O  O33  1  0.31483483  0.84244777  0.04935207  1
  O  O34  1  0.84291120  0.84217570  0.04943703  1
  O  O35  1  0.15738635  0.68479862  0.95046586  1
  O  O36  1  0.68516517  0.15755223  0.95064793  1
  O  O37  1  0.15708880  0.15782430  0.95056297  1
  O  O38  1  0.66737617  0.66623899  0.55562923  1
  O  O39  1  0.33262383  0.33376101  0.44437077  1
  O  O40  1  0.33262383  0.33376101  0.05562923  1
  O  O41  1  0.66737617  0.66623899  0.94437077  1
  O  O42  1  0.50068946  0.99803672  0.64445323  1
  O  O43  1  0.99789301  0.50085247  0.64517155  1
  O  O44  1  0.50145907  0.50188731  0.64447291  1
  O  O45  1  0.49931054  0.00196328  0.35554677  1
  O  O46  1  0.00210699  0.49914753  0.35482845  1
  O  O47  1  0.49854093  0.49811269  0.35552709  1
  O  O48  1  0.49931054  0.00196328  0.14445323  1
  O  O49  1  0.00210699  0.49914753  0.14517155  1
  O  O50  1  0.49854093  0.49811269  0.14447291  1
  O  O51  1  0.50068946  0.99803672  0.85554677  1
  O  O52  1  0.99789301  0.50085247  0.85482845  1
  O  O53  1  0.50145907  0.50188731  0.85552709  1
  O  O54  1  0.70114557  0.58945119  0.75000000  1
  O  O55  1  0.29885443  0.41054881  0.25000000  1
  O  O56  1  0.35653803  0.32540637  0.75000000  1
  O  O57  1  0.64346197  0.67459363  0.25000000  1
