# generated using pymatgen
data_U2S5
_symmetry_space_group_name_H-M   'P 1'
_cell_length_a   7.38491727
_cell_length_b   7.39224556
_cell_length_c   9.91027514
_cell_angle_alpha   90.00000000
_cell_angle_beta   90.00000000
_cell_angle_gamma   90.00000000
_symmetry_Int_Tables_number   1
_chemical_formula_structural   U2S5
_chemical_formula_sum   'U8 S20'
_cell_volume   541.01303823
_cell_formula_units_Z   4
loop_
 _symmetry_equiv_pos_site_id
 _symmetry_equiv_pos_as_xyz
  1  'x, y, z'
loop_
 _atom_site_type_symbol
 _atom_site_label
 _atom_site_symmetry_multiplicity
 _atom_site_fract_x
 _atom_site_fract_y
 _atom_site_fract_z
 _atom_site_occupancy
  U  U0  1  0.76208664  0.48844960  0.14728867  1
  U  U1  1  0.73791336  0.98844960  0.35271133  1
  U  U2  1  0.26208664  0.51155040  0.35271133  1
  U  U3  1  0.23791336  0.01155040  0.14728867  1
  U  U4  1  0.23791336  0.51155040  0.85271133  1
  U  U5  1  0.26208664  0.01155040  0.64728867  1
  U  U6  1  0.73791336  0.48844960  0.64728867  1
  U  U7  1  0.76208664  0.98844960  0.85271133  1
  S  S8  1  0.63250625  0.11707553  0.60633048  1
  S  S9  1  0.86749375  0.61707553  0.89366952  1
  S  S10  1  0.13250625  0.88292447  0.89366952  1
  S  S11  1  0.36749375  0.38292447  0.60633048  1
  S  S12  1  0.36749375  0.88292447  0.39366952  1
  S  S13  1  0.13250625  0.38292447  0.10633048  1
  S  S14  1  0.86749375  0.11707553  0.10633048  1
  S  S15  1  0.63250625  0.61707553  0.39366952  1
  S  S16  1  0.10608755  0.64391901  0.60239407  1
  S  S17  1  0.39391245  0.14391901  0.89760593  1
  S  S18  1  0.60608755  0.35608099  0.89760593  1
  S  S19  1  0.89391245  0.85608099  0.60239407  1
  S  S20  1  0.89391245  0.35608099  0.39760593  1
  S  S21  1  0.60608755  0.85608099  0.10239407  1
  S  S22  1  0.39391245  0.64391901  0.10239407  1
  S  S23  1  0.10608755  0.14391901  0.39760593  1
  S  S24  1  -0.00000000  0.25000000  0.74990193  1
  S  S25  1  0.50000000  0.75000000  0.75009807  1
  S  S26  1  -0.00000000  0.75000000  0.25009807  1
  S  S27  1  0.50000000  0.25000000  0.24990193  1
