# generated using pymatgen
data_Gd3AlVS7
_symmetry_space_group_name_H-M   'P 1'
_cell_length_a   6.04617071
_cell_length_b   9.76800724
_cell_length_c   9.77721434
_cell_angle_alpha   119.97024997
_cell_angle_beta   90.00000000
_cell_angle_gamma   90.00000000
_symmetry_Int_Tables_number   1
_chemical_formula_structural   Gd3AlVS7
_chemical_formula_sum   'Gd6 Al2 V2 S14'
_cell_volume   500.22139249
_cell_formula_units_Z   2
loop_
 _symmetry_equiv_pos_site_id
 _symmetry_equiv_pos_as_xyz
  1  'x, y, z'
loop_
 _atom_site_type_symbol
 _atom_site_label
 _atom_site_symmetry_multiplicity
 _atom_site_fract_x
 _atom_site_fract_y
 _atom_site_fract_z
 _atom_site_occupancy
  Gd  Gd0  1  0.26852117  0.23161372  0.37687287  1
  Gd  Gd1  1  0.27057915  0.62312838  0.85439560  1
  Gd  Gd2  1  0.27039270  0.14464630  0.76855700  1
  Gd  Gd3  1  0.76852117  0.76838628  0.62312713  1
  Gd  Gd4  1  0.77057915  0.37687162  0.14560440  1
  Gd  Gd5  1  0.77039270  0.85535370  0.23144300  1
  Al  Al6  1  0.84298023  0.33331926  0.66704599  1
  Al  Al7  1  0.34298023  0.66668074  0.33295401  1
  V  V8  1  0.44434238  0.00060695  -0.00001735  1
  V  V9  1  0.94434238  0.99939305  0.00001735  1
  S  S10  1  0.69083973  0.13725772  0.22907350  1
  S  S11  1  0.69071213  0.77179284  0.90816204  1
  S  S12  1  0.69204007  0.09158841  0.86324170  1
  S  S13  1  0.19083973  0.86274228  0.77092650  1
  S  S14  1  0.19071213  0.22820716  0.09183796  1
  S  S15  1  0.19204007  0.90841159  0.13675830  1
  S  S16  1  0.99643899  0.09317737  0.51663189  1
  S  S17  1  0.99547339  0.48360102  0.57751126  1
  S  S18  1  0.99678634  0.42318603  0.90664124  1
  S  S19  1  0.49643899  0.90682263  0.48336811  1
  S  S20  1  0.49547339  0.51639898  0.42248874  1
  S  S21  1  0.49678634  0.57681397  0.09335876  1
  S  S22  1  0.47689373  0.33280037  0.66620510  1
  S  S23  1  0.97689373  0.66719963  0.33379490  1
