# generated using pymatgen
data_BaMn2FeSi2O9
_symmetry_space_group_name_H-M   'P 1'
_cell_length_a   5.45585953
_cell_length_b   7.00645284
_cell_length_c   10.89639162
_cell_angle_alpha   108.75386557
_cell_angle_beta   96.12584714
_cell_angle_gamma   90.00000000
_symmetry_Int_Tables_number   1
_chemical_formula_structural   BaMn2FeSi2O9
_chemical_formula_sum   'Ba2 Mn4 Fe2 Si4 O18'
_cell_volume   391.90117568
_cell_formula_units_Z   2
loop_
 _symmetry_equiv_pos_site_id
 _symmetry_equiv_pos_as_xyz
  1  'x, y, z'
loop_
 _atom_site_type_symbol
 _atom_site_label
 _atom_site_symmetry_multiplicity
 _atom_site_fract_x
 _atom_site_fract_y
 _atom_site_fract_z
 _atom_site_occupancy
  Ba  Ba0  1  0.24076034  0.21937634  0.43875268  1
  Ba  Ba1  1  0.75923966  0.78062366  0.56124732  1
  Mn  Mn2  1  -0.00000000  0.76374578  -0.00000000  1
  Mn  Mn3  1  -0.00000000  0.23625422  -0.00000000  1
  Mn  Mn4  1  0.50000000  -0.00000000  -0.00000000  1
  Mn  Mn5  1  0.50000000  0.50000000  -0.00000000  1
  Fe  Fe6  1  0.21260593  0.64114936  0.28229873  1
  Fe  Fe7  1  0.78739407  0.35885064  0.71770127  1
  Si  Si8  1  0.70829362  0.90929782  0.27160584  1
  Si  Si9  1  0.70829362  0.36230801  0.27160584  1
  Si  Si10  1  0.29170638  0.09070218  0.72839416  1
  Si  Si11  1  0.29170638  0.63769199  0.72839416  1
  O  O12  1  0.20473973  0.04227218  0.08454436  1
  O  O13  1  0.79526027  0.95772782  0.91545564  1
  O  O14  1  0.72049752  0.15920889  0.31841777  1
  O  O15  1  0.27950248  0.84079111  0.68158223  1
  O  O16  1  0.67366804  0.81415414  0.11198181  1
  O  O17  1  0.67366804  0.29782768  0.11198181  1
  O  O18  1  0.32633196  0.18584586  0.88801819  1
  O  O19  1  0.32633196  0.70217232  0.88801819  1
  O  O20  1  0.97232514  0.85906889  0.33788404  1
  O  O21  1  0.97232514  0.47881515  0.33788404  1
  O  O22  1  0.02767486  0.14093111  0.66211596  1
  O  O23  1  0.02767486  0.52118485  0.66211596  1
  O  O24  1  0.47614612  0.86011676  0.34065535  1
  O  O25  1  0.47614612  0.48053858  0.34065535  1
  O  O26  1  0.52385388  0.13988324  0.65934465  1
  O  O27  1  0.52385388  0.51946142  0.65934465  1
  O  O28  1  0.17459426  0.54887624  0.09775248  1
  O  O29  1  0.82540574  0.45112376  0.90224752  1
