# generated using pymatgen
data_Lu5Mg24
_symmetry_space_group_name_H-M   'P 1'
_cell_length_a   9.68308995
_cell_length_b   9.68308995
_cell_length_c   9.68308995
_cell_angle_alpha   109.47122063
_cell_angle_beta   109.47122063
_cell_angle_gamma   109.47122063
_symmetry_Int_Tables_number   1
_chemical_formula_structural   Lu5Mg24
_chemical_formula_sum   'Lu5 Mg24'
_cell_volume   698.90799423
_cell_formula_units_Z   1
loop_
 _symmetry_equiv_pos_site_id
 _symmetry_equiv_pos_as_xyz
  1  'x, y, z'
loop_
 _atom_site_type_symbol
 _atom_site_label
 _atom_site_symmetry_multiplicity
 _atom_site_fract_x
 _atom_site_fract_y
 _atom_site_fract_z
 _atom_site_occupancy
  Lu  Lu0  1  -0.00000000  -0.00000000  -0.00000000  1
  Lu  Lu1  1  0.63402437  -0.00000000  -0.00000000  1
  Lu  Lu2  1  0.00000000  0.63402437  -0.00000000  1
  Lu  Lu3  1  -0.00000000  0.00000000  0.63402437  1
  Lu  Lu4  1  0.36597563  0.36597563  0.36597563  1
  Mg  Mg5  1  0.39459220  0.68056037  0.00000000  1
  Mg  Mg6  1  0.71403183  0.31943963  0.31943963  1
  Mg  Mg7  1  0.39459220  0.00000000  0.68056037  1
  Mg  Mg8  1  0.68056037  0.39459220  -0.00000000  1
  Mg  Mg9  1  -0.00000000  0.39459220  0.68056037  1
  Mg  Mg10  1  0.31943963  0.71403183  0.31943963  1
  Mg  Mg11  1  0.31943963  0.31943963  0.71403183  1
  Mg  Mg12  1  -0.00000000  0.68056037  0.39459220  1
  Mg  Mg13  1  0.68056037  0.00000000  0.39459220  1
  Mg  Mg14  1  0.60540780  0.60540780  0.28596817  1
  Mg  Mg15  1  0.28596817  0.60540780  0.60540780  1
  Mg  Mg16  1  0.60540780  0.28596817  0.60540780  1
  Mg  Mg17  1  0.36991436  0.19067449  0.00000000  1
  Mg  Mg18  1  0.17923987  0.80932551  0.80932551  1
  Mg  Mg19  1  0.36991436  0.00000000  0.19067449  1
  Mg  Mg20  1  0.19067449  0.36991436  -0.00000000  1
  Mg  Mg21  1  -0.00000000  0.36991436  0.19067449  1
  Mg  Mg22  1  0.80932551  0.17923987  0.80932551  1
  Mg  Mg23  1  0.80932551  0.80932551  0.17923987  1
  Mg  Mg24  1  -0.00000000  0.19067449  0.36991436  1
  Mg  Mg25  1  0.19067449  -0.00000000  0.36991436  1
  Mg  Mg26  1  0.63008564  0.63008564  0.82076013  1
  Mg  Mg27  1  0.82076013  0.63008564  0.63008564  1
  Mg  Mg28  1  0.63008564  0.82076013  0.63008564  1
