# generated using pymatgen
data_Li3Al(BO3)2
_symmetry_space_group_name_H-M   'P 1'
_cell_length_a   4.92683028
_cell_length_b   6.62785233
_cell_length_c   8.24559966
_cell_angle_alpha   109.95270991
_cell_angle_beta   89.88885704
_cell_angle_gamma   90.59036839
_symmetry_Int_Tables_number   1
_chemical_formula_structural   Li3Al(BO3)2
_chemical_formula_sum   'Li6 Al2 B4 O12'
_cell_volume   253.07842297
_cell_formula_units_Z   2
loop_
 _symmetry_equiv_pos_site_id
 _symmetry_equiv_pos_as_xyz
  1  'x, y, z'
loop_
 _atom_site_type_symbol
 _atom_site_label
 _atom_site_symmetry_multiplicity
 _atom_site_fract_x
 _atom_site_fract_y
 _atom_site_fract_z
 _atom_site_occupancy
  Li  Li0  1  0.66183113  0.40497734  0.57686148  1
  Li  Li1  1  0.33816887  0.59502266  0.42313852  1
  Li  Li2  1  0.14982304  0.55765238  0.72222899  1
  Li  Li3  1  0.85017696  0.44234762  0.27777101  1
  Li  Li4  1  0.87721349  0.26179613  0.85895960  1
  Li  Li5  1  0.12278651  0.73820387  0.14104040  1
  Al  Al6  1  0.62043507  0.04528898  0.22694918  1
  Al  Al7  1  0.37956493  0.95471102  0.77305082  1
  B  B8  1  0.14839428  0.17801512  0.40518438  1
  B  B9  1  0.85160572  0.82198488  0.59481562  1
  B  B10  1  0.66110493  0.68867906  0.92541755  1
  B  B11  1  0.33889507  0.31132094  0.07458245  1
  O  O12  1  0.75400396  0.79746700  0.09275520  1
  O  O13  1  0.24599604  0.20253300  0.90724480  1
  O  O14  1  0.86402699  0.17786625  0.38728287  1
  O  O15  1  0.13597301  0.82213375  0.61271713  1
  O  O16  1  0.27934207  0.34796487  0.51781022  1
  O  O17  1  0.72065793  0.65203513  0.48218978  1
  O  O18  1  0.80183368  0.52326979  0.81580853  1
  O  O19  1  0.19816632  0.47673021  0.18419147  1
  O  O20  1  0.41361799  0.75876809  0.87783828  1
  O  O21  1  0.58638201  0.24123191  0.12216172  1
  O  O22  1  0.29057666  0.00157168  0.29467694  1
  O  O23  1  0.70942334  0.99842832  0.70532306  1
