# generated using pymatgen
data_BaHoFe4O7
_symmetry_space_group_name_H-M   'P 1'
_cell_length_a   6.28908809
_cell_length_b   6.40844960
_cell_length_c   9.34999481
_cell_angle_alpha   90.00000000
_cell_angle_beta   90.00000000
_cell_angle_gamma   88.34978818
_symmetry_Int_Tables_number   1
_chemical_formula_structural   BaHoFe4O7
_chemical_formula_sum   'Ba2 Ho2 Fe8 O14'
_cell_volume   376.67939578
_cell_formula_units_Z   2
loop_
 _symmetry_equiv_pos_site_id
 _symmetry_equiv_pos_as_xyz
  1  'x, y, z'
loop_
 _atom_site_type_symbol
 _atom_site_label
 _atom_site_symmetry_multiplicity
 _atom_site_fract_x
 _atom_site_fract_y
 _atom_site_fract_z
 _atom_site_occupancy
  Ba  Ba0  1  0.23979185  0.26746045  0.99743774  1
  Ba  Ba1  1  0.76020815  0.73253955  0.49743774  1
  Ho  Ho2  1  0.74540049  0.25066266  0.24740282  1
  Ho  Ho3  1  0.25459951  0.74933734  0.74740282  1
  Fe  Fe4  1  0.99550425  0.26759536  0.63155267  1
  Fe  Fe5  1  0.00449575  0.73240464  0.13155267  1
  Fe  Fe6  1  0.72867706  0.49935203  0.87385841  1
  Fe  Fe7  1  0.27132294  0.50064797  0.37385841  1
  Fe  Fe8  1  0.76926589  0.00630407  0.87857834  1
  Fe  Fe9  1  0.23073411  0.99369593  0.37857834  1
  Fe  Fe10  1  0.52206525  0.21790314  0.64213314  1
  Fe  Fe11  1  0.47793475  0.78209686  0.14213314  1
  O  O12  1  0.76392537  0.25077798  0.00890765  1
  O  O13  1  0.23607463  0.74922202  0.50890765  1
  O  O14  1  0.76123544  0.25864896  0.49848728  1
  O  O15  1  0.23876456  0.74135104  0.99848728  1
  O  O16  1  0.45473305  0.45420996  0.77312818  1
  O  O17  1  0.54526695  0.54579004  0.27312818  1
  O  O18  1  0.04979205  0.04939631  0.76817821  1
  O  O19  1  0.95020795  0.95060369  0.26817821  1
  O  O20  1  0.55622415  0.93631303  0.72369668  1
  O  O21  1  0.44377585  0.06368697  0.22369668  1
  O  O22  1  0.96736967  0.53546373  0.72525918  1
  O  O23  1  0.03263033  0.46453627  0.22525918  1
  O  O24  1  0.24551896  0.25390256  0.51037970  1
  O  O25  1  0.75448104  0.74609744  0.01037970  1
