# generated using pymatgen
data_CuH6Pb4(SO7)2
_symmetry_space_group_name_H-M   'P 1'
_cell_length_a   5.92357969
_cell_length_b   8.12419636
_cell_length_c   8.12031547
_cell_angle_alpha   112.59806998
_cell_angle_beta   97.05163851
_cell_angle_gamma   101.24966536
_symmetry_Int_Tables_number   1
_chemical_formula_structural   CuH6Pb4(SO7)2
_chemical_formula_sum   'Cu1 H6 Pb4 S2 O14'
_cell_volume   345.31003876
_cell_formula_units_Z   1
loop_
 _symmetry_equiv_pos_site_id
 _symmetry_equiv_pos_as_xyz
  1  'x, y, z'
loop_
 _atom_site_type_symbol
 _atom_site_label
 _atom_site_symmetry_multiplicity
 _atom_site_fract_x
 _atom_site_fract_y
 _atom_site_fract_z
 _atom_site_occupancy
  Cu  Cu0  1  -0.00000000  -0.00000000  -0.00000000  1
  H  H1  1  0.84304478  0.65732034  0.80359099  1
  H  H2  1  0.15695522  0.34267966  0.19640901  1
  H  H3  1  0.78090181  0.08320113  0.24868427  1
  H  H4  1  0.21909819  0.91679887  0.75131573  1
  H  H5  1  0.81929732  0.41918623  0.44595128  1
  H  H6  1  0.18070268  0.58081377  0.55404872  1
  Pb  Pb7  1  0.63233572  0.74499264  0.51164260  1
  Pb  Pb8  1  0.36766428  0.25500736  0.48835740  1
  Pb  Pb9  1  0.44061037  0.72996996  0.95377960  1
  Pb  Pb10  1  0.55938963  0.27003004  0.04622040  1
  S  S11  1  0.93917908  0.26456441  0.72099911  1
  S  S12  1  0.06082092  0.73543559  0.27900089  1
  O  O13  1  0.78922871  0.76805861  0.81353484  1
  O  O14  1  0.21077129  0.23194139  0.18646516  1
  O  O15  1  0.72543488  0.04485575  0.11703518  1
  O  O16  1  0.27456512  0.95514425  0.88296482  1
  O  O17  1  0.67290112  0.43619352  0.39336623  1
  O  O18  1  0.32709888  0.56380648  0.60663377  1
  O  O19  1  0.19556219  0.31810961  0.80770956  1
  O  O20  1  0.80443781  0.68189039  0.19229044  1
  O  O21  1  0.83751929  0.42644433  0.78168582  1
  O  O22  1  0.16248071  0.57355567  0.21831418  1
  O  O23  1  0.91419466  0.18860789  0.51644507  1
  O  O24  1  0.08580534  0.81139211  0.48355493  1
  O  O25  1  0.80495152  0.12003717  0.77054774  1
  O  O26  1  0.19504848  0.87996283  0.22945226  1
