# generated using pymatgen
data_AgB3O5
_symmetry_space_group_name_H-M   'P 1'
_cell_length_a   3.93623356
_cell_length_b   8.39685396
_cell_length_c   10.39231167
_cell_angle_alpha   90.00000000
_cell_angle_beta   90.00000000
_cell_angle_gamma   90.00000000
_symmetry_Int_Tables_number   1
_chemical_formula_structural   AgB3O5
_chemical_formula_sum   'Ag4 B12 O20'
_cell_volume   343.48646038
_cell_formula_units_Z   4
loop_
 _symmetry_equiv_pos_site_id
 _symmetry_equiv_pos_as_xyz
  1  'x, y, z'
loop_
 _atom_site_type_symbol
 _atom_site_label
 _atom_site_symmetry_multiplicity
 _atom_site_fract_x
 _atom_site_fract_y
 _atom_site_fract_z
 _atom_site_occupancy
  Ag  Ag0  1  0.74174591  0.40802513  0.42045302  1
  Ag  Ag1  1  0.24174591  0.59197487  0.57954698  1
  Ag  Ag2  1  0.24174591  0.90802513  0.07954698  1
  Ag  Ag3  1  0.74174591  0.09197487  0.92045302  1
  B  B4  1  0.09149803  0.24719793  0.66243464  1
  B  B5  1  0.59149803  0.75280207  0.33756536  1
  B  B6  1  0.59149803  0.74719793  0.83756536  1
  B  B7  1  0.09149803  0.25280207  0.16243464  1
  B  B8  1  0.27971118  0.96091160  0.68729975  1
  B  B9  1  0.77971118  0.03908840  0.31270025  1
  B  B10  1  0.77971118  0.46091160  0.81270025  1
  B  B11  1  0.27971118  0.53908840  0.18729975  1
  B  B12  1  0.82214845  0.89903713  0.52894145  1
  B  B13  1  0.32214845  0.10096287  0.47105855  1
  B  B14  1  0.32214845  0.39903713  0.97105855  1
  B  B15  1  0.82214845  0.60096287  0.02894145  1
  O  O16  1  0.18693162  0.24515855  0.53347866  1
  O  O17  1  0.68693162  0.75484145  0.46652134  1
  O  O18  1  0.68693162  0.74515855  0.96652134  1
  O  O19  1  0.18693162  0.25484145  0.03347866  1
  O  O20  1  0.95755217  0.39015029  0.70379365  1
  O  O21  1  0.45755217  0.60984971  0.29620635  1
  O  O22  1  0.45755217  0.89015029  0.79620635  1
  O  O23  1  0.95755217  0.10984971  0.20379365  1
  O  O24  1  0.13180342  0.11279077  0.73515166  1
  O  O25  1  0.63180342  0.88720923  0.26484834  1
  O  O26  1  0.63180342  0.61279077  0.76484834  1
  O  O27  1  0.13180342  0.38720923  0.23515166  1
  O  O28  1  0.02815775  0.85532131  0.63456500  1
  O  O29  1  0.52815775  0.14467869  0.36543500  1
  O  O30  1  0.52815775  0.35532131  0.86543500  1
  O  O31  1  0.02815775  0.64467869  0.13456500  1
  O  O32  1  0.52115145  0.00702587  0.57257801  1
  O  O33  1  0.02115145  0.99297413  0.42742199  1
  O  O34  1  0.02115145  0.50702587  0.92742199  1
  O  O35  1  0.52115145  0.49297413  0.07257801  1
