# generated using pymatgen
data_Na4Ga4Si19
_symmetry_space_group_name_H-M   'P 1'
_cell_length_a   10.37641007
_cell_length_b   10.39429193
_cell_length_c   10.40814878
_cell_angle_alpha   89.96858063
_cell_angle_beta   89.83174143
_cell_angle_gamma   89.85360618
_symmetry_Int_Tables_number   1
_chemical_formula_structural   Na4Ga4Si19
_chemical_formula_sum   'Na8 Ga8 Si38'
_cell_volume   1122.56674902
_cell_formula_units_Z   2
loop_
 _symmetry_equiv_pos_site_id
 _symmetry_equiv_pos_as_xyz
  1  'x, y, z'
loop_
 _atom_site_type_symbol
 _atom_site_label
 _atom_site_symmetry_multiplicity
 _atom_site_fract_x
 _atom_site_fract_y
 _atom_site_fract_z
 _atom_site_occupancy
  Na  Na0  1  0.00092421  0.00145238  0.99884477  1
  Na  Na1  1  0.74998039  0.49873393  0.00028045  1
  Na  Na2  1  0.24959975  0.49916495  0.00044263  1
  Na  Na3  1  0.99968937  0.74956217  0.50101846  1
  Na  Na4  1  0.00013412  0.25014789  0.50009464  1
  Na  Na5  1  0.49927738  0.00107379  0.75127932  1
  Na  Na6  1  0.49909300  0.00028566  0.24915777  1
  Na  Na7  1  0.50049816  0.49948071  0.49923082  1
  Ga  Ga8  1  0.25136900  0.99957889  0.50016656  1
  Ga  Ga9  1  0.99958843  0.49979039  0.24985486  1
  Ga  Ga10  1  0.49944552  0.74956972  0.00080870  1
  Ga  Ga11  1  0.88254382  0.99941144  0.69082297  1
  Ga  Ga12  1  0.99984679  0.30896309  0.88311523  1
  Ga  Ga13  1  0.30925536  0.11698312  0.99998089  1
  Ga  Ga14  1  0.49989868  0.38296406  0.19136005  1
  Ga  Ga15  1  0.80891385  0.50046956  0.61664163  1
  Si  Si16  1  0.74704676  0.99957328  0.49617691  1
  Si  Si17  1  0.00382753  0.50401980  0.75006974  1
  Si  Si18  1  0.50337989  0.25093112  0.99727720  1
  Si  Si19  1  0.81389306  0.81374637  0.81822995  1
  Si  Si20  1  0.18583250  0.18220037  0.81148939  1
  Si  Si21  1  0.81701414  0.18380024  0.18516936  1
  Si  Si22  1  0.18277321  0.81587448  0.18291807  1
  Si  Si23  1  0.31590495  0.31516757  0.68290860  1
  Si  Si24  1  0.68178548  0.68678881  0.68612299  1
  Si  Si25  1  0.68718213  0.31574187  0.31761047  1
  Si  Si26  1  0.31697065  0.68391240  0.31721941  1
  Si  Si27  1  0.18085676  0.18385360  0.18878278  1
  Si  Si28  1  0.81594131  0.81609330  0.18325077  1
  Si  Si29  1  0.18427744  0.81704530  0.81677489  1
  Si  Si30  1  0.81129274  0.18487317  0.81687460  1
  Si  Si31  1  0.68342734  0.68332421  0.31591293  1
  Si  Si32  1  0.31205676  0.31597614  0.31872337  1
  Si  Si33  1  0.31687512  0.68369291  0.68403447  1
  Si  Si34  1  0.68211346  0.31215513  0.68477666  1
  Si  Si35  1  0.11947844  0.99958021  0.69403186  1
  Si  Si36  1  0.88030173  0.99897875  0.30562037  1
  Si  Si37  1  0.11489186  0.99910902  0.30568211  1
  Si  Si38  1  0.00007198  0.69411331  0.88099652  1
  Si  Si39  1  0.00019598  0.69516284  0.11468876  1
  Si  Si40  1  0.00000577  0.30470312  0.11955536  1
  Si  Si41  1  0.69520994  0.88489402  0.00090886  1
  Si  Si42  1  0.69390761  0.11905270  0.00045496  1
  Si  Si43  1  0.30438161  0.88055831  0.00003807  1
  Si  Si44  1  0.49952311  0.38041365  0.80539164  1
  Si  Si45  1  0.49949967  0.61509191  0.80456526  1
  Si  Si46  1  0.50028358  0.61955837  0.19570953  1
  Si  Si47  1  0.19446960  0.50132169  0.61888579  1
  Si  Si48  1  0.19478723  0.50096218  0.38583996  1
  Si  Si49  1  0.80483196  0.50011226  0.38154251  1
  Si  Si50  1  0.38456421  0.19578097  0.49907270  1
  Si  Si51  1  0.61805359  0.19346382  0.49950279  1
  Si  Si52  1  0.38503809  0.80402577  0.49988791  1
  Si  Si53  1  0.61799498  0.80671528  0.50020273  1
