# generated using pymatgen
data_SbH3NF6
_symmetry_space_group_name_H-M   'P 1'
_cell_length_a   7.26514250
_cell_length_b   7.26514250
_cell_length_c   10.90749978
_cell_angle_alpha   91.50303387
_cell_angle_beta   91.50303387
_cell_angle_gamma   117.40825494
_symmetry_Int_Tables_number   1
_chemical_formula_structural   SbH3NF6
_chemical_formula_sum   'Sb4 H12 N4 F24'
_cell_volume   510.44545565
_cell_formula_units_Z   4
loop_
 _symmetry_equiv_pos_site_id
 _symmetry_equiv_pos_as_xyz
  1  'x, y, z'
loop_
 _atom_site_type_symbol
 _atom_site_label
 _atom_site_symmetry_multiplicity
 _atom_site_fract_x
 _atom_site_fract_y
 _atom_site_fract_z
 _atom_site_occupancy
  Sb  Sb0  1  0.50000000  0.50000000  -0.00000000  1
  Sb  Sb1  1  0.50000000  0.50000000  0.50000000  1
  Sb  Sb2  1  0.15340756  0.84659244  0.75000000  1
  Sb  Sb3  1  0.84659244  0.15340756  0.25000000  1
  H  H4  1  0.25084769  0.00381322  0.16587085  1
  H  H5  1  0.99618678  0.74915231  0.33412915  1
  H  H6  1  0.74915231  0.99618678  0.83412915  1
  H  H7  1  0.00381322  0.25084769  0.66587085  1
  H  H8  1  0.02849940  0.77678519  0.13930835  1
  H  H9  1  0.22321481  0.97150060  0.36069165  1
  H  H10  1  0.97150060  0.22321481  0.86069165  1
  H  H11  1  0.77678519  0.02849940  0.63930835  1
  H  H12  1  0.26281389  0.77447467  0.15234436  1
  H  H13  1  0.22552533  0.73718611  0.34765564  1
  H  H14  1  0.73718611  0.22552533  0.84765564  1
  H  H15  1  0.77447467  0.26281389  0.65234436  1
  N  N16  1  0.17584256  0.84674861  0.18391933  1
  N  N17  1  0.15325139  0.82415744  0.31608067  1
  N  N18  1  0.82415744  0.15325139  0.81608067  1
  N  N19  1  0.84674861  0.17584256  0.68391933  1
  F  F20  1  0.47345150  0.29659608  0.11464232  1
  F  F21  1  0.70340392  0.52654850  0.38535768  1
  F  F22  1  0.52654850  0.70340392  0.88535768  1
  F  F23  1  0.29659608  0.47345150  0.61464232  1
  F  F24  1  0.21572643  0.33043737  0.94274110  1
  F  F25  1  0.66956263  0.78427357  0.55725890  1
  F  F26  1  0.78427357  0.66956263  0.05725890  1
  F  F27  1  0.33043737  0.21572643  0.44274110  1
  F  F28  1  0.40270560  0.63841804  0.11582910  1
  F  F29  1  0.36158196  0.59729440  0.38417090  1
  F  F30  1  0.59729440  0.36158196  0.88417090  1
  F  F31  1  0.63841804  0.40270560  0.61582910  1
  F  F32  1  0.87684784  0.79827670  0.78262411  1
  F  F33  1  0.20172330  0.12315216  0.71737589  1
  F  F34  1  0.12315216  0.20172330  0.21737589  1
  F  F35  1  0.79827670  0.87684784  0.28262411  1
  F  F36  1  0.07369504  0.56201001  0.78209047  1
  F  F37  1  0.43798999  0.92630496  0.71790953  1
  F  F38  1  0.92630496  0.43798999  0.21790953  1
  F  F39  1  0.56201001  0.07369504  0.28209047  1
  F  F40  1  0.22972261  0.91372263  0.92147495  1
  F  F41  1  0.08627737  0.77027739  0.57852505  1
  F  F42  1  0.77027739  0.08627737  0.07852505  1
  F  F43  1  0.91372263  0.22972261  0.42147495  1
