# generated using pymatgen
data_AgSb3PbS6
_symmetry_space_group_name_H-M   'P 1'
_cell_length_a   5.46325899
_cell_length_b   13.01242540
_cell_length_c   11.76675483
_cell_angle_alpha   113.64228428
_cell_angle_beta   90.00000000
_cell_angle_gamma   90.00000000
_symmetry_Int_Tables_number   1
_chemical_formula_structural   AgSb3PbS6
_chemical_formula_sum   'Ag2 Sb6 Pb2 S12'
_cell_volume   766.29147772
_cell_formula_units_Z   2
loop_
 _symmetry_equiv_pos_site_id
 _symmetry_equiv_pos_as_xyz
  1  'x, y, z'
loop_
 _atom_site_type_symbol
 _atom_site_label
 _atom_site_symmetry_multiplicity
 _atom_site_fract_x
 _atom_site_fract_y
 _atom_site_fract_z
 _atom_site_occupancy
  Ag  Ag0  1  0.38428538  0.94352404  0.25647042  1
  Ag  Ag1  1  0.61571462  0.44352404  0.75647042  1
  Sb  Sb2  1  0.63833792  0.70324253  0.04430250  1
  Sb  Sb3  1  0.71193723  0.77247620  0.49901009  1
  Sb  Sb4  1  0.28097041  0.54950024  0.24433062  1
  Sb  Sb5  1  0.71902959  0.04950024  0.74433062  1
  Sb  Sb6  1  0.28806277  0.27247620  0.99901009  1
  Sb  Sb7  1  0.36166208  0.20324253  0.54430250  1
  Pb  Pb8  1  0.66281045  0.25566005  0.28708597  1
  Pb  Pb9  1  0.33718955  0.75566005  0.78708597  1
  S  S10  1  0.54084008  0.10225890  0.95561241  1
  S  S11  1  0.51951026  0.37357067  0.53088446  1
  S  S12  1  0.48048974  0.87357067  0.03088446  1
  S  S13  1  0.45915992  0.60225890  0.45561241  1
  S  S14  1  0.19208157  0.29018536  0.20994936  1
  S  S15  1  0.80791843  0.79018536  0.70994936  1
  S  S16  1  0.59263144  0.43286616  0.09095994  1
  S  S17  1  0.40736856  0.93286616  0.59095994  1
  S  S18  1  0.34813368  0.58910414  0.88760611  1
  S  S19  1  0.65186632  0.08910414  0.38760611  1
  S  S20  1  0.41143983  0.73761170  0.24378813  1
  S  S21  1  0.58856017  0.23761170  0.74378813  1
