# generated using pymatgen
data_Sb5IO7
_symmetry_space_group_name_H-M   'P 1'
_cell_length_a   6.91436058
_cell_length_b   11.91578112
_cell_length_c   13.04907229
_cell_angle_alpha   90.00000000
_cell_angle_beta   90.00000000
_cell_angle_gamma   89.99725437
_symmetry_Int_Tables_number   1
_chemical_formula_structural   Sb5IO7
_chemical_formula_sum   'Sb20 I4 O28'
_cell_volume   1075.11315975
_cell_formula_units_Z   4
loop_
 _symmetry_equiv_pos_site_id
 _symmetry_equiv_pos_as_xyz
  1  'x, y, z'
loop_
 _atom_site_type_symbol
 _atom_site_label
 _atom_site_symmetry_multiplicity
 _atom_site_fract_x
 _atom_site_fract_y
 _atom_site_fract_z
 _atom_site_occupancy
  Sb  Sb0  1  0.98077635  0.08874861  0.48118337  1
  Sb  Sb1  1  0.48077635  0.58874861  0.51881663  1
  Sb  Sb2  1  0.92294129  0.06874142  0.00479711  1
  Sb  Sb3  1  0.42294129  0.56874142  0.99520289  1
  Sb  Sb4  1  0.44432406  0.23334416  0.49394857  1
  Sb  Sb5  1  0.94432406  0.73334416  0.50605143  1
  Sb  Sb6  1  0.43877660  0.26619907  0.00531857  1
  Sb  Sb7  1  0.93877660  0.76619907  0.99468143  1
  Sb  Sb8  1  0.92999835  0.43144936  0.49455758  1
  Sb  Sb9  1  0.42999835  0.93144936  0.50544242  1
  Sb  Sb10  1  0.97709766  0.40993009  0.01612142  1
  Sb  Sb11  1  0.47709766  0.90993009  0.98387858  1
  Sb  Sb12  1  0.29015257  0.41991492  0.30918955  1
  Sb  Sb13  1  0.79015257  0.91991492  0.69081045  1
  Sb  Sb14  1  0.27901307  0.41699513  0.69952454  1
  Sb  Sb15  1  0.77901307  0.91699513  0.30047546  1
  Sb  Sb16  1  0.78252271  0.58071124  0.80883529  1
  Sb  Sb17  1  0.28252271  0.08071124  0.19116471  1
  Sb  Sb18  1  0.77565694  0.58111798  0.19909588  1
  Sb  Sb19  1  0.27565694  0.08111798  0.80090412  1
  I  I20  1  0.74082404  0.24954864  0.25000054  1
  I  I21  1  0.24082404  0.74954864  0.74999946  1
  I  I22  1  0.82604982  0.24972873  0.74937334  1
  I  I23  1  0.32604982  0.74972873  0.25062666  1
  O  O24  1  0.28556675  0.08342092  0.49506070  1
  O  O25  1  0.78556675  0.58342092  0.50493930  1
  O  O26  1  0.27943127  0.41604469  0.00266467  1
  O  O27  1  0.77943127  0.91604469  0.99733533  1
  O  O28  1  0.48047696  0.45970791  0.42124102  1
  O  O29  1  0.98047696  0.95970791  0.57875898  1
  O  O30  1  0.51711418  0.48749335  0.63741691  1
  O  O31  1  0.01711418  0.98749335  0.36258309  1
  O  O32  1  0.55988091  0.50271405  0.87592509  1
  O  O33  1  0.05988091  0.00271405  0.12407491  1
  O  O34  1  0.61605406  0.50176520  0.09014400  1
  O  O35  1  0.11605406  0.00176520  0.90985600  1
  O  O36  1  0.06427547  0.49687818  0.37394185  1
  O  O37  1  0.56427547  0.99687818  0.62605815  1
  O  O38  1  0.12847255  0.49749226  0.58744782  1
  O  O39  1  0.62847255  0.99749226  0.41255218  1
  O  O40  1  0.97580201  0.53901741  0.91885163  1
  O  O41  1  0.47580201  0.03901741  0.08114837  1
  O  O42  1  0.01213313  0.51130427  0.13501792  1
  O  O43  1  0.51213313  0.01130427  0.86498208  1
  O  O44  1  0.23985039  0.27980947  0.39267008  1
  O  O45  1  0.73985039  0.77980947  0.60732992  1
  O  O46  1  0.29317353  0.27676039  0.61641298  1
  O  O47  1  0.79317353  0.77676039  0.38358702  1
  O  O48  1  0.28775235  0.22239606  0.88286217  1
  O  O49  1  0.78775235  0.72239606  0.11713783  1
  O  O50  1  0.23285298  0.21956648  0.10531169  1
  O  O51  1  0.73285298  0.71956648  0.89468831  1
