# generated using pymatgen
data_Ba3Zn2B3O9F
_symmetry_space_group_name_H-M   'P 1'
_cell_length_a   7.11399006
_cell_length_b   8.51747233
_cell_length_c   17.60450487
_cell_angle_alpha   90.00000000
_cell_angle_beta   90.00000000
_cell_angle_gamma   90.00000000
_symmetry_Int_Tables_number   1
_chemical_formula_structural   Ba3Zn2B3O9F
_chemical_formula_sum   'Ba12 Zn8 B12 O36 F4'
_cell_volume   1066.71352201
_cell_formula_units_Z   4
loop_
 _symmetry_equiv_pos_site_id
 _symmetry_equiv_pos_as_xyz
  1  'x, y, z'
loop_
 _atom_site_type_symbol
 _atom_site_label
 _atom_site_symmetry_multiplicity
 _atom_site_fract_x
 _atom_site_fract_y
 _atom_site_fract_z
 _atom_site_occupancy
  Ba  Ba0  1  0.36101340  0.79490798  0.25000000  1
  Ba  Ba1  1  0.13898660  0.29490798  0.25000000  1
  Ba  Ba2  1  0.63898660  0.20509202  0.75000000  1
  Ba  Ba3  1  0.86101340  0.70509202  0.75000000  1
  Ba  Ba4  1  0.65393098  0.44894976  0.37924848  1
  Ba  Ba5  1  0.84606902  0.94894976  0.12075152  1
  Ba  Ba6  1  0.34606902  0.55105024  0.87924848  1
  Ba  Ba7  1  0.15393098  0.05105024  0.62075152  1
  Ba  Ba8  1  0.34606902  0.55105024  0.62075152  1
  Ba  Ba9  1  0.15393098  0.05105024  0.87924848  1
  Ba  Ba10  1  0.65393098  0.44894976  0.12075152  1
  Ba  Ba11  1  0.84606902  0.94894976  0.37924848  1
  Zn  Zn12  1  0.40633821  0.07192507  0.41681145  1
  Zn  Zn13  1  0.09366179  0.57192507  0.08318855  1
  Zn  Zn14  1  0.59366179  0.92807493  0.91681145  1
  Zn  Zn15  1  0.90633821  0.42807493  0.58318855  1
  Zn  Zn16  1  0.59366179  0.92807493  0.58318855  1
  Zn  Zn17  1  0.90633821  0.42807493  0.91681145  1
  Zn  Zn18  1  0.40633821  0.07192507  0.08318855  1
  Zn  Zn19  1  0.09366179  0.57192507  0.41681145  1
  B  B20  1  0.92923885  0.68609781  0.25000000  1
  B  B21  1  0.57076115  0.18609781  0.25000000  1
  B  B22  1  0.07076115  0.31390219  0.75000000  1
  B  B23  1  0.42923885  0.81390219  0.75000000  1
  B  B24  1  0.59712056  0.24335308  0.54008786  1
  B  B25  1  0.90287944  0.74335308  0.95991214  1
  B  B26  1  0.40287944  0.75664692  0.04008786  1
  B  B27  1  0.09712056  0.25664692  0.45991214  1
  B  B28  1  0.40287944  0.75664692  0.45991214  1
  B  B29  1  0.09712056  0.25664692  0.04008786  1
  B  B30  1  0.59712056  0.24335308  0.95991214  1
  B  B31  1  0.90287944  0.74335308  0.54008786  1
  O  O32  1  0.47090276  0.84764863  0.40037427  1
  O  O33  1  0.02909724  0.34764863  0.09962573  1
  O  O34  1  0.52909724  0.15235137  0.90037427  1
  O  O35  1  0.97090276  0.65235137  0.59962573  1
  O  O36  1  0.52909724  0.15235137  0.59962573  1
  O  O37  1  0.97090276  0.65235137  0.90037427  1
  O  O38  1  0.47090276  0.84764863  0.09962573  1
  O  O39  1  0.02909724  0.34764863  0.40037427  1
  O  O40  1  0.61554949  0.18425170  0.46724056  1
  O  O41  1  0.88445051  0.68425170  0.03275944  1
  O  O42  1  0.38445051  0.81574830  0.96724056  1
  O  O43  1  0.11554949  0.31574830  0.53275944  1
  O  O44  1  0.38445051  0.81574830  0.53275944  1
  O  O45  1  0.11554949  0.31574830  0.96724056  1
  O  O46  1  0.61554949  0.18425170  0.03275944  1
  O  O47  1  0.88445051  0.68425170  0.46724056  1
  O  O48  1  0.74681564  0.73968381  0.25000000  1
  O  O49  1  0.75318436  0.23968381  0.25000000  1
  O  O50  1  0.25318436  0.26031619  0.75000000  1
  O  O51  1  0.24681564  0.76031619  0.75000000  1
  O  O52  1  0.14637147  0.10055683  0.44640416  1
  O  O53  1  0.35362853  0.60055683  0.05359584  1
  O  O54  1  0.85362853  0.89944317  0.94640416  1
  O  O55  1  0.64637147  0.39944317  0.55359584  1
  O  O56  1  0.85362853  0.89944317  0.55359584  1
  O  O57  1  0.64637147  0.39944317  0.94640416  1
  O  O58  1  0.14637147  0.10055683  0.05359584  1
  O  O59  1  0.35362853  0.60055683  0.44640416  1
  O  O60  1  0.03030891  0.66225556  0.31699119  1
  O  O61  1  0.46969109  0.16225556  0.18300881  1
  O  O62  1  0.96969109  0.33774444  0.81699119  1
  O  O63  1  0.53030891  0.83774444  0.68300881  1
  O  O64  1  0.96969109  0.33774444  0.68300881  1
  O  O65  1  0.53030891  0.83774444  0.81699119  1
  O  O66  1  0.03030891  0.66225556  0.18300881  1
  O  O67  1  0.46969109  0.16225556  0.31699119  1
  F  F68  1  0.43429321  0.49286702  0.25000000  1
  F  F69  1  0.06570679  0.99286702  0.25000000  1
  F  F70  1  0.56570679  0.50713298  0.75000000  1
  F  F71  1  0.93429321  0.00713298  0.75000000  1
