# generated using pymatgen
data_SrCuTe2O7
_symmetry_space_group_name_H-M   'P 1'
_cell_length_a   5.51777160
_cell_length_b   7.23501088
_cell_length_c   15.48998238
_cell_angle_alpha   90.00000000
_cell_angle_beta   90.00000000
_cell_angle_gamma   90.00000000
_symmetry_Int_Tables_number   1
_chemical_formula_structural   SrCuTe2O7
_chemical_formula_sum   'Sr4 Cu4 Te8 O28'
_cell_volume   618.37771738
_cell_formula_units_Z   4
loop_
 _symmetry_equiv_pos_site_id
 _symmetry_equiv_pos_as_xyz
  1  'x, y, z'
loop_
 _atom_site_type_symbol
 _atom_site_label
 _atom_site_symmetry_multiplicity
 _atom_site_fract_x
 _atom_site_fract_y
 _atom_site_fract_z
 _atom_site_occupancy
  Sr  Sr0  1  0.75000000  0.77376468  0.45792121  1
  Sr  Sr1  1  0.25000000  0.22623532  0.54207879  1
  Sr  Sr2  1  0.25000000  0.77376468  0.04207879  1
  Sr  Sr3  1  0.75000000  0.22623532  0.95792121  1
  Cu  Cu4  1  0.25000000  0.73890899  0.61366383  1
  Cu  Cu5  1  0.75000000  0.26109101  0.38633617  1
  Cu  Cu6  1  0.75000000  0.73890899  0.88633617  1
  Cu  Cu7  1  0.25000000  0.26109101  0.11366383  1
  Te  Te8  1  0.75000000  0.99192378  0.67128119  1
  Te  Te9  1  0.25000000  0.00807622  0.32871881  1
  Te  Te10  1  0.25000000  0.99192378  0.82871881  1
  Te  Te11  1  0.75000000  0.00807622  0.17128119  1
  Te  Te12  1  0.75000000  0.48644839  0.67478861  1
  Te  Te13  1  0.25000000  0.51355161  0.32521139  1
  Te  Te14  1  0.25000000  0.48644839  0.82521139  1
  Te  Te15  1  0.75000000  0.51355161  0.17478861  1
  O  O16  1  0.75000000  0.23254736  0.61148548  1
  O  O17  1  0.25000000  0.76745264  0.38851452  1
  O  O18  1  0.25000000  0.23254736  0.88851452  1
  O  O19  1  0.75000000  0.76745264  0.11148548  1
  O  O20  1  0.00952585  0.54028972  0.59855661  1
  O  O21  1  0.50952585  0.45971028  0.40144339  1
  O  O22  1  0.99047415  0.54028972  0.90144339  1
  O  O23  1  0.49047415  0.45971028  0.09855661  1
  O  O24  1  0.99047415  0.45971028  0.40144339  1
  O  O25  1  0.49047415  0.54028972  0.59855661  1
  O  O26  1  0.00952585  0.45971028  0.09855661  1
  O  O27  1  0.50952585  0.54028972  0.90144339  1
  O  O28  1  0.75000000  0.75699499  0.73046709  1
  O  O29  1  0.25000000  0.24300501  0.26953291  1
  O  O30  1  0.25000000  0.75699499  0.76953291  1
  O  O31  1  0.75000000  0.24300501  0.23046709  1
  O  O32  1  -0.00004142  0.92359666  0.58944802  1
  O  O33  1  0.49995858  0.07640334  0.41055198  1
  O  O34  1  0.00004142  0.92359666  0.91055198  1
  O  O35  1  0.50004142  0.07640334  0.08944802  1
  O  O36  1  0.00004142  0.07640334  0.41055198  1
  O  O37  1  0.50004142  0.92359666  0.58944802  1
  O  O38  1  -0.00004142  0.07640334  0.08944802  1
  O  O39  1  0.49995858  0.92359666  0.91055198  1
  O  O40  1  0.50000000  0.10518344  0.75000000  1
  O  O41  1  0.00000000  0.89481656  0.25000000  1
  O  O42  1  0.50000000  0.89481656  0.25000000  1
  O  O43  1  0.00000000  0.10518344  0.75000000  1
