# generated using pymatgen
data_UPO5
_symmetry_space_group_name_H-M   'P 1'
_cell_length_a   5.57820786
_cell_length_b   5.57820786
_cell_length_c   12.76791512
_cell_angle_alpha   90.00000000
_cell_angle_beta   90.00000000
_cell_angle_gamma   102.14259751
_symmetry_Int_Tables_number   1
_chemical_formula_structural   UPO5
_chemical_formula_sum   'U4 P4 O20'
_cell_volume   388.40303564
_cell_formula_units_Z   4
loop_
 _symmetry_equiv_pos_site_id
 _symmetry_equiv_pos_as_xyz
  1  'x, y, z'
loop_
 _atom_site_type_symbol
 _atom_site_label
 _atom_site_symmetry_multiplicity
 _atom_site_fract_x
 _atom_site_fract_y
 _atom_site_fract_z
 _atom_site_occupancy
  U  U0  1  0.83239135  0.16760865  0.07483119  1
  U  U1  1  0.16760865  0.83239135  0.92516881  1
  U  U2  1  0.66760865  0.33239135  0.57483119  1
  U  U3  1  0.33239135  0.66760865  0.42516881  1
  P  P4  1  0.58955916  0.41044084  0.86289551  1
  P  P5  1  0.41044084  0.58955916  0.13710449  1
  P  P6  1  0.91044084  0.08955916  0.36289551  1
  P  P7  1  0.08955916  0.91044084  0.63710449  1
  O  O8  1  0.83308742  0.51879080  0.92203360  1
  O  O9  1  0.51879080  0.83308742  0.07796640  1
  O  O10  1  0.01879080  0.33308742  0.42203360  1
  O  O11  1  0.33308742  0.01879080  0.57796640  1
  O  O12  1  0.16691258  0.48120920  0.07796640  1
  O  O13  1  0.48120920  0.16691258  0.92203360  1
  O  O14  1  0.98120920  0.66691258  0.57796640  1
  O  O15  1  0.66691258  0.98120920  0.42203360  1
  O  O16  1  0.64328874  0.35671126  0.74867245  1
  O  O17  1  0.35671126  0.64328874  0.25132755  1
  O  O18  1  0.85671126  0.14328874  0.24867245  1
  O  O19  1  0.14328874  0.85671126  0.75132755  1
  O  O20  1  0.41219962  0.58780038  0.87239370  1
  O  O21  1  0.58780038  0.41219962  0.12760630  1
  O  O22  1  0.08780038  0.91219962  0.37239370  1
  O  O23  1  0.91219962  0.08780038  0.62760630  1
  O  O24  1  0.94196825  0.05803175  0.91415308  1
  O  O25  1  0.05803175  0.94196825  0.08584692  1
  O  O26  1  0.55803175  0.44196825  0.41415308  1
  O  O27  1  0.44196825  0.55803175  0.58584692  1
