# generated using pymatgen
data_Pr(Ga5Mo)8
_symmetry_space_group_name_H-M   'P 1'
_cell_length_a   9.64005261
_cell_length_b   9.64005262
_cell_length_c   9.64005215
_cell_angle_alpha   94.27405183
_cell_angle_beta   94.27405178
_cell_angle_gamma   94.27405090
_symmetry_Int_Tables_number   1
_chemical_formula_structural   Pr(Ga5Mo)8
_chemical_formula_sum   'Pr1 Ga40 Mo8'
_cell_volume   887.98680750
_cell_formula_units_Z   1
loop_
 _symmetry_equiv_pos_site_id
 _symmetry_equiv_pos_as_xyz
  1  'x, y, z'
loop_
 _atom_site_type_symbol
 _atom_site_label
 _atom_site_symmetry_multiplicity
 _atom_site_fract_x
 _atom_site_fract_y
 _atom_site_fract_z
 _atom_site_occupancy
  Pr  Pr0  1  -0.00000000  -0.00000000  0.00000000  1
  Ga  Ga1  1  0.50000000  0.50000000  0.50000000  1
  Ga  Ga2  1  0.50000000  -0.00000000  0.50000000  1
  Ga  Ga3  1  -0.00000000  0.50000000  0.50000000  1
  Ga  Ga4  1  0.50000000  0.50000000  0.00000000  1
  Ga  Ga5  1  0.63932052  0.26931765  0.61140930  1
  Ga  Ga6  1  0.26931765  0.61140930  0.63932052  1
  Ga  Ga7  1  0.61140930  0.63932052  0.26931765  1
  Ga  Ga8  1  0.36067948  0.73068235  0.38859070  1
  Ga  Ga9  1  0.73068235  0.38859070  0.36067948  1
  Ga  Ga10  1  0.38859070  0.36067948  0.73068235  1
  Ga  Ga11  1  0.77604054  0.67376552  0.53089526  1
  Ga  Ga12  1  0.67376552  0.53089526  0.77604054  1
  Ga  Ga13  1  0.53089526  0.77604054  0.67376552  1
  Ga  Ga14  1  0.22395946  0.32623448  0.46910474  1
  Ga  Ga15  1  0.32623448  0.46910474  0.22395946  1
  Ga  Ga16  1  0.46910474  0.22395946  0.32623448  1
  Ga  Ga17  1  0.07225824  0.77917909  0.44263789  1
  Ga  Ga18  1  0.77917909  0.44263789  0.07225824  1
  Ga  Ga19  1  0.44263789  0.07225824  0.77917909  1
  Ga  Ga20  1  0.92774176  0.22082091  0.55736211  1
  Ga  Ga21  1  0.22082091  0.55736211  0.92774176  1
  Ga  Ga22  1  0.55736211  0.92774176  0.22082091  1
  Ga  Ga23  1  0.78590269  0.96507698  0.59539693  1
  Ga  Ga24  1  0.96507698  0.59539693  0.78590269  1
  Ga  Ga25  1  0.59539693  0.78590269  0.96507698  1
  Ga  Ga26  1  0.21409731  0.03492302  0.40460307  1
  Ga  Ga27  1  0.03492302  0.40460307  0.21409731  1
  Ga  Ga28  1  0.40460307  0.21409731  0.03492302  1
  Ga  Ga29  1  0.70972311  0.03986261  0.85824111  1
  Ga  Ga30  1  0.03986261  0.85824111  0.70972311  1
  Ga  Ga31  1  0.85824111  0.70972311  0.03986261  1
  Ga  Ga32  1  0.29027689  0.96013739  0.14175889  1
  Ga  Ga33  1  0.96013739  0.14175889  0.29027689  1
  Ga  Ga34  1  0.14175889  0.29027689  0.96013739  1
  Ga  Ga35  1  0.17057160  0.12075190  0.69108255  1
  Ga  Ga36  1  0.12075190  0.69108255  0.17057160  1
  Ga  Ga37  1  0.69108255  0.17057160  0.12075190  1
  Ga  Ga38  1  0.82942840  0.87924810  0.30891745  1
  Ga  Ga39  1  0.87924810  0.30891745  0.82942840  1
  Ga  Ga40  1  0.30891745  0.82942840  0.87924810  1
  Mo  Mo41  1  0.78818124  0.78818124  0.78818124  1
  Mo  Mo42  1  0.21181876  0.21181876  0.21181876  1
  Mo  Mo43  1  0.61047809  0.29009229  0.88614394  1
  Mo  Mo44  1  0.29009229  0.88614394  0.61047809  1
  Mo  Mo45  1  0.88614394  0.61047809  0.29009229  1
  Mo  Mo46  1  0.38952191  0.70990771  0.11385606  1
  Mo  Mo47  1  0.70990771  0.11385606  0.38952191  1
  Mo  Mo48  1  0.11385606  0.38952191  0.70990771  1
