# generated using pymatgen
data_Pr6InFe13
_symmetry_space_group_name_H-M   'P 1'
_cell_length_a   8.11581881
_cell_length_b   8.11581881
_cell_length_c   13.20647892
_cell_angle_alpha   107.89457792
_cell_angle_beta   107.89457792
_cell_angle_gamma   90.00000000
_symmetry_Int_Tables_number   1
_chemical_formula_structural   Pr6InFe13
_chemical_formula_sum   'Pr12 In2 Fe26'
_cell_volume   783.44565662
_cell_formula_units_Z   2
loop_
 _symmetry_equiv_pos_site_id
 _symmetry_equiv_pos_as_xyz
  1  'x, y, z'
loop_
 _atom_site_type_symbol
 _atom_site_label
 _atom_site_symmetry_multiplicity
 _atom_site_fract_x
 _atom_site_fract_y
 _atom_site_fract_z
 _atom_site_occupancy
  Pr  Pr0  1  0.60411603  0.60411603  0.20823206  1
  Pr  Pr1  1  0.10411603  0.10411603  0.20823206  1
  Pr  Pr2  1  0.39588397  0.39588397  0.79176794  1
  Pr  Pr3  1  0.89588397  0.89588397  0.79176794  1
  Pr  Pr4  1  0.97889734  0.47889734  0.63139709  1
  Pr  Pr5  1  0.65249975  0.15249975  0.63139709  1
  Pr  Pr6  1  0.15249975  0.97889734  0.63139709  1
  Pr  Pr7  1  0.47889734  0.65249975  0.63139709  1
  Pr  Pr8  1  0.02110266  0.52110266  0.36860291  1
  Pr  Pr9  1  0.34750025  0.84750025  0.36860291  1
  Pr  Pr10  1  0.84750025  0.02110266  0.36860291  1
  Pr  Pr11  1  0.52110266  0.34750025  0.36860291  1
  In  In12  1  0.25000000  0.25000000  0.50000000  1
  In  In13  1  0.75000000  0.75000000  0.50000000  1
  Fe  Fe14  1  -0.00000000  0.50000000  -0.00000000  1
  Fe  Fe15  1  0.50000000  -0.00000000  -0.00000000  1
  Fe  Fe16  1  0.71050151  0.56676967  -0.00000000  1
  Fe  Fe17  1  0.28949849  0.43323033  -0.00000000  1
  Fe  Fe18  1  0.78949849  0.06676967  -0.00000000  1
  Fe  Fe19  1  0.21050151  0.93323033  -0.00000000  1
  Fe  Fe20  1  0.56676967  0.28949849  -0.00000000  1
  Fe  Fe21  1  0.43323033  0.71050151  -0.00000000  1
  Fe  Fe22  1  0.06676967  0.21050151  -0.00000000  1
  Fe  Fe23  1  0.93323033  0.78949849  -0.00000000  1
  Fe  Fe24  1  0.12111855  0.62111855  0.88454450  1
  Fe  Fe25  1  0.76342595  0.26342595  0.88454450  1
  Fe  Fe26  1  0.26342595  0.12111855  0.88454450  1
  Fe  Fe27  1  0.62111855  0.76342595  0.88454450  1
  Fe  Fe28  1  0.87888145  0.37888145  0.11545550  1
  Fe  Fe29  1  0.23657405  0.73657405  0.11545550  1
  Fe  Fe30  1  0.73657405  0.87888145  0.11545550  1
  Fe  Fe31  1  0.37888145  0.23657405  0.11545550  1
  Fe  Fe32  1  0.29544512  0.79544512  0.81540953  1
  Fe  Fe33  1  0.51996441  0.01996441  0.81540953  1
  Fe  Fe34  1  0.01996441  0.29544512  0.81540953  1
  Fe  Fe35  1  0.79544512  0.51996441  0.81540953  1
  Fe  Fe36  1  0.70455488  0.20455488  0.18459047  1
  Fe  Fe37  1  0.48003559  0.98003559  0.18459047  1
  Fe  Fe38  1  0.98003559  0.70455488  0.18459047  1
  Fe  Fe39  1  0.20455488  0.48003559  0.18459047  1
