# generated using pymatgen
data_NaFe2P2H5O11
_symmetry_space_group_name_H-M   'P 1'
_cell_length_a   9.75868572
_cell_length_b   9.79709236
_cell_length_c   9.77374325
_cell_angle_alpha   102.28988090
_cell_angle_beta   90.00000000
_cell_angle_gamma   90.00000000
_symmetry_Int_Tables_number   1
_chemical_formula_structural   NaFe2P2H5O11
_chemical_formula_sum   'Na4 Fe8 P8 H20 O44'
_cell_volume   913.02148827
_cell_formula_units_Z   4
loop_
 _symmetry_equiv_pos_site_id
 _symmetry_equiv_pos_as_xyz
  1  'x, y, z'
loop_
 _atom_site_type_symbol
 _atom_site_label
 _atom_site_symmetry_multiplicity
 _atom_site_fract_x
 _atom_site_fract_y
 _atom_site_fract_z
 _atom_site_occupancy
  Na  Na0  1  0.29535913  0.51818183  0.90994924  1
  Na  Na1  1  0.20464087  0.01818183  0.40994924  1
  Na  Na2  1  0.70464087  0.48181817  0.09005076  1
  Na  Na3  1  0.79535913  0.98181817  0.59005076  1
  Fe  Fe4  1  0.45103343  0.10953281  0.13179222  1
  Fe  Fe5  1  0.04896657  0.60953281  0.63179222  1
  Fe  Fe6  1  0.54896657  0.89046719  0.86820778  1
  Fe  Fe7  1  0.95103343  0.39046719  0.36820778  1
  Fe  Fe8  1  0.23153379  0.09734188  0.80941821  1
  Fe  Fe9  1  0.26846621  0.59734188  0.30941821  1
  Fe  Fe10  1  0.76846621  0.90265812  0.19058179  1
  Fe  Fe11  1  0.73153379  0.40265812  0.69058179  1
  P  P12  1  0.17930574  0.29006108  0.12710845  1
  P  P13  1  0.32069426  0.79006108  0.62710845  1
  P  P14  1  0.82069426  0.70993892  0.87289155  1
  P  P15  1  0.67930574  0.20993892  0.37289155  1
  P  P16  1  0.03401999  0.29015175  0.64601872  1
  P  P17  1  0.46598001  0.79015175  0.14601872  1
  P  P18  1  0.96598001  0.70984825  0.35398128  1
  P  P19  1  0.53401999  0.20984825  0.85398128  1
  H  H20  1  0.29703334  0.92881062  0.97436886  1
  H  H21  1  0.20296666  0.42881062  0.47436886  1
  H  H22  1  0.70296666  0.07118938  0.02563114  1
  H  H23  1  0.79703334  0.57118938  0.52563114  1
  H  H24  1  0.02254228  0.89187126  0.81985266  1
  H  H25  1  0.47745772  0.39187126  0.31985266  1
  H  H26  1  0.97745772  0.10812874  0.18014734  1
  H  H27  1  0.52254228  0.60812874  0.68014734  1
  H  H28  1  0.97421422  0.04910007  0.89585512  1
  H  H29  1  0.52578578  0.54910007  0.39585512  1
  H  H30  1  0.02578578  0.95089993  0.10414488  1
  H  H31  1  0.47421422  0.45089993  0.60414488  1
  H  H32  1  0.08598312  0.76844312  0.96268693  1
  H  H33  1  0.41401688  0.26844312  0.46268693  1
  H  H34  1  0.91401688  0.23155688  0.03731307  1
  H  H35  1  0.58598312  0.73155688  0.53731307  1
  H  H36  1  0.14181082  0.77297121  0.11585037  1
  H  H37  1  0.35818918  0.27297121  0.61585037  1
  H  H38  1  0.85818918  0.22702879  0.88414963  1
  H  H39  1  0.64181082  0.72702879  0.38414963  1
  O  O40  1  0.27556887  0.19981956  0.19752495  1
  O  O41  1  0.22443113  0.69981956  0.69752495  1
  O  O42  1  0.72443113  0.80018044  0.80247505  1
  O  O43  1  0.77556887  0.30018044  0.30247505  1
  O  O44  1  0.16570713  0.23639137  0.96835541  1
  O  O45  1  0.33429287  0.73639137  0.46835541  1
  O  O46  1  0.83429287  0.76360863  0.03164459  1
  O  O47  1  0.66570713  0.26360863  0.53164459  1
  O  O48  1  0.22691782  0.44319503  0.14976608  1
  O  O49  1  0.27308218  0.94319503  0.64976608  1
  O  O50  1  0.77308218  0.55680497  0.85023392  1
  O  O51  1  0.72691782  0.05680497  0.35023392  1
  O  O52  1  0.03294765  0.28062336  0.19133857  1
  O  O53  1  0.46705235  0.78062336  0.69133857  1
  O  O54  1  0.96705235  0.71937664  0.80866143  1
  O  O55  1  0.53294765  0.21937664  0.30866143  1
  O  O56  1  0.13226478  0.17479473  0.66810443  1
  O  O57  1  0.36773522  0.67479473  0.16810443  1
  O  O58  1  0.86773522  0.82520527  0.33189557  1
  O  O59  1  0.63226478  0.32520527  0.83189557  1
  O  O60  1  0.09388402  0.43853278  0.70543054  1
  O  O61  1  0.40611598  0.93853278  0.20543054  1
  O  O62  1  0.90611598  0.56146722  0.29456946  1
  O  O63  1  0.59388402  0.06146722  0.79456946  1
  O  O64  1  0.01436938  0.26110678  0.48357474  1
  O  O65  1  0.48563062  0.76110678  0.98357474  1
  O  O66  1  0.98563062  0.73889322  0.51642526  1
  O  O67  1  0.51436938  0.23889322  0.01642526  1
  O  O68  1  0.89247620  0.27739811  0.71616073  1
  O  O69  1  0.60752380  0.77739811  0.21616073  1
  O  O70  1  0.10752380  0.72260189  0.28383927  1
  O  O71  1  0.39247620  0.22260189  0.78383927  1
  O  O72  1  0.35705276  0.99691079  0.94072970  1
  O  O73  1  0.14294724  0.49691079  0.44072970  1
  O  O74  1  0.64294724  0.00308921  0.05927030  1
  O  O75  1  0.85705276  0.50308921  0.55927030  1
  O  O76  1  0.04833056  0.99194387  0.84099183  1
  O  O77  1  0.45166944  0.49194387  0.34099183  1
  O  O78  1  0.95166944  0.00805613  0.15900817  1
  O  O79  1  0.54833056  0.50805613  0.65900817  1
  O  O80  1  0.14461997  0.82189971  0.03705725  1
  O  O81  1  0.35538003  0.32189971  0.53705725  1
  O  O82  1  0.85538003  0.17810029  0.96294275  1
  O  O83  1  0.64461997  0.67810029  0.46294275  1
