# generated using pymatgen
data_Mn2AsO5
_symmetry_space_group_name_H-M   'P 1'
_cell_length_a   9.86710177
_cell_length_b   12.75238881
_cell_length_c   13.61520871
_cell_angle_alpha   90.00000000
_cell_angle_beta   90.00000000
_cell_angle_gamma   108.19342003
_symmetry_Int_Tables_number   1
_chemical_formula_structural   Mn2AsO5
_chemical_formula_sum   'Mn32 As16 O80'
_cell_volume   1627.54378019
_cell_formula_units_Z   16
loop_
 _symmetry_equiv_pos_site_id
 _symmetry_equiv_pos_as_xyz
  1  'x, y, z'
loop_
 _atom_site_type_symbol
 _atom_site_label
 _atom_site_symmetry_multiplicity
 _atom_site_fract_x
 _atom_site_fract_y
 _atom_site_fract_z
 _atom_site_occupancy
  Mn  Mn0  1  0.47958977  0.60879126  0.56899283  1
  Mn  Mn1  1  0.52041023  0.89120874  0.06899283  1
  Mn  Mn2  1  0.52041023  0.39120874  0.43100717  1
  Mn  Mn3  1  0.47958977  0.10879126  0.93100717  1
  Mn  Mn4  1  0.46245082  0.60001647  0.06949027  1
  Mn  Mn5  1  0.53754918  0.89998353  0.56949027  1
  Mn  Mn6  1  0.53754918  0.39998353  0.93050973  1
  Mn  Mn7  1  0.46245082  0.10001647  0.43050973  1
  Mn  Mn8  1  0.01911009  0.87832871  0.17960685  1
  Mn  Mn9  1  0.98088991  0.62167129  0.67960685  1
  Mn  Mn10  1  0.98088991  0.12167129  0.82039315  1
  Mn  Mn11  1  0.01911009  0.37832871  0.32039315  1
  Mn  Mn12  1  0.03264563  0.91296966  0.68220411  1
  Mn  Mn13  1  0.96735437  0.58703034  0.18220411  1
  Mn  Mn14  1  0.96735437  0.08703034  0.31779589  1
  Mn  Mn15  1  0.03264563  0.41296966  0.81779589  1
  Mn  Mn16  1  0.22434652  0.69780164  0.50811612  1
  Mn  Mn17  1  0.77565348  0.80219836  0.00811612  1
  Mn  Mn18  1  0.77565348  0.30219836  0.49188388  1
  Mn  Mn19  1  0.22434652  0.19780164  0.99188388  1
  Mn  Mn20  1  0.20164914  0.69931919  0.98831697  1
  Mn  Mn21  1  0.79835086  0.80068081  0.48831697  1
  Mn  Mn22  1  0.79835086  0.30068081  0.01168303  1
  Mn  Mn23  1  0.20164914  0.19931919  0.51168303  1
  Mn  Mn24  1  0.27912815  0.80137360  0.23853186  1
  Mn  Mn25  1  0.72087185  0.69862640  0.73853186  1
  Mn  Mn26  1  0.72087185  0.19862640  0.76146814  1
  Mn  Mn27  1  0.27912815  0.30137360  0.26146814  1
  Mn  Mn28  1  0.29372303  0.80598012  0.75939202  1
  Mn  Mn29  1  0.70627697  0.69401988  0.25939202  1
  Mn  Mn30  1  0.70627697  0.19401988  0.24060798  1
  Mn  Mn31  1  0.29372303  0.30598012  0.74060798  1
  As  As32  1  0.12208800  0.92230725  0.42716830  1
  As  As33  1  0.87791200  0.57769275  0.92716830  1
  As  As34  1  0.87791200  0.07769275  0.57283170  1
  As  As35  1  0.12208800  0.42230725  0.07283170  1
  As  As36  1  0.11440742  0.92885415  0.92085677  1
  As  As37  1  0.88559258  0.57114585  0.42085677  1
  As  As38  1  0.88559258  0.07114585  0.07914323  1
  As  As39  1  0.11440742  0.42885415  0.57914323  1
  As  As40  1  0.37202227  0.57370763  0.32354640  1
  As  As41  1  0.62797773  0.92629237  0.82354640  1
  As  As42  1  0.62797773  0.42629237  0.67645360  1
  As  As43  1  0.37202227  0.07370763  0.17645360  1
  As  As44  1  0.38678219  0.57762624  0.82718469  1
  As  As45  1  0.61321781  0.92237376  0.32718469  1
  As  As46  1  0.61321781  0.42237376  0.17281531  1
  As  As47  1  0.38678219  0.07762624  0.67281531  1
  O  O48  1  0.29869325  0.67514315  0.35318068  1
  O  O49  1  0.70130675  0.82485685  0.85318068  1
  O  O50  1  0.70130675  0.32485685  0.64681932  1
  O  O51  1  0.29869325  0.17514315  0.14681932  1
  O  O52  1  0.31978988  0.68160313  0.85918577  1
  O  O53  1  0.68021012  0.81839687  0.35918577  1
  O  O54  1  0.68021012  0.31839687  0.14081423  1
  O  O55  1  0.31978988  0.18160313  0.64081423  1
  O  O56  1  0.21299032  0.83099062  0.40220536  1
  O  O57  1  0.78700968  0.66900938  0.90220536  1
  O  O58  1  0.78700968  0.16900938  0.59779464  1
  O  O59  1  0.21299032  0.33099062  0.09779464  1
  O  O60  1  0.16861506  0.81978570  0.88418180  1
  O  O61  1  0.83138494  0.68021430  0.38418180  1
  O  O62  1  0.83138494  0.18021430  0.11581820  1
  O  O63  1  0.16861506  0.31978570  0.61581820  1
  O  O64  1  0.00163074  0.92932636  0.33728079  1
  O  O65  1  0.99836926  0.57067364  0.83728079  1
  O  O66  1  0.99836926  0.07067364  0.66271921  1
  O  O67  1  0.00163074  0.42932636  0.16271921  1
  O  O68  1  0.02201486  0.97199048  0.82920334  1
  O  O69  1  0.97798514  0.52800952  0.32920334  1
  O  O70  1  0.97798514  0.02800952  0.17079666  1
  O  O71  1  0.02201486  0.47199048  0.67079666  1
  O  O72  1  0.23546393  0.95671252  0.20913032  1
  O  O73  1  0.76453607  0.54328748  0.70913032  1
  O  O74  1  0.76453607  0.04328748  0.79086968  1
  O  O75  1  0.23546393  0.45671252  0.29086968  1
  O  O76  1  0.25671508  0.95905385  0.70893897  1
  O  O77  1  0.74328492  0.54094615  0.20893897  1
  O  O78  1  0.74328492  0.04094615  0.29106103  1
  O  O79  1  0.25671508  0.45905385  0.79106103  1
  O  O80  1  0.48371787  0.61885883  0.22351924  1
  O  O81  1  0.51628213  0.88114117  0.72351924  1
  O  O82  1  0.51628213  0.38114117  0.77648076  1
  O  O83  1  0.48371787  0.11885883  0.27648076  1
  O  O84  1  0.50586761  0.62320533  0.73223067  1
  O  O85  1  0.49413239  0.87679467  0.23223067  1
  O  O86  1  0.49413239  0.37679467  0.26776933  1
  O  O87  1  0.50586761  0.12320533  0.76776933  1
  O  O88  1  0.48456223  0.54665126  0.41226763  1
  O  O89  1  0.51543777  0.95334874  0.91226763  1
  O  O90  1  0.51543777  0.45334874  0.58773237  1
  O  O91  1  0.48456223  0.04665126  0.08773237  1
  O  O92  1  0.47714945  0.54589168  0.92394195  1
  O  O93  1  0.52285055  0.95410832  0.42394195  1
  O  O94  1  0.52285055  0.45410832  0.07605805  1
  O  O95  1  0.47714945  0.04589168  0.57605805  1
  O  O96  1  0.23911086  0.55372634  0.05399374  1
  O  O97  1  0.76088914  0.94627366  0.55399374  1
  O  O98  1  0.76088914  0.44627366  0.94600626  1
  O  O99  1  0.23911086  0.05372634  0.44600626  1
  O  O100  1  0.25853910  0.53586871  0.53908989  1
  O  O101  1  0.74146090  0.96413129  0.03908989  1
  O  O102  1  0.74146090  0.46413129  0.46091011  1
  O  O103  1  0.25853910  0.03586871  0.96091011  1
  O  O104  1  0.99483817  0.87990841  0.01502919  1
  O  O105  1  0.00516183  0.62009159  0.51502919  1
  O  O106  1  0.00516183  0.12009159  0.98497081  1
  O  O107  1  0.99483817  0.37990841  0.48497081  1
  O  O108  1  0.01697806  0.87884788  0.53017683  1
  O  O109  1  0.98302194  0.62115212  0.03017683  1
  O  O110  1  0.98302194  0.12115212  0.46982317  1
  O  O111  1  0.01697806  0.37884788  0.96982317  1
  O  O112  1  0.42415075  0.74187468  0.54376179  1
  O  O113  1  0.57584925  0.75812532  0.04376179  1
  O  O114  1  0.57584925  0.25812532  0.45623821  1
  O  O115  1  0.42415075  0.24187468  0.95623821  1
  O  O116  1  0.32567113  0.79636819  0.09379649  1
  O  O117  1  0.67432887  0.70363181  0.59379649  1
  O  O118  1  0.67432887  0.20363181  0.90620351  1
  O  O119  1  0.32567113  0.29636819  0.40620351  1
  O  O120  1  0.17425221  0.71305085  0.65070202  1
  O  O121  1  0.82574779  0.78694915  0.15070202  1
  O  O122  1  0.82574779  0.28694915  0.34929798  1
  O  O123  1  0.17425221  0.21305085  0.84929798  1
  O  O124  1  0.07949548  0.74808321  0.20763824  1
  O  O125  1  0.92050452  0.75191679  0.70763824  1
  O  O126  1  0.92050452  0.25191679  0.79236176  1
  O  O127  1  0.07949548  0.24808321  0.29236176  1
