# generated using pymatgen
data_Pr6Fe13Bi
_symmetry_space_group_name_H-M   'P 1'
_cell_length_a   8.13928303
_cell_length_b   8.13928303
_cell_length_c   13.23385699
_cell_angle_alpha   107.90968452
_cell_angle_beta   107.90968452
_cell_angle_gamma   90.00000000
_symmetry_Int_Tables_number   1
_chemical_formula_structural   Pr6Fe13Bi
_chemical_formula_sum   'Pr12 Fe26 Bi2'
_cell_volume   789.46574457
_cell_formula_units_Z   2
loop_
 _symmetry_equiv_pos_site_id
 _symmetry_equiv_pos_as_xyz
  1  'x, y, z'
loop_
 _atom_site_type_symbol
 _atom_site_label
 _atom_site_symmetry_multiplicity
 _atom_site_fract_x
 _atom_site_fract_y
 _atom_site_fract_z
 _atom_site_occupancy
  Pr  Pr0  1  0.60268912  0.60268912  0.20537825  1
  Pr  Pr1  1  0.10268912  0.10268912  0.20537825  1
  Pr  Pr2  1  0.39731088  0.39731088  0.79462175  1
  Pr  Pr3  1  0.89731088  0.89731088  0.79462175  1
  Pr  Pr4  1  0.97700353  0.47700353  0.63261574  1
  Pr  Pr5  1  0.65561220  0.15561220  0.63261574  1
  Pr  Pr6  1  0.15561220  0.97700353  0.63261574  1
  Pr  Pr7  1  0.47700353  0.65561220  0.63261574  1
  Pr  Pr8  1  0.02299647  0.52299647  0.36738426  1
  Pr  Pr9  1  0.34438780  0.84438780  0.36738426  1
  Pr  Pr10  1  0.84438780  0.02299647  0.36738426  1
  Pr  Pr11  1  0.52299647  0.34438780  0.36738426  1
  Fe  Fe12  1  0.00000000  0.50000000  -0.00000000  1
  Fe  Fe13  1  0.50000000  -0.00000000  -0.00000000  1
  Fe  Fe14  1  0.71056130  0.56721115  0.00000000  1
  Fe  Fe15  1  0.28943870  0.43278885  -0.00000000  1
  Fe  Fe16  1  0.78943870  0.06721115  -0.00000000  1
  Fe  Fe17  1  0.21056130  0.93278885  0.00000000  1
  Fe  Fe18  1  0.56721115  0.28943870  -0.00000000  1
  Fe  Fe19  1  0.43278885  0.71056130  0.00000000  1
  Fe  Fe20  1  0.06721115  0.21056130  0.00000000  1
  Fe  Fe21  1  0.93278885  0.78943870  -0.00000000  1
  Fe  Fe22  1  0.12049821  0.62049821  0.88454878  1
  Fe  Fe23  1  0.76405056  0.26405056  0.88454878  1
  Fe  Fe24  1  0.26405056  0.12049821  0.88454878  1
  Fe  Fe25  1  0.62049821  0.76405056  0.88454878  1
  Fe  Fe26  1  0.87950179  0.37950179  0.11545122  1
  Fe  Fe27  1  0.23594944  0.73594944  0.11545122  1
  Fe  Fe28  1  0.73594944  0.87950179  0.11545122  1
  Fe  Fe29  1  0.37950179  0.23594944  0.11545122  1
  Fe  Fe30  1  0.29410956  0.79410956  0.81522144  1
  Fe  Fe31  1  0.52111188  0.02111188  0.81522144  1
  Fe  Fe32  1  0.02111188  0.29410956  0.81522144  1
  Fe  Fe33  1  0.79410956  0.52111188  0.81522144  1
  Fe  Fe34  1  0.70589044  0.20589044  0.18477856  1
  Fe  Fe35  1  0.47888812  0.97888812  0.18477856  1
  Fe  Fe36  1  0.97888812  0.70589044  0.18477856  1
  Fe  Fe37  1  0.20589044  0.47888812  0.18477856  1
  Bi  Bi38  1  0.25000000  0.25000000  0.50000000  1
  Bi  Bi39  1  0.75000000  0.75000000  0.50000000  1
