# generated using pymatgen
data_MgB4(H10N)2
_symmetry_space_group_name_H-M   'P 1'
_cell_length_a   5.30131381
_cell_length_b   13.47712383
_cell_length_c   14.04465932
_cell_angle_alpha   90.00000000
_cell_angle_beta   90.00000000
_cell_angle_gamma   90.00000000
_symmetry_Int_Tables_number   1
_chemical_formula_structural   MgB4(H10N)2
_chemical_formula_sum   'Mg4 B16 H80 N8'
_cell_volume   1003.44122795
_cell_formula_units_Z   4
loop_
 _symmetry_equiv_pos_site_id
 _symmetry_equiv_pos_as_xyz
  1  'x, y, z'
loop_
 _atom_site_type_symbol
 _atom_site_label
 _atom_site_symmetry_multiplicity
 _atom_site_fract_x
 _atom_site_fract_y
 _atom_site_fract_z
 _atom_site_occupancy
  Mg  Mg0  1  0.43868598  0.75401449  0.12117758  1
  Mg  Mg1  1  0.93868598  0.24598551  0.37882242  1
  Mg  Mg2  1  0.56131402  0.74598551  0.62117758  1
  Mg  Mg3  1  0.06131402  0.25401449  0.87882242  1
  B  B4  1  0.74970447  0.64396649  0.50427324  1
  B  B5  1  0.24970447  0.35603351  0.99572676  1
  B  B6  1  0.25029553  0.85603351  0.00427324  1
  B  B7  1  0.75029553  0.14396649  0.49572676  1
  B  B8  1  0.78875361  0.34830599  0.25294109  1
  B  B9  1  0.28875361  0.65169401  0.24705891  1
  B  B10  1  0.21124639  0.15169401  0.75294109  1
  B  B11  1  0.71124639  0.84830599  0.74705891  1
  B  B12  1  0.70203555  0.61876307  0.01604467  1
  B  B13  1  0.20203555  0.38123693  0.48395533  1
  B  B14  1  0.29796445  0.88123693  0.51604467  1
  B  B15  1  0.79796445  0.11876307  0.98395533  1
  B  B16  1  0.34208154  0.61999918  0.71696897  1
  B  B17  1  0.84208154  0.38000082  0.78303103  1
  B  B18  1  0.65791846  0.88000082  0.21696897  1
  B  B19  1  0.15791846  0.11999918  0.28303103  1
  H  H20  1  0.65638898  0.47385112  0.08699634  1
  H  H21  1  0.15638898  0.52614888  0.41300366  1
  H  H22  1  0.34361102  0.02614888  0.58699634  1
  H  H23  1  0.84361102  0.97385112  0.91300366  1
  H  H24  1  0.95145850  0.49611750  0.05837180  1
  H  H25  1  0.45145850  0.50388250  0.44162820  1
  H  H26  1  0.04854150  0.00388250  0.55837180  1
  H  H27  1  0.54854150  0.99611750  0.94162820  1
  H  H28  1  0.82578607  0.55047204  0.15169508  1
  H  H29  1  0.32578607  0.44952796  0.34830492  1
  H  H30  1  0.17421393  0.94952796  0.65169508  1
  H  H31  1  0.67421393  0.05047204  0.84830492  1
  H  H32  1  0.28640008  0.69225790  0.85680057  1
  H  H33  1  0.78640008  0.30774210  0.64319943  1
  H  H34  1  0.71359992  0.80774210  0.35680057  1
  H  H35  1  0.21359992  0.19225790  0.14319943  1
  H  H36  1  0.04411488  0.62296546  0.82505197  1
  H  H37  1  0.54411488  0.37703454  0.67494803  1
  H  H38  1  0.95588512  0.87703454  0.32505197  1
  H  H39  1  0.45588512  0.12296546  0.17494803  1
  H  H40  1  0.30504252  0.57034734  0.86444642  1
  H  H41  1  0.80504252  0.42965266  0.63555358  1
  H  H42  1  0.69495748  0.92965266  0.36444642  1
  H  H43  1  0.19495748  0.07034734  0.13555358  1
  H  H44  1  0.51765431  0.64995404  0.51479280  1
  H  H45  1  0.01765431  0.35004596  0.98520720  1
  H  H46  1  0.48234569  0.85004596  0.01479280  1
  H  H47  1  0.98234569  0.14995404  0.48520720  1
  H  H48  1  0.81143172  0.69022581  0.43379467  1
  H  H49  1  0.31143172  0.30977419  0.06620533  1
  H  H50  1  0.18856828  0.80977419  0.93379467  1
  H  H51  1  0.68856828  0.19022581  0.56620533  1
  H  H52  1  0.86549991  0.67696089  0.57397947  1
  H  H53  1  0.36549991  0.32303911  0.92602053  1
  H  H54  1  0.13450009  0.82303911  0.07397947  1
  H  H55  1  0.63450009  0.17696089  0.42602053  1
  H  H56  1  0.80345075  0.55603579  0.49968895  1
  H  H57  1  0.30345075  0.44396421  0.00031105  1
  H  H58  1  0.19654925  0.94396421  0.99968895  1
  H  H59  1  0.69654925  0.05603579  0.50031105  1
  H  H60  1  0.82132619  0.31795289  0.17253971  1
  H  H61  1  0.32132619  0.68204711  0.32746029  1
  H  H62  1  0.17867381  0.18204711  0.67253971  1
  H  H63  1  0.67867381  0.81795289  0.82746029  1
  H  H64  1  -0.00018619  0.35583537  0.29066007  1
  H  H65  1  0.49981381  0.64416463  0.20933993  1
  H  H66  1  0.00018619  0.14416463  0.79066007  1
  H  H67  1  0.50018619  0.85583537  0.70933993  1
  H  H68  1  0.69060448  0.42962551  0.25844909  1
  H  H69  1  0.19060448  0.57037449  0.24155091  1
  H  H70  1  0.30939552  0.07037449  0.75844909  1
  H  H71  1  0.80939552  0.92962551  0.74155091  1
  H  H72  1  0.65128562  0.28890739  0.29638904  1
  H  H73  1  0.15128562  0.71109261  0.20361096  1
  H  H74  1  0.34871438  0.21109261  0.79638904  1
  H  H75  1  0.84871438  0.78890739  0.70361096  1
  H  H76  1  0.48013141  0.63863913  0.03596388  1
  H  H77  1  0.98013141  0.36136087  0.46403612  1
  H  H78  1  0.51986859  0.86136087  0.53596388  1
  H  H79  1  0.01986859  0.13863913  0.96403612  1
  H  H80  1  0.84413403  0.68850541  0.02671203  1
  H  H81  1  0.34413403  0.31149459  0.47328797  1
  H  H82  1  0.15586597  0.81149459  0.52671203  1
  H  H83  1  0.65586597  0.18850541  0.97328797  1
  H  H84  1  0.69673279  0.59116796  0.93376344  1
  H  H85  1  0.19673279  0.40883204  0.56623656  1
  H  H86  1  0.30326721  0.90883204  0.43376344  1
  H  H87  1  0.80326721  0.09116796  0.06623656  1
  H  H88  1  0.57310496  0.62432976  0.72006118  1
  H  H89  1  0.07310496  0.37567024  0.77993882  1
  H  H90  1  0.42689504  0.87567024  0.22006118  1
  H  H91  1  0.92689504  0.12432976  0.27993782  1
  H  H92  1  0.27379191  0.54436118  0.67896454  1
  H  H93  1  0.77379191  0.45563882  0.82103546  1
  H  H94  1  0.72620909  0.95563882  0.17896454  1
  H  H95  1  0.22620809  0.04436118  0.32103546  1
  H  H96  1  0.24758664  0.69025696  0.67316504  1
  H  H97  1  0.74758664  0.30974304  0.82683496  1
  H  H98  1  0.75241336  0.80974304  0.17316404  1
  H  H99  1  0.25241336  0.19025696  0.32683496  1
  N  N100  1  0.78856492  0.52920325  0.08255947  1
  N  N101  1  0.28856492  0.47079675  0.41744053  1
  N  N102  1  0.21143508  0.97079675  0.58255947  1
  N  N103  1  0.71143508  0.02920325  0.91744053  1
  N  N104  1  0.23694311  0.62724490  0.82285190  1
  N  N105  1  0.73694311  0.37275510  0.67714810  1
  N  N106  1  0.76305689  0.87275510  0.32285190  1
  N  N107  1  0.26305689  0.12724490  0.17714810  1
