# generated using pymatgen
data_Ho2Fe17
_symmetry_space_group_name_H-M   'P 1'
_cell_length_a   8.24186352
_cell_length_b   8.48135286
_cell_length_c   8.48135286
_cell_angle_alpha   119.99005136
_cell_angle_beta   90.00000000
_cell_angle_gamma   90.00000000
_symmetry_Int_Tables_number   1
_chemical_formula_structural   Ho2Fe17
_chemical_formula_sum   'Ho4 Fe34'
_cell_volume   513.48746156
_cell_formula_units_Z   2
loop_
 _symmetry_equiv_pos_site_id
 _symmetry_equiv_pos_as_xyz
  1  'x, y, z'
loop_
 _atom_site_type_symbol
 _atom_site_label
 _atom_site_symmetry_multiplicity
 _atom_site_fract_x
 _atom_site_fract_y
 _atom_site_fract_z
 _atom_site_occupancy
  Ho  Ho0  1  0.75000000  0.00003016  0.99996984  1
  Ho  Ho1  1  0.25000000  0.99996984  0.00003016  1
  Ho  Ho2  1  0.25000000  0.66660452  0.33339548  1
  Ho  Ho3  1  0.75000000  0.33339548  0.66660452  1
  Fe  Fe4  1  0.60636868  0.66667047  0.33332953  1
  Fe  Fe5  1  0.39363132  0.33332953  0.66667047  1
  Fe  Fe6  1  0.10636868  0.33332953  0.66667047  1
  Fe  Fe7  1  0.89363132  0.66667047  0.33332953  1
  Fe  Fe8  1  0.50000000  0.50000000  0.00000000  1
  Fe  Fe9  1  0.50000000  0.50000000  0.50000000  1
  Fe  Fe10  1  0.50000000  -0.00000000  0.50000000  1
  Fe  Fe11  1  0.00000000  0.50000000  0.00000000  1
  Fe  Fe12  1  0.00000000  0.50000000  0.50000000  1
  Fe  Fe13  1  0.00000000  -0.00000000  0.50000000  1
  Fe  Fe14  1  0.75000000  0.67097482  0.03887437  1
  Fe  Fe15  1  0.75000000  0.36799139  0.32918138  1
  Fe  Fe16  1  0.75000000  0.96110407  0.63199317  1
  Fe  Fe17  1  0.75000000  0.36800683  0.03889593  1
  Fe  Fe18  1  0.75000000  0.96112563  0.32902518  1
  Fe  Fe19  1  0.75000000  0.67081862  0.63200861  1
  Fe  Fe20  1  0.25000000  0.32902518  0.96112563  1
  Fe  Fe21  1  0.25000000  0.63200861  0.67081862  1
  Fe  Fe22  1  0.25000000  0.03889593  0.36800683  1
  Fe  Fe23  1  0.25000000  0.63199317  0.96110407  1
  Fe  Fe24  1  0.25000000  0.03887437  0.67097482  1
  Fe  Fe25  1  0.25000000  0.32918138  0.36799139  1
  Fe  Fe26  1  0.48431137  0.83394083  0.66785498  1
  Fe  Fe27  1  0.48427963  0.83395608  0.16604392  1
  Fe  Fe28  1  0.48431137  0.33214502  0.16605917  1
  Fe  Fe29  1  0.51568863  0.16605917  0.33214502  1
  Fe  Fe30  1  0.51572037  0.16604392  0.83395608  1
  Fe  Fe31  1  0.51568863  0.66785498  0.83394083  1
  Fe  Fe32  1  0.98431137  0.16605917  0.33214502  1
  Fe  Fe33  1  0.98427963  0.16604392  0.83395608  1
  Fe  Fe34  1  0.98431137  0.66785498  0.83394083  1
  Fe  Fe35  1  0.01568863  0.83394083  0.66785498  1
  Fe  Fe36  1  0.01572037  0.83395608  0.16604392  1
  Fe  Fe37  1  0.01568863  0.33214502  0.16605917  1
