# generated using pymatgen
data_Er3Ir2
_symmetry_space_group_name_H-M   'P 1'
_cell_length_a   11.17676268
_cell_length_b   11.17676268
_cell_length_c   14.81805637
_cell_angle_alpha   112.15622213
_cell_angle_beta   112.15622213
_cell_angle_gamma   90.00000000
_symmetry_Int_Tables_number   1
_chemical_formula_structural   Er3Ir2
_chemical_formula_sum   'Er42 Ir28'
_cell_volume   1565.81543993
_cell_formula_units_Z   14
loop_
 _symmetry_equiv_pos_site_id
 _symmetry_equiv_pos_as_xyz
  1  'x, y, z'
loop_
 _atom_site_type_symbol
 _atom_site_label
 _atom_site_symmetry_multiplicity
 _atom_site_fract_x
 _atom_site_fract_y
 _atom_site_fract_z
 _atom_site_occupancy
  Er  Er0  1  0.50376927  0.63230242  0.85681223  1
  Er  Er1  1  0.35304297  0.22450981  0.85681223  1
  Er  Er2  1  0.85304297  0.13230242  0.85681223  1
  Er  Er3  1  0.00376927  0.72450981  0.85681223  1
  Er  Er4  1  0.63230242  0.35304297  0.85681223  1
  Er  Er5  1  0.22450981  0.50376927  0.85681223  1
  Er  Er6  1  0.13230242  0.00376927  0.85681223  1
  Er  Er7  1  0.72450981  0.85304297  0.85681223  1
  Er  Er8  1  0.49623073  0.36769758  0.14318777  1
  Er  Er9  1  0.64695703  0.77549019  0.14318777  1
  Er  Er10  1  0.14695703  0.86769758  0.14318777  1
  Er  Er11  1  0.99623073  0.27549019  0.14318777  1
  Er  Er12  1  0.36769758  0.64695703  0.14318777  1
  Er  Er13  1  0.77549019  0.49623073  0.14318777  1
  Er  Er14  1  0.86769758  0.99623073  0.14318777  1
  Er  Er15  1  0.27549019  0.14695703  0.14318777  1
  Er  Er16  1  0.51678554  0.38554952  0.61221266  1
  Er  Er17  1  0.09542712  0.22666314  0.61221266  1
  Er  Er18  1  0.59542712  0.88554952  0.61221266  1
  Er  Er19  1  0.01678554  0.72666314  0.61221266  1
  Er  Er20  1  0.38554952  0.09542712  0.61221266  1
  Er  Er21  1  0.22666314  0.51678554  0.61221266  1
  Er  Er22  1  0.88554952  0.01678554  0.61221266  1
  Er  Er23  1  0.72666314  0.59542712  0.61221266  1
  Er  Er24  1  0.48321446  0.61445048  0.38778734  1
  Er  Er25  1  0.90457288  0.77333686  0.38778734  1
  Er  Er26  1  0.40457288  0.11445048  0.38778734  1
  Er  Er27  1  0.98321446  0.27333686  0.38778734  1
  Er  Er28  1  0.61445048  0.90457288  0.38778734  1
  Er  Er29  1  0.77333686  0.48321446  0.38778734  1
  Er  Er30  1  0.11445048  0.98321446  0.38778734  1
  Er  Er31  1  0.27333686  0.40457288  0.38778734  1
  Er  Er32  1  0.35025983  0.85025983  0.00000000  1
  Er  Er33  1  0.64974017  0.14974017  1.00000000  1
  Er  Er34  1  0.14974017  0.35025983  0.00000000  1
  Er  Er35  1  0.85025983  0.64974017  -0.00000000  1
  Er  Er36  1  0.88765573  0.38765573  0.77531147  1
  Er  Er37  1  0.38765573  0.88765573  0.77531147  1
  Er  Er38  1  0.11234427  0.61234427  0.22468853  1
  Er  Er39  1  0.61234427  0.11234427  0.22468853  1
  Er  Er40  1  0.75000000  0.25000000  0.50000000  1
  Er  Er41  1  0.25000000  0.75000000  0.50000000  1
  Ir  Ir42  1  0.21469523  0.71469523  0.78793555  1
  Ir  Ir43  1  0.57324033  0.07324033  0.78793555  1
  Ir  Ir44  1  0.07324033  0.21469523  0.78793555  1
  Ir  Ir45  1  0.71469523  0.57324033  0.78793555  1
  Ir  Ir46  1  0.78530477  0.28530477  0.21206445  1
  Ir  Ir47  1  0.42675967  0.92675967  0.21206445  1
  Ir  Ir48  1  0.92675967  0.78530477  0.21206445  1
  Ir  Ir49  1  0.28530477  0.42675967  0.21206445  1
  Ir  Ir50  1  0.96569634  0.46569634  0.62300743  1
  Ir  Ir51  1  0.65731109  0.15731109  0.62300743  1
  Ir  Ir52  1  0.15731109  0.96569634  0.62300743  1
  Ir  Ir53  1  0.46569634  0.65731109  0.62300743  1
  Ir  Ir54  1  0.03430366  0.53430366  0.37699257  1
  Ir  Ir55  1  0.34268891  0.84268891  0.37699257  1
  Ir  Ir56  1  0.84268891  0.03430366  0.37699257  1
  Ir  Ir57  1  0.53430366  0.34268891  0.37699257  1
  Ir  Ir58  1  0.09661626  0.59661626  0.00000000  1
  Ir  Ir59  1  0.90338374  0.40338374  1.00000000  1
  Ir  Ir60  1  0.40338374  0.09661626  0.00000000  1
  Ir  Ir61  1  0.59661626  0.90338374  -0.00000000  1
  Ir  Ir62  1  0.36613502  0.36613502  0.73227005  1
  Ir  Ir63  1  0.86613502  0.86613502  0.73227005  1
  Ir  Ir64  1  0.63386498  0.63386498  0.26772995  1
  Ir  Ir65  1  0.13386498  0.13386498  0.26772995  1
  Ir  Ir66  1  0.50000000  0.50000000  -0.00000000  1
  Ir  Ir67  1  0.00000000  0.00000000  -0.00000000  1
  Ir  Ir68  1  0.25000000  0.25000000  0.50000000  1
  Ir  Ir69  1  0.75000000  0.75000000  0.50000000  1
