# generated using pymatgen
data_CaB2H13N3
_symmetry_space_group_name_H-M   'P 1'
_cell_length_a   7.43155825
_cell_length_b   10.27179028
_cell_length_c   10.36006316
_cell_angle_alpha   118.17332108
_cell_angle_beta   90.00000000
_cell_angle_gamma   90.00000000
_symmetry_Int_Tables_number   1
_chemical_formula_structural   CaB2H13N3
_chemical_formula_sum   'Ca4 B8 H52 N12'
_cell_volume   697.14364755
_cell_formula_units_Z   4
loop_
 _symmetry_equiv_pos_site_id
 _symmetry_equiv_pos_as_xyz
  1  'x, y, z'
loop_
 _atom_site_type_symbol
 _atom_site_label
 _atom_site_symmetry_multiplicity
 _atom_site_fract_x
 _atom_site_fract_y
 _atom_site_fract_z
 _atom_site_occupancy
  Ca  Ca0  1  0.23462071  0.88827240  0.20661466  1
  Ca  Ca1  1  0.73462071  0.61172760  0.79338534  1
  Ca  Ca2  1  0.76537929  0.11172760  0.79338534  1
  Ca  Ca3  1  0.26537929  0.38827240  0.20661466  1
  B  B4  1  0.58743654  0.27226022  0.65836988  1
  B  B5  1  0.08743654  0.22773978  0.34163012  1
  B  B6  1  0.41256346  0.72773978  0.34163012  1
  B  B7  1  0.91256346  0.77226022  0.65836988  1
  B  B8  1  0.93077802  0.73490965  0.10189252  1
  B  B9  1  0.43077802  0.76509035  0.89810748  1
  B  B10  1  0.06922198  0.26509035  0.89810748  1
  B  B11  1  0.56922198  0.23490965  0.10189252  1
  H  H12  1  0.42798412  0.25323692  0.67470597  1
  H  H13  1  0.92798412  0.24676308  0.32529403  1
  H  H14  1  0.57201588  0.74676308  0.32529403  1
  H  H15  1  0.07201588  0.75323692  0.67470597  1
  H  H16  1  0.65866679  0.15075115  0.57786890  1
  H  H17  1  0.15866679  0.34924885  0.42213110  1
  H  H18  1  0.34133321  0.84924885  0.42213110  1
  H  H19  1  0.84133321  0.65075115  0.57786890  1
  H  H20  1  0.66201696  0.32051893  0.78127799  1
  H  H21  1  0.16201696  0.17948107  0.21872201  1
  H  H22  1  0.33798304  0.67948107  0.21872201  1
  H  H23  1  0.83798304  0.82051893  0.78127799  1
  H  H24  1  0.48713331  0.40411207  0.56420947  1
  H  H25  1  0.98713331  0.09588793  0.43579053  1
  H  H26  1  0.51286669  0.59588793  0.43579053  1
  H  H27  1  0.01286669  0.90411207  0.56420947  1
  H  H28  1  0.69057305  0.34697109  0.50820501  1
  H  H29  1  0.19057305  0.15302891  0.49179499  1
  H  H30  1  0.30942695  0.65302891  0.49179499  1
  H  H31  1  0.80942695  0.84697109  0.50820501  1
  H  H32  1  0.89709941  0.85095872  0.09723795  1
  H  H33  1  0.39709941  0.64904128  0.90276205  1
  H  H34  1  0.10290059  0.14904128  0.90276205  1
  H  H35  1  0.60290059  0.35095872  0.09723795  1
  H  H36  1  0.96380607  0.77172607  0.23333782  1
  H  H37  1  0.46380607  0.72827393  0.76666218  1
  H  H38  1  0.03619393  0.22827393  0.76666218  1
  H  H39  1  0.53619393  0.27172607  0.23333782  1
  H  H40  1  0.07298076  0.68531091  0.03342620  1
  H  H41  1  0.57298076  0.81468909  0.96657380  1
  H  H42  1  0.92701924  0.31468909  0.96657380  1
  H  H43  1  0.42701924  0.18531091  0.03342620  1
  H  H44  1  0.80774460  0.51943970  0.02052614  1
  H  H45  1  0.30774460  0.98056030  0.97947386  1
  H  H46  1  0.19225540  0.48056030  0.97947386  1
  H  H47  1  0.69225540  0.01943970  0.02052614  1
  H  H48  1  0.66332099  0.65440769  0.09240566  1
  H  H49  1  0.16332099  0.84559231  0.90759434  1
  H  H50  1  0.33667901  0.34559231  0.90759434  1
  H  H51  1  0.83667901  0.15440769  0.09240566  1
  H  H52  1  0.13947185  0.55381465  0.75652569  1
  H  H53  1  0.63947185  0.94618535  0.24347431  1
  H  H54  1  0.86052815  0.44618535  0.24347431  1
  H  H55  1  0.36052815  0.05381465  0.75652569  1
  H  H56  1  0.04740787  0.41020575  0.76052573  1
  H  H57  1  0.54740787  0.08979425  0.23947427  1
  H  H58  1  0.95259213  0.58979425  0.23947427  1
  H  H59  1  0.45259213  0.91020575  0.76052573  1
  H  H60  1  0.03979700  0.42638972  0.61047435  1
  H  H61  1  0.53979700  0.07361028  0.38952565  1
  H  H62  1  0.96020300  0.57361028  0.38952565  1
  H  H63  1  0.46020300  0.92638972  0.61047435  1
  N  N64  1  0.60901836  0.38505025  0.59773874  1
  N  N65  1  0.10901836  0.11494975  0.40226126  1
  N  N66  1  0.39098164  0.61494975  0.40226126  1
  N  N67  1  0.89098164  0.88505025  0.59773874  1
  N  N68  1  0.77858321  0.62139331  0.03160891  1
  N  N69  1  0.27858321  0.87860669  0.96839109  1
  N  N70  1  0.22141679  0.37860669  0.96839109  1
  N  N71  1  0.72141679  0.12139331  0.03160891  1
  N  N72  1  0.03001706  0.48509167  0.72241451  1
  N  N73  1  0.53001706  0.01490833  0.27758549  1
  N  N74  1  0.96998294  0.51490833  0.27758549  1
  N  N75  1  0.46998294  0.98509167  0.72241451  1
