# generated using pymatgen
data_Nd2H12C7N2O17
_symmetry_space_group_name_H-M   'P 1'
_cell_length_a   8.88290332
_cell_length_b   9.74402759
_cell_length_c   10.33362028
_cell_angle_alpha   73.66899902
_cell_angle_beta   86.99984210
_cell_angle_gamma   80.40037801
_symmetry_Int_Tables_number   1
_chemical_formula_structural   Nd2H12C7N2O17
_chemical_formula_sum   'Nd4 H24 C14 N4 O34'
_cell_volume   846.30859765
_cell_formula_units_Z   2
loop_
 _symmetry_equiv_pos_site_id
 _symmetry_equiv_pos_as_xyz
  1  'x, y, z'
loop_
 _atom_site_type_symbol
 _atom_site_label
 _atom_site_symmetry_multiplicity
 _atom_site_fract_x
 _atom_site_fract_y
 _atom_site_fract_z
 _atom_site_occupancy
  Nd  Nd0  1  0.20027879  0.81164259  0.81558878  1
  Nd  Nd1  1  0.79972121  0.18835741  0.18441122  1
  Nd  Nd2  1  0.64837395  0.59430095  0.58846324  1
  Nd  Nd3  1  0.35162605  0.40569905  0.41153676  1
  H  H4  1  0.86655802  0.82251774  0.69559399  1
  H  H5  1  0.13344198  0.17748226  0.30440601  1
  H  H6  1  0.85290312  0.82846741  0.84708331  1
  H  H7  1  0.14709688  0.17153259  0.15291669  1
  H  H8  1  0.64631204  0.04874214  0.95045311  1
  H  H9  1  0.35368796  0.95125786  0.04954689  1
  H  H10  1  0.57280692  0.95986903  0.87265436  1
  H  H11  1  0.42719308  0.04013097  0.12734564  1
  H  H12  1  0.31548500  0.82763552  0.34738642  1
  H  H13  1  0.68451500  0.17236448  0.65261358  1
  H  H14  1  0.16575359  0.87567342  0.44092254  1
  H  H15  1  0.83424641  0.12432658  0.55907746  1
  H  H16  1  0.15942452  0.94420817  0.27493823  1
  H  H17  1  0.84057548  0.05579183  0.72506177  1
  H  H18  1  0.14989263  0.76353577  0.34232487  1
  H  H19  1  0.85010737  0.23646423  0.65767513  1
  H  H20  1  0.62251590  0.68002990  0.19585978  1
  H  H21  1  0.37748410  0.31997010  0.80414022  1
  H  H22  1  0.76245451  0.60864992  0.10606935  1
  H  H23  1  0.23754549  0.39135008  0.89393065  1
  H  H24  1  0.80422881  0.69815131  0.21730524  1
  H  H25  1  0.19577119  0.30184869  0.78269476  1
  H  H26  1  0.70928386  0.79245331  0.07142445  1
  H  H27  1  0.29071614  0.20754669  0.92857555  1
  C  C28  1  0.73550052  0.92305901  0.45775161  1
  C  C29  1  0.26449948  0.07694099  0.54224839  1
  C  C30  1  0.61499028  0.91654636  0.35604036  1
  C  C31  1  0.38500972  0.08345364  0.64395964  1
  C  C32  1  0.71891714  0.47086138  0.91742443  1
  C  C33  1  0.28108286  0.52913862  0.08257557  1
  C  C34  1  0.64253665  0.34980605  0.88822524  1
  C  C35  1  0.35746335  0.65019395  0.11177476  1
  C  C36  1  0.98316324  0.92932861  0.05213230  1
  C  C37  1  0.01683676  0.07067139  0.94786770  1
  C  C38  1  0.99093243  0.56409690  0.43540537  1
  C  C39  1  0.00906757  0.43590310  0.56459463  1
  C  C40  1  0.31690851  0.63879413  0.63574177  1
  C  C41  1  0.68309149  0.36120587  0.36425823  1
  N  N42  1  0.19739897  0.85184820  0.35062166  1
  N  N43  1  0.80260103  0.14815180  0.64937834  1
  N  N44  1  0.72615191  0.69484235  0.14750050  1
  N  N45  1  0.27384809  0.30515765  0.85249950  1
  O  O46  1  0.81417721  0.02427647  0.42267432  1
  O  O47  1  0.18582279  0.97572353  0.57732568  1
  O  O48  1  0.74321489  0.82688354  0.57102914  1
  O  O49  1  0.25678511  0.17311646  0.42897086  1
  O  O50  1  0.54095852  0.81097972  0.39202083  1
  O  O51  1  0.45904148  0.18902028  0.60797917  1
  O  O52  1  0.59933303  0.01731434  0.24681811  1
  O  O53  1  0.40066697  0.98268566  0.75318189  1
  O  O54  1  0.76476824  0.44734438  0.03767649  1
  O  O55  1  0.23523176  0.55265562  0.96232351  1
  O  O56  1  0.72586462  0.58279391  0.82127670  1
  O  O57  1  0.27413538  0.41720609  0.17872330  1
  O  O58  1  0.58837337  0.37496867  0.77136259  1
  O  O59  1  0.41162663  0.62503133  0.22863741  1
  O  O60  1  0.63615280  0.23513874  0.98364683  1
  O  O61  1  0.36384720  0.76486126  0.01635317  1
  O  O62  1  0.03351331  0.81102258  0.02548425  1
  O  O63  1  0.96648669  0.18897742  0.97451575  1
  O  O64  1  0.90701396  0.94411307  0.15622151  1
  O  O65  1  0.09298604  0.05588693  0.84377849  1
  O  O66  1  0.86035504  0.63987622  0.41160330  1
  O  O67  1  0.13964496  0.36012378  0.58839670  1
  O  O68  1  0.10980177  0.58441715  0.36302482  1
  O  O69  1  0.89019823  0.41558285  0.63697518  1
  O  O70  1  0.17406160  0.66174722  0.65905133  1
  O  O71  1  0.82593840  0.33825278  0.34094867  1
  O  O72  1  0.41135923  0.69227322  0.69525389  1
  O  O73  1  0.58864077  0.30772678  0.30474611  1
  O  O74  1  0.37937256  0.56532461  0.55328509  1
  O  O75  1  0.62062744  0.43467539  0.44671491  1
  O  O76  1  0.92143692  0.84196634  0.76901529  1
  O  O77  1  0.07856308  0.15803366  0.23098471  1
  O  O78  1  0.66291522  0.95599417  0.92657478  1
  O  O79  1  0.33708478  0.04400583  0.07342522  1
