# generated using pymatgen
data_AlCu6H12SClO19
_symmetry_space_group_name_H-M   'P 1'
_cell_length_a   8.21822342
_cell_length_b   8.24339624
_cell_length_c   13.62070973
_cell_angle_alpha   89.98190770
_cell_angle_beta   89.96370460
_cell_angle_gamma   60.10096207
_symmetry_Int_Tables_number   1
_chemical_formula_structural   AlCu6H12SClO19
_chemical_formula_sum   'Al2 Cu12 H24 S2 Cl2 O38'
_cell_volume   799.93617623
_cell_formula_units_Z   2
loop_
 _symmetry_equiv_pos_site_id
 _symmetry_equiv_pos_as_xyz
  1  'x, y, z'
loop_
 _atom_site_type_symbol
 _atom_site_label
 _atom_site_symmetry_multiplicity
 _atom_site_fract_x
 _atom_site_fract_y
 _atom_site_fract_z
 _atom_site_occupancy
  Al  Al0  1  0.33311184  0.33370068  0.51490068  1
  Al  Al1  1  0.66681252  0.66629932  0.01490068  1
  Cu  Cu2  1  0.75784644  0.03521829  0.51316436  1
  Cu  Cu3  1  0.03521595  0.20637605  0.51388522  1
  Cu  Cu4  1  0.20668850  0.75888565  0.51372297  1
  Cu  Cu5  1  0.79306473  0.96478171  0.01316436  1
  Cu  Cu6  1  0.24159200  0.79362395  0.01388522  1
  Cu  Cu7  1  0.96557415  0.24111435  0.01372297  1
  Cu  Cu8  1  0.62853723  0.47380149  0.48881968  1
  Cu  Cu9  1  0.47299043  0.89821071  0.48766019  1
  Cu  Cu10  1  0.89781489  0.62882435  0.48855906  1
  Cu  Cu11  1  0.10233871  0.52619851  0.98881968  1
  Cu  Cu12  1  0.37120115  0.10178929  0.98766019  1
  Cu  Cu13  1  0.52663925  0.37117565  0.98855906  1
  H  H14  1  0.57654849  0.23516123  0.65745655  1
  H  H15  1  0.23506888  0.18848869  0.65726961  1
  H  H16  1  0.18901638  0.57532557  0.65766035  1
  H  H17  1  0.81170971  0.76483877  0.15745655  1
  H  H18  1  0.42355757  0.81151131  0.15726961  1
  H  H19  1  0.76434195  0.42467443  0.15766035  1
  H  H20  1  0.82611216  0.20828368  0.37392146  1
  H  H21  1  0.20759645  0.96624568  0.37258641  1
  H  H22  1  0.96635206  0.82521875  0.37348266  1
  H  H23  1  0.03439584  0.79171632  0.87392146  1
  H  H24  1  0.17384213  0.03375432  0.87258641  1
  H  H25  1  0.79157081  0.17478125  0.87348266  1
  H  H26  1  0.11729767  0.41162572  0.36124207  1
  H  H27  1  0.41047776  0.47270024  0.36171048  1
  H  H28  1  0.47091874  0.11916560  0.36110130  1
  H  H29  1  0.52892339  0.58837428  0.86124207  1
  H  H30  1  0.88317799  0.52729976  0.86171048  1
  H  H31  1  0.59008434  0.88083440  0.86110130  1
  H  H32  1  0.83167441  0.50038968  0.67001943  1
  H  H33  1  0.49591244  0.67267977  0.66942392  1
  H  H34  1  0.67372615  0.82710877  0.66938240  1
  H  H35  1  0.33206409  0.49961032  0.17001943  1
  H  H36  1  0.16859220  0.32732023  0.16942392  1
  H  H37  1  0.50083492  0.17289123  0.16938240  1
  S  S38  1  0.00018798  0.99902335  0.73065939  1
  S  S39  1  0.99921133  0.00097665  0.23065939  1
  Cl  Cl40  1  0.66413710  0.66721873  0.33927026  1
  Cl  Cl41  1  0.33135583  0.33278127  0.83927026  1
  O  O42  1  0.83993423  0.45929309  0.55048263  1
  O  O43  1  0.45946388  0.70245395  0.55054399  1
  O  O44  1  0.70091133  0.83938472  0.54983185  1
  O  O45  1  0.29922732  0.54070691  0.05048263  1
  O  O46  1  0.16191783  0.29754605  0.05054399  1
  O  O47  1  0.54029605  0.16061528  0.04983185  1
  O  O48  1  0.55907683  0.24052640  0.58641481  1
  O  O49  1  0.24075418  0.19960823  0.58607118  1
  O  O50  1  0.19974722  0.55925858  0.58641249  1
  O  O51  1  0.79960323  0.75947360  0.08641481  1
  O  O52  1  0.44036242  0.80039177  0.08607118  1
  O  O53  1  0.75900581  0.44074142  0.08641249  1
  O  O54  1  0.11321879  0.42040888  0.43402043  1
  O  O55  1  0.42019372  0.46591177  0.43443802  1
  O  O56  1  0.46675238  0.11400512  0.43392636  1
  O  O57  1  0.53362767  0.57959112  0.93402043  1
  O  O58  1  0.88610549  0.53408823  0.93443802  1
  O  O59  1  0.58075749  0.88599488  0.93392636  1
  O  O60  1  0.14762127  0.04096387  0.76492916  1
  O  O61  1  0.04116898  0.81118621  0.76580340  1
  O  O62  1  0.81096988  0.14646216  0.76466091  1
  O  O63  1  0.18858514  0.95903613  0.26492916  1
  O  O64  1  0.85235519  0.18881379  0.26580340  1
  O  O65  1  0.95743204  0.85353784  0.26466091  1
  O  O66  1  0.00125659  0.99755816  0.62057090  1
  O  O67  1  0.99881474  0.00244184  0.12057090  1
  O  O68  1  0.81467776  0.21929167  0.45060891  1
  O  O69  1  0.21897025  0.96662968  0.44925788  1
  O  O70  1  0.96664599  0.81429719  0.44992533  1
  O  O71  1  0.03396943  0.78070833  0.95060891  1
  O  O72  1  0.18559993  0.03337032  0.94925788  1
  O  O73  1  0.78094318  0.18570281  0.94992533  1
  O  O74  1  0.47617564  0.18079683  0.24273273  1
  O  O75  1  0.18019545  0.34331878  0.24260276  1
  O  O76  1  0.34421487  0.47662967  0.24346779  1
  O  O77  1  0.65697247  0.81920317  0.74273273  1
  O  O78  1  0.52351423  0.65668122  0.74260276  1
  O  O79  1  0.82084453  0.52337033  0.74346779  1
