# generated using pymatgen
data_Na2CuH12(SO7)2
_symmetry_space_group_name_H-M   'P 1'
_cell_length_a   5.91887739
_cell_length_b   8.92810799
_cell_length_c   12.19386899
_cell_angle_alpha   90.00000000
_cell_angle_beta   90.00000000
_cell_angle_gamma   102.85588391
_symmetry_Int_Tables_number   1
_chemical_formula_structural   Na2CuH12(SO7)2
_chemical_formula_sum   'Na4 Cu2 H24 S4 O28'
_cell_volume   628.22466845
_cell_formula_units_Z   2
loop_
 _symmetry_equiv_pos_site_id
 _symmetry_equiv_pos_as_xyz
  1  'x, y, z'
loop_
 _atom_site_type_symbol
 _atom_site_label
 _atom_site_symmetry_multiplicity
 _atom_site_fract_x
 _atom_site_fract_y
 _atom_site_fract_z
 _atom_site_occupancy
  Na  Na0  1  0.16520032  0.86927213  0.86678171  1
  Na  Na1  1  0.83479968  0.63072787  0.36678171  1
  Na  Na2  1  0.83479968  0.13072787  0.13321829  1
  Na  Na3  1  0.16520032  0.36927213  0.63321829  1
  Cu  Cu4  1  0.50000000  0.50000000  0.00000000  1
  Cu  Cu5  1  0.50000000  -0.00000000  0.50000000  1
  H  H6  1  0.82805149  0.70414320  0.09004291  1
  H  H7  1  0.17194851  0.79585680  0.59004291  1
  H  H8  1  0.17194851  0.29585680  0.90995709  1
  H  H9  1  0.82805149  0.20414320  0.40995709  1
  H  H10  1  0.59102745  0.74431995  0.12746912  1
  H  H11  1  0.40897255  0.75568005  0.62746912  1
  H  H12  1  0.40897255  0.25568005  0.87253088  1
  H  H13  1  0.59102745  0.24431995  0.37253088  1
  H  H14  1  0.17520719  0.46533470  0.14455086  1
  H  H15  1  0.82479281  0.03466530  0.64455086  1
  H  H16  1  0.82479281  0.53466530  0.85544914  1
  H  H17  1  0.17520719  0.96533470  0.35544914  1
  H  H18  1  0.17180663  0.60699427  0.06207065  1
  H  H19  1  0.82819337  0.89300573  0.56207065  1
  H  H20  1  0.82819337  0.39300573  0.93792935  1
  H  H21  1  0.17180663  0.10699427  0.43792935  1
  H  H22  1  0.57382839  0.78739753  0.89142552  1
  H  H23  1  0.42617161  0.71260247  0.39142552  1
  H  H24  1  0.42617161  0.21260247  0.10857448  1
  H  H25  1  0.57382839  0.28739753  0.60857448  1
  H  H26  1  0.47238968  0.65965449  0.80438162  1
  H  H27  1  0.52761032  0.84034551  0.30438162  1
  H  H28  1  0.52761032  0.34034551  0.19561838  1
  H  H29  1  0.47238968  0.15965449  0.69561838  1
  S  S30  1  0.22367456  0.90908636  0.13782006  1
  S  S31  1  0.77632544  0.59091364  0.63782006  1
  S  S32  1  0.77632544  0.09091364  0.86217994  1
  S  S33  1  0.22367456  0.40908636  0.36217994  1
  O  O34  1  0.43849376  0.70166988  0.87605017  1
  O  O35  1  0.56150624  0.79833012  0.37605017  1
  O  O36  1  0.56150624  0.29833012  0.12394983  1
  O  O37  1  0.43849376  0.20166988  0.62394983  1
  O  O38  1  0.66769571  0.65722046  0.11469293  1
  O  O39  1  0.33230429  0.84277954  0.61469293  1
  O  O40  1  0.33230429  0.34277954  0.88530707  1
  O  O41  1  0.66769571  0.15722046  0.38530707  1
  O  O42  1  0.20399708  0.50127998  0.06685860  1
  O  O43  1  0.79600292  0.99872002  0.56685860  1
  O  O44  1  0.79600292  0.49872002  0.93314140  1
  O  O45  1  0.20399708  0.00127998  0.43314140  1
  O  O46  1  0.12256969  0.78164483  0.05925263  1
  O  O47  1  0.87743031  0.71835517  0.55925263  1
  O  O48  1  0.87743031  0.21835517  0.94074737  1
  O  O49  1  0.12256969  0.28164483  0.44074737  1
  O  O50  1  0.21332885  0.05704490  0.08439365  1
  O  O51  1  0.78667115  0.44295510  0.58439365  1
  O  O52  1  0.78667115  0.94295510  0.91560635  1
  O  O53  1  0.21332885  0.55704490  0.41560635  1
  O  O54  1  0.08028582  0.88783360  0.23948480  1
  O  O55  1  0.91971418  0.61216640  0.73948480  1
  O  O56  1  0.91971418  0.11216640  0.76051520  1
  O  O57  1  0.08028582  0.38783360  0.26051520  1
  O  O58  1  0.46966210  0.90427420  0.16354992  1
  O  O59  1  0.53033790  0.59572580  0.66354992  1
  O  O60  1  0.53033790  0.09572580  0.83645008  1
  O  O61  1  0.46966210  0.40427420  0.33645008  1
