# generated using pymatgen
data_Ba3U2As4O19
_symmetry_space_group_name_H-M   'P 1'
_cell_length_a   9.70602784
_cell_length_b   9.84020129
_cell_length_c   10.95086721
_cell_angle_alpha   95.53896809
_cell_angle_beta   116.30583936
_cell_angle_gamma   90.00000000
_symmetry_Int_Tables_number   1
_chemical_formula_structural   Ba3U2As4O19
_chemical_formula_sum   'Ba6 U4 As8 O38'
_cell_volume   932.14540108
_cell_formula_units_Z   2
loop_
 _symmetry_equiv_pos_site_id
 _symmetry_equiv_pos_as_xyz
  1  'x, y, z'
loop_
 _atom_site_type_symbol
 _atom_site_label
 _atom_site_symmetry_multiplicity
 _atom_site_fract_x
 _atom_site_fract_y
 _atom_site_fract_z
 _atom_site_occupancy
  Ba  Ba0  1  0.17692255  0.60545280  0.26486593  1
  Ba  Ba1  1  0.91205662  0.89454720  0.73513407  1
  Ba  Ba2  1  0.82307745  0.39454720  0.73513407  1
  Ba  Ba3  1  0.08794338  0.10545280  0.26486593  1
  Ba  Ba4  1  0.38073471  0.25000000  0.00000000  1
  Ba  Ba5  1  0.61926529  0.75000000  1.00000000  1
  U  U6  1  0.28730367  0.42322774  0.63815755  1
  U  U7  1  0.64914611  0.07677226  0.36184245  1
  U  U8  1  0.71269633  0.57677226  0.36184245  1
  U  U9  1  0.35085389  0.92322774  0.63815755  1
  As  As10  1  0.06174512  0.17509970  0.62011852  1
  As  As11  1  0.44162660  0.32490030  0.37988148  1
  As  As12  1  0.93825488  0.82490030  0.37988148  1
  As  As13  1  0.55837340  0.67509970  0.62011852  1
  As  As14  1  0.20825737  0.59439673  0.91658153  1
  As  As15  1  0.29167584  0.90560327  0.08341847  1
  As  As16  1  0.79174263  0.40560327  0.08341847  1
  As  As17  1  0.70832416  0.09439673  0.91658153  1
  O  O18  1  0.33122174  0.52818914  0.85191803  1
  O  O19  1  0.47930372  0.97181086  0.14808197  1
  O  O20  1  0.66877826  0.47181086  0.14808197  1
  O  O21  1  0.52069628  0.02818914  0.85191803  1
  O  O22  1  0.87324375  0.12807466  0.57293205  1
  O  O23  1  0.30031169  0.37192534  0.42706795  1
  O  O24  1  0.12675625  0.87192534  0.42706795  1
  O  O25  1  0.69968831  0.62807466  0.57293205  1
  O  O26  1  0.10217968  0.23643328  0.49817549  1
  O  O27  1  0.60400419  0.26356672  0.50182451  1
  O  O28  1  0.89782032  0.76356672  0.50182451  1
  O  O29  1  0.39599581  0.73643328  0.49817549  1
  O  O30  1  0.16296795  0.03251355  0.68168970  1
  O  O31  1  0.48127825  0.46748645  0.31831030  1
  O  O32  1  0.83703205  0.96748645  0.31831030  1
  O  O33  1  0.51872175  0.53251355  0.68168970  1
  O  O34  1  0.16305574  0.55162752  0.54173859  1
  O  O35  1  0.62131715  0.94837248  0.45826141  1
  O  O36  1  0.83694426  0.44837248  0.45826141  1
  O  O37  1  0.37868285  0.05162752  0.54173859  1
  O  O38  1  0.02974411  0.63616962  0.80770534  1
  O  O39  1  0.22203877  0.86383038  0.19229466  1
  O  O40  1  0.97025589  0.36383038  0.19229466  1
  O  O41  1  0.77796123  0.13616962  0.80770534  1
  O  O42  1  0.41077957  0.29415440  0.73454440  1
  O  O43  1  0.67623518  0.20584560  0.26545560  1
  O  O44  1  0.58922043  0.70584560  0.26545560  1
  O  O45  1  0.32376482  0.79415440  0.73454440  1
  O  O46  1  0.11727453  0.30956044  0.74760680  1
  O  O47  1  0.36966773  0.19043956  0.25239320  1
  O  O48  1  0.88272547  0.69043956  0.25239320  1
  O  O49  1  0.63033227  0.80956044  0.74760680  1
  O  O50  1  0.20997296  0.49306200  0.03425927  1
  O  O51  1  0.17571370  0.00693800  0.96574073  1
  O  O52  1  0.79002704  0.50693800  0.96574073  1
  O  O53  1  0.82428630  0.99306200  0.03425927  1
  O  O54  1  0.32520865  0.75000000  1.00000000  1
  O  O55  1  0.67479135  0.25000000  0.00000000  1
