# generated using pymatgen
data_La6Fe13Sn
_symmetry_space_group_name_H-M   'P 1'
_cell_length_a   8.09441292
_cell_length_b   8.09441292
_cell_length_c   13.46767279
_cell_angle_alpha   107.48839992
_cell_angle_beta   107.48839992
_cell_angle_gamma   90.00000000
_symmetry_Int_Tables_number   1
_chemical_formula_structural   La6Fe13Sn
_chemical_formula_sum   'La12 Fe26 Sn2'
_cell_volume   798.74300377
_cell_formula_units_Z   2
loop_
 _symmetry_equiv_pos_site_id
 _symmetry_equiv_pos_as_xyz
  1  'x, y, z'
loop_
 _atom_site_type_symbol
 _atom_site_label
 _atom_site_symmetry_multiplicity
 _atom_site_fract_x
 _atom_site_fract_y
 _atom_site_fract_z
 _atom_site_occupancy
  La  La0  1  0.60432361  0.60432361  0.20864722  1
  La  La1  1  0.10432361  0.10432361  0.20864722  1
  La  La2  1  0.39567639  0.39567639  0.79135278  1
  La  La3  1  0.89567639  0.89567639  0.79135278  1
  La  La4  1  0.97988685  0.47988685  0.63483640  1
  La  La5  1  0.65494955  0.15494955  0.63483640  1
  La  La6  1  0.15494955  0.97988685  0.63483640  1
  La  La7  1  0.47988685  0.65494955  0.63483640  1
  La  La8  1  0.02011315  0.52011315  0.36516360  1
  La  La9  1  0.34505045  0.84505045  0.36516360  1
  La  La10  1  0.84505045  0.02011315  0.36516360  1
  La  La11  1  0.52011315  0.34505045  0.36516360  1
  Fe  Fe12  1  -0.00000000  0.50000000  0.00000000  1
  Fe  Fe13  1  0.50000000  0.00000000  0.00000000  1
  Fe  Fe14  1  0.70902400  0.56717021  0.00000000  1
  Fe  Fe15  1  0.29097600  0.43282979  1.00000000  1
  Fe  Fe16  1  0.79097600  0.06717021  1.00000000  1
  Fe  Fe17  1  0.20902400  0.93282979  0.00000000  1
  Fe  Fe18  1  0.56717021  0.29097600  1.00000000  1
  Fe  Fe19  1  0.43282979  0.70902400  0.00000000  1
  Fe  Fe20  1  0.06717021  0.20902400  0.00000000  1
  Fe  Fe21  1  0.93282979  0.79097600  1.00000000  1
  Fe  Fe22  1  0.12127964  0.62127964  0.88611539  1
  Fe  Fe23  1  0.76483575  0.26483575  0.88611539  1
  Fe  Fe24  1  0.26483575  0.12127964  0.88611539  1
  Fe  Fe25  1  0.62127964  0.76483575  0.88611539  1
  Fe  Fe26  1  0.87872036  0.37872036  0.11388461  1
  Fe  Fe27  1  0.23516425  0.73516425  0.11388461  1
  Fe  Fe28  1  0.73516425  0.87872036  0.11388461  1
  Fe  Fe29  1  0.37872036  0.23516425  0.11388461  1
  Fe  Fe30  1  0.29679203  0.79679203  0.81954735  1
  Fe  Fe31  1  0.52275532  0.02275532  0.81954735  1
  Fe  Fe32  1  0.02275532  0.29679203  0.81954735  1
  Fe  Fe33  1  0.79679203  0.52275532  0.81954735  1
  Fe  Fe34  1  0.70320797  0.20320797  0.18045265  1
  Fe  Fe35  1  0.47724468  0.97724468  0.18045265  1
  Fe  Fe36  1  0.97724468  0.70320797  0.18045265  1
  Fe  Fe37  1  0.20320797  0.47724468  0.18045265  1
  Sn  Sn38  1  0.25000000  0.25000000  0.50000000  1
  Sn  Sn39  1  0.75000000  0.75000000  0.50000000  1
