# generated using pymatgen
data_KTbH2C2SO9
_symmetry_space_group_name_H-M   'P 1'
_cell_length_a   6.62412971
_cell_length_b   8.68161056
_cell_length_c   13.63914034
_cell_angle_alpha   90.00000000
_cell_angle_beta   93.64018573
_cell_angle_gamma   90.00000000
_symmetry_Int_Tables_number   1
_chemical_formula_structural   KTbH2C2SO9
_chemical_formula_sum   'K4 Tb4 H8 C8 S4 O36'
_cell_volume   782.77874985
_cell_formula_units_Z   4
loop_
 _symmetry_equiv_pos_site_id
 _symmetry_equiv_pos_as_xyz
  1  'x, y, z'
loop_
 _atom_site_type_symbol
 _atom_site_label
 _atom_site_symmetry_multiplicity
 _atom_site_fract_x
 _atom_site_fract_y
 _atom_site_fract_z
 _atom_site_occupancy
  K  K0  1  0.73178498  0.34861285  0.69801877  1
  K  K1  1  0.76821502  0.84861285  0.80198123  1
  K  K2  1  0.26821502  0.65138715  0.30198123  1
  K  K3  1  0.23178498  0.15138715  0.19801877  1
  Tb  Tb4  1  0.25662788  0.74178471  0.58664401  1
  Tb  Tb5  1  0.24337212  0.24178471  0.91335599  1
  Tb  Tb6  1  0.74337212  0.25821529  0.41335599  1
  Tb  Tb7  1  0.75662788  0.75821529  0.08664401  1
  H  H8  1  0.14353898  0.96682641  0.42020109  1
  H  H9  1  0.35646102  0.46682641  0.07979891  1
  H  H10  1  0.85646102  0.03317359  0.57979891  1
  H  H11  1  0.64353898  0.53317359  0.92020109  1
  H  H12  1  0.37920718  0.95949066  0.41817822  1
  H  H13  1  0.12079282  0.45949066  0.08182178  1
  H  H14  1  0.62079282  0.04050934  0.58182178  1
  H  H15  1  0.87920718  0.54050934  0.91817822  1
  C  C16  1  0.36303531  0.53447020  0.77981257  1
  C  C17  1  0.13696469  0.03447020  0.72018743  1
  C  C18  1  0.63696469  0.46552980  0.22018743  1
  C  C19  1  0.86303531  0.96552980  0.27981257  1
  C  C20  1  0.36807850  0.03318268  0.73185468  1
  C  C21  1  0.13192150  0.53318268  0.76814532  1
  C  C22  1  0.63192150  0.96681732  0.26814532  1
  C  C23  1  0.86807850  0.46681732  0.23185468  1
  S  S24  1  0.73623461  0.66234260  0.47645527  1
  S  S25  1  0.76376539  0.16234260  0.02354473  1
  S  S26  1  0.26376539  0.33765740  0.52354473  1
  S  S27  1  0.23623461  0.83765740  0.97645527  1
  O  O28  1  0.45659372  0.62303369  0.72507974  1
  O  O29  1  0.04340628  0.12303369  0.77492026  1
  O  O30  1  0.54340628  0.37696631  0.27492026  1
  O  O31  1  0.95659372  0.87696631  0.22507974  1
  O  O32  1  0.05588818  0.94306367  0.65560494  1
  O  O33  1  0.44411182  0.44306367  0.84439506  1
  O  O34  1  0.94411182  0.05693633  0.34439506  1
  O  O35  1  0.55588818  0.55693633  0.15560494  1
  O  O36  1  0.45763223  0.95045057  0.67067130  1
  O  O37  1  0.04236777  0.45045057  0.82932870  1
  O  O38  1  0.54236777  0.04954943  0.32932870  1
  O  O39  1  0.95763223  0.54954943  0.17067130  1
  O  O40  1  0.04740142  0.61003093  0.69836375  1
  O  O41  1  0.45259858  0.11003093  0.80163625  1
  O  O42  1  0.95259858  0.38996907  0.30163625  1
  O  O43  1  0.54740142  0.88996907  0.19836375  1
  O  O44  1  0.93811720  0.73403162  0.49948207  1
  O  O45  1  0.56188280  0.23403162  0.00051793  1
  O  O46  1  0.06188280  0.26596838  0.50051793  1
  O  O47  1  0.43811720  0.76596838  0.99948207  1
  O  O48  1  0.74681234  0.49208627  0.49626546  1
  O  O49  1  0.75318766  0.99208627  0.00373454  1
  O  O50  1  0.25318766  0.50791373  0.50373454  1
  O  O51  1  0.24681234  0.00791373  0.99626546  1
  O  O52  1  0.59008976  0.73171705  0.54289887  1
  O  O53  1  0.90991024  0.23171705  0.95710113  1
  O  O54  1  0.40991024  0.26828295  0.45710113  1
  O  O55  1  0.09008976  0.76828295  0.04289887  1
  O  O56  1  0.67090113  0.69015316  0.37280929  1
  O  O57  1  0.82909887  0.19015316  0.12719071  1
  O  O58  1  0.32909887  0.30984684  0.62719071  1
  O  O59  1  0.17090113  0.80984684  0.87280929  1
  O  O60  1  0.26280014  0.90468745  0.44368994  1
  O  O61  1  0.23719986  0.40468745  0.05631006  1
  O  O62  1  0.73719986  0.09531255  0.55631006  1
  O  O63  1  0.76280014  0.59531255  0.94368994  1
