# generated using pymatgen
data_MgH6CO6
_symmetry_space_group_name_H-M   'P 1'
_cell_length_a   5.49659551
_cell_length_b   7.79261509
_cell_length_c   11.98448098
_cell_angle_alpha   89.05367443
_cell_angle_beta   90.00000000
_cell_angle_gamma   90.00000000
_symmetry_Int_Tables_number   1
_chemical_formula_structural   MgH6CO6
_chemical_formula_sum   'Mg4 H24 C4 O24'
_cell_volume   513.25949839
_cell_formula_units_Z   4
loop_
 _symmetry_equiv_pos_site_id
 _symmetry_equiv_pos_as_xyz
  1  'x, y, z'
loop_
 _atom_site_type_symbol
 _atom_site_label
 _atom_site_symmetry_multiplicity
 _atom_site_fract_x
 _atom_site_fract_y
 _atom_site_fract_z
 _atom_site_occupancy
  Mg  Mg0  1  0.41051225  0.75237535  0.64727470  1
  Mg  Mg1  1  0.08948775  0.25237535  0.14727470  1
  Mg  Mg2  1  0.58948775  0.24762465  0.35272530  1
  Mg  Mg3  1  0.91051225  0.74762465  0.85272530  1
  H  H4  1  0.33219807  0.08316600  0.58852908  1
  H  H5  1  0.16780193  0.58316600  0.08852908  1
  H  H6  1  0.66780193  0.91683400  0.41147092  1
  H  H7  1  0.83219807  0.41683400  0.91147092  1
  H  H8  1  0.56701842  0.08016722  0.65999105  1
  H  H9  1  0.93298158  0.58016722  0.15999105  1
  H  H10  1  0.43298158  0.91983278  0.34000895  1
  H  H11  1  0.06701842  0.41983278  0.84000895  1
  H  H12  1  0.35144241  0.41482550  0.58486919  1
  H  H13  1  0.14855759  0.91482550  0.08486919  1
  H  H14  1  0.64855759  0.58517450  0.41513081  1
  H  H15  1  0.85144241  0.08517450  0.91513081  1
  H  H16  1  0.38997491  0.42010901  0.71666433  1
  H  H17  1  0.11002509  0.92010901  0.21666433  1
  H  H18  1  0.61002509  0.57989099  0.28333567  1
  H  H19  1  0.88997491  0.07989099  0.78333567  1
  H  H20  1  0.20380385  0.67535291  0.31524638  1
  H  H21  1  0.29619615  0.17535291  0.81524638  1
  H  H22  1  0.79619615  0.32464709  0.68475362  1
  H  H23  1  0.70380385  0.82464709  0.18475362  1
  H  H24  1  0.11681928  0.78042059  0.42047182  1
  H  H25  1  0.38318072  0.28042059  0.92047182  1
  H  H26  1  0.88318072  0.21957941  0.57952818  1
  H  H27  1  0.61681928  0.71957941  0.07952818  1
  C  C28  1  0.36049107  0.74264616  0.91168387  1
  C  C29  1  0.13950893  0.24264616  0.41168387  1
  C  C30  1  0.63950893  0.25735384  0.08831613  1
  C  C31  1  0.86049107  0.75735384  0.58831613  1
  O  O32  1  0.40885505  0.01989488  0.65200481  1
  O  O33  1  0.09114495  0.51989488  0.15200481  1
  O  O34  1  0.59114495  0.98010512  0.34799519  1
  O  O35  1  0.90885505  0.48010512  0.84799519  1
  O  O36  1  0.40744549  0.48787942  0.64676914  1
  O  O37  1  0.09255451  0.98787942  0.14676914  1
  O  O38  1  0.59255451  0.51212058  0.35323086  1
  O  O39  1  0.90744549  0.01212058  0.85323086  1
  O  O40  1  0.08556396  0.76429203  0.55797200  1
  O  O41  1  0.41443604  0.26429203  0.05797200  1
  O  O42  1  0.91443604  0.23570797  0.44202800  1
  O  O43  1  0.58556396  0.73570797  0.94202800  1
  O  O44  1  0.29280025  0.74004792  0.80831156  1
  O  O45  1  0.20719975  0.24004792  0.30831156  1
  O  O46  1  0.70719975  0.25995208  0.19168844  1
  O  O47  1  0.79280025  0.75995208  0.69168844  1
  O  O48  1  0.68497817  0.75013524  0.51502385  1
  O  O49  1  0.81502183  0.25013524  0.01502385  1
  O  O50  1  0.31502183  0.24986476  0.48497615  1
  O  O51  1  0.18497817  0.74986476  0.98497615  1
  O  O52  1  0.16262369  0.79111771  0.33901092  1
  O  O53  1  0.33737631  0.29111771  0.83901092  1
  O  O54  1  0.83737631  0.20888229  0.66098908  1
  O  O55  1  0.66262369  0.70888229  0.16098908  1
