# generated using pymatgen
data_HoSbMo2O9
_symmetry_space_group_name_H-M   'P 1'
_cell_length_a   9.67303321
_cell_length_b   9.67303321
_cell_length_c   10.82040462
_cell_angle_alpha   111.95224831
_cell_angle_beta   111.95224831
_cell_angle_gamma   95.19925842
_symmetry_Int_Tables_number   1
_chemical_formula_structural   HoSbMo2O9
_chemical_formula_sum   'Ho4 Sb4 Mo8 O36'
_cell_volume   839.13802376
_cell_formula_units_Z   4
loop_
 _symmetry_equiv_pos_site_id
 _symmetry_equiv_pos_as_xyz
  1  'x, y, z'
loop_
 _atom_site_type_symbol
 _atom_site_label
 _atom_site_symmetry_multiplicity
 _atom_site_fract_x
 _atom_site_fract_y
 _atom_site_fract_z
 _atom_site_occupancy
  Ho  Ho0  1  0.67098920  0.32901080  0.25000000  1
  Ho  Ho1  1  0.32901080  0.67098920  0.75000000  1
  Ho  Ho2  1  0.12572152  0.87427848  0.25000000  1
  Ho  Ho3  1  0.87427848  0.12572152  0.75000000  1
  Sb  Sb4  1  0.65203295  0.61783117  0.03468692  1
  Sb  Sb5  1  0.38216883  0.34796705  0.46531308  1
  Sb  Sb6  1  0.34796705  0.38216883  0.96531308  1
  Sb  Sb7  1  0.61783117  0.65203295  0.53468692  1
  Mo  Mo8  1  0.04616723  0.25980915  0.52592848  1
  Mo  Mo9  1  0.74019085  0.95383277  0.97407152  1
  Mo  Mo10  1  0.95383277  0.74019085  0.47407152  1
  Mo  Mo11  1  0.25980915  0.04616723  0.02592848  1
  Mo  Mo12  1  0.05779318  0.43411499  0.19372354  1
  Mo  Mo13  1  0.56588501  0.94220682  0.30627646  1
  Mo  Mo14  1  0.94220682  0.56588501  0.80627646  1
  Mo  Mo15  1  0.43411499  0.05779318  0.69372354  1
  O  O16  1  0.06662923  0.09515180  0.39756090  1
  O  O17  1  0.90484820  0.93337077  0.10243910  1
  O  O18  1  0.93337077  0.90484820  0.60243910  1
  O  O19  1  0.09515180  0.06662923  0.89756090  1
  O  O20  1  0.86899594  0.29847877  0.43202495  1
  O  O21  1  0.70152123  0.13100406  0.06797505  1
  O  O22  1  0.13100406  0.70152123  0.56797505  1
  O  O23  1  0.29847877  0.86899594  0.93202495  1
  O  O24  1  0.04305971  0.22041500  0.67500972  1
  O  O25  1  0.77958500  0.95694029  0.82499028  1
  O  O26  1  0.95694029  0.77958500  0.32499028  1
  O  O27  1  0.22041500  0.04305971  0.17500972  1
  O  O28  1  0.77761714  0.59457911  0.42053443  1
  O  O29  1  0.40542089  0.22238286  0.07946557  1
  O  O30  1  0.22238286  0.40542089  0.57946557  1
  O  O31  1  0.59457911  0.77761714  0.92053443  1
  O  O32  1  0.97739187  0.30384185  0.00169563  1
  O  O33  1  0.69615815  0.02260813  0.49830437  1
  O  O34  1  0.02260813  0.69615815  0.99830437  1
  O  O35  1  0.30384185  0.97739187  0.50169563  1
  O  O36  1  0.14529275  0.62099520  0.22647184  1
  O  O37  1  0.37900480  0.85470725  0.27352816  1
  O  O38  1  0.85470725  0.37900480  0.77352816  1
  O  O39  1  0.62099520  0.14529275  0.72647184  1
  O  O40  1  0.90689844  0.44557299  0.25116606  1
  O  O41  1  0.55442701  0.09310156  0.24883394  1
  O  O42  1  0.09310156  0.55442701  0.74883394  1
  O  O43  1  0.44557299  0.90689844  0.75116606  1
  O  O44  1  0.20866437  0.36370672  0.29869011  1
  O  O45  1  0.63629328  0.79133563  0.20130989  1
  O  O46  1  0.79133563  0.63629328  0.70130989  1
  O  O47  1  0.36370672  0.20866437  0.79869011  1
  O  O48  1  0.57660729  0.45969172  0.10211359  1
  O  O49  1  0.54030828  0.42339271  0.39788641  1
  O  O50  1  0.42339271  0.54030828  0.89788641  1
  O  O51  1  0.45969172  0.57660729  0.60211359  1
