# generated using pymatgen
data_KHgH2I3O
_symmetry_space_group_name_H-M   'P 1'
_cell_length_a   8.69724471
_cell_length_b   9.64158758
_cell_length_c   11.98207061
_cell_angle_alpha   90.00000000
_cell_angle_beta   90.00000000
_cell_angle_gamma   90.00000000
_symmetry_Int_Tables_number   1
_chemical_formula_structural   KHgH2I3O
_chemical_formula_sum   'K4 Hg4 H8 I12 O4'
_cell_volume   1004.75948549
_cell_formula_units_Z   4
loop_
 _symmetry_equiv_pos_site_id
 _symmetry_equiv_pos_as_xyz
  1  'x, y, z'
loop_
 _atom_site_type_symbol
 _atom_site_label
 _atom_site_symmetry_multiplicity
 _atom_site_fract_x
 _atom_site_fract_y
 _atom_site_fract_z
 _atom_site_occupancy
  K  K0  1  0.55659682  0.84486578  0.56977607  1
  K  K1  1  0.44340318  0.15513422  0.06977607  1
  K  K2  1  0.94340318  0.34486578  0.06977607  1
  K  K3  1  0.05659682  0.65513422  0.56977607  1
  Hg  Hg4  1  0.24509651  0.20297567  0.42730238  1
  Hg  Hg5  1  0.75490349  0.79702433  0.92730238  1
  Hg  Hg6  1  0.25490349  0.70297567  0.92730238  1
  Hg  Hg7  1  0.74509651  0.29702433  0.42730238  1
  H  H8  1  0.93565743  0.93315963  0.49717740  1
  H  H9  1  0.06434257  0.06684037  0.99717740  1
  H  H10  1  0.56434257  0.43315963  0.99717740  1
  H  H11  1  0.43565743  0.56684037  0.49717740  1
  H  H12  1  0.89963747  0.96939812  0.61974392  1
  H  H13  1  0.10036253  0.03060188  0.11974392  1
  H  H14  1  0.60036253  0.46939812  0.11974392  1
  H  H15  1  0.39963747  0.53060188  0.61974392  1
  I  I16  1  0.23678343  0.92209676  0.36487919  1
  I  I17  1  0.76321657  0.07790324  0.86487919  1
  I  I18  1  0.26321657  0.42209676  0.86487919  1
  I  I19  1  0.73678343  0.57790324  0.36487919  1
  I  I20  1  0.26381553  0.41507778  0.27033832  1
  I  I21  1  0.73618447  0.58492222  0.77033832  1
  I  I22  1  0.23618447  0.91507778  0.77033832  1
  I  I23  1  0.76381553  0.08492222  0.27033832  1
  I  I24  1  0.50392793  0.22705634  0.58455470  1
  I  I25  1  0.49607207  0.77294366  0.08455470  1
  I  I26  1  0.99607207  0.72705634  0.08455470  1
  I  I27  1  0.00392793  0.27294366  0.58455470  1
  O  O28  1  0.87755751  0.90015458  0.56226802  1
  O  O29  1  0.12244249  0.09984542  0.06226802  1
  O  O30  1  0.62244249  0.40015458  0.06226802  1
  O  O31  1  0.37755751  0.59984542  0.56226802  1
