# generated using pymatgen
data_P2H32C9(N3O2)6
_symmetry_space_group_name_H-M   'P 1'
_cell_length_a   11.63555080
_cell_length_b   11.91622192
_cell_length_c   12.30275907
_cell_angle_alpha   65.48079299
_cell_angle_beta   69.50309036
_cell_angle_gamma   63.19162079
_symmetry_Int_Tables_number   1
_chemical_formula_structural   P2H32C9(N3O2)6
_chemical_formula_sum   'P4 H64 C18 N36 O24'
_cell_volume   1356.97882405
_cell_formula_units_Z   2
loop_
 _symmetry_equiv_pos_site_id
 _symmetry_equiv_pos_as_xyz
  1  'x, y, z'
loop_
 _atom_site_type_symbol
 _atom_site_label
 _atom_site_symmetry_multiplicity
 _atom_site_fract_x
 _atom_site_fract_y
 _atom_site_fract_z
 _atom_site_occupancy
  P  P0  1  0.11512736  0.60978357  0.99080911  1
  P  P1  1  0.88487264  0.39021643  0.00919089  1
  P  P2  1  0.41235497  0.20647907  0.98678070  1
  P  P3  1  0.58764503  0.79352093  0.01321930  1
  H  H4  1  0.28021177  0.41340220  0.04815522  1
  H  H5  1  0.71978823  0.58659780  0.95184478  1
  H  H6  1  0.95963049  0.51698344  0.09656068  1
  H  H7  1  0.04036951  0.48301656  0.90343932  1
  H  H8  1  0.29258731  0.21540739  0.22475239  1
  H  H9  1  0.70741269  0.78459261  0.77524761  1
  H  H10  1  0.00030498  0.42626155  0.36674174  1
  H  H11  1  0.99969502  0.57373845  0.63325826  1
  H  H12  1  0.10703389  0.40361224  0.23020477  1
  H  H13  1  0.89296611  0.59638776  0.76979523  1
  H  H14  1  0.52566689  0.90570114  0.36249038  1
  H  H15  1  0.47433311  0.09429886  0.63750962  1
  H  H16  1  0.48378317  0.03411493  0.22556439  1
  H  H17  1  0.51621683  0.96588507  0.77443561  1
  H  H18  1  0.24525839  0.95985259  0.73310583  1
  H  H19  1  0.75474161  0.04014741  0.26689417  1
  H  H20  1  0.09783107  0.09812426  0.73283525  1
  H  H21  1  0.90216893  0.90187574  0.26716475  1
  H  H22  1  0.57418076  0.00672270  0.04616103  1
  H  H23  1  0.42581924  0.99327730  0.95383897  1
  H  H24  1  0.83082132  0.35491548  0.25413282  1
  H  H25  1  0.16917868  0.64508452  0.74586718  1
  H  H26  1  0.53923666  0.39318173  0.87821857  1
  H  H27  1  0.46076334  0.60681827  0.12178143  1
  H  H28  1  0.62240282  0.44270610  0.92079004  1
  H  H29  1  0.37759718  0.55729390  0.07920996  1
  H  H30  1  0.52126020  0.55673936  0.39049598  1
  H  H31  1  0.47873980  0.44326064  0.60950402  1
  H  H32  1  0.63056366  0.54126523  0.25325592  1
  H  H33  1  0.36943634  0.45873477  0.74674408  1
  H  H34  1  0.89817938  0.08914025  0.87393260  1
  H  H35  1  0.10182062  0.91085975  0.12606740  1
  H  H36  1  0.92651879  0.18503639  0.91301511  1
  H  H37  1  0.07348121  0.81496361  0.08698489  1
  H  H38  1  0.04235830  0.03188839  0.39235462  1
  H  H39  1  0.95764170  0.96811161  0.60764538  1
  H  H40  1  0.00724841  0.15754826  0.25650811  1
  H  H41  1  0.99275159  0.84245174  0.74349189  1
  H  H42  1  0.94718493  0.86964453  0.92341507  1
  H  H43  1  0.05281507  0.13035547  0.07658493  1
  H  H44  1  0.79304520  0.90783921  0.94487331  1
  H  H45  1  0.20695480  0.09216079  0.05512669  1
  H  H46  1  0.75646869  0.08972179  0.75642804  1
  H  H47  1  0.24353131  0.91027821  0.24357196  1
  H  H48  1  0.60775223  0.22529318  0.76043217  1
  H  H49  1  0.39224777  0.77470682  0.23956783  1
  H  H50  1  0.25603238  0.78178510  0.90115082  1
  H  H51  1  0.74396762  0.21821490  0.09884918  1
  H  H52  1  0.36601859  0.83054689  0.89551699  1
  H  H53  1  0.63398141  0.16945311  0.10448301  1
  H  H54  1  0.64745009  0.51416428  0.72153047  1
  H  H55  1  0.35254991  0.48583572  0.27846953  1
  H  H56  1  0.96391129  0.32170561  0.58466037  1
  H  H57  1  0.03608871  0.67829439  0.41533963  1
  H  H58  1  0.85009893  0.33067547  0.72011869  1
  H  H59  1  0.14990107  0.66932453  0.27988131  1
  H  H60  1  0.43536266  0.83789774  0.58344630  1
  H  H61  1  0.56463734  0.16210226  0.41655370  1
  H  H62  1  0.46770859  0.71226181  0.72051643  1
  H  H63  1  0.53229141  0.28773819  0.27948357  1
  H  H64  1  0.72156653  0.78013636  0.21588868  1
  H  H65  1  0.27843347  0.21986364  0.78411132  1
  H  H66  1  0.87253355  0.65231079  0.21789997  1
  H  H67  1  0.12746645  0.34768921  0.78210003  1
  C  C68  1  0.16023494  0.25156392  0.38545259  1
  C  C69  1  0.83976506  0.74843608  0.61454741  1
  C  C70  1  0.35416348  0.06174886  0.38407528  1
  C  C71  1  0.64583652  0.93825114  0.61592472  1
  C  C72  1  0.21296355  0.09064097  0.56349592  1
  C  C73  1  0.78703645  0.90935903  0.43650408  1
  C  C74  1  0.68176736  0.38489542  0.40960286  1
  C  C75  1  0.31823264  0.61510458  0.59039714  1
  C  C76  1  0.87361508  0.19287130  0.41205686  1
  C  C77  1  0.12638492  0.80712870  0.58794314  1
  C  C78  1  0.72597595  0.22022177  0.58892465  1
  C  C79  1  0.27402405  0.77977823  0.41107535  1
  C  C80  1  0.80007485  0.49076157  0.56542195  1
  C  C81  1  0.19992515  0.50923843  0.43457805  1
  C  C82  1  0.60408971  0.67830187  0.56426131  1
  C  C83  1  0.39591029  0.32169813  0.43573869  1
  C  C84  1  0.75368156  0.65610170  0.38731854  1
  C  C85  1  0.24631844  0.34389830  0.61268146  1
  N  N86  1  0.12827797  0.20909035  0.50674674  1
  N  N87  1  0.87172203  0.79090965  0.49325326  1
  N  N88  1  0.27140383  0.17943821  0.32167545  1
  N  N89  1  0.72859617  0.82056179  0.67832455  1
  N  N90  1  0.32599400  0.01504196  0.50566530  1
  N  N91  1  0.67400600  0.98495804  0.49433470  1
  N  N92  1  0.08432939  0.36729996  0.32257157  1
  N  N93  1  0.91567061  0.63270004  0.67742843  1
  N  N94  1  0.46291271  0.99658680  0.31927142  1
  N  N95  1  0.53708729  0.00341320  0.68072858  1
  N  N96  1  0.18300119  0.04620488  0.68454943  1
  N  N97  1  0.81699881  0.95379512  0.31545057  1
  N  N98  1  0.64399635  0.33920923  0.53063282  1
  N  N99  1  0.35600365  0.66079077  0.46936718  1
  N  N100  1  0.79667594  0.31358114  0.34840762  1
  N  N101  1  0.20332406  0.68641886  0.65159238  1
  N  N102  1  0.84032698  0.14386386  0.53285059  1
  N  N103  1  0.15967302  0.85613614  0.46714941  1
  N  N104  1  0.60853856  0.50141742  0.34604244  1
  N  N105  1  0.39146144  0.49858258  0.65395756  1
  N  N106  1  0.98392745  0.12579647  0.34931429  1
  N  N107  1  0.01607255  0.87420353  0.65068571  1
  N  N108  1  0.69226298  0.17401760  0.70994743  1
  N  N109  1  0.30773702  0.82598240  0.29005257  1
  N  N110  1  0.83847800  0.53876910  0.44469375  1
  N  N111  1  0.16152200  0.46123090  0.55530625  1
  N  N112  1  0.68240014  0.55795790  0.62693064  1
  N  N113  1  0.31759986  0.44204210  0.37306936  1
  N  N114  1  0.63765880  0.72949082  0.44354455  1
  N  N115  1  0.36234120  0.27050918  0.55645545  1
  N  N116  1  0.87567183  0.37575993  0.62871918  1
  N  N117  1  0.12432817  0.62424007  0.37128082  1
  N  N118  1  0.49271322  0.74367251  0.62739881  1
  N  N119  1  0.50728678  0.25632749  0.37260119  1
  N  N120  1  0.78757705  0.70350657  0.26616527  1
  N  N121  1  0.21242295  0.29649343  0.73383473  1
  O  O122  1  0.24931289  0.51893010  0.03376523  1
  O  O123  1  0.75068711  0.48106990  0.96623477  1
  O  O124  1  0.00112766  0.57386187  0.10280858  1
  O  O125  1  0.99887234  0.42613813  0.89719142  1
  O  O126  1  0.09824734  0.75206812  0.96645664  1
  O  O127  1  0.90175266  0.24793188  0.03354336  1
  O  O128  1  0.10544712  0.58035428  0.88468557  1
  O  O129  1  0.89455288  0.41964572  0.11531443  1
  O  O130  1  0.31248091  0.28119317  0.07897600  1
  O  O131  1  0.68751909  0.71880683  0.92102400  1
  O  O132  1  0.35337761  0.12948219  0.96073492  1
  O  O133  1  0.64662239  0.87051781  0.03926508  1
  O  O134  1  0.46915624  0.29796459  0.87220473  1
  O  O135  1  0.53084376  0.70203541  0.12779527  1
  O  O136  1  0.52971490  0.09952139  0.05999286  1
  O  O137  1  0.47028510  0.90047861  0.94000714  1
  O  O138  1  0.57979571  0.46011114  0.85660088  1
  O  O139  1  0.42020429  0.53988886  0.14339912  1
  O  O140  1  0.93252879  0.16137291  0.84241386  1
  O  O141  1  0.06747121  0.83862709  0.15758614  1
  O  O142  1  0.86718491  0.93755633  0.89106578  1
  O  O143  1  0.13281509  0.06244367  0.10893422  1
  O  O144  1  0.33254464  0.80703330  0.84811561  1
  O  O145  1  0.66745536  0.19296670  0.15188439  1
