# generated using pymatgen
data_LiZn2(BH4)5
_symmetry_space_group_name_H-M   'P 1'
_cell_length_a   8.78979236
_cell_length_b   10.11669209
_cell_length_c   15.88802832
_cell_angle_alpha   90.00000000
_cell_angle_beta   90.00000000
_cell_angle_gamma   115.74841093
_symmetry_Int_Tables_number   1
_chemical_formula_structural   LiZn2(BH4)5
_chemical_formula_sum   'Li4 Zn8 B20 H80'
_cell_volume   1272.54244460
_cell_formula_units_Z   4
loop_
 _symmetry_equiv_pos_site_id
 _symmetry_equiv_pos_as_xyz
  1  'x, y, z'
loop_
 _atom_site_type_symbol
 _atom_site_label
 _atom_site_symmetry_multiplicity
 _atom_site_fract_x
 _atom_site_fract_y
 _atom_site_fract_z
 _atom_site_occupancy
  Li  Li0  1  0.35697537  0.71395075  0.93731604  1
  Li  Li1  1  0.64302463  0.28604925  0.06268396  1
  Li  Li2  1  0.14302463  0.28604925  0.43731604  1
  Li  Li3  1  0.85697537  0.71395075  0.56268396  1
  Zn  Zn4  1  0.85020561  0.70041122  0.26246143  1
  Zn  Zn5  1  0.14979439  0.29958878  0.73753857  1
  Zn  Zn6  1  0.64979439  0.29958878  0.76246143  1
  Zn  Zn7  1  0.35020561  0.70041122  0.23753857  1
  Zn  Zn8  1  0.07081781  0.14163561  0.12493046  1
  Zn  Zn9  1  0.92918219  0.85836439  0.87506954  1
  Zn  Zn10  1  0.42918219  0.85836439  0.62493046  1
  Zn  Zn11  1  0.57081781  0.14163561  0.37506954  1
  B  B12  1  0.24092698  0.48185396  0.82843529  1
  B  B13  1  0.75907302  0.51814604  0.17156471  1
  B  B14  1  0.25907302  0.51814604  0.32843529  1
  B  B15  1  0.74092698  0.48185396  0.67156471  1
  B  B16  1  0.13765604  0.27531208  0.59471714  1
  B  B17  1  0.86234396  0.72468792  0.40528286  1
  B  B18  1  0.36234396  0.72468792  0.09471714  1
  B  B19  1  0.63765604  0.27531208  0.90528286  1
  B  B20  1  0.95421563  0.90843126  0.18088336  1
  B  B21  1  0.04578437  0.09156874  0.81911664  1
  B  B22  1  0.54578437  0.09156874  0.68088336  1
  B  B23  1  0.45421563  0.90843126  0.31911664  1
  B  B24  1  0.88089678  0.22220502  0.10265674  1
  B  B25  1  0.65869176  0.77779498  0.89734326  1
  B  B26  1  0.15869176  0.77779498  0.60265674  1
  B  B27  1  0.38089678  0.22220502  0.39734326  1
  B  B28  1  0.11910322  0.77779498  0.89734326  1
  B  B29  1  0.34130824  0.22220502  0.10265674  1
  B  B30  1  0.84130824  0.22220502  0.39734326  1
  B  B31  1  0.61910322  0.77779498  0.60265674  1
  H  H32  1  0.24299339  0.48598678  0.74829896  1
  H  H33  1  0.75700661  0.51401322  0.25170104  1
  H  H34  1  0.25700661  0.51401322  0.24829896  1
  H  H35  1  0.74299339  0.48598678  0.75170104  1
  H  H36  1  0.30756132  0.61512264  0.82812922  1
  H  H37  1  0.69243868  0.38487736  0.17187078  1
  H  H38  1  0.19243868  0.38487736  0.32812922  1
  H  H39  1  0.80756132  0.61512264  0.67187078  1
  H  H40  1  0.33165467  0.43084695  0.85721489  1
  H  H41  1  0.90080772  0.56915305  0.14278511  1
  H  H42  1  0.40080772  0.56915305  0.35721489  1
  H  H43  1  0.83165467  0.43084695  0.64278511  1
  H  H44  1  0.66834533  0.56915305  0.14278511  1
  H  H45  1  0.09919228  0.43084695  0.85721489  1
  H  H46  1  0.59919228  0.43084695  0.64278511  1
  H  H47  1  0.16834533  0.56915305  0.35721489  1
  H  H48  1  0.20181893  0.40363786  0.61816769  1
  H  H49  1  0.79818107  0.59636214  0.38183231  1
  H  H50  1  0.29818107  0.59636214  0.11816769  1
  H  H51  1  0.70181893  0.40363786  0.88183231  1
  H  H52  1  0.08849623  0.17699246  0.65097233  1
  H  H53  1  0.91150377  0.82300754  0.34902767  1
  H  H54  1  0.41150377  0.82300754  0.15097233  1
  H  H55  1  0.58849623  0.17699246  0.84902767  1
  H  H56  1  0.24293423  0.25065225  0.55765413  1
  H  H57  1  0.99228198  0.74934775  0.44234587  1
  H  H58  1  0.49228198  0.74934775  0.05765413  1
  H  H59  1  0.74293423  0.25065225  0.94234587  1
  H  H60  1  0.75706577  0.74934775  0.44234587  1
  H  H61  1  0.00771802  0.25065225  0.55765413  1
  H  H62  1  0.50771802  0.25065225  0.94234587  1
  H  H63  1  0.25706577  0.74934775  0.05765413  1
  H  H64  1  0.95867492  0.91734984  0.10388820  1
  H  H65  1  0.04132508  0.08265016  0.89611180  1
  H  H66  1  0.54132508  0.08265016  0.60388820  1
  H  H67  1  0.45867492  0.91734984  0.39611180  1
  H  H68  1  0.01181083  0.02362166  0.22259583  1
  H  H69  1  0.98818917  0.97637834  0.77740417  1
  H  H70  1  0.48818917  0.97637834  0.72259583  1
  H  H71  1  0.51181083  0.02362166  0.27740417  1
  H  H72  1  0.04219167  0.84525043  0.19991324  1
  H  H73  1  0.19694125  0.15474957  0.80008676  1
  H  H74  1  0.69694125  0.15474957  0.69991324  1
  H  H75  1  0.54219167  0.84525043  0.30008676  1
  H  H76  1  0.95780833  0.15474957  0.80008676  1
  H  H77  1  0.80305875  0.84525043  0.19991324  1
  H  H78  1  0.30305875  0.84525043  0.30008676  1
  H  H79  1  0.45780833  0.15474957  0.69991324  1
  H  H80  1  0.96558167  0.24967555  0.16972464  1
  H  H81  1  0.71590611  0.75032445  0.83027536  1
  H  H82  1  0.21590611  0.75032445  0.66972464  1
  H  H83  1  0.46558167  0.24967555  0.33027536  1
  H  H84  1  0.03441833  0.75032445  0.83027536  1
  H  H85  1  0.28409389  0.24967555  0.16972464  1
  H  H86  1  0.78409389  0.24967555  0.33027536  1
  H  H87  1  0.53441833  0.75032445  0.66972464  1
  H  H88  1  0.92416216  0.15645313  0.04691007  1
  H  H89  1  0.76770903  0.84354687  0.95308993  1
  H  H90  1  0.26770903  0.84354687  0.54691007  1
  H  H91  1  0.42416216  0.15645313  0.45308993  1
  H  H92  1  0.07583784  0.84354687  0.95308993  1
  H  H93  1  0.23229097  0.15645313  0.04691007  1
  H  H94  1  0.73229097  0.15645313  0.45308993  1
  H  H95  1  0.57583784  0.84354687  0.54691007  1
  H  H96  1  0.91081530  0.34074874  0.07267837  1
  H  H97  1  0.57006656  0.65925126  0.92732163  1
  H  H98  1  0.07006656  0.65925126  0.57267837  1
  H  H99  1  0.41081530  0.34074874  0.42732163  1
  H  H100  1  0.08918470  0.65925126  0.92732163  1
  H  H101  1  0.42993344  0.34074874  0.07267837  1
  H  H102  1  0.92993344  0.34074874  0.42732163  1
  H  H103  1  0.58918470  0.65925126  0.57267837  1
  H  H104  1  0.73582919  0.14193712  0.12111482  1
  H  H105  1  0.59389207  0.85806288  0.87888518  1
  H  H106  1  0.09389207  0.85806288  0.62111482  1
  H  H107  1  0.23582919  0.14193712  0.37888518  1
  H  H108  1  0.26417081  0.85806288  0.87888518  1
  H  H109  1  0.40610793  0.14193712  0.12111482  1
  H  H110  1  0.90610793  0.14193712  0.37888518  1
  H  H111  1  0.76417081  0.85806288  0.62111482  1
