# generated using pymatgen
data_H20RhC3N9Cl6O
_symmetry_space_group_name_H-M   'P 1'
_cell_length_a   7.94121590
_cell_length_b   8.80539048
_cell_length_c   16.62633629
_cell_angle_alpha   91.10982420
_cell_angle_beta   104.26530699
_cell_angle_gamma   115.36150050
_symmetry_Int_Tables_number   1
_chemical_formula_structural   H20RhC3N9Cl6O
_chemical_formula_sum   'H40 Rh2 C6 N18 Cl12 O2'
_cell_volume   1007.75279491
_cell_formula_units_Z   2
loop_
 _symmetry_equiv_pos_site_id
 _symmetry_equiv_pos_as_xyz
  1  'x, y, z'
loop_
 _atom_site_type_symbol
 _atom_site_label
 _atom_site_symmetry_multiplicity
 _atom_site_fract_x
 _atom_site_fract_y
 _atom_site_fract_z
 _atom_site_occupancy
  H  H0  1  0.71205015  0.67157849  0.58303877  1
  H  H1  1  0.28794985  0.32842151  0.41696123  1
  H  H2  1  0.49903724  0.68163005  0.58126929  1
  H  H3  1  0.50096276  0.31836995  0.41873071  1
  H  H4  1  0.69375902  0.12832035  0.59144596  1
  H  H5  1  0.30624098  0.87167965  0.40855404  1
  H  H6  1  0.49222554  0.93941047  0.59523226  1
  H  H7  1  0.50777446  0.06058953  0.40476774  1
  H  H8  1  0.99115792  0.91891424  0.58885035  1
  H  H9  1  0.00884208  0.08108576  0.41114965  1
  H  H10  1  0.98645478  0.11661840  0.59059720  1
  H  H11  1  0.01354522  0.88338160  0.40940280  1
  H  H12  1  0.92325830  0.31734663  0.71999973  1
  H  H13  1  0.07674170  0.68265337  0.28000027  1
  H  H14  1  0.98575983  0.21846916  0.80566313  1
  H  H15  1  0.01424017  0.78153084  0.19433687  1
  H  H16  1  0.23470658  0.39317272  0.92595110  1
  H  H17  1  0.76529342  0.60682728  0.07404890  1
  H  H18  1  0.36905805  0.60879926  0.92316403  1
  H  H19  1  0.63094195  0.39120074  0.07683597  1
  H  H20  1  0.09653778  0.60254450  0.71756945  1
  H  H21  1  0.90346222  0.39745550  0.28243055  1
  H  H22  1  0.25517287  0.73829187  0.80934678  1
  H  H23  1  0.74482713  0.26170813  0.19065322  1
  H  H24  1  0.72264273  0.33456214  0.90361962  1
  H  H25  1  0.27735727  0.66543786  0.09638038  1
  H  H26  1  0.82101720  0.55468822  0.91292161  1
  H  H27  1  0.17898280  0.44531178  0.08707839  1
  H  H28  1  0.69352193  0.68676191  0.80810791  1
  H  H29  1  0.30647807  0.31323809  0.19189209  1
  H  H30  1  0.50038333  0.55673613  0.72166303  1
  H  H31  1  0.49961667  0.44326387  0.27833697  1
  H  H32  1  0.43715726  0.16487668  0.79060055  1
  H  H33  1  0.56284274  0.83512332  0.20939945  1
  H  H34  1  0.35868923  0.27084414  0.71279605  1
  H  H35  1  0.64131077  0.72915586  0.28720395  1
  H  H36  1  0.54559400  0.98718770  0.85664207  1
  H  H37  1  0.45440600  0.01281230  0.14335793  1
  H  H38  1  0.39133383  0.00514296  0.89462144  1
  H  H39  1  0.60866617  0.99485704  0.10537856  1
  Rh  Rh40  1  0.00000000  0.00000000  0.00000000  1
  Rh  Rh41  1  0.00000000  0.50000000  0.50000000  1
  C  C42  1  0.73467405  0.91243755  0.59557152  1
  C  C43  1  0.26532595  0.08756245  0.40442848  1
  C  C44  1  0.14287817  0.48055095  0.81823521  1
  C  C45  1  0.85712183  0.51944905  0.18176479  1
  C  C46  1  0.59114006  0.42658028  0.80773229  1
  C  C47  1  0.40885994  0.57341972  0.19226771  1
  N  N48  1  0.64641413  0.74342600  0.59479362  1
  N  N49  1  0.35358587  0.25657400  0.40520638  1
  N  N50  1  0.63708904  0.00278111  0.59954843  1
  N  N51  1  0.36291096  0.99721889  0.40045157  1
  N  N52  1  0.92099195  0.99010404  0.59586105  1
  N  N53  1  0.07900805  0.00989596  0.40413895  1
  N  N54  1  0.00969757  0.32601945  0.77791806  1
  N  N55  1  0.99030243  0.67398055  0.22208194  1
  N  N56  1  0.24869320  0.49767287  0.89676347  1
  N  N57  1  0.75130680  0.50232713  0.10323653  1
  N  N58  1  0.16885864  0.61679578  0.77898569  1
  N  N59  1  0.83114136  0.38320422  0.22101431  1
  N  N60  1  0.71483228  0.43871001  0.88115585  1
  N  N61  1  0.28516772  0.56128999  0.11884415  1
  N  N62  1  0.59556611  0.56741410  0.77726098  1
  N  N63  1  0.40443389  0.43258590  0.22273902  1
  N  N64  1  0.46306483  0.27421910  0.76333412  1
  N  N65  1  0.53693517  0.72578090  0.23666588  1
  Cl  Cl66  1  0.87935787  0.96015719  0.85132168  1
  Cl  Cl67  1  0.12064213  0.03984281  0.14867832  1
  Cl  Cl68  1  0.09044584  0.77654318  0.99377144  1
  Cl  Cl69  1  0.90955416  0.22345682  0.00622856  1
  Cl  Cl70  1  0.31300157  0.19405549  0.99128090  1
  Cl  Cl71  1  0.68699843  0.80594451  0.00871910  1
  Cl  Cl72  1  0.79042493  0.40718601  0.58785247  1
  Cl  Cl73  1  0.20957507  0.59281399  0.41214753  1
  Cl  Cl74  1  0.20688334  0.39629233  0.58410137  1
  Cl  Cl75  1  0.79311666  0.60370767  0.41589863  1
  Cl  Cl76  1  0.82608182  0.23181330  0.41248768  1
  Cl  Cl77  1  0.17391818  0.76818670  0.58751232  1
  O  O78  1  0.41532825  0.98158094  0.84168056  1
  O  O79  1  0.58467175  0.01841906  0.15831944  1
