# generated using pymatgen
data_K4Fe4(PO4)5
_symmetry_space_group_name_H-M   'P 1'
_cell_length_a   9.63810802
_cell_length_b   9.96906795
_cell_length_c   9.96906795
_cell_angle_alpha   90.00000000
_cell_angle_beta   90.00000000
_cell_angle_gamma   90.00000000
_symmetry_Int_Tables_number   1
_chemical_formula_structural   K4Fe4(PO4)5
_chemical_formula_sum   'K8 Fe8 P10 O40'
_cell_volume   957.85749488
_cell_formula_units_Z   2
loop_
 _symmetry_equiv_pos_site_id
 _symmetry_equiv_pos_as_xyz
  1  'x, y, z'
loop_
 _atom_site_type_symbol
 _atom_site_label
 _atom_site_symmetry_multiplicity
 _atom_site_fract_x
 _atom_site_fract_y
 _atom_site_fract_z
 _atom_site_occupancy
  K  K0  1  0.53146105  0.42849675  0.16790577  1
  K  K1  1  0.96853895  0.92849675  0.33209423  1
  K  K2  1  0.53146105  0.57150325  0.83209423  1
  K  K3  1  0.96853895  0.07150325  0.66790577  1
  K  K4  1  0.46853895  0.16790577  0.57150325  1
  K  K5  1  0.03146105  0.33209423  0.07150325  1
  K  K6  1  0.46853895  0.83209423  0.42849675  1
  K  K7  1  0.03146105  0.66790577  0.92849675  1
  Fe  Fe8  1  0.71096924  0.18626001  0.92427154  1
  Fe  Fe9  1  0.78903076  0.68626001  0.57572846  1
  Fe  Fe10  1  0.71096924  0.81373999  0.07572846  1
  Fe  Fe11  1  0.78903076  0.31373999  0.42427154  1
  Fe  Fe12  1  0.28903076  0.92427154  0.81373999  1
  Fe  Fe13  1  0.21096924  0.57572846  0.31373999  1
  Fe  Fe14  1  0.28903076  0.07572846  0.18626001  1
  Fe  Fe15  1  0.21096924  0.42427154  0.68626001  1
  P  P16  1  0.63625130  0.08692757  0.24292119  1
  P  P17  1  0.86374870  0.58692757  0.25707881  1
  P  P18  1  0.63625130  0.91307243  0.75707881  1
  P  P19  1  0.86374870  0.41307243  0.74292119  1
  P  P20  1  0.36374870  0.24292119  0.91307243  1
  P  P21  1  0.13625130  0.25707881  0.41307243  1
  P  P22  1  0.36374870  0.75707881  0.08692757  1
  P  P23  1  0.13625130  0.74292119  0.58692757  1
  P  P24  1  -0.00000000  0.00000000  0.00000000  1
  P  P25  1  0.50000000  0.50000000  0.50000000  1
  O  O26  1  0.47998926  0.09832843  0.27196963  1
  O  O27  1  0.02001074  0.59832843  0.22803037  1
  O  O28  1  0.47998926  0.90167157  0.72803037  1
  O  O29  1  0.02001074  0.40167157  0.77196963  1
  O  O30  1  0.52001074  0.27196963  0.90167157  1
  O  O31  1  0.97998926  0.22803037  0.40167157  1
  O  O32  1  0.52001074  0.72803037  0.09832843  1
  O  O33  1  0.97998926  0.77196963  0.59832843  1
  O  O34  1  0.67839245  0.93733662  0.22621779  1
  O  O35  1  0.82160755  0.43733662  0.27378221  1
  O  O36  1  0.67839245  0.06266338  0.77378221  1
  O  O37  1  0.82160755  0.56266338  0.72621779  1
  O  O38  1  0.32160755  0.22621779  0.06266338  1
  O  O39  1  0.17839245  0.27378221  0.56266338  1
  O  O40  1  0.32160755  0.77378221  0.93733662  1
  O  O41  1  0.17839245  0.72621779  0.43733662  1
  O  O42  1  0.71500059  0.13970363  0.36860914  1
  O  O43  1  0.78499941  0.63970363  0.13139086  1
  O  O44  1  0.71500059  0.86029637  0.63139086  1
  O  O45  1  0.78499941  0.36029637  0.86860914  1
  O  O46  1  0.28499941  0.36860914  0.86029637  1
  O  O47  1  0.21500059  0.13139086  0.36029637  1
  O  O48  1  0.28499941  0.63139086  0.13970363  1
  O  O49  1  0.21500059  0.86860914  0.63970363  1
  O  O50  1  0.67744911  0.16929210  0.11727801  1
  O  O51  1  0.82255089  0.66929210  0.38272199  1
  O  O52  1  0.67744911  0.83070790  0.88272199  1
  O  O53  1  0.82255089  0.33070790  0.61727801  1
  O  O54  1  0.32255089  0.11727801  0.83070790  1
  O  O55  1  0.17744911  0.38272199  0.33070790  1
  O  O56  1  0.32255089  0.88272199  0.16929210  1
  O  O57  1  0.17744911  0.61727801  0.66929210  1
  O  O58  1  0.90908314  0.11446987  0.94118239  1
  O  O59  1  0.59091686  0.61446987  0.55881761  1
  O  O60  1  0.90908314  0.88553013  0.05881761  1
  O  O61  1  0.59091686  0.38553013  0.44118239  1
  O  O62  1  0.09091686  0.94118239  0.88553013  1
  O  O63  1  0.40908314  0.55881761  0.38553013  1
  O  O64  1  0.09091686  0.05881761  0.11446987  1
  O  O65  1  0.40908314  0.44118239  0.61446987  1
