# generated using pymatgen
data_MnP3(HO2)6
_symmetry_space_group_name_H-M   'P 1'
_cell_length_a   5.01671516
_cell_length_b   7.93648574
_cell_length_c   12.54021460
_cell_angle_alpha   94.88349307
_cell_angle_beta   90.00000000
_cell_angle_gamma   90.00000000
_symmetry_Int_Tables_number   1
_chemical_formula_structural   MnP3(HO2)6
_chemical_formula_sum   'Mn2 P6 H12 O24'
_cell_volume   497.47726217
_cell_formula_units_Z   2
loop_
 _symmetry_equiv_pos_site_id
 _symmetry_equiv_pos_as_xyz
  1  'x, y, z'
loop_
 _atom_site_type_symbol
 _atom_site_label
 _atom_site_symmetry_multiplicity
 _atom_site_fract_x
 _atom_site_fract_y
 _atom_site_fract_z
 _atom_site_occupancy
  Mn  Mn0  1  0.00000000  0.50000000  0.00000000  1
  Mn  Mn1  1  -0.00000000  0.50000000  0.50000000  1
  P  P2  1  0.51386301  0.28279961  0.90265895  1
  P  P3  1  0.51386301  0.71720039  0.59734105  1
  P  P4  1  0.48613699  0.71720039  0.09734105  1
  P  P5  1  0.48613699  0.28279961  0.40265895  1
  P  P6  1  0.24601036  0.50000000  0.75000000  1
  P  P7  1  0.75398964  0.50000000  0.25000000  1
  H  H8  1  0.67523368  0.02286834  0.87216060  1
  H  H9  1  0.67523368  0.97713166  0.62783940  1
  H  H10  1  0.32476632  0.97713166  0.12783940  1
  H  H11  1  0.32476632  0.02286834  0.37216060  1
  H  H12  1  0.02214439  0.18244991  0.13696753  1
  H  H13  1  0.02214439  0.81755009  0.36303247  1
  H  H14  1  0.97785561  0.81755009  0.86303247  1
  H  H15  1  0.97785561  0.18244991  0.63696753  1
  H  H16  1  0.89735500  0.99906505  0.12619670  1
  H  H17  1  0.89735500  0.00093495  0.37380330  1
  H  H18  1  0.10264500  0.00093495  0.87380330  1
  H  H19  1  0.10264500  0.99906505  0.62619670  1
  O  O20  1  0.31740610  0.34887425  0.98797567  1
  O  O21  1  0.31740610  0.65112575  0.51202433  1
  O  O22  1  0.68259390  0.65112575  0.01202433  1
  O  O23  1  0.68259390  0.34887425  0.48797567  1
  O  O24  1  0.09701446  0.58744345  0.84304167  1
  O  O25  1  0.09701446  0.41255655  0.65695833  1
  O  O26  1  0.90298554  0.41255655  0.15695833  1
  O  O27  1  0.90298554  0.58744345  0.34304167  1
  O  O28  1  0.80695767  0.31698986  0.92831437  1
  O  O29  1  0.80695767  0.68301014  0.57168563  1
  O  O30  1  0.19304233  0.68301014  0.07168563  1
  O  O31  1  0.19304233  0.31698986  0.42831437  1
  O  O32  1  0.48965857  0.08847988  0.87602999  1
  O  O33  1  0.48965857  0.91152012  0.62397001  1
  O  O34  1  0.51034143  0.91152012  0.12397001  1
  O  O35  1  0.51034143  0.08847988  0.37602999  1
  O  O36  1  0.44949715  0.36255372  0.79141429  1
  O  O37  1  0.44949715  0.63744628  0.70858571  1
  O  O38  1  0.55050285  0.63744628  0.20858571  1
  O  O39  1  0.55050285  0.36255372  0.29141429  1
  O  O40  1  0.06512420  0.06112732  0.13377329  1
  O  O41  1  0.06512420  0.93887268  0.36622671  1
  O  O42  1  0.93487580  0.93887268  0.86622671  1
  O  O43  1  0.93487580  0.06112732  0.63377329  1
