# generated using pymatgen
data_CdGeO3
_symmetry_space_group_name_H-M   'P 1'
_cell_length_a   5.31191267
_cell_length_b   5.36356002
_cell_length_c   7.58068118
_cell_angle_alpha   90.00000000
_cell_angle_beta   90.00000000
_cell_angle_gamma   90.00000000
_symmetry_Int_Tables_number   1
_chemical_formula_structural   CdGeO3
_chemical_formula_sum   'Cd4 Ge4 O12'
_cell_volume   215.97938653
_cell_formula_units_Z   4
loop_
 _symmetry_equiv_pos_site_id
 _symmetry_equiv_pos_as_xyz
  1  'x, y, z'
loop_
 _atom_site_type_symbol
 _atom_site_label
 _atom_site_symmetry_multiplicity
 _atom_site_fract_x
 _atom_site_fract_y
 _atom_site_fract_z
 _atom_site_occupancy
  O  O0  1  0.70532021  0.28967034  0.45231243  1
  O  O1  1  0.20532021  0.21032966  0.54768757  1
  O  O2  1  0.79467979  0.78967034  0.04768757  1
  O  O3  1  0.29467979  0.71032966  0.95231243  1
  O  O4  1  0.29467979  0.71032966  0.54768757  1
  O  O5  1  0.79467979  0.78967034  0.45231243  1
  O  O6  1  0.20532021  0.21032966  0.95231243  1
  O  O7  1  0.70532021  0.28967034  0.04768757  1
  O  O8  1  0.09009067  0.47089295  0.25000000  1
  O  O9  1  0.59009067  0.02910705  0.75000000  1
  O  O10  1  0.40990933  0.97089295  0.25000000  1
  O  O11  1  0.90990933  0.52910705  0.75000000  1
  Ge  Ge12  1  0.00000000  0.50000000  0.50000000  1
  Ge  Ge13  1  0.50000000  0.00000000  0.50000000  1
  Ge  Ge14  1  0.50000000  0.00000000  0.00000000  1
  Ge  Ge15  1  0.00000000  0.50000000  0.00000000  1
  Cd  Cd16  1  0.00832759  0.96436360  0.75000000  1
  Cd  Cd17  1  0.50832759  0.53563640  0.25000000  1
  Cd  Cd18  1  0.49167241  0.46436360  0.75000000  1
  Cd  Cd19  1  0.99167241  0.03563640  0.25000000  1
