# generated using pymatgen
data_K2PH4S3O2
_symmetry_space_group_name_H-M   'P 1'
_cell_length_a   8.02189193
_cell_length_b   9.08871343
_cell_length_c   11.45956818
_cell_angle_alpha   90.00000000
_cell_angle_beta   90.00000000
_cell_angle_gamma   93.80433438
_symmetry_Int_Tables_number   1
_chemical_formula_structural   K2PH4S3O2
_chemical_formula_sum   'K8 P4 H16 S12 O8'
_cell_volume   833.66088495
_cell_formula_units_Z   4
loop_
 _symmetry_equiv_pos_site_id
 _symmetry_equiv_pos_as_xyz
  1  'x, y, z'
loop_
 _atom_site_type_symbol
 _atom_site_label
 _atom_site_symmetry_multiplicity
 _atom_site_fract_x
 _atom_site_fract_y
 _atom_site_fract_z
 _atom_site_occupancy
  K  K0  1  0.60967560  0.60038629  0.72606352  1
  K  K1  1  0.10967560  0.10038629  0.77393648  1
  K  K2  1  0.39032440  0.39961371  0.27393648  1
  K  K3  1  0.89032440  0.89961371  0.22606352  1
  K  K4  1  0.55011033  0.03078898  0.65688624  1
  K  K5  1  0.05011033  0.53078898  0.84311376  1
  K  K6  1  0.44988967  0.96921102  0.34311376  1
  K  K7  1  0.94988967  0.46921102  0.15688624  1
  P  P8  1  0.53048666  0.88513546  0.96694961  1
  P  P9  1  0.03048666  0.38513546  0.53305039  1
  P  P10  1  0.46951334  0.11486454  0.03305039  1
  P  P11  1  0.96951334  0.61486454  0.46694961  1
  H  H12  1  0.56541785  0.70822463  0.48743485  1
  H  H13  1  0.06541785  0.20822463  0.01256515  1
  H  H14  1  0.43458215  0.29177537  0.51256515  1
  H  H15  1  0.93458215  0.79177537  0.98743485  1
  H  H16  1  0.62097683  0.28246974  0.47453638  1
  H  H17  1  0.12097683  0.78246974  0.02546362  1
  H  H18  1  0.37902317  0.71753026  0.52546362  1
  H  H19  1  0.87902317  0.21753026  0.97453638  1
  H  H20  1  0.66051051  0.42318529  0.94939460  1
  H  H21  1  0.16051051  0.92318529  0.55060540  1
  H  H22  1  0.33948949  0.57681471  0.05060540  1
  H  H23  1  0.83948949  0.07681471  0.44939460  1
  H  H24  1  0.68489364  0.58733816  0.99509230  1
  H  H25  1  0.18489364  0.08733816  0.50490770  1
  H  H26  1  0.31510636  0.41266184  0.00490770  1
  H  H27  1  0.81510636  0.91266184  0.49509230  1
  S  S28  1  0.65773712  0.18185598  0.14326573  1
  S  S29  1  0.15773712  0.68185598  0.35673427  1
  S  S30  1  0.34226288  0.81814402  0.85673427  1
  S  S31  1  0.84226288  0.31814402  0.64326573  1
  S  S32  1  0.75418972  0.91369197  0.88262524  1
  S  S33  1  0.25418972  0.41369197  0.61737476  1
  S  S34  1  0.24581028  0.08630803  0.11737476  1
  S  S35  1  0.74581028  0.58630803  0.38262524  1
  S  S36  1  0.54625482  0.75104283  0.10951690  1
  S  S37  1  0.04625482  0.25104283  0.39048310  1
  S  S38  1  0.45374518  0.24895717  0.89048310  1
  S  S39  1  0.95374518  0.74895717  0.60951690  1
  O  O40  1  0.49197226  0.76212624  0.53987478  1
  O  O41  1  0.99197226  0.26212624  0.96012522  1
  O  O42  1  0.50802774  0.23787376  0.46012522  1
  O  O43  1  0.00802774  0.73787376  0.03987478  1
  O  O44  1  0.73879177  0.51256116  0.94723451  1
  O  O45  1  0.23879177  0.01256116  0.55276549  1
  O  O46  1  0.26120823  0.48743884  0.05276549  1
  O  O47  1  0.76120823  0.98743884  0.44723451  1
