# generated using pymatgen
data_MgH10SO9
_symmetry_space_group_name_H-M   'P 1'
_cell_length_a   6.10031223
_cell_length_b   6.33067439
_cell_length_c   10.70654154
_cell_angle_alpha   104.37463248
_cell_angle_beta   98.26387985
_cell_angle_gamma   70.14647348
_symmetry_Int_Tables_number   1
_chemical_formula_structural   MgH10SO9
_chemical_formula_sum   'Mg2 H20 S2 O18'
_cell_volume   375.92420636
_cell_formula_units_Z   2
loop_
 _symmetry_equiv_pos_site_id
 _symmetry_equiv_pos_as_xyz
  1  'x, y, z'
loop_
 _atom_site_type_symbol
 _atom_site_label
 _atom_site_symmetry_multiplicity
 _atom_site_fract_x
 _atom_site_fract_y
 _atom_site_fract_z
 _atom_site_occupancy
  Mg  Mg0  1  0.00000000  0.00000000  0.00000000  1
  Mg  Mg1  1  0.00000000  0.50000000  0.50000000  1
  H  H2  1  0.72768846  0.90787003  0.14524104  1
  H  H3  1  0.27231154  0.09212997  0.85475896  1
  H  H4  1  0.76272490  0.72272529  0.01103630  1
  H  H5  1  0.23727510  0.27727471  0.98896370  1
  H  H6  1  0.89386043  0.33368728  0.20611806  1
  H  H7  1  0.10613957  0.66631272  0.79388194  1
  H  H8  1  0.64842062  0.35670803  0.12624477  1
  H  H9  1  0.35157938  0.64329197  0.87375523  1
  H  H10  1  0.55086201  0.60440421  0.39181971  1
  H  H11  1  0.44913799  0.39559579  0.60818029  1
  H  H12  1  0.63503465  0.33073852  0.37535896  1
  H  H13  1  0.36496535  0.66926148  0.62464104  1
  H  H14  1  0.09142223  0.80911866  0.38906446  1
  H  H15  1  0.90857777  0.19088134  0.61093554  1
  H  H16  1  0.81600529  0.86084627  0.37448267  1
  H  H17  1  0.18399471  0.13915373  0.62551733  1
  H  H18  1  0.27693979  0.60533040  0.12434472  1
  H  H19  1  0.72306021  0.39466960  0.87565528  1
  H  H20  1  0.27945954  0.42151522  0.19954303  1
  H  H21  1  0.72054046  0.57848478  0.80045697  1
  S  S22  1  0.33585437  0.02817493  0.28612731  1
  S  S23  1  0.66414563  0.97182507  0.71387269  1
  O  O24  1  0.27098649  0.93527234  0.14911988  1
  O  O25  1  0.72901351  0.06472766  0.85088012  1
  O  O26  1  0.16590733  0.26378461  0.32874639  1
  O  O27  1  0.83409267  0.73621539  0.67125361  1
  O  O28  1  0.33575596  0.87059518  0.36829155  1
  O  O29  1  0.66424404  0.12940482  0.63170845  1
  O  O30  1  0.57465218  0.05146724  0.29579253  1
  O  O31  1  0.42534782  0.94853276  0.70420747  1
  O  O32  1  0.83314599  0.82869776  0.07434445  1
  O  O33  1  0.16685401  0.17130224  0.92565555  1
  O  O34  1  0.81987781  0.30382021  0.11854503  1
  O  O35  1  0.18012219  0.69617979  0.88145497  1
  O  O36  1  0.68314165  0.46940707  0.40833214  1
  O  O37  1  0.31685835  0.53059293  0.59166786  1
  O  O38  1  0.96418825  0.75428778  0.40302209  1
  O  O39  1  0.03581175  0.24571222  0.59697791  1
  O  O40  1  0.34572100  0.44110323  0.12672512  1
  O  O41  1  0.65427900  0.55889677  0.87327488  1
