# generated using pymatgen
data_CuB2P2(HO2)6
_symmetry_space_group_name_H-M   'P 1'
_cell_length_a   7.98808797
_cell_length_b   8.55339282
_cell_length_c   13.70395688
_cell_angle_alpha   90.00000000
_cell_angle_beta   90.00000000
_cell_angle_gamma   90.00000000
_symmetry_Int_Tables_number   1
_chemical_formula_structural   CuB2P2(HO2)6
_chemical_formula_sum   'Cu4 B8 P8 H24 O48'
_cell_volume   936.32633858
_cell_formula_units_Z   4
loop_
 _symmetry_equiv_pos_site_id
 _symmetry_equiv_pos_as_xyz
  1  'x, y, z'
loop_
 _atom_site_type_symbol
 _atom_site_label
 _atom_site_symmetry_multiplicity
 _atom_site_fract_x
 _atom_site_fract_y
 _atom_site_fract_z
 _atom_site_occupancy
  Cu  Cu0  1  0.50000000  0.50000000  0.00000000  1
  Cu  Cu1  1  0.50000000  -0.00000000  0.50000000  1
  Cu  Cu2  1  0.00000000  -0.00000000  0.00000000  1
  Cu  Cu3  1  0.00000000  0.50000000  0.50000000  1
  B  B4  1  0.25544436  0.42191311  0.17555929  1
  B  B5  1  0.74455564  0.07808689  0.67555929  1
  B  B6  1  0.24455564  0.92191311  0.82444071  1
  B  B7  1  0.75544436  0.57808689  0.32444071  1
  B  B8  1  0.74455564  0.57808689  0.82444071  1
  B  B9  1  0.25544436  0.92191311  0.32444071  1
  B  B10  1  0.75544436  0.07808689  0.17555929  1
  B  B11  1  0.24455564  0.42191311  0.67555929  1
  P  P12  1  0.59152590  0.36770481  0.20410974  1
  P  P13  1  0.40847410  0.13229519  0.70410974  1
  P  P14  1  0.90847410  0.86770481  0.79589026  1
  P  P15  1  0.09152590  0.63229519  0.29589026  1
  P  P16  1  0.40847410  0.63229519  0.79589026  1
  P  P17  1  0.59152590  0.86770481  0.29589026  1
  P  P18  1  0.09152590  0.13229519  0.20410974  1
  P  P19  1  0.90847410  0.36770481  0.70410974  1
  H  H20  1  0.20880462  0.37794270  0.02861774  1
  H  H21  1  0.79119538  0.12205730  0.52861774  1
  H  H22  1  0.29119538  0.87794270  0.97138226  1
  H  H23  1  0.70880462  0.62205730  0.47138226  1
  H  H24  1  0.79119538  0.62205730  0.97138226  1
  H  H25  1  0.20880462  0.87794270  0.47138226  1
  H  H26  1  0.70880462  0.12205730  0.02861774  1
  H  H27  1  0.29119538  0.37794270  0.52861774  1
  H  H28  1  0.37344923  0.79154978  0.11458939  1
  H  H29  1  0.62655077  0.70845022  0.61458939  1
  H  H30  1  0.12655077  0.29154978  0.88541061  1
  H  H31  1  0.87344923  0.20845022  0.38541061  1
  H  H32  1  0.62655077  0.20845022  0.88541061  1
  H  H33  1  0.37344923  0.29154978  0.38541061  1
  H  H34  1  0.87344923  0.70845022  0.11458939  1
  H  H35  1  0.12655077  0.79154978  0.61458939  1
  H  H36  1  0.53087645  0.84411576  0.05863521  1
  H  H37  1  0.46912355  0.65588424  0.55863521  1
  H  H38  1  0.96912355  0.34411576  0.94136479  1
  H  H39  1  0.03087645  0.15588424  0.44136479  1
  H  H40  1  0.46912355  0.15588424  0.94136479  1
  H  H41  1  0.53087645  0.34411576  0.44136479  1
  H  H42  1  0.03087645  0.65588424  0.05863521  1
  H  H43  1  0.96912355  0.84411576  0.55863521  1
  O  O44  1  0.63595149  0.46306384  0.11445627  1
  O  O45  1  0.36404851  0.03693616  0.61445627  1
  O  O46  1  0.86404851  0.96306384  0.88554373  1
  O  O47  1  0.13595149  0.53693616  0.38554373  1
  O  O48  1  0.36404851  0.53693616  0.88554373  1
  O  O49  1  0.63595149  0.96306384  0.38554373  1
  O  O50  1  0.13595149  0.03693616  0.11445627  1
  O  O51  1  0.86404851  0.46306384  0.61445627  1
  O  O52  1  0.40372539  0.38205259  0.23484199  1
  O  O53  1  0.59627461  0.11794741  0.73484199  1
  O  O54  1  0.09627461  0.88205259  0.76515801  1
  O  O55  1  0.90372539  0.61794741  0.26515801  1
  O  O56  1  0.59627461  0.61794741  0.76515801  1
  O  O57  1  0.40372539  0.88205259  0.26515801  1
  O  O58  1  0.90372539  0.11794741  0.23484199  1
  O  O59  1  0.09627461  0.38205259  0.73484199  1
  O  O60  1  0.61768629  0.18851078  0.19323957  1
  O  O61  1  0.38231371  0.31148922  0.69323957  1
  O  O62  1  0.88231371  0.68851078  0.80676043  1
  O  O63  1  0.11768629  0.81148922  0.30676043  1
  O  O64  1  0.38231371  0.81148922  0.80676043  1
  O  O65  1  0.61768629  0.68851078  0.30676043  1
  O  O66  1  0.11768629  0.31148922  0.19323957  1
  O  O67  1  0.88231371  0.18851078  0.69323957  1
  O  O68  1  0.69734265  0.41874630  0.29402638  1
  O  O69  1  0.30265735  0.08125370  0.79402638  1
  O  O70  1  0.80265735  0.91874630  0.70597362  1
  O  O71  1  0.19734265  0.58125370  0.20597362  1
  O  O72  1  0.30265735  0.58125370  0.70597362  1
  O  O73  1  0.69734265  0.91874630  0.20597362  1
  O  O74  1  0.19734265  0.08125370  0.29402638  1
  O  O75  1  0.80265735  0.41874630  0.79402638  1
  O  O76  1  0.29409387  0.42911947  0.07149088  1
  O  O77  1  0.70590613  0.07088053  0.57149088  1
  O  O78  1  0.20590613  0.92911947  0.92850912  1
  O  O79  1  0.79409387  0.57088053  0.42850912  1
  O  O80  1  0.70590613  0.57088053  0.92850912  1
  O  O81  1  0.29409387  0.92911947  0.42850912  1
  O  O82  1  0.79409387  0.07088053  0.07149088  1
  O  O83  1  0.20590613  0.42911947  0.57149088  1
  O  O84  1  0.42474274  0.78911441  0.04966606  1
  O  O85  1  0.57525726  0.71088559  0.54966606  1
  O  O86  1  0.07525726  0.28911441  0.95033394  1
  O  O87  1  0.92474274  0.21088559  0.45033394  1
  O  O88  1  0.57525726  0.21088559  0.95033394  1
  O  O89  1  0.42474274  0.28911441  0.45033394  1
  O  O90  1  0.92474274  0.71088559  0.04966606  1
  O  O91  1  0.07525726  0.78911441  0.54966606  1
