# generated using pymatgen
data_Cs2Mo7O22
_symmetry_space_group_name_H-M   'P 1'
_cell_length_a   5.67455199
_cell_length_b   11.39091648
_cell_length_c   16.57384266
_cell_angle_alpha   85.89786858
_cell_angle_beta   80.14298348
_cell_angle_gamma   75.57678188
_symmetry_Int_Tables_number   1
_chemical_formula_structural   Cs2Mo7O22
_chemical_formula_sum   'Cs4 Mo14 O44'
_cell_volume   1021.75579151
_cell_formula_units_Z   2
loop_
 _symmetry_equiv_pos_site_id
 _symmetry_equiv_pos_as_xyz
  1  'x, y, z'
loop_
 _atom_site_type_symbol
 _atom_site_label
 _atom_site_symmetry_multiplicity
 _atom_site_fract_x
 _atom_site_fract_y
 _atom_site_fract_z
 _atom_site_occupancy
  Cs  Cs0  1  0.81142755  0.86765206  0.82370255  1
  Cs  Cs1  1  0.50278216  0.63234794  0.67629745  1
  Cs  Cs2  1  0.18857245  0.13234794  0.17629745  1
  Cs  Cs3  1  0.49721784  0.36765206  0.32370255  1
  Mo  Mo4  1  0.61489154  0.25000000  0.75000000  1
  Mo  Mo5  1  0.38510846  0.75000000  0.25000000  1
  Mo  Mo6  1  0.99758843  0.85246574  0.52661156  1
  Mo  Mo7  1  0.37666573  0.64753426  0.97338844  1
  Mo  Mo8  1  0.00241157  0.14753426  0.47338844  1
  Mo  Mo9  1  0.62333427  0.35246574  0.02661156  1
  Mo  Mo10  1  0.21386768  0.16548052  0.90600771  1
  Mo  Mo11  1  0.28535591  0.33451948  0.59399229  1
  Mo  Mo12  1  0.78613232  0.83451948  0.09399229  1
  Mo  Mo13  1  0.71464409  0.66548052  0.40600771  1
  Mo  Mo14  1  0.97918114  0.46244136  0.86312880  1
  Mo  Mo15  1  0.30475131  0.03755864  0.63687120  1
  Mo  Mo16  1  0.02081886  0.53755864  0.13687120  1
  Mo  Mo17  1  0.69524869  0.96244136  0.36312880  1
  O  O18  1  0.99882490  0.40970610  0.64171172  1
  O  O19  1  0.05024272  0.09029390  0.85828828  1
  O  O20  1  0.00117510  0.59029390  0.35828828  1
  O  O21  1  0.94975728  0.90970610  0.14171172  1
  O  O22  1  0.53096224  0.13196181  0.83465156  1
  O  O23  1  0.49757561  0.36803819  0.66534844  1
  O  O24  1  0.46903776  0.86803819  0.16534844  1
  O  O25  1  0.50242439  0.63196181  0.33465156  1
  O  O26  1  0.70985808  0.21990609  0.52061962  1
  O  O27  1  0.45038379  0.28009391  0.97938038  1
  O  O28  1  0.29014192  0.78009391  0.47938038  1
  O  O29  1  0.54961621  0.71990609  0.02061962  1
  O  O30  1  0.94316445  0.30336446  0.95671768  1
  O  O31  1  0.20324659  0.19663554  0.54328232  1
  O  O32  1  0.05683555  0.69663554  0.04328232  1
  O  O33  1  0.79675341  0.80336446  0.45671768  1
  O  O34  1  0.92990759  0.56691487  0.78233671  1
  O  O35  1  0.27915917  0.93308513  0.71766329  1
  O  O36  1  0.07009241  0.43308513  0.21766329  1
  O  O37  1  0.72084083  0.06691487  0.28233671  1
  O  O38  1  0.96098614  0.76746684  0.61737443  1
  O  O39  1  0.34582741  0.73253316  0.88262557  1
  O  O40  1  0.03901386  0.23253316  0.38262557  1
  O  O41  1  0.65417259  0.26746684  0.11737443  1
  O  O42  1  0.22395103  0.33000046  0.82079093  1
  O  O43  1  0.37474242  0.16999954  0.67920907  1
  O  O44  1  0.77604897  0.66999954  0.17920907  1
  O  O45  1  0.62525758  0.83000046  0.32079093  1
  O  O46  1  0.26170507  0.07481355  0.99289107  1
  O  O47  1  0.32940968  0.42518645  0.50710893  1
  O  O48  1  0.73829493  0.92518645  0.00710893  1
  O  O49  1  0.67059032  0.57481355  0.49289107  1
  O  O50  1  0.87896542  0.15366838  0.69742254  1
  O  O51  1  0.73005634  0.34633162  0.80257746  1
  O  O52  1  0.12103458  0.84633162  0.30257746  1
  O  O53  1  0.26994366  0.65366838  0.19742254  1
  O  O54  1  0.14120391  0.53197833  0.91880826  1
  O  O55  1  0.59199050  0.96802167  0.58119174  1
  O  O56  1  0.85879609  0.46802167  0.08119174  1
  O  O57  1  0.40800950  0.03197833  0.41880826  1
  O  O58  1  0.08299424  0.99455402  0.56634376  1
  O  O59  1  0.64389202  0.50544598  0.93365624  1
  O  O60  1  0.91700576  0.00544598  0.43365624  1
  O  O61  1  0.35610798  0.49455402  0.06634376  1
