# generated using pymatgen
data_CrCuPPb2O9
_symmetry_space_group_name_H-M   'P 1'
_cell_length_a   5.86955083
_cell_length_b   9.67557947
_cell_length_c   13.85374850
_cell_angle_alpha   91.63856356
_cell_angle_beta   90.00000000
_cell_angle_gamma   90.00000000
_symmetry_Int_Tables_number   1
_chemical_formula_structural   CrCuPPb2O9
_chemical_formula_sum   'Cr4 Cu4 P4 Pb8 O36'
_cell_volume   786.45074832
_cell_formula_units_Z   4
loop_
 _symmetry_equiv_pos_site_id
 _symmetry_equiv_pos_as_xyz
  1  'x, y, z'
loop_
 _atom_site_type_symbol
 _atom_site_label
 _atom_site_symmetry_multiplicity
 _atom_site_fract_x
 _atom_site_fract_y
 _atom_site_fract_z
 _atom_site_occupancy
  Cr  Cr0  1  0.75521409  0.31770576  0.63467813  1
  Cr  Cr1  1  0.74478591  0.81770576  0.13467813  1
  Cr  Cr2  1  0.24478591  0.68229424  0.36532187  1
  Cr  Cr3  1  0.25521409  0.18229424  0.86532187  1
  Cu  Cu4  1  0.50000000  0.00000000  0.50000000  1
  Cu  Cu5  1  0.00000000  0.50000000  -0.00000000  1
  Cu  Cu6  1  0.00000000  0.00000000  0.50000000  1
  Cu  Cu7  1  0.50000000  0.50000000  -0.00000000  1
  P  P8  1  0.76420934  0.17587206  0.34461511  1
  P  P9  1  0.73579066  0.67587206  0.84461511  1
  P  P10  1  0.23579066  0.82412794  0.65538489  1
  P  P11  1  0.26420934  0.32412794  0.15538489  1
  Pb  Pb12  1  0.73622140  0.01617142  0.76932124  1
  Pb  Pb13  1  0.76377860  0.51617142  0.26932124  1
  Pb  Pb14  1  0.26377860  0.98382858  0.23067876  1
  Pb  Pb15  1  0.23622140  0.48382858  0.73067876  1
  Pb  Pb16  1  0.26446476  0.32497972  0.45251660  1
  Pb  Pb17  1  0.23553524  0.82497972  0.95251660  1
  Pb  Pb18  1  0.73553524  0.67502028  0.54748340  1
  Pb  Pb19  1  0.76446476  0.17502028  0.04748340  1
  O  O20  1  0.53791126  0.10895302  0.38538508  1
  O  O21  1  0.96208874  0.60895302  0.88538508  1
  O  O22  1  0.46208874  0.89104698  0.61461492  1
  O  O23  1  0.03791126  0.39104698  0.11461492  1
  O  O24  1  0.98432663  0.10769882  0.38867733  1
  O  O25  1  0.51567337  0.60769882  0.88867733  1
  O  O26  1  0.01567337  0.89230118  0.61132267  1
  O  O27  1  0.48432663  0.39230118  0.11132267  1
  O  O28  1  0.76418857  0.32977075  0.37848176  1
  O  O29  1  0.73581143  0.82977075  0.87848176  1
  O  O30  1  0.23581143  0.67022925  0.62151824  1
  O  O31  1  0.26418857  0.17022925  0.12151824  1
  O  O32  1  0.77710051  0.15297962  0.23578752  1
  O  O33  1  0.72289949  0.65297962  0.73578752  1
  O  O34  1  0.22289949  0.84702038  0.76421248  1
  O  O35  1  0.27710051  0.34702038  0.26421248  1
  O  O36  1  0.51535727  0.40547992  0.60409331  1
  O  O37  1  0.98464273  0.90547992  0.10409331  1
  O  O38  1  0.48464273  0.59452008  0.39590669  1
  O  O39  1  0.01535727  0.09452008  0.89590669  1
  O  O40  1  0.98727837  0.40282277  0.59382058  1
  O  O41  1  0.51272163  0.90282277  0.09382058  1
  O  O42  1  0.01272163  0.59717723  0.40617942  1
  O  O43  1  0.48727837  0.09717723  0.90617942  1
  O  O44  1  0.74495275  0.15795004  0.58978790  1
  O  O45  1  0.75504725  0.65795004  0.08978790  1
  O  O46  1  0.25504725  0.84204996  0.41021210  1
  O  O47  1  0.24495275  0.34204996  0.91021210  1
  O  O48  1  0.77717758  0.30938276  0.75158089  1
  O  O49  1  0.72282242  0.80938276  0.25158089  1
  O  O50  1  0.22282242  0.69061724  0.24841911  1
  O  O51  1  0.27717758  0.19061724  0.74841911  1
  O  O52  1  0.25153398  0.10428971  0.53494798  1
  O  O53  1  0.24846602  0.60428971  0.03494798  1
  O  O54  1  0.74846602  0.89571029  0.46505202  1
  O  O55  1  0.75153398  0.39571029  0.96505202  1
