# generated using pymatgen
data_Li12Mo5O17
_symmetry_space_group_name_H-M   'P 1'
_cell_length_a   6.65697651
_cell_length_b   9.29119894
_cell_length_c   11.62972947
_cell_angle_alpha   101.21253210
_cell_angle_beta   96.50902774
_cell_angle_gamma   107.14521072
_symmetry_Int_Tables_number   1
_chemical_formula_structural   Li12Mo5O17
_chemical_formula_sum   'Li24 Mo10 O34'
_cell_volume   662.95580006
_cell_formula_units_Z   2
loop_
 _symmetry_equiv_pos_site_id
 _symmetry_equiv_pos_as_xyz
  1  'x, y, z'
loop_
 _atom_site_type_symbol
 _atom_site_label
 _atom_site_symmetry_multiplicity
 _atom_site_fract_x
 _atom_site_fract_y
 _atom_site_fract_z
 _atom_site_occupancy
  Li  Li0  1  0.54683011  0.15999085  0.57772067  1
  Li  Li1  1  0.45316989  0.84000915  0.42227933  1
  Li  Li2  1  0.92783091  0.42283843  0.59620166  1
  Li  Li3  1  0.07216909  0.57716157  0.40379834  1
  Li  Li4  1  0.01993063  0.76260505  0.75086371  1
  Li  Li5  1  0.98006937  0.23739495  0.24913629  1
  Li  Li6  1  0.40319116  0.01270010  0.77933204  1
  Li  Li7  1  0.59680884  0.98729990  0.22066796  1
  Li  Li8  1  0.27568218  0.86039707  0.98816037  1
  Li  Li9  1  0.72431782  0.13960293  0.01183963  1
  Li  Li10  1  0.14703844  0.88764492  0.55485215  1
  Li  Li11  1  0.85296156  0.11235508  0.44514785  1
  Li  Li12  1  0.33074107  0.69545981  0.62850119  1
  Li  Li13  1  0.66925893  0.30454019  0.37149881  1
  Li  Li14  1  0.60186082  0.47302076  0.72573790  1
  Li  Li15  1  0.39813918  0.52697924  0.27426210  1
  Li  Li16  1  0.79410821  0.27019094  0.81660444  1
  Li  Li17  1  0.20589179  0.72980906  0.18339556  1
  Li  Li18  1  0.51398421  0.65471923  0.07716211  1
  Li  Li19  1  0.48601579  0.34528077  0.92283789  1
  Li  Li20  1  0.94434718  0.93431927  0.10282053  1
  Li  Li21  1  0.05565282  0.06568073  0.89717947  1
  Li  Li22  1  0.88034876  0.60581403  0.96148035  1
  Li  Li23  1  0.11965124  0.39418597  0.03851965  1
  Mo  Mo24  1  0.18726838  0.21640561  0.69593009  1
  Mo  Mo25  1  0.81273162  0.78359439  0.30406991  1
  Mo  Mo26  1  0.21184443  0.54413678  0.84036515  1
  Mo  Mo27  1  0.78815557  0.45586322  0.15963485  1
  Mo  Mo28  1  0.24708660  0.04630842  0.34013929  1
  Mo  Mo29  1  0.75291340  0.95369158  0.65986071  1
  Mo  Mo30  1  0.65556789  0.81291482  0.88148241  1
  Mo  Mo31  1  0.34443211  0.18708518  0.11851759  1
  Mo  Mo32  1  0.71960485  0.63179601  0.51660858  1
  Mo  Mo33  1  0.28039515  0.36820399  0.48339142  1
  O  O34  1  0.49137825  0.24808295  0.74947322  1
  O  O35  1  0.50862175  0.75191705  0.25052678  1
  O  O36  1  0.15704683  0.32122084  0.86275427  1
  O  O37  1  0.84295317  0.67877916  0.13724573  1
  O  O38  1  0.25962561  0.44852047  0.66580688  1
  O  O39  1  0.74037439  0.55147953  0.33419312  1
  O  O40  1  0.86028840  0.17364735  0.63559765  1
  O  O41  1  0.13971160  0.82635265  0.36440235  1
  O  O42  1  0.21868946  0.14625589  0.51894723  1
  O  O43  1  0.78131054  0.85374411  0.48105277  1
  O  O44  1  0.08260670  0.98768984  0.71952658  1
  O  O45  1  0.91739330  0.01231016  0.28047342  1
  O  O46  1  0.20731873  0.62414832  0.00607464  1
  O  O47  1  0.79268127  0.37585168  0.99392536  1
  O  O48  1  0.54283441  0.58334875  0.89030886  1
  O  O49  1  0.45716559  0.41665125  0.10969114  1
  O  O50  1  0.93154371  0.51234929  0.77809638  1
  O  O51  1  0.06845629  0.48765071  0.22190362  1
  O  O52  1  0.32961625  0.76430868  0.81406319  1
  O  O53  1  0.67038375  0.23569132  0.18593681  1
  O  O54  1  0.54700672  0.07839359  0.39529979  1
  O  O55  1  0.45299328  0.92160641  0.60470021  1
  O  O56  1  0.31441485  0.26723408  0.30412896  1
  O  O57  1  0.68558515  0.73276592  0.69587104  1
  O  O58  1  0.26773652  0.97244369  0.15857674  1
  O  O59  1  0.73226348  0.02755631  0.84142326  1
  O  O60  1  0.94846984  0.82756081  0.92002463  1
  O  O61  1  0.05153016  0.17243919  0.07997537  1
  O  O62  1  0.61654517  0.89416811  0.03236849  1
  O  O63  1  0.38345483  0.10583189  0.96763151  1
  O  O64  1  0.01850928  0.66268460  0.57057530  1
  O  O65  1  0.98149072  0.33731540  0.42942470  1
  O  O66  1  0.38771907  0.58707742  0.45900869  1
  O  O67  1  0.61228093  0.41292258  0.54099131  1
