# generated using pymatgen
data_BaP4(W2O7)8
_symmetry_space_group_name_H-M   'P 1'
_cell_length_a   7.68361457
_cell_length_b   9.49183724
_cell_length_c   17.05706926
_cell_angle_alpha   81.83243557
_cell_angle_beta   76.98344786
_cell_angle_gamma   66.12463233
_symmetry_Int_Tables_number   1
_chemical_formula_structural   BaP4(W2O7)8
_chemical_formula_sum   'Ba1 P4 W16 O56'
_cell_volume   1106.50826472
_cell_formula_units_Z   1
loop_
 _symmetry_equiv_pos_site_id
 _symmetry_equiv_pos_as_xyz
  1  'x, y, z'
loop_
 _atom_site_type_symbol
 _atom_site_label
 _atom_site_symmetry_multiplicity
 _atom_site_fract_x
 _atom_site_fract_y
 _atom_site_fract_z
 _atom_site_occupancy
  Ba  Ba0  1  0.00000000  0.50000000  0.50000000  1
  P  P1  1  0.12839970  0.77711607  0.56409125  1
  P  P2  1  0.46960702  0.22288393  0.43590875  1
  P  P3  1  0.87160030  0.22288393  0.43590875  1
  P  P4  1  0.53039298  0.77711607  0.56409125  1
  W  W5  1  0.11181614  0.53694541  0.74044653  1
  W  W6  1  0.38920808  0.46305459  0.25955347  1
  W  W7  1  0.88818386  0.46305459  0.25955347  1
  W  W8  1  0.61079192  0.53694541  0.74044653  1
  W  W9  1  0.35676266  0.14919307  0.64188656  1
  W  W10  1  0.14784230  0.85080693  0.35811344  1
  W  W11  1  0.64323734  0.85080693  0.35811344  1
  W  W12  1  0.85215770  0.14919307  0.64188656  1
  W  W13  1  0.36552801  0.91835016  0.84884156  1
  W  W14  1  0.13271973  0.08164984  0.15115844  1
  W  W15  1  0.63447199  0.08164984  0.15115844  1
  W  W16  1  0.86728027  0.91835016  0.84884156  1
  W  W17  1  0.12102045  0.30915045  0.94687440  1
  W  W18  1  0.37704530  0.69084955  0.05312560  1
  W  W19  1  0.87897955  0.69084955  0.05312560  1
  W  W20  1  0.62295470  0.30915045  0.94687440  1
  O  O21  1  0.37205074  0.04621440  0.73972212  1
  O  O22  1  0.15798726  0.95378560  0.26027788  1
  O  O23  1  0.62794926  0.95378560  0.26027788  1
  O  O24  1  0.84201274  0.04621440  0.73972212  1
  O  O25  1  0.35178608  0.56884723  0.72758061  1
  O  O26  1  0.64821392  0.43115277  0.27241939  1
  O  O27  1  0.87424433  0.52001994  0.73149140  1
  O  O28  1  0.12575567  0.47998006  0.26850860  1
  O  O29  1  0.86901695  0.32082649  0.94113961  1
  O  O30  1  0.13098305  0.67917351  0.05886039  1
  O  O31  1  0.37873523  0.29581871  0.94671082  1
  O  O32  1  0.62126477  0.70418129  0.05328918  1
  O  O33  1  0.35204904  0.73391247  0.56198945  1
  O  O34  1  0.64795096  0.26608753  0.43801055  1
  O  O35  1  0.88745831  0.24934959  0.52072404  1
  O  O36  1  0.65753195  0.75065041  0.47927596  1
  O  O37  1  0.11254169  0.75065041  0.47927596  1
  O  O38  1  0.34246805  0.24934959  0.52072404  1
  O  O39  1  0.13239427  0.42406971  0.83676834  1
  O  O40  1  0.39323233  0.57593029  0.16323166  1
  O  O41  1  0.86760573  0.57593029  0.16323166  1
  O  O42  1  0.60676767  0.42406971  0.83676834  1
  O  O43  1  0.25558607  0.35446541  0.67638328  1
  O  O44  1  0.28643476  0.64553459  0.32361672  1
  O  O45  1  0.74441393  0.64553459  0.32361672  1
  O  O46  1  0.71356524  0.35446541  0.67638328  1
  O  O47  1  0.12932658  0.91036709  0.83097976  1
  O  O48  1  0.87067342  0.08963291  0.16902024  1
  O  O49  1  0.60997429  0.92900332  0.85104810  1
  O  O50  1  0.39002571  0.07099668  0.14895190  1
  O  O51  1  0.09710308  0.16708469  0.63870914  1
  O  O52  1  0.90289692  0.83291531  0.36129086  1
  O  O53  1  0.62010638  0.14154881  0.61823843  1
  O  O54  1  0.37989362  0.85845119  0.38176157  1
  O  O55  1  0.88708955  0.80359223  0.94651597  1
  O  O56  1  0.63719775  0.19640777  0.05348403  1
  O  O57  1  0.11291045  0.19640777  0.05348403  1
  O  O58  1  0.36280225  0.80359223  0.94651597  1
  O  O59  1  0.07789343  0.65362500  0.62101541  1
  O  O60  1  0.35253385  0.34637500  0.37898459  1
  O  O61  1  0.92210657  0.34637500  0.37898459  1
  O  O62  1  0.64746615  0.65362500  0.62101541  1
  O  O63  1  0.97094451  0.73169013  0.78547457  1
  O  O64  1  0.48810921  0.26830987  0.21452543  1
  O  O65  1  0.02905549  0.26830987  0.21452543  1
  O  O66  1  0.51189079  0.73169013  0.78547457  1
  O  O67  1  0.01259245  0.94106214  0.58668687  1
  O  O68  1  0.54034146  0.05893786  0.41331313  1
  O  O69  1  0.98740755  0.05893786  0.41331313  1
  O  O70  1  0.45965854  0.94106214  0.58668687  1
  O  O71  1  0.22922366  0.11100476  0.89583431  1
  O  O72  1  0.23606273  0.88899524  0.10416569  1
  O  O73  1  0.77077634  0.88899524  0.10416569  1
  O  O74  1  0.76393727  0.11100476  0.89583431  1
  O  O75  1  0.00000000  0.50000000  -0.00000000  1
  O  O76  1  0.50000000  0.50000000  -0.00000000  1
