# generated using pymatgen
data_Ba2SnSe5
_symmetry_space_group_name_H-M   'P 1'
_cell_length_a   9.07130328
_cell_length_b   9.53617237
_cell_length_c   12.64341276
_cell_angle_alpha   68.68553045
_cell_angle_beta   90.00000000
_cell_angle_gamma   90.00000000
_symmetry_Int_Tables_number   1
_chemical_formula_structural   Ba2SnSe5
_chemical_formula_sum   'Ba8 Sn4 Se20'
_cell_volume   1018.91351998
_cell_formula_units_Z   4
loop_
 _symmetry_equiv_pos_site_id
 _symmetry_equiv_pos_as_xyz
  1  'x, y, z'
loop_
 _atom_site_type_symbol
 _atom_site_label
 _atom_site_symmetry_multiplicity
 _atom_site_fract_x
 _atom_site_fract_y
 _atom_site_fract_z
 _atom_site_occupancy
  Ba  Ba0  1  0.13695839  0.74438382  0.17636698  1
  Ba  Ba1  1  0.63695839  0.75561618  0.32363302  1
  Ba  Ba2  1  0.86304161  0.25561618  0.82363302  1
  Ba  Ba3  1  0.36304161  0.24438382  0.67636698  1
  Ba  Ba4  1  0.62624433  0.30949108  0.15391798  1
  Ba  Ba5  1  0.12624433  0.19050892  0.34608202  1
  Ba  Ba6  1  0.37375567  0.69050892  0.84608202  1
  Ba  Ba7  1  0.87375567  0.80949108  0.65391798  1
  Sn  Sn8  1  0.79329144  0.35528556  0.48231398  1
  Sn  Sn9  1  0.29329144  0.14471444  0.01768602  1
  Sn  Sn10  1  0.20670856  0.64471444  0.51768602  1
  Sn  Sn11  1  0.70670856  0.85528556  0.98231398  1
  Se  Se12  1  0.32184322  0.49872233  0.40396549  1
  Se  Se13  1  0.82184322  0.00127767  0.09603451  1
  Se  Se14  1  0.67815678  0.50127767  0.59603451  1
  Se  Se15  1  0.17815678  0.99872233  0.90396549  1
  Se  Se16  1  0.50817238  0.67995361  0.10419927  1
  Se  Se17  1  0.00817238  0.82004639  0.39580073  1
  Se  Se18  1  0.49182762  0.32004639  0.89580073  1
  Se  Se19  1  0.99182762  0.17995361  0.60419927  1
  Se  Se20  1  0.87279150  0.48750782  0.27626241  1
  Se  Se21  1  0.37279150  0.01249218  0.22373759  1
  Se  Se22  1  0.12720850  0.51249218  0.72373759  1
  Se  Se23  1  0.62720850  0.98750782  0.77626241  1
  Se  Se24  1  0.57563133  0.19720518  0.44311657  1
  Se  Se25  1  0.07563133  0.30279482  0.05688343  1
  Se  Se26  1  0.42436867  0.80279482  0.55688343  1
  Se  Se27  1  0.92436867  0.69720518  0.94311657  1
  Se  Se28  1  0.75958627  0.04086088  0.40025012  1
  Se  Se29  1  0.25958627  0.45913912  0.09974988  1
  Se  Se30  1  0.24041373  0.95913912  0.59974988  1
  Se  Se31  1  0.74041373  0.54086088  0.90025012  1
