# generated using pymatgen
data_Tm6(Ga3Co)7
_symmetry_space_group_name_H-M   'P 1'
_cell_length_a   4.13701803
_cell_length_b   16.58671134
_cell_length_c   16.58671134
_cell_angle_alpha   90.00000000
_cell_angle_beta   90.00000000
_cell_angle_gamma   90.00000000
_symmetry_Int_Tables_number   1
_chemical_formula_structural   Tm6(Ga3Co)7
_chemical_formula_sum   'Tm12 Ga42 Co14'
_cell_volume   1138.17223475
_cell_formula_units_Z   2
loop_
 _symmetry_equiv_pos_site_id
 _symmetry_equiv_pos_as_xyz
  1  'x, y, z'
loop_
 _atom_site_type_symbol
 _atom_site_label
 _atom_site_symmetry_multiplicity
 _atom_site_fract_x
 _atom_site_fract_y
 _atom_site_fract_z
 _atom_site_occupancy
  Tm  Tm0  1  0.50000000  0.10765008  0.60765008  1
  Tm  Tm1  1  0.50000000  0.89234992  0.39234992  1
  Tm  Tm2  1  0.50000000  0.39234992  0.10765008  1
  Tm  Tm3  1  0.50000000  0.60765008  0.89234992  1
  Tm  Tm4  1  0.00000000  0.65760971  0.58667461  1
  Tm  Tm5  1  -0.00000000  0.34239029  0.41332539  1
  Tm  Tm6  1  -0.00000000  0.84239029  0.08667461  1
  Tm  Tm7  1  0.00000000  0.15760971  0.91332539  1
  Tm  Tm8  1  0.00000000  0.58667461  0.34239029  1
  Tm  Tm9  1  -0.00000000  0.41332539  0.65760971  1
  Tm  Tm10  1  0.00000000  0.08667461  0.15760971  1
  Tm  Tm11  1  -0.00000000  0.91332539  0.84239029  1
  Ga  Ga12  1  -0.00000000  -0.00000000  0.50000000  1
  Ga  Ga13  1  -0.00000000  0.50000000  0.00000000  1
  Ga  Ga14  1  -0.00000000  0.32038044  0.82038044  1
  Ga  Ga15  1  0.00000000  0.67961956  0.17961956  1
  Ga  Ga16  1  0.00000000  0.17961956  0.32038044  1
  Ga  Ga17  1  -0.00000000  0.82038044  0.67961956  1
  Ga  Ga18  1  0.50000000  0.42611705  0.92611705  1
  Ga  Ga19  1  0.50000000  0.57388295  0.07388295  1
  Ga  Ga20  1  0.50000000  0.07388295  0.42611705  1
  Ga  Ga21  1  0.50000000  0.92611705  0.57388295  1
  Ga  Ga22  1  0.00000000  0.57540517  0.75757528  1
  Ga  Ga23  1  -0.00000000  0.42459483  0.24242472  1
  Ga  Ga24  1  -0.00000000  0.92459483  0.25757528  1
  Ga  Ga25  1  0.00000000  0.07540517  0.74242472  1
  Ga  Ga26  1  -0.00000000  0.75757528  0.42459483  1
  Ga  Ga27  1  0.00000000  0.24242472  0.57540517  1
  Ga  Ga28  1  -0.00000000  0.25757528  0.07540517  1
  Ga  Ga29  1  0.00000000  0.74242472  0.92459483  1
  Ga  Ga30  1  0.50000000  0.53182228  0.61013530  1
  Ga  Ga31  1  0.50000000  0.46817772  0.38986470  1
  Ga  Ga32  1  0.50000000  0.96817772  0.11013530  1
  Ga  Ga33  1  0.50000000  0.03182228  0.88986470  1
  Ga  Ga34  1  0.50000000  0.61013530  0.46817772  1
  Ga  Ga35  1  0.50000000  0.38986470  0.53182228  1
  Ga  Ga36  1  0.50000000  0.11013530  0.03182228  1
  Ga  Ga37  1  0.50000000  0.88986470  0.96817772  1
  Ga  Ga38  1  0.50000000  0.67882141  0.70888942  1
  Ga  Ga39  1  0.50000000  0.32117859  0.29111058  1
  Ga  Ga40  1  0.50000000  0.82117859  0.20888942  1
  Ga  Ga41  1  0.50000000  0.17882141  0.79111058  1
  Ga  Ga42  1  0.50000000  0.70888942  0.32117859  1
  Ga  Ga43  1  0.50000000  0.29111058  0.67882141  1
  Ga  Ga44  1  0.50000000  0.20888942  0.17882141  1
  Ga  Ga45  1  0.50000000  0.79111058  0.82117859  1
  Ga  Ga46  1  0.50000000  0.77102690  0.54272615  1
  Ga  Ga47  1  0.50000000  0.22897310  0.45727385  1
  Ga  Ga48  1  0.50000000  0.72897310  0.04272615  1
  Ga  Ga49  1  0.50000000  0.27102690  0.95727385  1
  Ga  Ga50  1  0.50000000  0.54272615  0.22897310  1
  Ga  Ga51  1  0.50000000  0.45727385  0.77102690  1
  Ga  Ga52  1  0.50000000  0.04272615  0.27102690  1
  Ga  Ga53  1  0.50000000  0.95727385  0.72897310  1
  Co  Co54  1  -0.00000000  0.21873212  0.71873212  1
  Co  Co55  1  0.00000000  0.78126788  0.28126788  1
  Co  Co56  1  0.00000000  0.28126788  0.21873212  1
  Co  Co57  1  -0.00000000  0.71873212  0.78126788  1
  Co  Co58  1  -0.00000000  0.96443929  0.64907321  1
  Co  Co59  1  0.00000000  0.03556071  0.35092679  1
  Co  Co60  1  0.00000000  0.53556071  0.14907321  1
  Co  Co61  1  -0.00000000  0.46443929  0.85092679  1
  Co  Co62  1  0.00000000  0.64907321  0.03556071  1
  Co  Co63  1  -0.00000000  0.35092679  0.96443929  1
  Co  Co64  1  0.00000000  0.14907321  0.46443929  1
  Co  Co65  1  -0.00000000  0.85092679  0.53556071  1
  Co  Co66  1  -0.00000000  0.50000000  0.50000000  1
  Co  Co67  1  -0.00000000  -0.00000000  0.00000000  1
