# generated using pymatgen
data_Mg12Si4H2O21
_symmetry_space_group_name_H-M   'P 1'
_cell_length_a   10.19807572
_cell_length_b   10.72175618
_cell_length_c   14.25972627
_cell_angle_alpha   90.00000000
_cell_angle_beta   90.00000000
_cell_angle_gamma   104.07936046
_symmetry_Int_Tables_number   1
_chemical_formula_structural   Mg12Si4H2O21
_chemical_formula_sum   'Mg48 Si16 H8 O84'
_cell_volume   1512.33861999
_cell_formula_units_Z   4
loop_
 _symmetry_equiv_pos_site_id
 _symmetry_equiv_pos_as_xyz
  1  'x, y, z'
loop_
 _atom_site_type_symbol
 _atom_site_label
 _atom_site_symmetry_multiplicity
 _atom_site_fract_x
 _atom_site_fract_y
 _atom_site_fract_z
 _atom_site_occupancy
  Mg  Mg0  1  0.00000000  0.50000000  0.50000000  1
  Mg  Mg1  1  0.50000000  0.50000000  -0.00000000  1
  Mg  Mg2  1  0.85615708  0.49794956  0.32521670  1
  Mg  Mg3  1  0.64384292  0.50205044  0.82521670  1
  Mg  Mg4  1  0.14384292  0.50205044  0.67478330  1
  Mg  Mg5  1  0.35615708  0.49794956  0.17478330  1
  Mg  Mg6  1  0.50000000  0.50000000  0.50000000  1
  Mg  Mg7  1  0.00000000  0.50000000  -0.00000000  1
  Mg  Mg8  1  0.79297236  0.65276007  0.49748021  1
  Mg  Mg9  1  0.70702764  0.34723993  0.99748021  1
  Mg  Mg10  1  0.20702764  0.34723993  0.50251979  1
  Mg  Mg11  1  0.29297236  0.65276007  0.00251979  1
  Mg  Mg12  1  0.65222029  0.07516248  0.49951800  1
  Mg  Mg13  1  0.84777971  0.92483752  0.99951800  1
  Mg  Mg14  1  0.34777971  0.92483752  0.50048200  1
  Mg  Mg15  1  0.15222029  0.07516248  0.00048200  1
  Mg  Mg16  1  0.13514084  0.06519560  0.49984991  1
  Mg  Mg17  1  0.36485916  0.93480440  0.99984991  1
  Mg  Mg18  1  0.86485916  0.93480440  0.50015009  1
  Mg  Mg19  1  0.63514084  0.06519560  0.00015009  1
  Mg  Mg20  1  0.71552173  0.35173595  0.49701004  1
  Mg  Mg21  1  0.78447827  0.64826405  0.99701004  1
  Mg  Mg22  1  0.28447827  0.64826405  0.50298996  1
  Mg  Mg23  1  0.21552173  0.35173595  0.00298996  1
  Mg  Mg24  1  0.62385212  0.64946227  0.33012446  1
  Mg  Mg25  1  0.87614788  0.35053773  0.83012446  1
  Mg  Mg26  1  0.37614788  0.35053773  0.66987554  1
  Mg  Mg27  1  0.12385212  0.64946227  0.16987554  1
  Mg  Mg28  1  0.46946396  0.07067663  0.32701396  1
  Mg  Mg29  1  0.03053604  0.92932337  0.82701396  1
  Mg  Mg30  1  0.53053604  0.92932337  0.67298604  1
  Mg  Mg31  1  0.96946396  0.07067663  0.17298604  1
  Mg  Mg32  1  0.25157429  0.21876419  0.32269278  1
  Mg  Mg33  1  0.24842571  0.78123581  0.82269278  1
  Mg  Mg34  1  0.74842571  0.78123581  0.67730722  1
  Mg  Mg35  1  0.75157429  0.21876419  0.17730722  1
  Mg  Mg36  1  0.39463584  0.77444888  0.32476506  1
  Mg  Mg37  1  0.10536416  0.22555112  0.82476506  1
  Mg  Mg38  1  0.60536416  0.22555112  0.67523494  1
  Mg  Mg39  1  0.89463584  0.77444888  0.17523494  1
  Mg  Mg40  1  0.54504165  0.35127050  0.33171781  1
  Mg  Mg41  1  0.95495835  0.64872950  0.83171781  1
  Mg  Mg42  1  0.45495835  0.64872950  0.66828219  1
  Mg  Mg43  1  0.04504165  0.35127050  0.16828219  1
  Mg  Mg44  1  0.69875649  0.93445045  0.32190829  1
  Mg  Mg45  1  0.80124351  0.06554955  0.82190829  1
  Mg  Mg46  1  0.30124351  0.06554955  0.67809171  1
  Mg  Mg47  1  0.19875649  0.93445045  0.17809171  1
  Si  Si48  1  0.57442430  0.79020198  0.49884396  1
  Si  Si49  1  0.92557570  0.20979802  0.99884396  1
  Si  Si50  1  0.42557570  0.20979802  0.50115604  1
  Si  Si51  1  0.07442430  0.79020198  0.00115604  1
  Si  Si52  1  0.17317915  0.49774881  0.31048486  1
  Si  Si53  1  0.32682085  0.50225119  0.81048486  1
  Si  Si54  1  0.82682085  0.50225119  0.68951514  1
  Si  Si55  1  0.67317915  0.49774881  0.18951514  1
  Si  Si56  1  0.92700238  0.21368982  0.37458592  1
  Si  Si57  1  0.57299762  0.78631018  0.87458592  1
  Si  Si58  1  0.07299762  0.78631018  0.62541408  1
  Si  Si59  1  0.42700238  0.21368982  0.12541408  1
  Si  Si60  1  0.07264195  0.78110232  0.37656325  1
  Si  Si61  1  0.42735805  0.21889768  0.87656325  1
  Si  Si62  1  0.92735805  0.21889768  0.62343675  1
  Si  Si63  1  0.57264195  0.78110232  0.12343675  1
  H  H64  1  0.09687530  0.01931477  0.30917965  1
  H  H65  1  0.40312470  0.98068523  0.80917965  1
  H  H66  1  0.90312470  0.98068523  0.69082035  1
  H  H67  1  0.59687530  0.01931477  0.19082035  1
  H  H68  1  0.92244407  0.92014785  0.30633078  1
  H  H69  1  0.57755593  0.07985215  0.80633078  1
  H  H70  1  0.07755593  0.07985215  0.69366922  1
  H  H71  1  0.42244407  0.92014785  0.19366922  1
  O  O72  1  0.17020761  0.49824375  0.42467485  1
  O  O73  1  0.32979239  0.50175625  0.92467485  1
  O  O74  1  0.82979239  0.50175625  0.57532515  1
  O  O75  1  0.67020761  0.49824375  0.07532515  1
  O  O76  1  0.96050157  0.64767481  0.41326589  1
  O  O77  1  0.53949843  0.35232519  0.91326589  1
  O  O78  1  0.03949843  0.35232519  0.58673411  1
  O  O79  1  0.46050157  0.64767481  0.08673411  1
  O  O80  1  0.07182004  0.78249508  0.25951499  1
  O  O81  1  0.42817996  0.21750492  0.75951499  1
  O  O82  1  0.92817996  0.21750492  0.74048501  1
  O  O83  1  0.57182004  0.78249508  0.24048501  1
  O  O84  1  0.22835408  0.78335424  0.41452930  1
  O  O85  1  0.27164592  0.21664576  0.91452930  1
  O  O86  1  0.77164592  0.21664576  0.58547070  1
  O  O87  1  0.72835408  0.78335424  0.08547070  1
  O  O88  1  0.92449061  0.21551835  0.25738139  1
  O  O89  1  0.57550939  0.78448165  0.75738139  1
  O  O90  1  0.07550939  0.78448165  0.74261861  1
  O  O91  1  0.42449061  0.21551835  0.24261861  1
  O  O92  1  0.88401287  0.34741322  0.41244344  1
  O  O93  1  0.61598713  0.65258678  0.91244344  1
  O  O94  1  0.11598713  0.65258678  0.58755656  1
  O  O95  1  0.38401287  0.34741322  0.08755656  1
  O  O96  1  0.08155446  0.21071028  0.41336704  1
  O  O97  1  0.41844554  0.78928972  0.91336704  1
  O  O98  1  0.91844554  0.78928972  0.58663296  1
  O  O99  1  0.58155446  0.21071028  0.08663296  1
  O  O100  1  0.81716588  0.08063130  0.41192778  1
  O  O101  1  0.68283412  0.91936870  0.91192778  1
  O  O102  1  0.18283412  0.91936870  0.58807222  1
  O  O103  1  0.31716588  0.08063130  0.08807222  1
  O  O104  1  0.02865503  0.49912855  0.25821322  1
  O  O105  1  0.47134497  0.50087145  0.75821322  1
  O  O106  1  0.97134497  0.50087145  0.74178678  1
  O  O107  1  0.52865503  0.49912855  0.24178678  1
  O  O108  1  0.27957256  0.62061567  0.26107477  1
  O  O109  1  0.22042744  0.37938433  0.76107477  1
  O  O110  1  0.72042744  0.37938433  0.73892523  1
  O  O111  1  0.77957256  0.62061567  0.23892523  1
  O  O112  1  0.67196115  0.50022688  0.41534916  1
  O  O113  1  0.82803885  0.49977312  0.91534916  1
  O  O114  1  0.32803885  0.49977312  0.58465084  1
  O  O115  1  0.17196115  0.50022688  0.08465084  1
  O  O116  1  0.46940654  0.66620505  0.42562943  1
  O  O117  1  0.03059346  0.33379495  0.92562943  1
  O  O118  1  0.53059346  0.33379495  0.57437057  1
  O  O119  1  0.96940654  0.66620505  0.07437057  1
  O  O120  1  0.71990205  0.79317614  0.42435981  1
  O  O121  1  0.78009795  0.20682386  0.92435981  1
  O  O122  1  0.28009795  0.20682386  0.57564019  1
  O  O123  1  0.21990205  0.79317614  0.07564019  1
  O  O124  1  0.32176061  0.08612295  0.42820308  1
  O  O125  1  0.17823939  0.91387705  0.92820308  1
  O  O126  1  0.67823939  0.91387705  0.57179692  1
  O  O127  1  0.82176061  0.08612295  0.07179692  1
  O  O128  1  0.52809430  0.91789541  0.42050833  1
  O  O129  1  0.97190570  0.08210459  0.92050833  1
  O  O130  1  0.47190570  0.08210459  0.57949167  1
  O  O131  1  0.02809430  0.91789541  0.07949167  1
  O  O132  1  0.38339115  0.33366722  0.42668409  1
  O  O133  1  0.11660885  0.66633278  0.92668409  1
  O  O134  1  0.61660885  0.66633278  0.57331591  1
  O  O135  1  0.88339115  0.33366722  0.07331591  1
  O  O136  1  0.57167585  0.20897259  0.42692716  1
  O  O137  1  0.92832415  0.79102741  0.92692716  1
  O  O138  1  0.42832415  0.79102741  0.57307284  1
  O  O139  1  0.07167585  0.20897259  0.07307284  1
  O  O140  1  0.21503592  0.37439995  0.26044137  1
  O  O141  1  0.28496408  0.62560005  0.76044137  1
  O  O142  1  0.78496408  0.62560005  0.73955863  1
  O  O143  1  0.71503592  0.37439995  0.23955863  1
  O  O144  1  0.02757236  0.91266379  0.41320808  1
  O  O145  1  0.47242764  0.08733621  0.91320808  1
  O  O146  1  0.97242764  0.08733621  0.58679192  1
  O  O147  1  0.52757236  0.91266379  0.08679192  1
  O  O148  1  0.13599675  0.06769430  0.25270954  1
  O  O149  1  0.36400325  0.93230570  0.75270954  1
  O  O150  1  0.86400325  0.93230570  0.74729046  1
  O  O151  1  0.63599675  0.06769430  0.24729046  1
  O  O152  1  0.86424010  0.92170084  0.25139574  1
  O  O153  1  0.63575990  0.07829916  0.75139574  1
  O  O154  1  0.13575990  0.07829916  0.74860426  1
  O  O155  1  0.36424010  0.92170084  0.24860426  1
