# generated using pymatgen
data_Mn5H8S3O16
_symmetry_space_group_name_H-M   'P 1'
_cell_length_a   7.79693659
_cell_length_b   8.70493071
_cell_length_c   11.02427115
_cell_angle_alpha   90.00000000
_cell_angle_beta   101.79872123
_cell_angle_gamma   90.00000000
_symmetry_Int_Tables_number   1
_chemical_formula_structural   Mn5H8S3O16
_chemical_formula_sum   'Mn10 H16 S6 O32'
_cell_volume   732.42825908
_cell_formula_units_Z   2
loop_
 _symmetry_equiv_pos_site_id
 _symmetry_equiv_pos_as_xyz
  1  'x, y, z'
loop_
 _atom_site_type_symbol
 _atom_site_label
 _atom_site_symmetry_multiplicity
 _atom_site_fract_x
 _atom_site_fract_y
 _atom_site_fract_z
 _atom_site_occupancy
  Mn  Mn0  1  0.54912997  0.75000000  0.10911029  1
  Mn  Mn1  1  0.45087003  0.25000000  0.89088971  1
  Mn  Mn2  1  0.19240251  0.05170058  0.10476662  1
  Mn  Mn3  1  0.80759749  0.55170058  0.89523338  1
  Mn  Mn4  1  0.80759749  0.94829942  0.89523338  1
  Mn  Mn5  1  0.19240251  0.44829942  0.10476662  1
  Mn  Mn6  1  0.54884067  0.94603900  0.36085838  1
  Mn  Mn7  1  0.45115933  0.44603900  0.63914162  1
  Mn  Mn8  1  0.45115933  0.05396100  0.63914162  1
  Mn  Mn9  1  0.54884067  0.55396100  0.36085838  1
  H  H10  1  0.88686275  0.03036194  0.33176487  1
  H  H11  1  0.11313725  0.53036194  0.66823513  1
  H  H12  1  0.11313725  0.96963806  0.66823513  1
  H  H13  1  0.88686275  0.46963806  0.33176487  1
  H  H14  1  0.85768251  0.12244804  0.45162146  1
  H  H15  1  0.14231749  0.62244804  0.54837854  1
  H  H16  1  0.14231749  0.87755196  0.54837854  1
  H  H17  1  0.85768251  0.37755196  0.45162146  1
  H  H18  1  0.53001820  0.06180368  0.13576714  1
  H  H19  1  0.46998180  0.56180368  0.86423286  1
  H  H20  1  0.46998180  0.93819632  0.86423286  1
  H  H21  1  0.53001820  0.43819632  0.13576714  1
  H  H22  1  0.80877050  0.75000000  0.33583400  1
  H  H23  1  0.19122950  0.25000000  0.66416600  1
  H  H24  1  0.86878009  0.75000000  0.07966898  1
  H  H25  1  0.13121991  0.25000000  0.92033102  1
  S  S26  1  0.16357619  0.75000000  0.88732160  1
  S  S27  1  0.83642381  0.25000000  0.11267840  1
  S  S28  1  0.26858862  0.25000000  0.38633623  1
  S  S29  1  0.73141138  0.75000000  0.61366377  1
  S  S30  1  0.14997908  0.75000000  0.30741424  1
  S  S31  1  0.85002092  0.25000000  0.69258576  1
  O  O32  1  0.36419212  0.75000000  0.93302179  1
  O  O33  1  0.63580788  0.25000000  0.06697821  1
  O  O34  1  0.09652976  0.89121882  0.95119426  1
  O  O35  1  0.90347024  0.39121882  0.04880574  1
  O  O36  1  0.90347024  0.10878118  0.04880574  1
  O  O37  1  0.09652976  0.60878118  0.95119426  1
  O  O38  1  0.38734636  0.10896975  0.43248336  1
  O  O39  1  0.61265364  0.60896975  0.56751664  1
  O  O40  1  0.61265364  0.89103025  0.56751664  1
  O  O41  1  0.38734636  0.39103025  0.43248336  1
  O  O42  1  0.25096495  0.25000000  0.24407760  1
  O  O43  1  0.74903505  0.75000000  0.75592240  1
  O  O44  1  0.07439198  0.75000000  0.42132999  1
  O  O45  1  0.92560802  0.25000000  0.57867001  1
  O  O46  1  0.34730262  0.75000000  0.34184300  1
  O  O47  1  0.65269738  0.25000000  0.65815700  1
  O  O48  1  0.09007669  0.60909183  0.23465715  1
  O  O49  1  0.90992331  0.10909183  0.76534285  1
  O  O50  1  0.90992331  0.39090817  0.76534285  1
  O  O51  1  0.09007669  0.89090817  0.23465715  1
  O  O52  1  0.79909772  0.06417464  0.37762443  1
  O  O53  1  0.20090228  0.56417464  0.62237557  1
  O  O54  1  0.20090228  0.93582536  0.62237557  1
  O  O55  1  0.79909772  0.43582536  0.37762443  1
  O  O56  1  0.46043498  0.97688006  0.15964381  1
  O  O57  1  0.53956502  0.47688006  0.84035619  1
  O  O58  1  0.53956502  0.02311994  0.84035619  1
  O  O59  1  0.46043498  0.52311994  0.15964381  1
  O  O60  1  0.68181667  0.75000000  0.30389716  1
  O  O61  1  0.31818333  0.25000000  0.69610284  1
  O  O62  1  0.76222718  0.75000000  0.01489854  1
  O  O63  1  0.23777282  0.25000000  0.98510146  1
