# generated using pymatgen
data_CoH10SeO9
_symmetry_space_group_name_H-M   'P 1'
_cell_length_a   6.17139228
_cell_length_b   6.43692072
_cell_length_c   10.90689548
_cell_angle_alpha   104.64631734
_cell_angle_beta   98.70859563
_cell_angle_gamma   70.87226130
_symmetry_Int_Tables_number   1
_chemical_formula_structural   CoH10SeO9
_chemical_formula_sum   'Co2 H20 Se2 O18'
_cell_volume   394.93562697
_cell_formula_units_Z   2
loop_
 _symmetry_equiv_pos_site_id
 _symmetry_equiv_pos_as_xyz
  1  'x, y, z'
loop_
 _atom_site_type_symbol
 _atom_site_label
 _atom_site_symmetry_multiplicity
 _atom_site_fract_x
 _atom_site_fract_y
 _atom_site_fract_z
 _atom_site_occupancy
  Co  Co0  1  -0.00000000  -0.00000000  -0.00000000  1
  Co  Co1  1  -0.00000000  0.50000000  0.50000000  1
  H  H2  1  0.76811182  0.71908651  0.01326463  1
  H  H3  1  0.23188818  0.28091349  0.98673537  1
  H  H4  1  0.74643497  0.90212319  0.14674381  1
  H  H5  1  0.25356503  0.09787681  0.85325619  1
  H  H6  1  0.91228212  0.33715866  0.20360134  1
  H  H7  1  0.08771788  0.66284134  0.79639866  1
  H  H8  1  0.66594358  0.35900460  0.12777322  1
  H  H9  1  0.33405642  0.64099540  0.87222678  1
  H  H10  1  0.64794881  0.33521341  0.35941405  1
  H  H11  1  0.35205119  0.66478659  0.64058595  1
  H  H12  1  0.54866826  0.60678946  0.39865127  1
  H  H13  1  0.45133174  0.39321054  0.60134873  1
  H  H14  1  0.10175575  0.80588413  0.40563758  1
  H  H15  1  0.89824425  0.19411587  0.59436242  1
  H  H16  1  0.82662012  0.86615352  0.39031551  1
  H  H17  1  0.17337988  0.13384648  0.60968449  1
  H  H18  1  0.29216716  0.61807372  0.12736024  1
  H  H19  1  0.70783284  0.38192628  0.87263976  1
  H  H20  1  0.25123675  0.44406736  0.19187038  1
  H  H21  1  0.74876325  0.55593264  0.80812962  1
  Se  Se22  1  0.34806042  0.02706180  0.28901668  1
  Se  Se23  1  0.65193958  0.97293820  0.71098332  1
  O  O24  1  0.28195756  0.90861103  0.13772882  1
  O  O25  1  0.71804244  0.09138897  0.86227118  1
  O  O26  1  0.61614854  0.04512238  0.29828312  1
  O  O27  1  0.38385146  0.95487762  0.70171688  1
  O  O28  1  0.33787952  0.86935464  0.38696161  1
  O  O29  1  0.66212048  0.13064536  0.61303839  1
  O  O30  1  0.16362682  0.28981898  0.32451338  1
  O  O31  1  0.83637318  0.71018102  0.67548662  1
  O  O32  1  0.83961230  0.82719149  0.07274593  1
  O  O33  1  0.16038770  0.17280851  0.92725407  1
  O  O34  1  0.83282265  0.31444459  0.11798695  1
  O  O35  1  0.16717735  0.68555541  0.88201305  1
  O  O36  1  0.68569411  0.47439252  0.40355376  1
  O  O37  1  0.31430589  0.52560748  0.59644624  1
  O  O38  1  0.97004538  0.75811709  0.41789898  1
  O  O39  1  0.02995462  0.24188291  0.58210102  1
  O  O40  1  0.33877561  0.45485329  0.12708574  1
  O  O41  1  0.66122439  0.54514671  0.87291426  1
