# generated using pymatgen
data_Tb2ZrSe5
_symmetry_space_group_name_H-M   'P 1'
_cell_length_a   7.65040736
_cell_length_b   8.15044466
_cell_length_c   12.19530147
_cell_angle_alpha   90.00000000
_cell_angle_beta   90.00000000
_cell_angle_gamma   90.00000000
_symmetry_Int_Tables_number   1
_chemical_formula_structural   Tb2ZrSe5
_chemical_formula_sum   'Tb8 Zr4 Se20'
_cell_volume   760.42853295
_cell_formula_units_Z   4
loop_
 _symmetry_equiv_pos_site_id
 _symmetry_equiv_pos_as_xyz
  1  'x, y, z'
loop_
 _atom_site_type_symbol
 _atom_site_label
 _atom_site_symmetry_multiplicity
 _atom_site_fract_x
 _atom_site_fract_y
 _atom_site_fract_z
 _atom_site_occupancy
  Tb  Tb0  1  0.47489410  0.99605482  0.67913770  1
  Tb  Tb1  1  0.02510590  0.50394518  0.17913770  1
  Tb  Tb2  1  0.52510590  0.49605482  0.32086230  1
  Tb  Tb3  1  0.97489410  0.00394518  0.82086230  1
  Tb  Tb4  1  0.52510590  0.00394518  0.32086230  1
  Tb  Tb5  1  0.97489410  0.49605482  0.82086230  1
  Tb  Tb6  1  0.47489410  0.50394518  0.67913770  1
  Tb  Tb7  1  0.02510590  0.99605482  0.17913770  1
  Zr  Zr8  1  0.92158779  0.25000000  0.50640440  1
  Zr  Zr9  1  0.57841221  0.25000000  0.00640440  1
  Zr  Zr10  1  0.07841221  0.75000000  0.49359560  1
  Zr  Zr11  1  0.42158779  0.75000000  0.99359560  1
  Se  Se12  1  0.33597624  0.03790429  0.90633288  1
  Se  Se13  1  0.16402376  0.46209571  0.40633288  1
  Se  Se14  1  0.66402376  0.53790429  0.09366712  1
  Se  Se15  1  0.83597624  0.96209571  0.59366712  1
  Se  Se16  1  0.66402376  0.96209571  0.09366712  1
  Se  Se17  1  0.83597624  0.53790429  0.59366712  1
  Se  Se18  1  0.33597624  0.46209571  0.90633288  1
  Se  Se19  1  0.16402376  0.03790429  0.40633288  1
  Se  Se20  1  0.16862260  0.25000000  0.68236148  1
  Se  Se21  1  0.33137740  0.25000000  0.18236148  1
  Se  Se22  1  0.83137740  0.75000000  0.31763852  1
  Se  Se23  1  0.66862260  0.75000000  0.81763852  1
  Se  Se24  1  0.94906505  0.25000000  0.00295479  1
  Se  Se25  1  0.55093495  0.25000000  0.50295479  1
  Se  Se26  1  0.05093495  0.75000000  0.99704521  1
  Se  Se27  1  0.44906505  0.75000000  0.49704521  1
  Se  Se28  1  0.68789108  0.25000000  0.79132707  1
  Se  Se29  1  0.81210892  0.25000000  0.29132707  1
  Se  Se30  1  0.31210892  0.75000000  0.20867293  1
  Se  Se31  1  0.18789108  0.75000000  0.70867293  1
