# generated using pymatgen
data_Y(FeSn)6
_symmetry_space_group_name_H-M   'P 1'
_cell_length_a   5.40177981
_cell_length_b   8.99390023
_cell_length_c   15.06791267
_cell_angle_alpha   107.36425768
_cell_angle_beta   100.32594691
_cell_angle_gamma   90.00000000
_symmetry_Int_Tables_number   1
_chemical_formula_structural   Y(FeSn)6
_chemical_formula_sum   'Y3 Fe18 Sn18'
_cell_volume   686.25132701
_cell_formula_units_Z   3
loop_
 _symmetry_equiv_pos_site_id
 _symmetry_equiv_pos_as_xyz
  1  'x, y, z'
loop_
 _atom_site_type_symbol
 _atom_site_label
 _atom_site_symmetry_multiplicity
 _atom_site_fract_x
 _atom_site_fract_y
 _atom_site_fract_z
 _atom_site_occupancy
  Y  Y0  1  -0.00000000  -0.00000000  -0.00000000  1
  Y  Y1  1  0.66828978  0.16828978  0.33657957  1
  Y  Y2  1  0.33171022  0.83171022  0.66342043  1
  Fe  Fe3  1  0.50000000  0.24584051  -0.00000000  1
  Fe  Fe4  1  0.50000000  0.75415949  -0.00000000  1
  Fe  Fe5  1  -0.00000000  0.50000000  0.50000000  1
  Fe  Fe6  1  -0.00000000  -0.00000000  0.50000000  1
  Fe  Fe7  1  0.50000000  -0.00000000  0.50000000  1
  Fe  Fe8  1  0.50000000  0.50000000  0.50000000  1
  Fe  Fe9  1  0.83347580  0.58565982  0.66695161  1
  Fe  Fe10  1  0.16652420  0.91870822  0.33304839  1
  Fe  Fe11  1  0.83347580  0.08129178  0.66695161  1
  Fe  Fe12  1  0.16652420  0.41434018  0.33304839  1
  Fe  Fe13  1  0.83398106  0.33051274  0.16714194  1
  Fe  Fe14  1  0.16601894  0.16337081  0.83285806  1
  Fe  Fe15  1  0.33316088  0.83662919  0.16714194  1
  Fe  Fe16  1  0.66683912  0.66948726  0.83285806  1
  Fe  Fe17  1  0.16601894  0.66948726  0.83285806  1
  Fe  Fe18  1  0.83398106  0.83662919  0.16714194  1
  Fe  Fe19  1  0.66683912  0.16337081  0.83285806  1
  Fe  Fe20  1  0.33316088  0.33051274  0.16714194  1
  Sn  Sn21  1  -0.00000000  0.33581433  -0.00000000  1
  Sn  Sn22  1  -0.00000000  0.66418567  -0.00000000  1
  Sn  Sn23  1  0.55513578  0.55513578  0.11027155  1
  Sn  Sn24  1  0.44486422  0.44486422  0.88972845  1
  Sn  Sn25  1  0.11216928  0.11216928  0.22433855  1
  Sn  Sn26  1  0.88783072  0.88783072  0.77566145  1
  Sn  Sn27  1  0.22346630  0.22346630  0.44693259  1
  Sn  Sn28  1  0.77653370  0.77653370  0.55306741  1
  Sn  Sn29  1  0.55600935  0.05600935  0.11201870  1
  Sn  Sn30  1  0.44399065  0.94399065  0.88798130  1
  Sn  Sn31  1  0.11017244  0.61017244  0.22034488  1
  Sn  Sn32  1  0.88982756  0.38982756  0.77965512  1
  Sn  Sn33  1  0.21997216  0.71997216  0.43994431  1
  Sn  Sn34  1  0.78002784  0.28002784  0.56005569  1
  Sn  Sn35  1  0.66654616  0.50315158  0.33309232  1
  Sn  Sn36  1  0.33345384  0.17005926  0.66690768  1
  Sn  Sn37  1  0.66654616  0.82994074  0.33309232  1
  Sn  Sn38  1  0.33345384  0.49684842  0.66690768  1
