# generated using pymatgen
data_Tm2H16S3O20
_symmetry_space_group_name_H-M   'P 1'
_cell_length_a   6.67742018
_cell_length_b   7.67980964
_cell_length_c   18.42882068
_cell_angle_alpha   101.47037562
_cell_angle_beta   90.00000002
_cell_angle_gamma   115.76866351
_symmetry_Int_Tables_number   1
_chemical_formula_structural   Tm2H16S3O20
_chemical_formula_sum   'Tm4 H32 S6 O40'
_cell_volume   830.06563550
_cell_formula_units_Z   2
loop_
 _symmetry_equiv_pos_site_id
 _symmetry_equiv_pos_as_xyz
  1  'x, y, z'
loop_
 _atom_site_type_symbol
 _atom_site_label
 _atom_site_symmetry_multiplicity
 _atom_site_fract_x
 _atom_site_fract_y
 _atom_site_fract_z
 _atom_site_occupancy
  Tm  Tm0  1  0.18884340  0.33406560  0.89247223  1
  Tm  Tm1  1  0.85477780  0.66593440  0.60752777  1
  Tm  Tm2  1  0.81115660  0.66593440  0.10752777  1
  Tm  Tm3  1  0.14522220  0.33406560  0.39247223  1
  H  H4  1  0.20916669  0.70235700  0.98115649  1
  H  H5  1  0.50680970  0.29764300  0.51884351  1
  H  H6  1  0.79083331  0.29764300  0.01884351  1
  H  H7  1  0.49319030  0.70235700  0.48115649  1
  H  H8  1  0.46182322  0.74039733  0.98606415  1
  H  H9  1  0.72142589  0.25960267  0.51393585  1
  H  H10  1  0.53817678  0.25960267  0.01393585  1
  H  H11  1  0.27857411  0.74039733  0.48606415  1
  H  H12  1  0.16433623  0.99304974  0.95538146  1
  H  H13  1  0.17128650  0.00695026  0.54461854  1
  H  H14  1  0.83566377  0.00695026  0.04461854  1
  H  H15  1  0.82871350  0.99304974  0.45538146  1
  H  H16  1  0.33054097  0.02079630  0.89302075  1
  H  H17  1  0.30974468  0.97920370  0.60697925  1
  H  H18  1  0.66945903  0.97920370  0.10697925  1
  H  H19  1  0.69025532  0.02079630  0.39302075  1
  H  H20  1  0.24269489  0.44701167  0.74673723  1
  H  H21  1  0.79568322  0.55298833  0.75326277  1
  H  H22  1  0.75730511  0.55298833  0.25326277  1
  H  H23  1  0.20431678  0.44701167  0.24673723  1
  H  H24  1  0.26837673  0.64151997  0.80542686  1
  H  H25  1  0.62685676  0.35848003  0.69457314  1
  H  H26  1  0.73162327  0.35848003  0.19457314  1
  H  H27  1  0.37314324  0.64151997  0.30542686  1
  H  H28  1  0.85183501  0.90318902  0.85535034  1
  H  H29  1  0.94864599  0.09681098  0.64464966  1
  H  H30  1  0.14816499  0.09681098  0.14464966  1
  H  H31  1  0.05135401  0.90318902  0.35535034  1
  H  H32  1  0.71571131  0.02557486  0.84670601  1
  H  H33  1  0.69013645  0.97442514  0.65329399  1
  H  H34  1  0.28428869  0.97442514  0.15329399  1
  H  H35  1  0.30986355  0.02557486  0.34670601  1
  S  S36  1  0.19407413  0.44233586  0.08937996  1
  S  S37  1  0.75173826  0.55766414  0.41062004  1
  S  S38  1  0.80592587  0.55766414  0.91062004  1
  S  S39  1  0.24826174  0.44233586  0.58937996  1
  S  S40  1  0.31075381  1.00000000  0.75000000  1
  S  S41  1  0.68924619  0.00000000  0.25000000  1
  O  O42  1  0.13332709  0.32681104  0.14779408  1
  O  O43  1  0.80651605  0.67318896  0.35220592  1
  O  O44  1  0.86667291  0.67318896  0.85220592  1
  O  O45  1  0.19348395  0.32681104  0.64779408  1
  O  O46  1  0.43717961  0.53003953  0.08324376  1
  O  O47  1  0.90714007  0.46996047  0.41675624  1
  O  O48  1  0.56282039  0.46996047  0.91675624  1
  O  O49  1  0.09285993  0.53003953  0.58324376  1
  O  O50  1  0.07847651  0.30557948  0.01505339  1
  O  O51  1  0.77289703  0.69442052  0.48494661  1
  O  O52  1  0.92152349  0.69442052  0.98494661  1
  O  O53  1  0.22710297  0.30557948  0.51505339  1
  O  O54  1  0.12102144  0.60217545  0.10455106  1
  O  O55  1  0.51884600  0.39782455  0.39544894  1
  O  O56  1  0.87897856  0.39782455  0.89544894  1
  O  O57  1  0.48115400  0.60217545  0.60455106  1
  O  O58  1  0.40421721  0.93235172  0.80644231  1
  O  O59  1  0.47186549  0.06764828  0.69355769  1
  O  O60  1  0.59578279  0.06764828  0.19355769  1
  O  O61  1  0.52813451  0.93235172  0.30644231  1
  O  O62  1  0.26460956  0.16630230  0.78840161  1
  O  O63  1  0.09830726  0.83369770  0.71159839  1
  O  O64  1  0.73539044  0.83369770  0.21159839  1
  O  O65  1  0.90169274  0.16630230  0.28840161  1
  O  O66  1  0.32092368  0.67345178  0.95325517  1
  O  O67  1  0.64747190  0.32654822  0.54674483  1
  O  O68  1  0.67907632  0.32654822  0.04674483  1
  O  O69  1  0.35252810  0.67345178  0.45325517  1
  O  O70  1  0.28539785  0.09440290  0.93583444  1
  O  O71  1  0.19099496  0.90559710  0.56416556  1
  O  O72  1  0.71460215  0.90559710  0.06416556  1
  O  O73  1  0.80900504  0.09440290  0.43583444  1
  O  O74  1  0.23939187  0.50251202  0.79967949  1
  O  O75  1  0.73687985  0.49748798  0.70032051  1
  O  O76  1  0.76060813  0.49748798  0.20032051  1
  O  O77  1  0.26312015  0.50251202  0.29967949  1
  O  O78  1  0.85832652  0.03730402  0.86712209  1
  O  O79  1  0.82102250  0.96269598  0.63287791  1
  O  O80  1  0.14167348  0.96269598  0.13287791  1
  O  O81  1  0.17897750  0.03730402  0.36712209  1
