# generated using pymatgen
data_Co3P2(HO)16
_symmetry_space_group_name_H-M   'P 1'
_cell_length_a   4.73093202
_cell_length_b   8.47752174
_cell_length_c   8.47752174
_cell_angle_alpha   106.34854966
_cell_angle_beta   99.01724385
_cell_angle_gamma   99.01724385
_symmetry_Int_Tables_number   1
_chemical_formula_structural   Co3P2(HO)16
_chemical_formula_sum   'Co3 P2 H16 O16'
_cell_volume   314.90545486
_cell_formula_units_Z   1
loop_
 _symmetry_equiv_pos_site_id
 _symmetry_equiv_pos_as_xyz
  1  'x, y, z'
loop_
 _atom_site_type_symbol
 _atom_site_label
 _atom_site_symmetry_multiplicity
 _atom_site_fract_x
 _atom_site_fract_y
 _atom_site_fract_z
 _atom_site_occupancy
  Co  Co0  1  -0.00000000  -0.00000000  0.00000000  1
  Co  Co1  1  0.00000000  0.60790689  0.39209311  1
  Co  Co2  1  -0.00000000  0.39209311  0.60790689  1
  P  P3  1  0.38766021  0.31197735  0.31197735  1
  P  P4  1  0.61233979  0.68802265  0.68802265  1
  H  H5  1  0.35786430  0.95796212  0.79595339  1
  H  H6  1  0.35786430  0.79595339  0.95796212  1
  H  H7  1  0.64213570  0.04203788  0.20404661  1
  H  H8  1  0.64213570  0.20404661  0.04203788  1
  H  H9  1  0.04060297  0.93464238  0.68801908  1
  H  H10  1  0.04060297  0.68801908  0.93464238  1
  H  H11  1  0.95939703  0.06535762  0.31198092  1
  H  H12  1  0.95939703  0.31198092  0.06535762  1
  H  H13  1  0.48705468  0.81279651  0.43758178  1
  H  H14  1  0.48705468  0.43758178  0.81279651  1
  H  H15  1  0.51294532  0.18720349  0.56241822  1
  H  H16  1  0.51294532  0.56241822  0.18720349  1
  H  H17  1  0.28923686  0.81867273  0.26683288  1
  H  H18  1  0.28923686  0.26683288  0.81867273  1
  H  H19  1  0.71076314  0.18132727  0.73316712  1
  H  H20  1  0.71076314  0.73316712  0.18132727  1
  O  O21  1  0.38520504  0.15635128  0.15635128  1
  O  O22  1  0.61479496  0.84364872  0.84364872  1
  O  O23  1  0.71442527  0.39351807  0.39351807  1
  O  O24  1  0.28557473  0.60648193  0.60648193  1
  O  O25  1  0.23305236  0.24507846  0.43689064  1
  O  O26  1  0.23305236  0.43689064  0.24507846  1
  O  O27  1  0.76694764  0.75492154  0.56310936  1
  O  O28  1  0.76694764  0.56310936  0.75492154  1
  O  O29  1  0.18865292  0.01486995  0.78747367  1
  O  O30  1  0.18865292  0.78747367  0.01486995  1
  O  O31  1  0.81134708  0.98513005  0.21252633  1
  O  O32  1  0.81134708  0.21252633  0.98513005  1
  O  O33  1  0.28763122  0.81847422  0.38255028  1
  O  O34  1  0.28763122  0.38255028  0.81847422  1
  O  O35  1  0.71236878  0.18152578  0.61744972  1
  O  O36  1  0.71236878  0.61744972  0.18152578  1
