# generated using pymatgen
data_TbAs2Au
_symmetry_space_group_name_H-M   'P 1'
_cell_length_a   5.70339288
_cell_length_b   5.68351575
_cell_length_c   20.62030918
_cell_angle_alpha   90.00000000
_cell_angle_beta   90.00000000
_cell_angle_gamma   90.00000000
_symmetry_Int_Tables_number   1
_chemical_formula_structural   TbAs2Au
_chemical_formula_sum   'Tb8 As16 Au8'
_cell_volume   668.41398783
_cell_formula_units_Z   8
loop_
 _symmetry_equiv_pos_site_id
 _symmetry_equiv_pos_as_xyz
  1  'x, y, z'
loop_
 _atom_site_type_symbol
 _atom_site_label
 _atom_site_symmetry_multiplicity
 _atom_site_fract_x
 _atom_site_fract_y
 _atom_site_fract_z
 _atom_site_occupancy
  Tb  Tb0  1  0.01474339  0.75000000  0.38374701  1
  Tb  Tb1  1  0.98525661  0.25000000  0.61625299  1
  Tb  Tb2  1  0.01474339  0.25000000  0.11625299  1
  Tb  Tb3  1  0.98525661  0.75000000  0.88374701  1
  Tb  Tb4  1  0.51562116  0.25000000  0.38400072  1
  Tb  Tb5  1  0.48437884  0.75000000  0.61599928  1
  Tb  Tb6  1  0.51562116  0.75000000  0.11599928  1
  Tb  Tb7  1  0.48437884  0.25000000  0.88400072  1
  As  As8  1  0.01327424  0.25000000  0.34756088  1
  As  As9  1  0.98672576  0.75000000  0.65243912  1
  As  As10  1  0.01327424  0.75000000  0.15243912  1
  As  As11  1  0.98672576  0.25000000  0.84756088  1
  As  As12  1  0.51310635  0.75000000  0.34711545  1
  As  As13  1  0.48689365  0.25000000  0.65288455  1
  As  As14  1  0.51310635  0.25000000  0.15288455  1
  As  As15  1  0.48689365  0.75000000  0.84711545  1
  As  As16  1  0.75139932  0.98121143  0.49995179  1
  As  As17  1  0.24860068  0.48121143  0.50004821  1
  As  As18  1  0.75139932  0.01878857  0.00004821  1
  As  As19  1  0.24860068  0.51878857  0.99995179  1
  As  As20  1  0.24860068  0.01878857  0.50004821  1
  As  As21  1  0.75139932  0.51878857  0.49995179  1
  As  As22  1  0.24860068  0.98121143  0.99995179  1
  As  As23  1  0.75139932  0.48121143  0.00004821  1
  Au  Au24  1  0.30325817  0.50000000  0.25000000  1
  Au  Au25  1  0.69674183  -0.00000000  0.75000000  1
  Au  Au26  1  0.69674183  0.50000000  0.75000000  1
  Au  Au27  1  0.30325817  0.00000000  0.25000000  1
  Au  Au28  1  0.80310432  0.50000000  0.25000000  1
  Au  Au29  1  0.19689568  -0.00000000  0.75000000  1
  Au  Au30  1  0.19689568  0.50000000  0.75000000  1
  Au  Au31  1  0.80310432  0.00000000  0.25000000  1
