# generated using pymatgen
data_MgP6H24(N2O11)2
_symmetry_space_group_name_H-M   'P 1'
_cell_length_a   8.70498552
_cell_length_b   8.98164676
_cell_length_c   14.95351170
_cell_angle_alpha   90.00000000
_cell_angle_beta   90.00000000
_cell_angle_gamma   94.30095331
_symmetry_Int_Tables_number   1
_chemical_formula_structural   MgP6H24(N2O11)2
_chemical_formula_sum   'Mg2 P12 H48 N8 O44'
_cell_volume   1165.84944588
_cell_formula_units_Z   2
loop_
 _symmetry_equiv_pos_site_id
 _symmetry_equiv_pos_as_xyz
  1  'x, y, z'
loop_
 _atom_site_type_symbol
 _atom_site_label
 _atom_site_symmetry_multiplicity
 _atom_site_fract_x
 _atom_site_fract_y
 _atom_site_fract_z
 _atom_site_occupancy
  Mg  Mg0  1  -0.00000000  0.50000000  0.50000000  1
  Mg  Mg1  1  -0.00000000  -0.00000000  0.00000000  1
  P  P2  1  0.85250107  0.19640457  0.83851579  1
  P  P3  1  0.14749893  0.30359543  0.33851579  1
  P  P4  1  0.14749893  0.80359543  0.16148421  1
  P  P5  1  0.85250107  0.69640457  0.66148421  1
  P  P6  1  0.52290711  0.24713287  0.83835488  1
  P  P7  1  0.47709289  0.25286713  0.33835488  1
  P  P8  1  0.47709289  0.75286713  0.16164512  1
  P  P9  1  0.52290711  0.74713287  0.66164512  1
  P  P10  1  0.74027991  0.43239284  0.95290148  1
  P  P11  1  0.25972009  0.06760716  0.45290148  1
  P  P12  1  0.25972009  0.56760716  0.04709852  1
  P  P13  1  0.74027991  0.93239284  0.54709852  1
  H  H14  1  0.26613373  0.13839568  0.92900558  1
  H  H15  1  0.73386627  0.36160432  0.42900558  1
  H  H16  1  0.73386627  0.86160432  0.07099442  1
  H  H17  1  0.26613373  0.63839568  0.57099442  1
  H  H18  1  0.17762486  0.25724547  0.98354913  1
  H  H19  1  0.82237514  0.24275453  0.48354913  1
  H  H20  1  0.82237514  0.74275453  0.01645087  1
  H  H21  1  0.17762486  0.75724547  0.51645087  1
  H  H22  1  0.00997497  0.29939624  0.63645835  1
  H  H23  1  0.99002503  0.20060376  0.13645835  1
  H  H24  1  0.99002503  0.70060376  0.36354165  1
  H  H25  1  0.00997497  0.79939624  0.86354165  1
  H  H26  1  0.14814580  0.27356554  0.57033862  1
  H  H27  1  0.85185420  0.22643446  0.07033862  1
  H  H28  1  0.85185420  0.72643446  0.42966138  1
  H  H29  1  0.14814580  0.77356554  0.92966138  1
  H  H30  1  0.51242146  0.31688326  0.65801401  1
  H  H31  1  0.48757854  0.18311674  0.15801401  1
  H  H32  1  0.48757854  0.68311674  0.34198599  1
  H  H33  1  0.51242146  0.81688326  0.84198599  1
  H  H34  1  0.65277884  0.42002832  0.60088811  1
  H  H35  1  0.34722116  0.07997168  0.10088811  1
  H  H36  1  0.34722116  0.57997168  0.39911189  1
  H  H37  1  0.65277884  0.92002832  0.89911189  1
  H  H38  1  0.64275448  0.23212628  0.59269239  1
  H  H39  1  0.35724552  0.26787372  0.09269239  1
  H  H40  1  0.35724552  0.76787372  0.40730761  1
  H  H41  1  0.64275448  0.73212628  0.90730761  1
  H  H42  1  0.50947495  0.33063277  0.54388641  1
  H  H43  1  0.49052505  0.16936723  0.04388641  1
  H  H44  1  0.49052505  0.66936723  0.45611359  1
  H  H45  1  0.50947495  0.83063277  0.95611359  1
  H  H46  1  0.27749000  0.95919939  0.73659652  1
  H  H47  1  0.72251000  0.54080061  0.23659652  1
  H  H48  1  0.72251000  0.04080061  0.26340348  1
  H  H49  1  0.27749000  0.45919939  0.76340348  1
  H  H50  1  0.12501965  0.07299426  0.74409999  1
  H  H51  1  0.87498035  0.42700574  0.24409999  1
  H  H52  1  0.87498035  0.92700574  0.25590001  1
  H  H53  1  0.12501965  0.57299426  0.75590001  1
  H  H54  1  0.20784931  0.03885678  0.64429736  1
  H  H55  1  0.79215069  0.46114322  0.14429736  1
  H  H56  1  0.79215069  0.96114322  0.35570264  1
  H  H57  1  0.20784931  0.53885678  0.85570264  1
  H  H58  1  0.10274324  0.89991179  0.70111740  1
  H  H59  1  0.89725676  0.60008821  0.20111740  1
  H  H60  1  0.89725676  0.10008821  0.29888260  1
  H  H61  1  0.10274324  0.39991179  0.79888260  1
  N  N62  1  0.57851510  0.32469760  0.59937502  1
  N  N63  1  0.42148490  0.17530240  0.09937502  1
  N  N64  1  0.42148490  0.67530240  0.40062498  1
  N  N65  1  0.57851510  0.82469760  0.90062498  1
  N  N66  1  0.17856300  0.99369580  0.70692207  1
  N  N67  1  0.82143700  0.50630420  0.20692207  1
  N  N68  1  0.82143700  0.00630420  0.29307793  1
  N  N69  1  0.17856300  0.49369580  0.79307793  1
  O  O70  1  0.68309853  0.19905277  0.79296036  1
  O  O71  1  0.31690147  0.30094723  0.29296036  1
  O  O72  1  0.31690147  0.80094723  0.20703964  1
  O  O73  1  0.68309853  0.69905277  0.70703964  1
  O  O74  1  0.86718187  0.35662133  0.89084981  1
  O  O75  1  0.13281813  0.14337867  0.39084981  1
  O  O76  1  0.13281813  0.64337867  0.10915019  1
  O  O77  1  0.86718187  0.85662133  0.60915019  1
  O  O78  1  0.97262519  0.20866864  0.76640084  1
  O  O79  1  0.02737481  0.29133136  0.26640084  1
  O  O80  1  0.02737481  0.79133136  0.23359916  1
  O  O81  1  0.97262519  0.70866864  0.73359916  1
  O  O82  1  0.84443174  0.06880689  0.90386369  1
  O  O83  1  0.15556826  0.43119311  0.40386369  1
  O  O84  1  0.15556826  0.93119311  0.09613631  1
  O  O85  1  0.84443174  0.56880689  0.59613631  1
  O  O86  1  0.58317161  0.39378544  0.89676620  1
  O  O87  1  0.41682839  0.10621456  0.39676620  1
  O  O88  1  0.41682839  0.60621456  0.10323380  1
  O  O89  1  0.58317161  0.89378544  0.60323380  1
  O  O90  1  0.42604942  0.29889013  0.76325188  1
  O  O91  1  0.57395058  0.20110987  0.26325188  1
  O  O92  1  0.57395058  0.70110987  0.23674812  1
  O  O93  1  0.42604942  0.79889013  0.73674812  1
  O  O94  1  0.45843209  0.12787906  0.90104626  1
  O  O95  1  0.54156791  0.37212094  0.40104626  1
  O  O96  1  0.54156791  0.87212094  0.09895374  1
  O  O97  1  0.45843209  0.62787906  0.59895374  1
  O  O98  1  0.26731475  0.14426977  0.54270050  1
  O  O99  1  0.73268525  0.35573023  0.04270050  1
  O  O100  1  0.73268525  0.85573023  0.45729950  1
  O  O101  1  0.26731475  0.64426977  0.95729950  1
  O  O102  1  0.77229761  0.09815016  0.55042959  1
  O  O103  1  0.22770239  0.40184984  0.05042959  1
  O  O104  1  0.22770239  0.90184984  0.44957041  1
  O  O105  1  0.77229761  0.59815016  0.94957041  1
  O  O106  1  0.16268589  0.16029480  0.95146505  1
  O  O107  1  0.83731411  0.33970520  0.45146505  1
  O  O108  1  0.83731411  0.83970520  0.04853495  1
  O  O109  1  0.16268589  0.66029480  0.54853495  1
  O  O110  1  0.07819769  0.34928110  0.59186344  1
  O  O111  1  0.92180231  0.15071890  0.09186344  1
  O  O112  1  0.92180231  0.65071890  0.40813656  1
  O  O113  1  0.07819769  0.84928110  0.90813656  1
