# generated using pymatgen
data_Ba5P3O13
_symmetry_space_group_name_H-M   'P 1'
_cell_length_a   7.80725795
_cell_length_b   10.34049957
_cell_length_c   10.34487069
_cell_angle_alpha   120.03431623
_cell_angle_beta   90.00000000
_cell_angle_gamma   90.00000000
_symmetry_Int_Tables_number   1
_chemical_formula_structural   Ba5P3O13
_chemical_formula_sum   'Ba10 P6 O26'
_cell_volume   723.01193737
_cell_formula_units_Z   2
loop_
 _symmetry_equiv_pos_site_id
 _symmetry_equiv_pos_as_xyz
  1  'x, y, z'
loop_
 _atom_site_type_symbol
 _atom_site_label
 _atom_site_symmetry_multiplicity
 _atom_site_fract_x
 _atom_site_fract_y
 _atom_site_fract_z
 _atom_site_occupancy
  Ba  Ba0  1  0.24515350  0.23948424  0.98202205  1
  Ba  Ba1  1  0.24732947  0.01784598  0.25781109  1
  Ba  Ba2  1  0.24983889  0.74402484  0.75988265  1
  Ba  Ba3  1  0.74515350  0.76051576  0.01797795  1
  Ba  Ba4  1  0.74732947  0.98215402  0.74218891  1
  Ba  Ba5  1  0.74983889  0.25597516  0.24011735  1
  Ba  Ba6  1  0.49929504  0.33326383  0.66682009  1
  Ba  Ba7  1  0.99929504  0.66673617  0.33317991  1
  Ba  Ba8  1  0.99801552  0.33305524  0.66692330  1
  Ba  Ba9  1  0.49801552  0.66694476  0.33307670  1
  P  P10  1  0.25060300  0.40174950  0.36955387  1
  P  P11  1  0.25078391  0.63055059  0.03254301  1
  P  P12  1  0.25073520  0.96732430  0.59788511  1
  P  P13  1  0.75060300  0.59825050  0.63044613  1
  P  P14  1  0.75078391  0.36944941  0.96745699  1
  P  P15  1  0.75073520  0.03267570  0.40211489  1
  O  O16  1  0.24311109  0.54176920  0.11802150  1
  O  O17  1  0.24335779  0.88193012  0.42363133  1
  O  O18  1  0.24417723  0.57641761  0.45906204  1
  O  O19  1  0.74311109  0.45823080  0.88197850  1
  O  O20  1  0.74335779  0.11806988  0.57636867  1
  O  O21  1  0.74417723  0.42358239  0.54093796  1
  O  O22  1  0.59079755  0.07477543  0.34014609  1
  O  O23  1  0.59049073  0.65906338  0.73393298  1
  O  O24  1  0.59085813  0.26514985  0.92548472  1
  O  O25  1  0.09079755  0.92522457  0.65985391  1
  O  O26  1  0.09049073  0.34093662  0.26606702  1
  O  O27  1  0.09085813  0.73485015  0.07451528  1
  O  O28  1  0.91395925  0.64670032  0.73072847  1
  O  O29  1  0.91412201  0.26973636  0.91535328  1
  O  O30  1  0.91412092  0.08459631  0.35428310  1
  O  O31  1  0.41395925  0.35329968  0.26927153  1
  O  O32  1  0.41412201  0.73026364  0.08464672  1
  O  O33  1  0.41412092  0.91540369  0.64571690  1
  O  O34  1  0.25431453  0.51948976  0.86041202  1
  O  O35  1  0.25425608  0.13946028  0.65888615  1
  O  O36  1  0.25427898  0.34097953  0.48071234  1
  O  O37  1  0.75431453  0.48051024  0.13958798  1
  O  O38  1  0.75425608  0.86053972  0.34111385  1
  O  O39  1  0.75427898  0.65902047  0.51928766  1
  O  O40  1  0.34580115  0.99901646  0.99964526  1
  O  O41  1  0.84580115  0.00098354  0.00035474  1
