# generated using pymatgen
data_Y2Mo4O15
_symmetry_space_group_name_H-M   'P 1'
_cell_length_a   6.93060842
_cell_length_b   9.75268376
_cell_length_c   10.73216033
_cell_angle_alpha   90.00000000
_cell_angle_beta   105.41867309
_cell_angle_gamma   90.00000000
_symmetry_Int_Tables_number   1
_chemical_formula_structural   Y2Mo4O15
_chemical_formula_sum   'Y4 Mo8 O30'
_cell_volume   699.30020737
_cell_formula_units_Z   2
loop_
 _symmetry_equiv_pos_site_id
 _symmetry_equiv_pos_as_xyz
  1  'x, y, z'
loop_
 _atom_site_type_symbol
 _atom_site_label
 _atom_site_symmetry_multiplicity
 _atom_site_fract_x
 _atom_site_fract_y
 _atom_site_fract_z
 _atom_site_occupancy
  Y  Y0  1  0.28865555  0.47684903  0.72341182  1
  Y  Y1  1  0.71134445  0.97684903  0.77658818  1
  Y  Y2  1  0.71134445  0.52315097  0.27658818  1
  Y  Y3  1  0.28865555  0.02315097  0.22341182  1
  Mo  Mo4  1  0.58173462  0.25640955  0.51110527  1
  Mo  Mo5  1  0.41826538  0.75640955  0.98889473  1
  Mo  Mo6  1  0.41826538  0.74359045  0.48889473  1
  Mo  Mo7  1  0.58173462  0.24359045  0.01110527  1
  Mo  Mo8  1  0.12049885  0.09526376  0.65594401  1
  Mo  Mo9  1  0.87950115  0.59526376  0.84405599  1
  Mo  Mo10  1  0.87950115  0.90473624  0.34405599  1
  Mo  Mo11  1  0.12049885  0.40473624  0.15594401  1
  O  O12  1  0.47699818  0.37309443  0.60328544  1
  O  O13  1  0.52300182  0.87309443  0.89671456  1
  O  O14  1  0.52300182  0.62690557  0.39671456  1
  O  O15  1  0.47699818  0.12690557  0.10328544  1
  O  O16  1  0.72139368  0.15158557  0.91961670  1
  O  O17  1  0.27860632  0.65158557  0.58038330  1
  O  O18  1  0.27860632  0.84841443  0.08038330  1
  O  O19  1  0.72139368  0.34841443  0.41961670  1
  O  O20  1  0.38339871  0.33241477  0.89895518  1
  O  O21  1  0.61660129  0.83241477  0.60104482  1
  O  O22  1  0.61660129  0.66758523  0.10104482  1
  O  O23  1  0.38339871  0.16758523  0.39895518  1
  O  O24  1  0.74422135  0.13460769  0.61776581  1
  O  O25  1  0.25577865  0.63460769  0.88223419  1
  O  O26  1  0.25577865  0.86539231  0.38223419  1
  O  O27  1  0.74422135  0.36539231  0.11776581  1
  O  O28  1  0.37831761  0.05627988  0.68364299  1
  O  O29  1  0.62168239  0.55627988  0.81635701  1
  O  O30  1  0.62168239  0.94372012  0.31635701  1
  O  O31  1  0.37831761  0.44372012  0.18364299  1
  O  O32  1  0.11235983  0.27681675  0.64720659  1
  O  O33  1  0.88764017  0.77681675  0.85279341  1
  O  O34  1  0.88764017  0.72318325  0.35279341  1
  O  O35  1  0.11235983  0.22318325  0.14720659  1
  O  O36  1  0.05268392  0.02798776  0.79242594  1
  O  O37  1  0.94731608  0.52798776  0.70757406  1
  O  O38  1  0.94731608  0.97201224  0.20757406  1
  O  O39  1  0.05268392  0.47201224  0.29242594  1
  O  O40  1  -0.00000000  0.50000000  0.00000000  1
  O  O41  1  -0.00000000  0.00000000  0.50000000  1
