# generated using pymatgen
data_MnH8SN2O4F3
_symmetry_space_group_name_H-M   'P 1'
_cell_length_a   7.44665187
_cell_length_b   8.97806861
_cell_length_c   11.31921227
_cell_angle_alpha   90.00000000
_cell_angle_beta   90.00000000
_cell_angle_gamma   91.98993541
_symmetry_Int_Tables_number   1
_chemical_formula_structural   MnH8SN2O4F3
_chemical_formula_sum   'Mn4 H32 S4 N8 O16 F12'
_cell_volume   756.30712560
_cell_formula_units_Z   4
loop_
 _symmetry_equiv_pos_site_id
 _symmetry_equiv_pos_as_xyz
  1  'x, y, z'
loop_
 _atom_site_type_symbol
 _atom_site_label
 _atom_site_symmetry_multiplicity
 _atom_site_fract_x
 _atom_site_fract_y
 _atom_site_fract_z
 _atom_site_occupancy
  Mn  Mn0  1  0.50000000  0.50000000  0.50000000  1
  Mn  Mn1  1  0.50000000  -0.00000000  0.00000000  1
  Mn  Mn2  1  -0.00000000  0.50000000  0.50000000  1
  Mn  Mn3  1  -0.00000000  -0.00000000  0.00000000  1
  H  H4  1  0.79755728  0.18115146  0.77376569  1
  H  H5  1  0.20244272  0.31884854  0.27376569  1
  H  H6  1  0.20244272  0.81884854  0.22623431  1
  H  H7  1  0.79755728  0.68115146  0.72623431  1
  H  H8  1  0.94278971  0.15534415  0.66157718  1
  H  H9  1  0.05721029  0.34465585  0.16157718  1
  H  H10  1  0.05721029  0.84465585  0.33842282  1
  H  H11  1  0.94278971  0.65534415  0.83842282  1
  H  H12  1  0.73855060  0.06962814  0.65832561  1
  H  H13  1  0.26144940  0.43037186  0.15832561  1
  H  H14  1  0.26144940  0.93037186  0.34167439  1
  H  H15  1  0.73855060  0.56962814  0.84167439  1
  H  H16  1  0.76207859  0.25683762  0.63813067  1
  H  H17  1  0.23792141  0.24316238  0.13813067  1
  H  H18  1  0.23792141  0.74316238  0.36186933  1
  H  H19  1  0.76207859  0.75683762  0.86186933  1
  H  H20  1  0.43327716  0.34325924  0.84405704  1
  H  H21  1  0.56672284  0.15674076  0.34405704  1
  H  H22  1  0.56672284  0.65674076  0.15594296  1
  H  H23  1  0.43327716  0.84325924  0.65594296  1
  H  H24  1  0.24531564  0.24066853  0.86923262  1
  H  H25  1  0.75468436  0.25933147  0.36923262  1
  H  H26  1  0.75468436  0.75933147  0.13076738  1
  H  H27  1  0.24531564  0.74066853  0.63076738  1
  H  H28  1  0.29272857  0.30379315  0.73057668  1
  H  H29  1  0.70727143  0.19620685  0.23057668  1
  H  H30  1  0.70727143  0.69620685  0.26942332  1
  H  H31  1  0.29272857  0.80379315  0.76942332  1
  H  H32  1  0.23339978  0.42495747  0.83680503  1
  H  H33  1  0.76660022  0.07504253  0.33680503  1
  H  H34  1  0.76660022  0.57504253  0.16319497  1
  H  H35  1  0.23339978  0.92495747  0.66319497  1
  S  S36  1  0.25234549  0.19984886  0.49923151  1
  S  S37  1  0.74765451  0.30015114  0.99923151  1
  S  S38  1  0.74765451  0.80015114  0.50076849  1
  S  S39  1  0.25234549  0.69984886  0.00076849  1
  N  N40  1  0.80872852  0.16651646  0.68351535  1
  N  N41  1  0.19127148  0.33348354  0.18351535  1
  N  N42  1  0.19127148  0.83348354  0.31648465  1
  N  N43  1  0.80872852  0.66651646  0.81648465  1
  N  N44  1  0.29946920  0.32777792  0.81951378  1
  N  N45  1  0.70053080  0.17222208  0.31951378  1
  N  N46  1  0.70053080  0.67222208  0.18048622  1
  N  N47  1  0.29946920  0.82777792  0.68048622  1
  O  O48  1  0.88440373  0.20723374  0.93930770  1
  O  O49  1  0.11559627  0.29276626  0.43930770  1
  O  O50  1  0.11559627  0.79276626  0.06069230  1
  O  O51  1  0.88440373  0.70723374  0.56069230  1
  O  O52  1  0.39171260  0.30435834  0.55856188  1
  O  O53  1  0.60828740  0.19564166  0.05856188  1
  O  O54  1  0.60828740  0.69564166  0.44143812  1
  O  O55  1  0.39171260  0.80435834  0.94143812  1
  O  O56  1  0.34098240  0.10799354  0.41017431  1
  O  O57  1  0.65901760  0.39200646  0.91017431  1
  O  O58  1  0.65901760  0.89200646  0.58982569  1
  O  O59  1  0.34098240  0.60799354  0.08982569  1
  O  O60  1  0.16844817  0.11012423  0.59516518  1
  O  O61  1  0.83155183  0.38987577  0.09516518  1
  O  O62  1  0.83155183  0.88987577  0.40483482  1
  O  O63  1  0.16844817  0.61012423  0.90483482  1
  F  F64  1  0.52597879  0.05577539  0.84409922  1
  F  F65  1  0.47402121  0.44422461  0.34409922  1
  F  F66  1  0.47402121  0.94422461  0.15590078  1
  F  F67  1  0.52597879  0.55577539  0.65590078  1
  F  F68  1  0.02712113  0.45229260  0.65685298  1
  F  F69  1  0.97287887  0.04770740  0.15685298  1
  F  F70  1  0.97287887  0.54770740  0.34314702  1
  F  F71  1  0.02712113  0.95229260  0.84314702  1
  F  F72  1  0.76087937  0.39154196  0.50114826  1
  F  F73  1  0.23912063  0.10845804  0.00114826  1
  F  F74  1  0.23912063  0.60845804  0.49885174  1
  F  F75  1  0.76087937  0.89154196  0.99885174  1
