# generated using pymatgen
data_Rb3(MoO3)10
_symmetry_space_group_name_H-M   'P 1'
_cell_length_a   7.70470610
_cell_length_b   10.30103022
_cell_length_c   10.35762372
_cell_angle_alpha   117.23155743
_cell_angle_beta   90.00000000
_cell_angle_gamma   111.96112731
_symmetry_Int_Tables_number   1
_chemical_formula_structural   Rb3(MoO3)10
_chemical_formula_sum   'Rb3 Mo10 O30'
_cell_volume   663.14027014
_cell_formula_units_Z   1
loop_
 _symmetry_equiv_pos_site_id
 _symmetry_equiv_pos_as_xyz
  1  'x, y, z'
loop_
 _atom_site_type_symbol
 _atom_site_label
 _atom_site_symmetry_multiplicity
 _atom_site_fract_x
 _atom_site_fract_y
 _atom_site_fract_z
 _atom_site_occupancy
  Rb  Rb0  1  0.50000000  -0.00000000  0.50000000  1
  Rb  Rb1  1  0.81637786  0.63275573  0.28219328  1
  Rb  Rb2  1  0.18362214  0.36724427  0.71780672  1
  Mo  Mo3  1  0.22303581  0.44607161  0.17239510  1
  Mo  Mo4  1  0.77696419  0.55392839  0.82760490  1
  Mo  Mo5  1  0.82163882  0.15571173  0.95958048  1
  Mo  Mo6  1  0.33407291  0.15571173  0.95958048  1
  Mo  Mo7  1  0.17836118  0.84428827  0.04041952  1
  Mo  Mo8  1  0.66592709  0.84428827  0.04041952  1
  Mo  Mo9  1  0.61076484  0.72069473  0.65698294  1
  Mo  Mo10  1  0.10992990  0.72069473  0.65698294  1
  Mo  Mo11  1  0.38923516  0.27930527  0.34301706  1
  Mo  Mo12  1  0.89007010  0.27930527  0.34301706  1
  O  O13  1  0.50000000  0.50000000  0.50000000  1
  O  O14  1  0.00000000  0.50000000  0.50000000  1
  O  O15  1  0.24802073  0.49604145  0.03201327  1
  O  O16  1  0.75197927  0.50395855  0.96798673  1
  O  O17  1  0.31498330  0.62996660  0.33512639  1
  O  O18  1  0.68501670  0.37003340  0.66487361  1
  O  O19  1  0.57816530  0.15633059  0.98987130  1
  O  O20  1  0.42183470  0.84366941  0.01012870  1
  O  O21  1  0.08824651  0.17649301  0.99188211  1
  O  O22  1  0.91175349  0.82350699  0.00811789  1
  O  O23  1  0.84444867  0.68889734  0.68856624  1
  O  O24  1  0.15555133  0.31110266  0.31143376  1
  O  O25  1  0.35765501  0.71531002  0.67136660  1
  O  O26  1  0.64234499  0.28468998  0.32863340  1
  O  O27  1  0.83866227  0.19664763  0.81476144  1
  O  O28  1  0.35798536  0.19664763  0.81476144  1
  O  O29  1  0.16133773  0.80335237  0.18523856  1
  O  O30  1  0.64201464  0.80335237  0.18523856  1
  O  O31  1  0.94209356  0.36775917  0.16148908  1
  O  O32  1  0.42566561  0.36775917  0.16148908  1
  O  O33  1  0.05790644  0.63224083  0.83851092  1
  O  O34  1  0.57433439  0.63224083  0.83851092  1
  O  O35  1  0.68925134  0.81856346  0.55643889  1
  O  O36  1  0.12931212  0.81856346  0.55643889  1
  O  O37  1  0.31074866  0.18143654  0.44356111  1
  O  O38  1  0.87068788  0.18143654  0.44356111  1
  O  O39  1  0.71497583  0.92014730  0.85467262  1
  O  O40  1  0.20517147  0.92014730  0.85467262  1
  O  O41  1  0.28502417  0.07985270  0.14532738  1
  O  O42  1  0.79482853  0.07985270  0.14532738  1
