# generated using pymatgen
data_Na2V2CuH4(OF)6
_symmetry_space_group_name_H-M   'P 1'
_cell_length_a   5.36585263
_cell_length_b   8.31497693
_cell_length_c   10.43616742
_cell_angle_alpha   89.63482072
_cell_angle_beta   90.00000000
_cell_angle_gamma   90.00000000
_symmetry_Int_Tables_number   1
_chemical_formula_structural   Na2V2CuH4(OF)6
_chemical_formula_sum   'Na4 V4 Cu2 H8 O12 F12'
_cell_volume   465.62040655
_cell_formula_units_Z   2
loop_
 _symmetry_equiv_pos_site_id
 _symmetry_equiv_pos_as_xyz
  1  'x, y, z'
loop_
 _atom_site_type_symbol
 _atom_site_label
 _atom_site_symmetry_multiplicity
 _atom_site_fract_x
 _atom_site_fract_y
 _atom_site_fract_z
 _atom_site_occupancy
  Na  Na0  1  0.55037202  0.54910236  0.33740176  1
  Na  Na1  1  0.05037202  0.45089764  0.16259824  1
  Na  Na2  1  0.44962798  0.45089764  0.66259824  1
  Na  Na3  1  0.94962798  0.54910236  0.83740176  1
  V  V4  1  0.95139182  0.28873967  0.50426308  1
  V  V5  1  0.45139182  0.71126033  0.99573692  1
  V  V6  1  0.04860818  0.71126033  0.49573692  1
  V  V7  1  0.54860818  0.28873967  0.00426308  1
  Cu  Cu8  1  0.50000000  0.00000000  0.50000000  1
  Cu  Cu9  1  0.00000000  0.00000000  -0.00000000  1
  H  H10  1  0.55809079  0.15598957  0.28695868  1
  H  H11  1  0.05809079  0.84401043  0.21304132  1
  H  H12  1  0.44190921  0.84401043  0.71304132  1
  H  H13  1  0.94190921  0.15598957  0.78695868  1
  H  H14  1  0.44181923  0.98861126  0.26124736  1
  H  H15  1  0.94181923  0.01138874  0.23875264  1
  H  H16  1  0.55818077  0.01138874  0.73875264  1
  H  H17  1  0.05818077  0.98861126  0.76124736  1
  O  O18  1  0.14083923  0.14207680  0.46608904  1
  O  O19  1  0.64083923  0.85792320  0.03391096  1
  O  O20  1  0.85916077  0.85792320  0.53391096  1
  O  O21  1  0.35916077  0.14207680  0.96608904  1
  O  O22  1  0.67258648  0.19897335  0.54478417  1
  O  O23  1  0.17258648  0.80102665  0.95521583  1
  O  O24  1  0.32741352  0.80102665  0.45521583  1
  O  O25  1  0.82741352  0.19897335  0.04478417  1
  O  O26  1  0.57973678  0.04075219  0.30788649  1
  O  O27  1  0.07973678  0.95924781  0.19211351  1
  O  O28  1  0.42026322  0.95924781  0.69211351  1
  O  O29  1  0.92026322  0.04075219  0.80788649  1
  F  F30  1  0.21973285  0.47164649  0.46517044  1
  F  F31  1  0.71973285  0.52835351  0.03482956  1
  F  F32  1  0.78026715  0.52835351  0.53482956  1
  F  F33  1  0.28026715  0.47164649  0.96517044  1
  F  F34  1  0.06426912  0.32048464  0.67643479  1
  F  F35  1  0.56426912  0.67951536  0.82356521  1
  F  F36  1  0.93573088  0.67951536  0.32356521  1
  F  F37  1  0.43573088  0.32048464  0.17643479  1
  F  F38  1  0.85069787  0.34011420  0.33419044  1
  F  F39  1  0.35069787  0.65988580  0.16580956  1
  F  F40  1  0.14930213  0.65988580  0.66580956  1
  F  F41  1  0.64930213  0.34011420  0.83419044  1
