# generated using pymatgen
data_K2PH4O5
_symmetry_space_group_name_H-M   'P 1'
_cell_length_a   7.45898566
_cell_length_b   7.45898566
_cell_length_c   11.90450033
_cell_angle_alpha   91.56641433
_cell_angle_beta   91.56641433
_cell_angle_gamma   113.00067592
_symmetry_Int_Tables_number   1
_chemical_formula_structural   K2PH4O5
_chemical_formula_sum   'K8 P4 H16 O20'
_cell_volume   608.92151303
_cell_formula_units_Z   4
loop_
 _symmetry_equiv_pos_site_id
 _symmetry_equiv_pos_as_xyz
  1  'x, y, z'
loop_
 _atom_site_type_symbol
 _atom_site_label
 _atom_site_symmetry_multiplicity
 _atom_site_fract_x
 _atom_site_fract_y
 _atom_site_fract_z
 _atom_site_occupancy
  K  K0  1  0.00546520  0.06621629  0.75650287  1
  K  K1  1  0.06621629  0.00546520  0.25650287  1
  K  K2  1  0.41436899  0.18963610  0.01208828  1
  K  K3  1  0.18963610  0.41436899  0.51208828  1
  K  K4  1  0.41190244  0.66237784  0.18684861  1
  K  K5  1  0.66237784  0.41190244  0.68684861  1
  K  K6  1  0.86253227  0.47921413  0.22027429  1
  K  K7  1  0.47921413  0.86253227  0.72027429  1
  P  P8  1  0.06536533  0.72626613  0.96724013  1
  P  P9  1  0.72626613  0.06536533  0.46724013  1
  P  P10  1  0.77348867  0.73613813  0.97122902  1
  P  P11  1  0.73613813  0.77348867  0.47122902  1
  H  H12  1  0.82529318  0.31435579  0.89657427  1
  H  H13  1  0.31435579  0.82529318  0.39657427  1
  H  H14  1  0.74622011  0.09247315  0.92338752  1
  H  H15  1  0.09247315  0.74622011  0.42338752  1
  H  H16  1  0.38214725  0.08585723  0.53846507  1
  H  H17  1  0.08585723  0.38214725  0.03846507  1
  H  H18  1  0.16181795  0.00638943  0.56349764  1
  H  H19  1  0.00638943  0.16181795  0.06349764  1
  H  H20  1  0.44926776  0.51923322  0.84514656  1
  H  H21  1  0.51923322  0.44926776  0.34514656  1
  H  H22  1  0.22546484  0.46342895  0.86476181  1
  H  H23  1  0.46342895  0.22546484  0.36476181  1
  H  H24  1  0.69519574  0.02302162  0.11814612  1
  H  H25  1  0.02302162  0.69519574  0.61814612  1
  H  H26  1  0.68586495  0.08833379  0.24602491  1
  H  H27  1  0.08833379  0.68586495  0.74602491  1
  O  O28  1  0.15483800  0.79327350  0.08660492  1
  O  O29  1  0.79327350  0.15483800  0.58660492  1
  O  O30  1  0.17648159  0.85994982  0.87338934  1
  O  O31  1  0.85994982  0.17648159  0.37338934  1
  O  O32  1  0.03600232  0.51004581  0.93853462  1
  O  O33  1  0.51004581  0.03600232  0.43853462  1
  O  O34  1  0.65557659  0.58283387  0.05307581  1
  O  O35  1  0.58283387  0.65557659  0.55307581  1
  O  O36  1  0.68491935  0.70169649  0.84953655  1
  O  O37  1  0.70169649  0.68491935  0.34953655  1
  O  O38  1  0.81245479  0.95012511  0.01476750  1
  O  O39  1  0.95012511  0.81245479  0.51476750  1
  O  O40  1  0.72028656  0.18527846  0.87262583  1
  O  O41  1  0.18527846  0.72028656  0.37262583  1
  O  O42  1  0.28981109  0.10417024  0.59349609  1
  O  O43  1  0.10417024  0.28981109  0.09349609  1
  O  O44  1  0.31692195  0.41530965  0.82770446  1
  O  O45  1  0.41530965  0.31692195  0.32770446  1
  O  O46  1  0.62108224  0.07252607  0.17048780  1
  O  O47  1  0.07252607  0.62108224  0.67048780  1
