# generated using pymatgen
data_MgZn2P2(H6O5)4
_symmetry_space_group_name_H-M   'P 1'
_cell_length_a   7.25883698
_cell_length_b   10.87817784
_cell_length_c   11.73744087
_cell_angle_alpha   105.72324614
_cell_angle_beta   90.00000000
_cell_angle_gamma   90.00000000
_symmetry_Int_Tables_number   1
_chemical_formula_structural   MgZn2P2(H6O5)4
_chemical_formula_sum   'Mg2 Zn4 P4 H48 O40'
_cell_volume   892.14263876
_cell_formula_units_Z   2
loop_
 _symmetry_equiv_pos_site_id
 _symmetry_equiv_pos_as_xyz
  1  'x, y, z'
loop_
 _atom_site_type_symbol
 _atom_site_label
 _atom_site_symmetry_multiplicity
 _atom_site_fract_x
 _atom_site_fract_y
 _atom_site_fract_z
 _atom_site_occupancy
  Mg  Mg0  1  0.50000000  0.50000000  0.00000000  1
  Mg  Mg1  1  0.00000000  0.50000000  0.50000000  1
  Zn  Zn2  1  0.69357538  0.06803095  0.88699546  1
  Zn  Zn3  1  0.19357538  0.93196905  0.61300454  1
  Zn  Zn4  1  0.30642462  0.93196905  0.11300454  1
  Zn  Zn5  1  0.80642462  0.06803095  0.38699546  1
  P  P6  1  0.86862821  0.14063828  0.66418047  1
  P  P7  1  0.36862821  0.85936172  0.83581953  1
  P  P8  1  0.13137179  0.85936172  0.33581953  1
  P  P9  1  0.63137179  0.14063828  0.16418047  1
  H  H10  1  0.98407606  0.90558415  0.82378396  1
  H  H11  1  0.48407606  0.09441585  0.67621604  1
  H  H12  1  0.01592394  0.09441585  0.17621604  1
  H  H13  1  0.51592394  0.90558415  0.32378396  1
  H  H14  1  0.79319096  0.83431105  0.82854356  1
  H  H15  1  0.29319096  0.16568895  0.67145644  1
  H  H16  1  0.20680904  0.16568895  0.17145644  1
  H  H17  1  0.70680904  0.83431105  0.32854356  1
  H  H18  1  0.58713199  0.30133691  0.80183946  1
  H  H19  1  0.08713199  0.69866309  0.69816054  1
  H  H20  1  0.41286801  0.69866309  0.19816054  1
  H  H21  1  0.91286801  0.30133691  0.30183946  1
  H  H22  1  0.49356201  0.41956970  0.76530015  1
  H  H23  1  0.99356201  0.58043030  0.73469985  1
  H  H24  1  0.50643799  0.58043030  0.23469985  1
  H  H25  1  0.00643799  0.41956970  0.26530015  1
  H  H26  1  0.38719118  0.32851928  0.11655975  1
  H  H27  1  0.88719118  0.67148072  0.38344025  1
  H  H28  1  0.61280882  0.67148072  0.88344025  1
  H  H29  1  0.11280882  0.32851928  0.61655975  1
  H  H30  1  0.25991172  0.30001080  0.00065562  1
  H  H31  1  0.75991172  0.69998920  0.49934438  1
  H  H32  1  0.74008828  0.69998920  -0.00065562  1
  H  H33  1  0.24008828  0.30001080  0.50065562  1
  H  H34  1  0.15920088  0.54568038  0.91338577  1
  H  H35  1  0.65920088  0.45431962  0.58661423  1
  H  H36  1  0.84079912  0.45431962  0.08661423  1
  H  H37  1  0.34079912  0.54568038  0.41338577  1
  H  H38  1  0.27378999  0.67610049  0.95024350  1
  H  H39  1  0.77378999  0.32389951  0.54975650  1
  H  H40  1  0.72621001  0.32389951  0.04975650  1
  H  H41  1  0.22621001  0.67610049  0.45024350  1
  H  H42  1  0.25471405  0.11979730  0.88962076  1
  H  H43  1  0.75471405  0.88020270  0.61037924  1
  H  H44  1  0.74528595  0.88020270  0.11037924  1
  H  H45  1  0.24528595  0.11979730  0.38962076  1
  H  H46  1  0.11441689  0.20824087  0.84262339  1
  H  H47  1  0.61441689  0.79175913  0.65737661  1
  H  H48  1  0.88558311  0.79175913  0.15737661  1
  H  H49  1  0.38558311  0.20824087  0.34262339  1
  H  H50  1  0.85420202  0.52292943  0.87373192  1
  H  H51  1  0.35420202  0.47707057  0.62626808  1
  H  H52  1  0.14579798  0.47707057  0.12626808  1
  H  H53  1  0.64579798  0.52292943  0.37373192  1
  H  H54  1  0.96985328  0.39864063  0.79881700  1
  H  H55  1  0.46985328  0.60135937  0.70118300  1
  H  H56  1  0.03014672  0.60135937  0.20118300  1
  H  H57  1  0.53014672  0.39864063  0.29881700  1
  O  O58  1  0.70588016  0.15331640  0.75620264  1
  O  O59  1  0.20588016  0.84668360  0.74379736  1
  O  O60  1  0.29411984  0.84668360  0.24379736  1
  O  O61  1  0.79411984  0.15331640  0.25620264  1
  O  O62  1  0.86012580  0.91463476  0.86058673  1
  O  O63  1  0.36012580  0.08536524  0.63941327  1
  O  O64  1  0.13987420  0.08536524  0.13941327  1
  O  O65  1  0.63987420  0.91463476  0.36058673  1
  O  O66  1  0.43961848  0.99890498  0.86460677  1
  O  O67  1  0.93961848  0.00109502  0.63539323  1
  O  O68  1  0.56038152  0.00109502  0.13539323  1
  O  O69  1  0.06038152  0.99890498  0.36460677  1
  O  O70  1  0.71343240  0.16991573  0.05156972  1
  O  O71  1  0.21343240  0.83008427  0.44843028  1
  O  O72  1  0.28656760  0.83008427  0.94843028  1
  O  O73  1  0.78656760  0.16991573  0.55156972  1
  O  O74  1  0.02278433  0.23860910  0.71588016  1
  O  O75  1  0.52278433  0.76139090  0.78411984  1
  O  O76  1  0.97721567  0.76139090  0.28411984  1
  O  O77  1  0.47721567  0.23860910  0.21588016  1
  O  O78  1  0.50062299  0.37397259  0.82843289  1
  O  O79  1  0.00062299  0.62602741  0.67156711  1
  O  O80  1  0.49937701  0.62602741  0.17156711  1
  O  O81  1  0.99937701  0.37397259  0.32843289  1
  O  O82  1  0.32893430  0.37137258  0.06095558  1
  O  O83  1  0.82893430  0.62862742  0.43904442  1
  O  O84  1  0.67106570  0.62862742  0.93904442  1
  O  O85  1  0.17106570  0.37137258  0.56095558  1
  O  O86  1  0.27219981  0.58638359  0.95578290  1
  O  O87  1  0.77219981  0.41361641  0.54421710  1
  O  O88  1  0.72780019  0.41361641  0.04421710  1
  O  O89  1  0.22780019  0.58638359  0.45578290  1
  O  O90  1  0.15759319  0.18570653  0.91473483  1
  O  O91  1  0.65759319  0.81429347  0.58526517  1
  O  O92  1  0.84240681  0.81429347  0.08526517  1
  O  O93  1  0.34240681  0.18570653  0.41473483  1
  O  O94  1  0.97312005  0.49267126  0.83390152  1
  O  O95  1  0.47312005  0.50732874  0.66609848  1
  O  O96  1  0.02687995  0.50732874  0.16609848  1
  O  O97  1  0.52687995  0.49267126  0.33390152  1
