# generated using pymatgen
data_Na2CoH12(SO7)2
_symmetry_space_group_name_H-M   'P 1'
_cell_length_a   6.01456063
_cell_length_b   9.02766103
_cell_length_c   12.06912416
_cell_angle_alpha   90.00000000
_cell_angle_beta   90.00000000
_cell_angle_gamma   103.67237466
_symmetry_Int_Tables_number   1
_chemical_formula_structural   Na2CoH12(SO7)2
_chemical_formula_sum   'Na4 Co2 H24 S4 O28'
_cell_volume   636.75250309
_cell_formula_units_Z   2
loop_
 _symmetry_equiv_pos_site_id
 _symmetry_equiv_pos_as_xyz
  1  'x, y, z'
loop_
 _atom_site_type_symbol
 _atom_site_label
 _atom_site_symmetry_multiplicity
 _atom_site_fract_x
 _atom_site_fract_y
 _atom_site_fract_z
 _atom_site_occupancy
  Na  Na0  1  0.34005537  0.12785965  0.13927106  1
  Na  Na1  1  0.65994463  0.37214035  0.63927106  1
  Na  Na2  1  0.65994463  0.87214035  0.86072894  1
  Na  Na3  1  0.34005537  0.62785965  0.36072894  1
  Co  Co4  1  0.00000000  0.50000000  -0.00000000  1
  Co  Co5  1  0.00000000  -0.00000000  0.50000000  1
  H  H6  1  0.34042067  0.39409974  0.93884030  1
  H  H7  1  0.65957933  0.10590026  0.43884030  1
  H  H8  1  0.65957933  0.60590026  0.06115970  1
  H  H9  1  0.34042067  0.89409974  0.56115970  1
  H  H10  1  0.34198758  0.53116941  0.85286529  1
  H  H11  1  0.65801242  0.96883059  0.35286529  1
  H  H12  1  0.65801242  0.46883059  0.14713471  1
  H  H13  1  0.34198758  0.03116941  0.64713471  1
  H  H14  1  0.67164111  0.28084363  0.90931135  1
  H  H15  1  0.32835889  0.21915637  0.40931135  1
  H  H16  1  0.32835889  0.71915637  0.09068865  1
  H  H17  1  0.67164111  0.78084363  0.59068865  1
  H  H18  1  0.90726629  0.24834115  0.87018546  1
  H  H19  1  0.09273371  0.25165885  0.37018546  1
  H  H20  1  0.09273371  0.75165885  0.12981454  1
  H  H21  1  0.90726629  0.74834115  0.62981454  1
  H  H22  1  0.92732897  0.22812282  0.10264739  1
  H  H23  1  0.07267103  0.27187718  0.60264739  1
  H  H24  1  0.07267103  0.77187718  0.89735261  1
  H  H25  1  0.92732897  0.72812282  0.39735261  1
  H  H26  1  0.00849767  0.35770667  0.19207689  1
  H  H27  1  0.99150233  0.14229333  0.69207689  1
  H  H28  1  0.99150233  0.64229333  0.80792311  1
  H  H29  1  0.00849767  0.85770667  0.30792311  1
  S  S30  1  0.27414824  0.08535131  0.86593268  1
  S  S31  1  0.72585176  0.41464869  0.36593268  1
  S  S32  1  0.72585176  0.91464869  0.13406732  1
  S  S33  1  0.27414824  0.58535131  0.63406732  1
  O  O34  1  0.30105455  0.49388060  0.93024820  1
  O  O35  1  0.69894545  0.00611940  0.43024820  1
  O  O36  1  0.69894545  0.50611940  0.06975180  1
  O  O37  1  0.30105455  0.99388060  0.56975180  1
  O  O38  1  0.82819838  0.33127905  0.88328902  1
  O  O39  1  0.17180162  0.16872095  0.38328902  1
  O  O40  1  0.17180162  0.66872095  0.11671098  1
  O  O41  1  0.82819838  0.83127905  0.61671098  1
  O  O42  1  0.04427628  0.32451597  0.11716414  1
  O  O43  1  0.95572372  0.17548403  0.61716414  1
  O  O44  1  0.95572372  0.67548403  0.88283586  1
  O  O45  1  0.04427628  0.82451597  0.38283586  1
  O  O46  1  0.03908200  0.09653780  0.83113446  1
  O  O47  1  0.96091800  0.40346220  0.33113446  1
  O  O48  1  0.96091800  0.90346220  0.16886554  1
  O  O49  1  0.03908200  0.59653780  0.66886554  1
  O  O50  1  0.37291730  0.20973971  0.94689854  1
  O  O51  1  0.62708270  0.29026029  0.44689854  1
  O  O52  1  0.62708270  0.79026029  0.05310146  1
  O  O53  1  0.37291730  0.70973971  0.55310146  1
  O  O54  1  0.42949035  0.10221518  0.76800326  1
  O  O55  1  0.57050965  0.39778482  0.26800326  1
  O  O56  1  0.57050965  0.89778482  0.23199674  1
  O  O57  1  0.42949035  0.60221518  0.73199674  1
  O  O58  1  0.26290356  0.93666763  0.92109254  1
  O  O59  1  0.73709644  0.56333237  0.42109254  1
  O  O60  1  0.73709644  0.06333237  0.07890746  1
  O  O61  1  0.26290356  0.43666763  0.57890746  1
