# generated using pymatgen
data_NaAl6Fe3Si6B3O31
_symmetry_space_group_name_H-M   'P 1'
_cell_length_a   7.31864529
_cell_length_b   9.56266233
_cell_length_c   9.56266211
_cell_angle_alpha   113.72685478
_cell_angle_beta   104.78021096
_cell_angle_gamma   104.78021054
_symmetry_Int_Tables_number   1
_chemical_formula_structural   NaAl6Fe3Si6B3O31
_chemical_formula_sum   'Na1 Al6 Fe3 Si6 B3 O31'
_cell_volume   541.86671762
_cell_formula_units_Z   1
loop_
 _symmetry_equiv_pos_site_id
 _symmetry_equiv_pos_as_xyz
  1  'x, y, z'
loop_
 _atom_site_type_symbol
 _atom_site_label
 _atom_site_symmetry_multiplicity
 _atom_site_fract_x
 _atom_site_fract_y
 _atom_site_fract_z
 _atom_site_occupancy
  Na  Na0  1  0.78044754  1.00000000  1.00000000  1
  Al  Al1  1  0.43360945  0.78254141  0.33847313  1
  Al  Al2  1  0.09513633  0.66152687  0.44406828  1
  Al  Al3  1  0.65106805  0.55593172  0.21745859  1
  Al  Al4  1  0.43360945  0.33847313  0.78254141  1
  Al  Al5  1  0.65106805  0.21745859  0.55593172  1
  Al  Al6  1  0.09513633  0.44406828  0.66152687  1
  Fe  Fe7  1  0.43401279  1.00000000  0.19424827  1
  Fe  Fe8  1  0.23976452  0.80575173  0.80575173  1
  Fe  Fe9  1  0.43401279  0.19424827  1.00000000  1
  Si  Si10  1  0.99963902  0.80938303  0.19292966  1
  Si  Si11  1  0.80670936  0.80707034  0.61645337  1
  Si  Si12  1  0.19025599  0.38354663  0.19061697  1
  Si  Si13  1  0.99963902  0.19292966  0.80938303  1
  Si  Si14  1  0.19025599  0.19061697  0.38354663  1
  Si  Si15  1  0.80670936  0.61645337  0.80707034  1
  B  B16  1  0.43462146  0.66606424  0.00000000  1
  B  B17  1  0.43462146  0.00000000  0.66606424  1
  B  B18  1  0.76855722  0.33393576  0.33393576  1
  O  O19  1  0.24387034  1.00000000  1.00000000  1
  O  O20  1  0.45571175  0.81478177  0.00000000  1
  O  O21  1  0.45571175  0.00000000  0.81478177  1
  O  O22  1  0.64092999  0.18521823  0.18521823  1
  O  O23  1  0.60124980  0.00000000  0.39181919  1
  O  O24  1  0.20943061  0.60818081  0.60818081  1
  O  O25  1  0.60124980  0.39181919  0.00000000  1
  O  O26  1  0.83021250  0.72009601  1.00000000  1
  O  O27  1  0.83021250  1.00000000  0.72009601  1
  O  O28  1  0.11011649  0.27990399  0.27990399  1
  O  O29  1  0.00886612  1.00000000  0.27562614  1
  O  O30  1  0.73323998  0.72437386  0.72437386  1
  O  O31  1  0.00886612  0.27562614  1.00000000  1
  O  O32  1  0.22589073  0.81453234  0.19856960  1
  O  O33  1  0.02732114  0.80143040  0.61596275  1
  O  O34  1  0.41135839  0.38403725  0.18546766  1
  O  O35  1  0.22589073  0.19856960  0.81453234  1
  O  O36  1  0.41135839  0.18546766  0.38403725  1
  O  O37  1  0.02732114  0.61596275  0.80143040  1
  O  O38  1  0.92074743  0.71192111  0.28483834  1
  O  O39  1  0.63590909  0.71516166  0.42708277  1
  O  O40  1  0.20882632  0.57291723  0.28807889  1
  O  O41  1  0.92074743  0.28483834  0.71192111  1
  O  O42  1  0.20882632  0.28807889  0.57291723  1
  O  O43  1  0.63590909  0.42708277  0.71516166  1
  O  O44  1  0.49663334  0.66779156  0.14936753  1
  O  O45  1  0.34726581  0.85063247  0.51842403  1
  O  O46  1  0.82884178  0.48157597  0.33220844  1
  O  O47  1  0.49663334  0.14936753  0.66779156  1
  O  O48  1  0.82884178  0.33220844  0.48157597  1
  O  O49  1  0.34726581  0.51842403  0.85063247  1
