# generated using pymatgen
data_USiOs2C
_symmetry_space_group_name_H-M   'P 1'
_cell_length_a   3.84889315
_cell_length_b   5.99469645
_cell_length_c   6.99482736
_cell_angle_alpha   90.00000000
_cell_angle_beta   90.00000000
_cell_angle_gamma   108.72491060
_symmetry_Int_Tables_number   1
_chemical_formula_structural   USiOs2C
_chemical_formula_sum   'U2 Si2 Os4 C2'
_cell_volume   152.84896288
_cell_formula_units_Z   2
loop_
 _symmetry_equiv_pos_site_id
 _symmetry_equiv_pos_as_xyz
  1  'x, y, z'
loop_
 _atom_site_type_symbol
 _atom_site_label
 _atom_site_symmetry_multiplicity
 _atom_site_fract_x
 _atom_site_fract_y
 _atom_site_fract_z
 _atom_site_occupancy
  U  U0  1  0.44794444  0.89588888  0.25000000  1
  U  U1  1  0.55205556  0.10411112  0.75000000  1
  Si  Si2  1  0.72729989  0.45459978  0.25000000  1
  Si  Si3  1  0.27270011  0.54540022  0.75000000  1
  Os  Os4  1  0.16458933  0.32917866  0.05270089  1
  Os  Os5  1  0.83541067  0.67082134  0.94729911  1
  Os  Os6  1  0.83541067  0.67082134  0.55270089  1
  Os  Os7  1  0.16458933  0.32917866  0.44729911  1
  C  C8  1  0.00000000  0.00000000  0.00000000  1
  C  C9  1  0.00000000  0.00000000  0.50000000  1
