# generated using pymatgen
data_Co2As2O7
_symmetry_space_group_name_H-M   'P 1'
_cell_length_a   5.40773085
_cell_length_b   7.80464130
_cell_length_c   16.29286483
_cell_angle_alpha   82.94517337
_cell_angle_beta   88.71542510
_cell_angle_gamma   85.35085644
_symmetry_Int_Tables_number   1
_chemical_formula_structural   Co2As2O7
_chemical_formula_sum   'Co10 As10 O35'
_cell_volume   680.14133755
_cell_formula_units_Z   5
loop_
 _symmetry_equiv_pos_site_id
 _symmetry_equiv_pos_as_xyz
  1  'x, y, z'
loop_
 _atom_site_type_symbol
 _atom_site_label
 _atom_site_symmetry_multiplicity
 _atom_site_fract_x
 _atom_site_fract_y
 _atom_site_fract_z
 _atom_site_occupancy
  Co  Co0  1  0.61983990  0.82140031  0.06339996  1
  Co  Co1  1  0.38016010  0.17859969  0.93660004  1
  Co  Co2  1  0.40552847  0.25770295  0.26138945  1
  Co  Co3  1  0.59447153  0.74229705  0.73861055  1
  Co  Co4  1  0.22551244  0.60892235  0.46151299  1
  Co  Co5  1  0.77448756  0.39107765  0.53848701  1
  Co  Co6  1  0.99459312  0.03214336  0.66157253  1
  Co  Co7  1  0.00540688  0.96785664  0.33842747  1
  Co  Co8  1  0.83749538  0.40661818  0.86665441  1
  Co  Co9  1  0.16250462  0.59338182  0.13334559  1
  As  As10  1  0.50778304  0.73668913  0.27631586  1
  As  As11  1  0.49221696  0.26331087  0.72368414  1
  As  As12  1  0.29055760  0.17832312  0.47378359  1
  As  As13  1  0.70944240  0.82167688  0.52621641  1
  As  As14  1  0.11853054  0.60987613  0.67178202  1
  As  As15  1  0.88146946  0.39012387  0.32821798  1
  As  As16  1  0.88193432  0.96755135  0.86994824  1
  As  As17  1  0.11806568  0.03244865  0.13005176  1
  As  As18  1  0.69635844  0.37974427  0.07617519  1
  As  As19  1  0.30364156  0.62025573  0.92382481  1
  O  O20  1  0.41520597  0.74152335  0.17500643  1
  O  O21  1  0.58479403  0.25847665  0.82499357  1
  O  O22  1  0.21985311  0.15723074  0.37289332  1
  O  O23  1  0.78014689  0.84276926  0.62710668  1
  O  O24  1  0.05641498  0.54196466  0.57825631  1
  O  O25  1  0.94358502  0.45803534  0.42174369  1
  O  O26  1  0.78102626  0.95291966  0.77154778  1
  O  O27  1  0.21897374  0.04708034  0.22845222  1
  O  O28  1  0.64299436  0.33255833  0.97870952  1
  O  O29  1  0.35700564  0.66744167  0.02129048  1
  O  O30  1  0.59741402  0.50855765  0.29460499  1
  O  O31  1  0.40258598  0.49144235  0.70539501  1
  O  O32  1  0.50000000  -0.00000000  0.50000000  1
  O  O33  1  0.08457938  0.77611019  0.87624624  1
  O  O34  1  0.91542062  0.22388981  0.12375376  1
  O  O35  1  0.84294982  0.56697808  0.07628331  1
  O  O36  1  0.15705018  0.43302192  0.92371669  1
  O  O37  1  0.74826537  0.85313456  0.28427665  1
  O  O38  1  0.25173463  0.14686544  0.71572335  1
  O  O39  1  0.44797242  0.35715639  0.47836072  1
  O  O40  1  0.55202758  0.64284361  0.52163928  1
  O  O41  1  0.25213170  0.80293644  0.67626652  1
  O  O42  1  0.74786830  0.19706356  0.32373348  1
  O  O43  1  0.05628928  0.13502149  0.88342515  1
  O  O44  1  0.94371072  0.86497851  0.11657485  1
  O  O45  1  0.55760328  0.62881067  0.85918367  1
  O  O46  1  0.44239672  0.37118933  0.14081633  1
  O  O47  1  0.35173155  0.05122606  0.05735801  1
  O  O48  1  0.64826845  0.94877394  0.94264199  1
  O  O49  1  0.10342551  0.44134321  0.25423368  1
  O  O50  1  0.89657449  0.55865679  0.74576632  1
  O  O51  1  0.95747826  0.83744646  0.46015569  1
  O  O52  1  0.04252174  0.16255354  0.53984431  1
  O  O53  1  0.72928346  0.24782493  0.65199760  1
  O  O54  1  0.27071654  0.75217507  0.34800240  1
