# generated using pymatgen
data_Rb2NdH8N5O19
_symmetry_space_group_name_H-M   'P 1'
_cell_length_a   7.16520825
_cell_length_b   7.16520825
_cell_length_c   18.35874783
_cell_angle_alpha   81.48365649
_cell_angle_beta   81.48365649
_cell_angle_gamma   78.20716420
_symmetry_Int_Tables_number   1
_chemical_formula_structural   Rb2NdH8N5O19
_chemical_formula_sum   'Rb4 Nd2 H16 N10 O38'
_cell_volume   905.69085998
_cell_formula_units_Z   2
loop_
 _symmetry_equiv_pos_site_id
 _symmetry_equiv_pos_as_xyz
  1  'x, y, z'
loop_
 _atom_site_type_symbol
 _atom_site_label
 _atom_site_symmetry_multiplicity
 _atom_site_fract_x
 _atom_site_fract_y
 _atom_site_fract_z
 _atom_site_occupancy
  Rb  Rb0  1  0.92655946  0.13759912  0.37596216  1
  Rb  Rb1  1  0.13759912  0.92655946  0.87596216  1
  Rb  Rb2  1  0.33804971  0.56288875  0.41798739  1
  Rb  Rb3  1  0.56288875  0.33804971  0.91798739  1
  Nd  Nd4  1  0.69366447  0.80376247  0.60140086  1
  Nd  Nd5  1  0.80376247  0.69366447  0.10140086  1
  H  H6  1  0.90702206  0.16047285  0.58010036  1
  H  H7  1  0.16047285  0.90702206  0.08010036  1
  H  H8  1  0.06853514  0.98190496  0.56311350  1
  H  H9  1  0.98190496  0.06853514  0.06311350  1
  H  H10  1  0.33099840  0.60103396  0.62592483  1
  H  H11  1  0.60103396  0.33099840  0.12592483  1
  H  H12  1  0.50154643  0.42857391  0.64019092  1
  H  H13  1  0.42857391  0.50154643  0.14019092  1
  H  H14  1  0.23015850  0.49294197  0.81425357  1
  H  H15  1  0.49294197  0.23015850  0.31425357  1
  H  H16  1  0.37775546  0.59472836  0.76101413  1
  H  H17  1  0.59472836  0.37775546  0.26101413  1
  H  H18  1  0.86114381  0.10871648  0.76312869  1
  H  H19  1  0.10871648  0.86114381  0.26312869  1
  H  H20  1  0.82229387  0.33061600  0.76855696  1
  H  H21  1  0.33061600  0.82229387  0.26855696  1
  N  N22  1  0.04702184  0.46395461  0.59756595  1
  N  N23  1  0.46395461  0.04702184  0.09756595  1
  N  N24  1  0.09068659  0.43504002  0.19853269  1
  N  N25  1  0.43504002  0.09068659  0.69853269  1
  N  N26  1  0.63333209  0.83214337  0.95077852  1
  N  N27  1  0.83214337  0.63333209  0.45077852  1
  N  N28  1  0.70868844  0.82313670  0.25917460  1
  N  N29  1  0.82313670  0.70868844  0.75917460  1
  N  N30  1  0.03719521  0.41450650  0.99016745  1
  N  N31  1  0.41450650  0.03719521  0.49016745  1
  O  O32  1  0.19180871  0.34033957  0.58312995  1
  O  O33  1  0.34033957  0.19180871  0.08312995  1
  O  O34  1  0.43479176  0.87744465  0.09541015  1
  O  O35  1  0.87744465  0.43479176  0.59541015  1
  O  O36  1  0.62818336  0.06097679  0.11395002  1
  O  O37  1  0.06097679  0.62818336  0.61395002  1
  O  O38  1  0.19510768  0.33647376  0.24368903  1
  O  O39  1  0.33647376  0.19510768  0.74368903  1
  O  O40  1  0.91329459  0.42430712  0.20236039  1
  O  O41  1  0.42430712  0.91329459  0.70236039  1
  O  O42  1  0.15420137  0.55325017  0.14547128  1
  O  O43  1  0.55325017  0.15420137  0.64547128  1
  O  O44  1  0.53239629  0.90559940  0.90049587  1
  O  O45  1  0.90559940  0.53239629  0.40049587  1
  O  O46  1  0.73853833  0.92901750  0.97490479  1
  O  O47  1  0.92901750  0.73853833  0.47490479  1
  O  O48  1  0.63554820  0.66055444  0.98175694  1
  O  O49  1  0.66055444  0.63554820  0.48175694  1
  O  O50  1  0.66452131  0.88346037  0.32066110  1
  O  O51  1  0.88346037  0.66452131  0.82066110  1
  O  O52  1  0.87017169  0.83427447  0.22001877  1
  O  O53  1  0.83427447  0.87017169  0.72001877  1
  O  O54  1  0.59258156  0.74712741  0.23099757  1
  O  O55  1  0.74712741  0.59258156  0.73099757  1
  O  O56  1  0.12327801  0.31123050  0.94214590  1
  O  O57  1  0.31123050  0.12327801  0.44214590  1
  O  O58  1  0.06173439  0.58647290  0.98904783  1
  O  O59  1  0.58647290  0.06173439  0.48904783  1
  O  O60  1  0.91857318  0.35311862  0.04339906  1
  O  O61  1  0.35311862  0.91857318  0.54339906  1
  O  O62  1  0.92943437  0.03121383  0.56452598  1
  O  O63  1  0.03121383  0.92943437  0.06452598  1
  O  O64  1  0.46280769  0.56940176  0.63957640  1
  O  O65  1  0.56940176  0.46280769  0.13957640  1
  O  O66  1  0.32568753  0.57279062  0.81330011  1
  O  O67  1  0.57279062  0.32568753  0.31330011  1
  O  O68  1  0.85288631  0.20335431  0.79744725  1
  O  O69  1  0.20335431  0.85288631  0.29744725  1
