# generated using pymatgen
data_Yb2SnPd2
_symmetry_space_group_name_H-M   'P 1'
_cell_length_a   3.78540496
_cell_length_b   7.58340842
_cell_length_c   7.58340842
_cell_angle_alpha   90.00000000
_cell_angle_beta   90.00000000
_cell_angle_gamma   90.00000000
_symmetry_Int_Tables_number   1
_chemical_formula_structural   Yb2SnPd2
_chemical_formula_sum   'Yb4 Sn2 Pd4'
_cell_volume   217.69138363
_cell_formula_units_Z   2
loop_
 _symmetry_equiv_pos_site_id
 _symmetry_equiv_pos_as_xyz
  1  'x, y, z'
loop_
 _atom_site_type_symbol
 _atom_site_label
 _atom_site_symmetry_multiplicity
 _atom_site_fract_x
 _atom_site_fract_y
 _atom_site_fract_z
 _atom_site_occupancy
  Yb  Yb0  1  0.50000000  0.16676262  0.66676262  1
  Yb  Yb1  1  0.50000000  0.83323738  0.33323738  1
  Yb  Yb2  1  0.50000000  0.33323738  0.16676262  1
  Yb  Yb3  1  0.50000000  0.66676262  0.83323738  1
  Sn  Sn4  1  0.00000000  0.00000000  0.00000000  1
  Sn  Sn5  1  -0.00000000  0.50000000  0.50000000  1
  Pd  Pd6  1  -0.00000000  0.63516469  0.13516469  1
  Pd  Pd7  1  0.00000000  0.36483531  0.86483531  1
  Pd  Pd8  1  0.00000000  0.86483531  0.63516469  1
  Pd  Pd9  1  -0.00000000  0.13516469  0.36483531  1
