# generated using pymatgen
data_K2PH4Se3O2
_symmetry_space_group_name_H-M   'P 1'
_cell_length_a   8.81213124
_cell_length_b   8.81213124
_cell_length_c   11.94569170
_cell_angle_alpha   90.00000000
_cell_angle_beta   90.00000000
_cell_angle_gamma   93.96003828
_symmetry_Int_Tables_number   1
_chemical_formula_structural   K2PH4Se3O2
_chemical_formula_sum   'K8 P4 H16 Se12 O8'
_cell_volume   925.41190013
_cell_formula_units_Z   4
loop_
 _symmetry_equiv_pos_site_id
 _symmetry_equiv_pos_as_xyz
  1  'x, y, z'
loop_
 _atom_site_type_symbol
 _atom_site_label
 _atom_site_symmetry_multiplicity
 _atom_site_fract_x
 _atom_site_fract_y
 _atom_site_fract_z
 _atom_site_occupancy
  K  K0  1  0.53689473  0.46310527  0.14592903  1
  K  K1  1  0.46310527  0.53689473  0.85407097  1
  K  K2  1  0.96310527  0.03689473  0.64592903  1
  K  K3  1  0.03689473  0.96310527  0.35407097  1
  K  K4  1  0.09704635  0.40295365  0.25000000  1
  K  K5  1  0.40295365  0.09704635  0.75000000  1
  K  K6  1  0.90295365  0.59704635  0.75000000  1
  K  K7  1  0.59704635  0.90295365  0.25000000  1
  P  P8  1  0.58408896  0.41591104  0.46759643  1
  P  P9  1  0.41591104  0.58408896  0.53240357  1
  P  P10  1  0.91591104  0.08408896  0.96759643  1
  P  P11  1  0.08408896  0.91591104  0.03240357  1
  H  H12  1  0.09996812  0.30652757  0.49696371  1
  H  H13  1  0.30652757  0.09996812  0.50303629  1
  H  H14  1  0.80652757  0.59996812  0.99696371  1
  H  H15  1  0.59996812  0.80652757  0.00303629  1
  H  H16  1  0.90003188  0.69347243  0.50303629  1
  H  H17  1  0.69347243  0.90003188  0.49696371  1
  H  H18  1  0.19347243  0.40003188  0.00303629  1
  H  H19  1  0.40003188  0.19347243  0.99696371  1
  H  H20  1  0.92570498  0.29538100  0.47078438  1
  H  H21  1  0.29538100  0.92570498  0.52921562  1
  H  H22  1  0.79538100  0.42570498  0.97078438  1
  H  H23  1  0.42570498  0.79538100  0.02921562  1
  H  H24  1  0.07429502  0.70461900  0.52921562  1
  H  H25  1  0.70461900  0.07429502  0.47078438  1
  H  H26  1  0.20461900  0.57429502  0.02921562  1
  H  H27  1  0.57429502  0.20461900  0.97078438  1
  Se  Se28  1  0.75329763  0.55333756  0.36682490  1
  Se  Se29  1  0.55333756  0.75329763  0.63317510  1
  Se  Se30  1  0.05333756  0.25329763  0.86682490  1
  Se  Se31  1  0.25329763  0.05333756  0.13317510  1
  Se  Se32  1  0.24670237  0.44666244  0.63317510  1
  Se  Se33  1  0.44666244  0.24670237  0.36682490  1
  Se  Se34  1  0.94666244  0.74670237  0.13317510  1
  Se  Se35  1  0.74670237  0.94666244  0.86682490  1
  Se  Se36  1  0.81469450  0.18530550  0.11682071  1
  Se  Se37  1  0.18530550  0.81469450  0.88317929  1
  Se  Se38  1  0.68530550  0.31469450  0.61682071  1
  Se  Se39  1  0.31469450  0.68530550  0.38317929  1
  O  O40  1  0.02074935  0.24858456  0.45157869  1
  O  O41  1  0.24858456  0.02074935  0.54842131  1
  O  O42  1  0.74858456  0.52074935  0.95157869  1
  O  O43  1  0.52074935  0.74858456  0.04842131  1
  O  O44  1  0.97925065  0.75141544  0.54842131  1
  O  O45  1  0.75141544  0.97925065  0.45157869  1
  O  O46  1  0.25141544  0.47925065  0.04842131  1
  O  O47  1  0.47925065  0.25141544  0.95157869  1
