# generated using pymatgen
data_Sm2GaCo2
_symmetry_space_group_name_H-M   'P 1'
_cell_length_a   4.10429118
_cell_length_b   5.50512668
_cell_length_c   5.49920437
_cell_angle_alpha   120.03563675
_cell_angle_beta   111.91133693
_cell_angle_gamma   90.00000000
_symmetry_Int_Tables_number   1
_chemical_formula_structural   Sm2GaCo2
_chemical_formula_sum   'Sm2 Ga1 Co2'
_cell_volume   97.06059958
_cell_formula_units_Z   1
loop_
 _symmetry_equiv_pos_site_id
 _symmetry_equiv_pos_as_xyz
  1  'x, y, z'
loop_
 _atom_site_type_symbol
 _atom_site_label
 _atom_site_symmetry_multiplicity
 _atom_site_fract_x
 _atom_site_fract_y
 _atom_site_fract_z
 _atom_site_occupancy
  Sm  Sm0  1  0.79351533  0.29351533  0.58703065  1
  Sm  Sm1  1  0.20648467  0.70648467  0.41296935  1
  Ga  Ga2  1  0.00000000  -0.00000000  0.00000000  1
  Co  Co3  1  0.50000000  0.28631398  -0.00000000  1
  Co  Co4  1  0.50000000  0.71368602  0.00000000  1
