# generated using pymatgen
data_Ce2Ge6Pd
_symmetry_space_group_name_H-M   'P 1'
_cell_length_a   4.12196108
_cell_length_b   4.15852905
_cell_length_c   11.29665720
_cell_angle_alpha   90.00000000
_cell_angle_beta   100.51201208
_cell_angle_gamma   90.00000000
_symmetry_Int_Tables_number   1
_chemical_formula_structural   Ce2Ge6Pd
_chemical_formula_sum   'Ce2 Ge6 Pd1'
_cell_volume   190.38942155
_cell_formula_units_Z   1
loop_
 _symmetry_equiv_pos_site_id
 _symmetry_equiv_pos_as_xyz
  1  'x, y, z'
loop_
 _atom_site_type_symbol
 _atom_site_label
 _atom_site_symmetry_multiplicity
 _atom_site_fract_x
 _atom_site_fract_y
 _atom_site_fract_z
 _atom_site_occupancy
  Ce  Ce0  1  0.78013462  0.50000000  0.56026925  1
  Ce  Ce1  1  0.11400925  0.50000000  0.22801849  1
  Ge  Ge2  1  0.49496010  0.50000000  0.98992019  1
  Ge  Ge3  1  0.38243082  0.50000000  0.76486163  1
  Ge  Ge4  1  0.99410855  -0.00000000  0.98821710  1
  Ge  Ge5  1  0.88122027  -0.00000000  0.76244053  1
  Ge  Ge6  1  0.66757845  -0.00000000  0.33515689  1
  Ge  Ge7  1  0.23485785  0.00000000  0.46971571  1
  Pd  Pd8  1  0.55770010  -0.00000000  0.11540020  1
