# generated using pymatgen
data_Y2MnC4
_symmetry_space_group_name_H-M   'P 1'
_cell_length_a   5.05922930
_cell_length_b   6.62503875
_cell_length_c   6.62503875
_cell_angle_alpha   69.81764363
_cell_angle_beta   67.55314526
_cell_angle_gamma   67.55314526
_symmetry_Int_Tables_number   1
_chemical_formula_structural   Y2MnC4
_chemical_formula_sum   'Y4 Mn2 C8'
_cell_volume   184.45096754
_cell_formula_units_Z   2
loop_
 _symmetry_equiv_pos_site_id
 _symmetry_equiv_pos_as_xyz
  1  'x, y, z'
loop_
 _atom_site_type_symbol
 _atom_site_label
 _atom_site_symmetry_multiplicity
 _atom_site_fract_x
 _atom_site_fract_y
 _atom_site_fract_z
 _atom_site_occupancy
  Y  Y0  1  0.64595910  0.19883208  0.50924971  1
  Y  Y1  1  0.35404090  0.80116792  0.49075029  1
  Y  Y2  1  0.14595910  0.50924971  0.19883208  1
  Y  Y3  1  0.85404090  0.49075029  0.80116792  1
  Mn  Mn4  1  0.75000000  0.00000000  -0.00000000  1
  Mn  Mn5  1  0.25000000  0.00000000  -0.00000000  1
  C  C6  1  0.92152049  0.90731897  0.24964004  1
  C  C7  1  0.07847951  0.09268103  0.75035996  1
  C  C8  1  0.42152049  0.24964004  0.90731897  1
  C  C9  1  0.57847951  0.75035996  0.09268103  1
  C  C10  1  0.87124384  0.78768168  0.46983065  1
  C  C11  1  0.12875616  0.21231832  0.53016935  1
  C  C12  1  0.37124384  0.46983065  0.78768168  1
  C  C13  1  0.62875616  0.53016935  0.21231832  1
