# generated using pymatgen
data_MgTlCl3
_symmetry_space_group_name_H-M   'P 1'
_cell_length_a   7.07139227
_cell_length_b   7.16081662
_cell_length_c   10.10526549
_cell_angle_alpha   90.00000000
_cell_angle_beta   90.00000000
_cell_angle_gamma   90.00000000
_symmetry_Int_Tables_number   1
_chemical_formula_structural   MgTlCl3
_chemical_formula_sum   'Mg4 Tl4 Cl12'
_cell_volume   511.69975558
_cell_formula_units_Z   4
loop_
 _symmetry_equiv_pos_site_id
 _symmetry_equiv_pos_as_xyz
  1  'x, y, z'
loop_
 _atom_site_type_symbol
 _atom_site_label
 _atom_site_symmetry_multiplicity
 _atom_site_fract_x
 _atom_site_fract_y
 _atom_site_fract_z
 _atom_site_occupancy
  Mg  Mg0  1  0.00000000  -0.00000000  0.00000000  1
  Mg  Mg1  1  0.50000000  0.50000000  0.00000000  1
  Mg  Mg2  1  0.00000000  -0.00000000  0.50000000  1
  Mg  Mg3  1  0.50000000  0.50000000  0.50000000  1
  Tl  Tl4  1  0.01699780  0.44883063  0.25000000  1
  Tl  Tl5  1  0.98300220  0.55116937  0.75000000  1
  Tl  Tl6  1  0.51699780  0.05116937  0.75000000  1
  Tl  Tl7  1  0.48300220  0.94883063  0.25000000  1
  Cl  Cl8  1  0.28211968  0.21788118  0.02537004  1
  Cl  Cl9  1  0.71788032  0.78211882  0.97462996  1
  Cl  Cl10  1  0.78211968  0.28211882  0.97462996  1
  Cl  Cl11  1  0.71788032  0.78211882  0.52537004  1
  Cl  Cl12  1  0.21788032  0.71788118  0.02537004  1
  Cl  Cl13  1  0.28211968  0.21788118  0.47462996  1
  Cl  Cl14  1  0.21788032  0.71788118  0.47462996  1
  Cl  Cl15  1  0.78211968  0.28211882  0.52537004  1
  Cl  Cl16  1  0.55089577  0.50086681  0.25000000  1
  Cl  Cl17  1  0.44910423  0.49913319  0.75000000  1
  Cl  Cl18  1  0.05089577  -0.00086681  0.75000000  1
  Cl  Cl19  1  0.94910423  0.00086681  0.25000000  1
