# generated using pymatgen
data_Sm12Al7Si
_symmetry_space_group_name_H-M   'P 1'
_cell_length_a   11.49197488
_cell_length_b   11.49197488
_cell_length_c   11.49197488
_cell_angle_alpha   94.05801129
_cell_angle_beta   117.68542290
_cell_angle_gamma   117.68542290
_symmetry_Int_Tables_number   1
_chemical_formula_structural   Sm12Al7Si
_chemical_formula_sum   'Sm24 Al14 Si2'
_cell_volume   1107.71032515
_cell_formula_units_Z   2
loop_
 _symmetry_equiv_pos_site_id
 _symmetry_equiv_pos_as_xyz
  1  'x, y, z'
loop_
 _atom_site_type_symbol
 _atom_site_label
 _atom_site_symmetry_multiplicity
 _atom_site_fract_x
 _atom_site_fract_y
 _atom_site_fract_z
 _atom_site_occupancy
  Sm  Sm0  1  0.73631790  0.79734621  0.66603307  1
  Sm  Sm1  1  0.26368210  0.20265379  0.33396693  1
  Sm  Sm2  1  0.26368210  0.92971517  0.06102831  1
  Sm  Sm3  1  0.13131314  0.06102831  0.79734621  1
  Sm  Sm4  1  0.86868686  0.70265379  0.43897169  1
  Sm  Sm5  1  0.73631790  0.07028483  0.93897169  1
  Sm  Sm6  1  0.86868686  0.93897169  0.20265379  1
  Sm  Sm7  1  0.13131314  0.29734621  0.56102831  1
  Sm  Sm8  1  0.86868686  0.66603307  0.92971517  1
  Sm  Sm9  1  0.13131314  0.57028483  0.83396693  1
  Sm  Sm10  1  0.13131314  0.33396693  0.07028483  1
  Sm  Sm11  1  0.86868686  0.42971517  0.16603307  1
  Sm  Sm12  1  0.73631790  0.43897169  0.57028483  1
  Sm  Sm13  1  0.26368210  0.56102831  0.42971517  1
  Sm  Sm14  1  0.26368210  0.83396693  0.70265379  1
  Sm  Sm15  1  0.73631790  0.16603307  0.29734621  1
  Sm  Sm16  1  0.16340971  0.83170485  0.33170485  1
  Sm  Sm17  1  0.83659029  0.16829515  0.66829515  1
  Sm  Sm18  1  0.50000000  0.66829515  0.83170485  1
  Sm  Sm19  1  0.50000000  0.33170485  0.16829515  1
  Sm  Sm20  1  0.50000000  0.85152280  0.35152280  1
  Sm  Sm21  1  0.50000000  0.14847720  0.64847720  1
  Sm  Sm22  1  0.50000000  0.35152280  0.85152280  1
  Sm  Sm23  1  0.50000000  0.64847720  0.14847720  1
  Al  Al24  1  0.14365622  0.61626605  0.11626605  1
  Al  Al25  1  0.85634378  0.38373395  0.88373395  1
  Al  Al26  1  0.85634378  0.97260983  0.47260983  1
  Al  Al27  1  0.50000000  0.47260983  0.61626605  1
  Al  Al28  1  0.50000000  0.88373395  0.02739017  1
  Al  Al29  1  0.14365622  0.02739017  0.52739017  1
  Al  Al30  1  0.50000000  0.52739017  0.38373395  1
  Al  Al31  1  0.50000000  0.11626605  0.97260983  1
  Al  Al32  1  0.00000000  -0.00000000  0.00000000  1
  Al  Al33  1  0.00000000  0.50000000  0.50000000  1
  Al  Al34  1  0.26262697  0.38131348  0.88131348  1
  Al  Al35  1  0.73737303  0.61868652  0.11868652  1
  Al  Al36  1  0.50000000  0.11868652  0.38131348  1
  Al  Al37  1  0.50000000  0.88131348  0.61868652  1
  Si  Si38  1  0.00000000  0.75000000  0.75000000  1
  Si  Si39  1  -0.00000000  0.25000000  0.25000000  1
