# generated using pymatgen
data_Y11Ge10
_symmetry_space_group_name_H-M   'P 1'
_cell_length_a   10.96543458
_cell_length_b   10.96543458
_cell_length_c   11.32390551
_cell_angle_alpha   118.95823173
_cell_angle_beta   118.95823173
_cell_angle_gamma   90.00000000
_symmetry_Int_Tables_number   1
_chemical_formula_structural   Y11Ge10
_chemical_formula_sum   'Y22 Ge20'
_cell_volume   992.33573090
_cell_formula_units_Z   2
loop_
 _symmetry_equiv_pos_site_id
 _symmetry_equiv_pos_as_xyz
  1  'x, y, z'
loop_
 _atom_site_type_symbol
 _atom_site_label
 _atom_site_symmetry_multiplicity
 _atom_site_fract_x
 _atom_site_fract_y
 _atom_site_fract_z
 _atom_site_occupancy
  Y  Y0  1  0.15974707  0.15974707  0.31949414  1
  Y  Y1  1  0.84025293  0.84025293  0.68050586  1
  Y  Y2  1  0.32274425  0.32274425  1.00000000  1
  Y  Y3  1  0.67725575  0.67725575  0.00000000  1
  Y  Y4  1  0.67725575  0.32274425  -0.00000000  1
  Y  Y5  1  0.32274425  0.67725575  -0.00000000  1
  Y  Y6  1  0.10269585  0.42678595  0.20539170  1
  Y  Y7  1  0.89730415  0.57321405  0.79460830  1
  Y  Y8  1  0.10269585  0.77860575  0.20539170  1
  Y  Y9  1  0.77860575  0.10269585  0.20539170  1
  Y  Y10  1  0.89730415  0.22139425  0.79460830  1
  Y  Y11  1  0.22139425  0.89730415  0.79460830  1
  Y  Y12  1  0.42678595  0.10269585  0.20539170  1
  Y  Y13  1  0.57321405  0.89730415  0.79460830  1
  Y  Y14  1  0.31002924  0.56213109  0.62005847  1
  Y  Y15  1  0.68997076  0.43786891  0.37994153  1
  Y  Y16  1  0.31002924  0.05792739  0.62005847  1
  Y  Y17  1  0.05792739  0.31002924  0.62005847  1
  Y  Y18  1  0.68997076  0.94207261  0.37994153  1
  Y  Y19  1  0.94207261  0.68997076  0.37994153  1
  Y  Y20  1  0.56213109  0.31002924  0.62005847  1
  Y  Y21  1  0.43786891  0.68997076  0.37994153  1
  Ge  Ge22  1  0.39137538  0.39137538  0.36339608  1
  Ge  Ge23  1  0.60862462  0.60862462  0.63660392  1
  Ge  Ge24  1  0.97202070  0.97202070  0.36339608  1
  Ge  Ge25  1  0.97202070  0.39137538  0.36339608  1
  Ge  Ge26  1  0.60862462  0.02797930  0.63660392  1
  Ge  Ge27  1  0.02797930  0.02797930  0.63660392  1
  Ge  Ge28  1  0.02797930  0.60862462  0.63660392  1
  Ge  Ge29  1  0.39137538  0.97202070  0.36339608  1
  Ge  Ge30  1  0.38719019  0.38719019  0.77438037  1
  Ge  Ge31  1  0.61280981  0.61280981  0.22561963  1
  Ge  Ge32  1  0.11954518  0.11954518  0.00000000  1
  Ge  Ge33  1  0.88045482  0.88045482  1.00000000  1
  Ge  Ge34  1  0.88045482  0.11954518  -0.00000000  1
  Ge  Ge35  1  0.11954518  0.88045482  -0.00000000  1
  Ge  Ge36  1  0.25000000  0.75000000  0.50000000  1
  Ge  Ge37  1  0.75000000  0.25000000  0.50000000  1
  Ge  Ge38  1  0.13935321  0.50000000  1.00000000  1
  Ge  Ge39  1  0.86064679  0.50000000  0.00000000  1
  Ge  Ge40  1  0.50000000  0.13935321  1.00000000  1
  Ge  Ge41  1  0.50000000  0.86064679  0.00000000  1
