# generated using pymatgen
data_Na2GdCl5
_symmetry_space_group_name_H-M   'P 1'
_cell_length_a   7.76242822
_cell_length_b   8.33606017
_cell_length_c   12.13779029
_cell_angle_alpha   90.00000000
_cell_angle_beta   90.00000000
_cell_angle_gamma   90.00000000
_symmetry_Int_Tables_number   1
_chemical_formula_structural   Na2GdCl5
_chemical_formula_sum   'Na8 Gd4 Cl20'
_cell_volume   785.41296804
_cell_formula_units_Z   4
loop_
 _symmetry_equiv_pos_site_id
 _symmetry_equiv_pos_as_xyz
  1  'x, y, z'
loop_
 _atom_site_type_symbol
 _atom_site_label
 _atom_site_symmetry_multiplicity
 _atom_site_fract_x
 _atom_site_fract_y
 _atom_site_fract_z
 _atom_site_occupancy
  Na  Na0  1  0.54560268  0.49591357  0.67160626  1
  Na  Na1  1  0.45439732  0.50408643  0.32839374  1
  Na  Na2  1  0.04560268  0.50408643  0.82839374  1
  Na  Na3  1  0.45439732  0.99591357  0.32839374  1
  Na  Na4  1  0.95439732  0.49591357  0.17160626  1
  Na  Na5  1  0.54560268  0.00408643  0.67160626  1
  Na  Na6  1  0.95439732  0.00408643  0.17160626  1
  Na  Na7  1  0.04560268  0.99591357  0.82839374  1
  Gd  Gd8  1  0.57955130  0.75000000  0.99321088  1
  Gd  Gd9  1  0.42044870  0.25000000  0.00678912  1
  Gd  Gd10  1  0.07955130  0.25000000  0.50678912  1
  Gd  Gd11  1  0.92044870  0.75000000  0.49321088  1
  Cl  Cl12  1  0.36903560  0.75000000  0.81477887  1
  Cl  Cl13  1  0.63096440  0.25000000  0.18522113  1
  Cl  Cl14  1  0.86903560  0.25000000  0.68522113  1
  Cl  Cl15  1  0.13096440  0.75000000  0.31477887  1
  Cl  Cl16  1  0.66904872  0.45453075  0.91726389  1
  Cl  Cl17  1  0.33095128  0.54546925  0.08273611  1
  Cl  Cl18  1  0.16904872  0.54546925  0.58273611  1
  Cl  Cl19  1  0.33095128  0.95453075  0.08273611  1
  Cl  Cl20  1  0.83095128  0.45453075  0.41726389  1
  Cl  Cl21  1  0.66904872  0.04546925  0.91726389  1
  Cl  Cl22  1  0.83095128  0.04546925  0.41726389  1
  Cl  Cl23  1  0.16904872  0.95453075  0.58273611  1
  Cl  Cl24  1  0.93627144  0.75000000  0.99466340  1
  Cl  Cl25  1  0.06372856  0.25000000  0.00533660  1
  Cl  Cl26  1  0.43627144  0.25000000  0.50533660  1
  Cl  Cl27  1  0.56372856  0.75000000  0.49466340  1
  Cl  Cl28  1  0.83294127  0.75000000  0.71034607  1
  Cl  Cl29  1  0.16705873  0.25000000  0.28965393  1
  Cl  Cl30  1  0.33294127  0.25000000  0.78965393  1
  Cl  Cl31  1  0.66705873  0.75000000  0.21034607  1
