# generated using pymatgen
data_KSm(MoO4)2
_symmetry_space_group_name_H-M   'P 1'
_cell_length_a   7.59000272
_cell_length_b   7.59000272
_cell_length_c   7.92886920
_cell_angle_alpha   116.28154882
_cell_angle_beta   119.09682424
_cell_angle_gamma   91.68765945
_symmetry_Int_Tables_number   1
_chemical_formula_structural   KSm(MoO4)2
_chemical_formula_sum   'K2 Sm2 Mo4 O16'
_cell_volume   339.95238679
_cell_formula_units_Z   2
loop_
 _symmetry_equiv_pos_site_id
 _symmetry_equiv_pos_as_xyz
  1  'x, y, z'
loop_
 _atom_site_type_symbol
 _atom_site_label
 _atom_site_symmetry_multiplicity
 _atom_site_fract_x
 _atom_site_fract_y
 _atom_site_fract_z
 _atom_site_occupancy
  K  K0  1  0.45029604  0.20029604  0.25000000  1
  K  K1  1  0.54970396  0.79970396  0.75000000  1
  Sm  Sm2  1  0.02053412  0.77053412  0.25000000  1
  Sm  Sm3  1  0.97946588  0.22946588  0.75000000  1
  Mo  Mo4  1  0.95421065  0.30308535  0.26075302  1
  Mo  Mo5  1  0.04578935  0.69691465  0.73924698  1
  Mo  Mo6  1  0.54233233  0.69345763  0.23924698  1
  Mo  Mo7  1  0.45766767  0.30654237  0.76075302  1
  O  O8  1  0.67627011  0.23254237  0.06236065  1
  O  O9  1  0.32372989  0.76745763  0.93763935  1
  O  O10  1  0.67018172  0.61390946  0.43763935  1
  O  O11  1  0.32981828  0.38609054  0.56236065  1
  O  O12  1  0.75588044  0.92902911  0.37141976  1
  O  O13  1  0.24411956  0.07097089  0.62858024  1
  O  O14  1  0.05760935  0.38446068  0.12858024  1
  O  O15  1  0.94239065  0.61553932  0.87141976  1
  O  O16  1  0.05652102  0.63167878  0.47327073  1
  O  O17  1  0.94347898  0.36832122  0.52672927  1
  O  O18  1  0.65840805  0.58325029  0.02672927  1
  O  O19  1  0.34159195  0.41674971  0.97327073  1
  O  O20  1  0.98424956  0.05049840  0.19045245  1
  O  O21  1  0.01575044  0.94950160  0.80954755  1
  O  O22  1  0.36004595  0.79379711  0.30954755  1
  O  O23  1  0.63995405  0.20620289  0.69045245  1
