# generated using pymatgen
data_NdBr2
_symmetry_space_group_name_H-M   'P 1'
_cell_length_a   4.06210885
_cell_length_b   6.92263804
_cell_length_c   16.29276355
_cell_angle_alpha   90.00000000
_cell_angle_beta   90.00000000
_cell_angle_gamma   90.00000000
_symmetry_Int_Tables_number   1
_chemical_formula_structural   NdBr2
_chemical_formula_sum   'Nd4 Br8'
_cell_volume   458.16080808
_cell_formula_units_Z   4
loop_
 _symmetry_equiv_pos_site_id
 _symmetry_equiv_pos_as_xyz
  1  'x, y, z'
loop_
 _atom_site_type_symbol
 _atom_site_label
 _atom_site_symmetry_multiplicity
 _atom_site_fract_x
 _atom_site_fract_y
 _atom_site_fract_z
 _atom_site_occupancy
  Nd  Nd0  1  0.75000000  0.75921442  0.50050445  1
  Nd  Nd1  1  0.25000000  0.24078558  0.49949555  1
  Nd  Nd2  1  0.25000000  0.74078558  0.00050445  1
  Nd  Nd3  1  0.75000000  0.25921442  0.99949555  1
  Br  Br4  1  0.75000000  0.91575582  0.88716902  1
  Br  Br5  1  0.25000000  0.08424418  0.11283098  1
  Br  Br6  1  0.25000000  0.58424418  0.38716902  1
  Br  Br7  1  0.75000000  0.41575582  0.61283098  1
  Br  Br8  1  0.75000000  0.08702255  0.38175317  1
  Br  Br9  1  0.25000000  0.91297745  0.61824683  1
  Br  Br10  1  0.25000000  0.41297745  0.88175317  1
  Br  Br11  1  0.75000000  0.58702255  0.11824683  1
