# generated using pymatgen
data_Rb3LaCl6
_symmetry_space_group_name_H-M   'P 1'
_cell_length_a   8.15077249
_cell_length_b   13.18467415
_cell_length_c   13.90514074
_cell_angle_alpha   99.02330232
_cell_angle_beta   107.04273425
_cell_angle_gamma   89.99999989
_symmetry_Int_Tables_number   1
_chemical_formula_structural   Rb3LaCl6
_chemical_formula_sum   'Rb12 La4 Cl24'
_cell_volume   1409.34537176
_cell_formula_units_Z   4
loop_
 _symmetry_equiv_pos_site_id
 _symmetry_equiv_pos_as_xyz
  1  'x, y, z'
loop_
 _atom_site_type_symbol
 _atom_site_label
 _atom_site_symmetry_multiplicity
 _atom_site_fract_x
 _atom_site_fract_y
 _atom_site_fract_z
 _atom_site_occupancy
  Rb  Rb0  1  0.69778501  0.06660129  0.90135161  1
  Rb  Rb1  1  0.30221499  0.93339871  0.09864839  1
  Rb  Rb2  1  0.79643340  0.43339871  0.09864839  1
  Rb  Rb3  1  0.20356660  0.56660129  0.90135161  1
  Rb  Rb4  1  0.53520326  0.35639627  0.69275816  1
  Rb  Rb5  1  0.46479674  0.64360373  0.30724184  1
  Rb  Rb6  1  0.84244510  0.14360373  0.30724184  1
  Rb  Rb7  1  0.15755490  0.85639627  0.69275816  1
  Rb  Rb8  1  0.34893188  0.29925507  0.32373136  1
  Rb  Rb9  1  0.65106812  0.70074493  0.67626864  1
  Rb  Rb10  1  0.02520052  0.20074493  0.67626864  1
  Rb  Rb11  1  0.97479948  0.79925507  0.32373136  1
  La  La12  1  0.21640238  0.25000000  0.00000000  1
  La  La13  1  0.78359762  0.75000000  1.00000000  1
  La  La14  1  0.50000000  0.00000000  0.50000000  1
  La  La15  1  0.00000000  0.50000000  0.50000000  1
  Cl  Cl16  1  0.37584733  0.08238408  0.66082920  1
  Cl  Cl17  1  0.62415267  0.91761592  0.33917080  1
  Cl  Cl18  1  0.71501813  0.41761592  0.33917080  1
  Cl  Cl19  1  0.28498187  0.58238408  0.66082920  1
  Cl  Cl20  1  0.51063410  0.17466358  0.12226286  1
  Cl  Cl21  1  0.48936590  0.82533642  0.87773714  1
  Cl  Cl22  1  0.38837125  0.32533642  0.87773714  1
  Cl  Cl23  1  0.61162875  0.67466358  0.12226286  1
  Cl  Cl24  1  0.20939686  0.03528873  0.34855641  1
  Cl  Cl25  1  0.79060314  0.96471127  0.65144359  1
  Cl  Cl26  1  0.86084045  0.46471127  0.65144359  1
  Cl  Cl27  1  0.13915955  0.53528873  0.34855641  1
  Cl  Cl28  1  0.09675795  0.69720751  0.12288668  1
  Cl  Cl29  1  0.90324205  0.30279249  0.87711332  1
  Cl  Cl30  1  0.97387126  0.80279249  0.87711332  1
  Cl  Cl31  1  0.02612874  0.19720751  0.12288668  1
  Cl  Cl32  1  0.28417280  0.43860017  0.11751444  1
  Cl  Cl33  1  0.71582720  0.56139983  0.88248556  1
  Cl  Cl34  1  0.16665835  0.06139983  0.88248556  1
  Cl  Cl35  1  0.83334165  0.93860017  0.11751444  1
  Cl  Cl36  1  0.64462374  0.19161935  0.49823014  1
  Cl  Cl37  1  0.35537626  0.80838065  0.50176986  1
  Cl  Cl38  1  0.14639360  0.30838065  0.50176986  1
  Cl  Cl39  1  0.85360640  0.69161935  0.49823014  1
