# generated using pymatgen
data_La2Ti3(BiO6)2
_symmetry_space_group_name_H-M   'P 1'
_cell_length_a   3.85038365
_cell_length_b   3.85038365
_cell_length_c   16.90045465
_cell_angle_alpha   96.54096780
_cell_angle_beta   96.54096780
_cell_angle_gamma   90.00000000
_symmetry_Int_Tables_number   1
_chemical_formula_structural   La2Ti3(BiO6)2
_chemical_formula_sum   'La2 Ti3 Bi2 O12'
_cell_volume   247.28423976
_cell_formula_units_Z   1
loop_
 _symmetry_equiv_pos_site_id
 _symmetry_equiv_pos_as_xyz
  1  'x, y, z'
loop_
 _atom_site_type_symbol
 _atom_site_label
 _atom_site_symmetry_multiplicity
 _atom_site_fract_x
 _atom_site_fract_y
 _atom_site_fract_z
 _atom_site_occupancy
  La  La0  1  0.56508435  0.56508435  0.13016870  1
  La  La1  1  0.43491565  0.43491565  0.86983130  1
  Ti  Ti2  1  0.87292690  0.87292690  0.74585380  1
  Ti  Ti3  1  0.12707310  0.12707310  0.25414620  1
  Ti  Ti4  1  -0.00000000  -0.00000000  -0.00000000  1
  Bi  Bi5  1  0.71149564  0.71149564  0.42299127  1
  Bi  Bi6  1  0.28850436  0.28850436  0.57700873  1
  O  O7  1  0.38556876  0.88556876  0.77113751  1
  O  O8  1  0.61443124  0.11443124  0.22886249  1
  O  O9  1  0.11443124  0.61443124  0.22886249  1
  O  O10  1  0.88556876  0.38556876  0.77113751  1
  O  O11  1  0.25000000  0.75000000  0.50000000  1
  O  O12  1  0.75000000  0.25000000  0.50000000  1
  O  O13  1  0.81912803  0.81912803  0.63825606  1
  O  O14  1  0.18087197  0.18087197  0.36174394  1
  O  O15  1  0.94175060  0.94175060  0.88350120  1
  O  O16  1  0.05824940  0.05824940  0.11649880  1
  O  O17  1  0.50000000  -0.00000000  -0.00000000  1
  O  O18  1  -0.00000000  0.50000000  -0.00000000  1
