# generated using pymatgen
data_Li4CuSbO6
_symmetry_space_group_name_H-M   'P 1'
_cell_length_a   5.13841729
_cell_length_b   5.13841729
_cell_length_c   9.93774092
_cell_angle_alpha   92.47953263
_cell_angle_beta   92.47953263
_cell_angle_gamma   115.23691977
_symmetry_Int_Tables_number   1
_chemical_formula_structural   Li4CuSbO6
_chemical_formula_sum   'Li8 Cu2 Sb2 O12'
_cell_volume   236.56938894
_cell_formula_units_Z   2
loop_
 _symmetry_equiv_pos_site_id
 _symmetry_equiv_pos_as_xyz
  1  'x, y, z'
loop_
 _atom_site_type_symbol
 _atom_site_label
 _atom_site_symmetry_multiplicity
 _atom_site_fract_x
 _atom_site_fract_y
 _atom_site_fract_z
 _atom_site_occupancy
  Li  Li0  1  0.65825219  0.80489615  0.99730858  1
  Li  Li1  1  0.34174781  0.19510385  0.00269142  1
  Li  Li2  1  0.19510385  0.34174781  0.50269142  1
  Li  Li3  1  0.80489615  0.65825219  0.49730858  1
  Li  Li4  1  0.58154304  0.41845696  0.75000000  1
  Li  Li5  1  0.41845696  0.58154304  0.25000000  1
  Li  Li6  1  0.50000000  0.00000000  0.50000000  1
  Li  Li7  1  -0.00000000  0.50000000  0.00000000  1
  Cu  Cu8  1  0.91343107  0.08656893  0.75000000  1
  Cu  Cu9  1  0.08656893  0.91343107  0.25000000  1
  Sb  Sb10  1  0.25434693  0.74565307  0.75000000  1
  Sb  Sb11  1  0.74565307  0.25434693  0.25000000  1
  O  O12  1  0.50377819  0.70002647  0.61638028  1
  O  O13  1  0.49622181  0.29997353  0.38361972  1
  O  O14  1  0.29997353  0.49622181  0.88361972  1
  O  O15  1  0.70002647  0.50377819  0.11638028  1
  O  O16  1  0.60437456  0.08671519  0.85011216  1
  O  O17  1  0.39562544  0.91328481  0.14988784  1
  O  O18  1  0.91328481  0.39562544  0.64988784  1
  O  O19  1  0.08671519  0.60437456  0.35011216  1
  O  O20  1  0.82468581  0.97232780  0.36279401  1
  O  O21  1  0.17531419  0.02767220  0.63720599  1
  O  O22  1  0.02767220  0.17531419  0.13720599  1
  O  O23  1  0.97232780  0.82468581  0.86279401  1
