# generated using pymatgen
data_K2Ni(PO3)4
_symmetry_space_group_name_H-M   'P 1'
_cell_length_a   7.77286974
_cell_length_b   8.45881534
_cell_length_c   8.45881534
_cell_angle_alpha   97.22234113
_cell_angle_beta   98.33458830
_cell_angle_gamma   98.33458830
_symmetry_Int_Tables_number   1
_chemical_formula_structural   K2Ni(PO3)4
_chemical_formula_sum   'K4 Ni2 P8 O24'
_cell_volume   538.32478884
_cell_formula_units_Z   2
loop_
 _symmetry_equiv_pos_site_id
 _symmetry_equiv_pos_as_xyz
  1  'x, y, z'
loop_
 _atom_site_type_symbol
 _atom_site_label
 _atom_site_symmetry_multiplicity
 _atom_site_fract_x
 _atom_site_fract_y
 _atom_site_fract_z
 _atom_site_occupancy
  K  K0  1  0.31278757  0.56209032  0.83235468  1
  K  K1  1  0.81278757  0.83235468  0.56209032  1
  K  K2  1  0.99579517  0.87232715  0.12445219  1
  K  K3  1  0.49579517  0.12445219  0.87232715  1
  Ni  Ni4  1  0.64968596  0.51452620  0.20635150  1
  Ni  Ni5  1  0.14968596  0.20635150  0.51452620  1
  P  P6  1  0.82372026  0.49664721  0.86988274  1
  P  P7  1  0.32372026  0.86988274  0.49664721  1
  P  P8  1  0.58573164  0.40070818  0.55120846  1
  P  P9  1  0.08573164  0.55120846  0.40070818  1
  P  P10  1  0.98014818  0.18847532  0.86498516  1
  P  P11  1  0.48014818  0.86498516  0.18847532  1
  P  P12  1  0.74083187  0.18105753  0.32855965  1
  P  P13  1  0.24083187  0.32855965  0.18105753  1
  O  O14  1  0.00111580  0.59934859  0.90858803  1
  O  O15  1  0.50111580  0.90858803  0.59934859  1
  O  O16  1  0.38525254  0.85187842  0.01955806  1
  O  O17  1  0.88525254  0.01955806  0.85187842  1
  O  O18  1  0.93410475  0.63085260  0.33805956  1
  O  O19  1  0.43410475  0.33805956  0.63085260  1
  O  O20  1  0.68584200  0.52892176  0.97326349  1
  O  O21  1  0.18584200  0.97326349  0.52892176  1
  O  O22  1  0.75493617  0.30566959  0.21714332  1
  O  O23  1  0.25493617  0.21714332  0.30566959  1
  O  O24  1  0.82896918  0.30323460  0.85284084  1
  O  O25  1  0.32896918  0.85284084  0.30323460  1
  O  O26  1  0.61282131  0.75734857  0.23103573  1
  O  O27  1  0.11282131  0.23103573  0.75734857  1
  O  O28  1  0.57210874  0.05083847  0.24108878  1
  O  O29  1  0.07210874  0.24108878  0.05083847  1
  O  O30  1  0.56219369  0.50558444  0.42178675  1
  O  O31  1  0.06219369  0.42178675  0.50558444  1
  O  O32  1  0.89383492  0.09588212  0.37543652  1
  O  O33  1  0.39383492  0.37543652  0.09588212  1
  O  O34  1  0.74092294  0.51178965  0.68581602  1
  O  O35  1  0.24092294  0.68581602  0.51178965  1
  O  O36  1  0.67819732  0.24840068  0.49460712  1
  O  O37  1  0.17819732  0.49460712  0.24840068  1
