# generated using pymatgen
data_Yb5Si3SO12
_symmetry_space_group_name_H-M   'P 1'
_cell_length_a   9.33892242
_cell_length_b   9.33892242
_cell_length_c   7.02850992
_cell_angle_alpha   90.00000000
_cell_angle_beta   90.00000000
_cell_angle_gamma   120.00000003
_symmetry_Int_Tables_number   1
_chemical_formula_structural   Yb5Si3SO12
_chemical_formula_sum   'Yb10 Si6 S2 O24'
_cell_volume   530.86907778
_cell_formula_units_Z   2
loop_
 _symmetry_equiv_pos_site_id
 _symmetry_equiv_pos_as_xyz
  1  'x, y, z'
loop_
 _atom_site_type_symbol
 _atom_site_label
 _atom_site_symmetry_multiplicity
 _atom_site_fract_x
 _atom_site_fract_y
 _atom_site_fract_z
 _atom_site_occupancy
  O  O0  1  0.30414905  0.21947875  0.43413949  1
  O  O1  1  0.08467031  0.30414905  0.93413949  1
  O  O2  1  0.21947875  0.91532969  0.93413949  1
  O  O3  1  0.78052125  0.08467031  0.43413949  1
  O  O4  1  0.91532969  0.69585095  0.43413949  1
  O  O5  1  0.69585095  0.78052125  0.93413949  1
  O  O6  1  0.69585095  0.78052125  0.56586051  1
  O  O7  1  0.91532969  0.69585095  0.06586051  1
  O  O8  1  0.78052125  0.08467031  0.06586051  1
  O  O9  1  0.21947875  0.91532969  0.56586051  1
  O  O10  1  0.08467031  0.30414905  0.56586051  1
  O  O11  1  0.30414905  0.21947875  0.06586051  1
  O  O12  1  0.42998893  0.55610004  0.75000000  1
  O  O13  1  0.87388889  0.42998893  0.25000000  1
  O  O14  1  0.55610004  0.12611111  0.25000000  1
  O  O15  1  0.44389996  0.87388889  0.75000000  1
  O  O16  1  0.12611111  0.57001107  0.75000000  1
  O  O17  1  0.57001107  0.44389996  0.25000000  1
  O  O18  1  0.29996491  0.47830856  0.25000000  1
  O  O19  1  0.82165636  0.29996491  0.75000000  1
  O  O20  1  0.47830856  0.17834364  0.75000000  1
  O  O21  1  0.52169144  0.82165636  0.25000000  1
  O  O22  1  0.17834364  0.70003509  0.25000000  1
  O  O23  1  0.70003509  0.52169144  0.75000000  1
  Si  Si24  1  0.63298343  0.65168904  0.75000000  1
  Si  Si25  1  0.98129438  0.63298343  0.25000000  1
  Si  Si26  1  0.65168904  0.01870562  0.25000000  1
  Si  Si27  1  0.34831096  0.98129438  0.75000000  1
  Si  Si28  1  0.01870562  0.36701657  0.75000000  1
  Si  Si29  1  0.36701657  0.34831096  0.25000000  1
  S  S30  1  0.00000000  0.00000000  0.00000000  1
  S  S31  1  0.00000000  0.00000000  0.50000000  1
  Yb  Yb32  1  0.72229418  0.00777852  0.75000000  1
  Yb  Yb33  1  0.71451565  0.72229418  0.25000000  1
  Yb  Yb34  1  0.00777852  0.28548435  0.25000000  1
  Yb  Yb35  1  0.99222148  0.71451565  0.75000000  1
  Yb  Yb36  1  0.28548435  0.27770582  0.75000000  1
  Yb  Yb37  1  0.27770582  0.99222148  0.25000000  1
  Yb  Yb38  1  0.33333333  0.66666667  0.49805748  1
  Yb  Yb39  1  0.66666667  0.33333333  0.99805748  1
  Yb  Yb40  1  0.66666667  0.33333333  0.50194252  1
  Yb  Yb41  1  0.33333333  0.66666667  0.00194252  1
