# generated using pymatgen
data_K3Mn5(Si2O5)6
_symmetry_space_group_name_H-M   'P 1'
_cell_length_a   10.63101727
_cell_length_b   10.63101727
_cell_length_c   14.49608284
_cell_angle_alpha   90.00000000
_cell_angle_beta   90.00000000
_cell_angle_gamma   119.99999747
_symmetry_Int_Tables_number   1
_chemical_formula_structural   K3Mn5(Si2O5)6
_chemical_formula_sum   'K6 Mn10 Si24 O60'
_cell_volume   1418.83192710
_cell_formula_units_Z   2
loop_
 _symmetry_equiv_pos_site_id
 _symmetry_equiv_pos_as_xyz
  1  'x, y, z'
loop_
 _atom_site_type_symbol
 _atom_site_label
 _atom_site_symmetry_multiplicity
 _atom_site_fract_x
 _atom_site_fract_y
 _atom_site_fract_z
 _atom_site_occupancy
  K  K0  1  0.66666700  0.33333300  -0.00000000  1
  K  K1  1  0.33333300  0.66666700  -0.00000000  1
  K  K2  1  0.33333300  0.66666700  0.50000000  1
  K  K3  1  0.66666700  0.33333300  0.50000000  1
  K  K4  1  -0.00000000  0.00000000  0.75000000  1
  K  K5  1  -0.00000000  0.00000000  0.25000000  1
  Mn  Mn6  1  0.50000000  0.50000000  0.75000000  1
  Mn  Mn7  1  0.50000000  0.50000000  0.25000000  1
  Mn  Mn8  1  -0.00000000  0.50000000  0.75000000  1
  Mn  Mn9  1  -0.00000000  0.50000000  0.25000000  1
  Mn  Mn10  1  0.50000000  0.00000000  0.75000000  1
  Mn  Mn11  1  0.50000000  0.00000000  0.25000000  1
  Mn  Mn12  1  0.66666700  0.33333300  0.75000000  1
  Mn  Mn13  1  0.33333300  0.66666700  0.25000000  1
  Mn  Mn14  1  0.33333300  0.66666700  0.75000000  1
  Mn  Mn15  1  0.66666700  0.33333300  0.25000000  1
  Si  Si16  1  0.89001740  0.22846089  0.88804187  1
  Si  Si17  1  0.10998260  0.77153911  0.11195813  1
  Si  Si18  1  0.33844349  0.10998260  0.88804187  1
  Si  Si19  1  0.10998260  0.77153911  0.88804187  1
  Si  Si20  1  0.66155651  0.77153911  0.61195813  1
  Si  Si21  1  0.66155651  0.89001740  0.11195813  1
  Si  Si22  1  0.89001740  0.22846089  0.11195813  1
  Si  Si23  1  0.33844349  0.22846089  0.38804187  1
  Si  Si24  1  0.77153911  0.66155651  0.88804187  1
  Si  Si25  1  0.66155651  0.89001740  0.88804187  1
  Si  Si26  1  0.22846089  0.89001740  0.61195813  1
  Si  Si27  1  0.22846089  0.33844349  0.11195813  1
  Si  Si28  1  0.33844349  0.10998260  0.11195813  1
  Si  Si29  1  0.77153911  0.10998260  0.38804187  1
  Si  Si30  1  0.33844349  0.22846089  0.61195813  1
  Si  Si31  1  0.66155651  0.77153911  0.38804187  1
  Si  Si32  1  0.22846089  0.33844349  0.88804187  1
  Si  Si33  1  0.77153911  0.10998260  0.61195813  1
  Si  Si34  1  0.77153911  0.66155651  0.11195813  1
  Si  Si35  1  0.22846089  0.89001740  0.38804187  1
  Si  Si36  1  0.10998260  0.33844349  0.61195813  1
  Si  Si37  1  0.89001740  0.66155651  0.38804187  1
  Si  Si38  1  0.89001740  0.66155651  0.61195813  1
  Si  Si39  1  0.10998260  0.33844349  0.38804187  1
  O  O40  1  0.87841509  0.24355313  -0.00000000  1
  O  O41  1  0.12158491  0.75644687  0.00000000  1
  O  O42  1  0.36513803  0.12158491  0.00000000  1
  O  O43  1  0.63486197  0.75644687  0.50000000  1
  O  O44  1  0.63486197  0.87841509  0.00000000  1
  O  O45  1  0.36513803  0.24355313  0.50000000  1
  O  O46  1  0.75644687  0.63486197  0.00000000  1
  O  O47  1  0.24355313  0.87841509  0.50000000  1
  O  O48  1  0.24355313  0.36513803  -0.00000000  1
  O  O49  1  0.75644687  0.12158491  0.50000000  1
  O  O50  1  0.12158491  0.36513803  0.50000000  1
  O  O51  1  0.87841509  0.63486197  0.50000000  1
  O  O52  1  0.73045704  0.78682056  0.85998638  1
  O  O53  1  0.26954296  0.21317944  0.14001362  1
  O  O54  1  0.05636352  0.26954296  0.85998638  1
  O  O55  1  0.26954296  0.21317944  0.85998638  1
  O  O56  1  0.94363648  0.21317944  0.64001362  1
  O  O57  1  0.94363648  0.73045704  0.14001362  1
  O  O58  1  0.73045704  0.78682056  0.14001362  1
  O  O59  1  0.05636352  0.78682056  0.35998638  1
  O  O60  1  0.21317944  0.94363648  0.85998638  1
  O  O61  1  0.94363648  0.73045704  0.85998638  1
  O  O62  1  0.78682056  0.73045704  0.64001362  1
  O  O63  1  0.78682056  0.05636352  0.14001362  1
  O  O64  1  0.05636352  0.26954296  0.14001362  1
  O  O65  1  0.21317944  0.26954296  0.35998638  1
  O  O66  1  0.05636352  0.78682056  0.64001362  1
  O  O67  1  0.94363648  0.21317944  0.35998638  1
  O  O68  1  0.78682056  0.05636352  0.85998638  1
  O  O69  1  0.21317944  0.26954296  0.64001362  1
  O  O70  1  0.21317944  0.94363648  0.14001362  1
  O  O71  1  0.78682056  0.73045704  0.35998638  1
  O  O72  1  0.26954296  0.05636352  0.64001362  1
  O  O73  1  0.73045704  0.94363648  0.35998638  1
  O  O74  1  0.73045704  0.94363648  0.64001362  1
  O  O75  1  0.26954296  0.05636352  0.35998638  1
  O  O76  1  0.84437101  0.33355825  0.83540095  1
  O  O77  1  0.15562899  0.66644175  0.16459905  1
  O  O78  1  0.48918724  0.15562899  0.83540095  1
  O  O79  1  0.15562899  0.66644175  0.83540095  1
  O  O80  1  0.51081276  0.66644175  0.66459905  1
  O  O81  1  0.51081276  0.84437101  0.16459905  1
  O  O82  1  0.84437101  0.33355825  0.16459905  1
  O  O83  1  0.48918724  0.33355825  0.33540095  1
  O  O84  1  0.66644175  0.51081276  0.83540095  1
  O  O85  1  0.51081276  0.84437101  0.83540095  1
  O  O86  1  0.33355825  0.84437101  0.66459905  1
  O  O87  1  0.33355825  0.48918724  0.16459905  1
  O  O88  1  0.48918724  0.15562899  0.16459905  1
  O  O89  1  0.66644175  0.15562899  0.33540095  1
  O  O90  1  0.48918724  0.33355825  0.66459905  1
  O  O91  1  0.51081276  0.66644175  0.33540095  1
  O  O92  1  0.33355825  0.48918724  0.83540095  1
  O  O93  1  0.66644175  0.15562899  0.66459905  1
  O  O94  1  0.66644175  0.51081276  0.16459905  1
  O  O95  1  0.33355825  0.84437101  0.33540095  1
  O  O96  1  0.15562899  0.48918724  0.66459905  1
  O  O97  1  0.84437101  0.51081276  0.33540095  1
  O  O98  1  0.84437101  0.51081276  0.66459905  1
  O  O99  1  0.15562899  0.48918724  0.33540095  1
