# generated using pymatgen
data_KLiHo2(MoO4)4
_symmetry_space_group_name_H-M   'P 1'
_cell_length_a   5.26702584
_cell_length_b   6.89731533
_cell_length_c   19.63195639
_cell_angle_alpha   88.80172479
_cell_angle_beta   86.86031825
_cell_angle_gamma   67.55371645
_symmetry_Int_Tables_number   1
_chemical_formula_structural   KLiHo2(MoO4)4
_chemical_formula_sum   'K2 Li2 Ho4 Mo8 O32'
_cell_volume   658.17367863
_cell_formula_units_Z   2
loop_
 _symmetry_equiv_pos_site_id
 _symmetry_equiv_pos_as_xyz
  1  'x, y, z'
loop_
 _atom_site_type_symbol
 _atom_site_label
 _atom_site_symmetry_multiplicity
 _atom_site_fract_x
 _atom_site_fract_y
 _atom_site_fract_z
 _atom_site_occupancy
  K  K0  1  0.46893190  0.06213620  0.75000000  1
  K  K1  1  0.53106810  0.93786380  0.25000000  1
  Li  Li2  1  0.18640863  0.62718273  0.75000000  1
  Li  Li3  1  0.81359137  0.37281727  0.25000000  1
  Ho  Ho4  1  0.35222576  0.29476863  0.96738141  1
  Ho  Ho5  1  0.64777424  0.70523137  0.03261859  1
  Ho  Ho6  1  0.35300561  0.29476863  0.53261859  1
  Ho  Ho7  1  0.64699439  0.70523137  0.46738141  1
  Mo  Mo8  1  0.08162202  0.87528088  0.90868123  1
  Mo  Mo9  1  0.91837798  0.12471912  0.09131877  1
  Mo  Mo10  1  0.04309710  0.87528088  0.59131877  1
  Mo  Mo11  1  0.95690290  0.12471912  0.40868123  1
  Mo  Mo12  1  0.76852016  0.48439377  0.85245803  1
  Mo  Mo13  1  0.23147984  0.51560623  0.14754197  1
  Mo  Mo14  1  0.74708607  0.48439377  0.64754197  1
  Mo  Mo15  1  0.25291393  0.51560623  0.35245803  1
  O  O16  1  0.33485934  0.65940887  0.95804017  1
  O  O17  1  0.66514066  0.34059113  0.04195983  1
  O  O18  1  0.00573179  0.65940887  0.54195983  1
  O  O19  1  0.99426821  0.34059113  0.45804017  1
  O  O20  1  0.50990999  0.72184116  0.82687834  1
  O  O21  1  0.49009001  0.27815884  0.17312166  1
  O  O22  1  0.76824885  0.72184116  0.67312166  1
  O  O23  1  0.23175115  0.27815884  0.32687834  1
  O  O24  1  0.27931516  0.96086726  0.53694331  1
  O  O25  1  0.72068484  0.03913274  0.46305669  1
  O  O26  1  0.75981758  0.96086726  0.96305669  1
  O  O27  1  0.24018242  0.03913274  0.03694331  1
  O  O28  1  0.56161801  0.51965303  0.56626195  1
  O  O29  1  0.43838199  0.48034697  0.43373805  1
  O  O30  1  0.91872895  0.51965303  0.93373805  1
  O  O31  1  0.08127105  0.48034697  0.06626195  1
  O  O32  1  0.19984593  0.81724567  0.67044841  1
  O  O33  1  0.80015407  0.18275433  0.32955159  1
  O  O34  1  0.98290839  0.81724567  0.82955159  1
  O  O35  1  0.01709161  0.18275433  0.17044841  1
  O  O36  1  0.28002639  0.90775777  0.39885382  1
  O  O37  1  0.71997361  0.09224223  0.60114618  1
  O  O38  1  0.81221584  0.90775777  0.10114618  1
  O  O39  1  0.18778416  0.09224223  0.89885382  1
  O  O40  1  0.59868732  0.30157582  0.86846437  1
  O  O41  1  0.40131268  0.69842418  0.13153563  1
  O  O42  1  0.09973686  0.30157582  0.63153563  1
  O  O43  1  0.90026314  0.69842418  0.36846437  1
  O  O44  1  0.56508781  0.40635177  0.71376083  1
  O  O45  1  0.43491219  0.59364823  0.28623917  1
  O  O46  1  0.02856042  0.40635177  0.78623917  1
  O  O47  1  0.97143958  0.59364823  0.21376083  1
