# generated using pymatgen
data_KLiDy2(MoO4)4
_symmetry_space_group_name_H-M   'P 1'
_cell_length_a   5.27590803
_cell_length_b   6.90765335
_cell_length_c   19.64213152
_cell_angle_alpha   88.78768213
_cell_angle_beta   86.82406862
_cell_angle_gamma   67.54928073
_symmetry_Int_Tables_number   1
_chemical_formula_structural   KLiDy2(MoO4)4
_chemical_formula_sum   'K2 Li2 Dy4 Mo8 O32'
_cell_volume   660.56980107
_cell_formula_units_Z   2
loop_
 _symmetry_equiv_pos_site_id
 _symmetry_equiv_pos_as_xyz
  1  'x, y, z'
loop_
 _atom_site_type_symbol
 _atom_site_label
 _atom_site_symmetry_multiplicity
 _atom_site_fract_x
 _atom_site_fract_y
 _atom_site_fract_z
 _atom_site_occupancy
  K  K0  1  0.46900005  0.06199989  0.75000000  1
  K  K1  1  0.53099995  0.93800011  0.25000000  1
  Li  Li2  1  0.18663644  0.62672712  0.75000000  1
  Li  Li3  1  0.81336356  0.37327288  0.25000000  1
  Dy  Dy4  1  0.35200578  0.29386090  0.96776121  1
  Dy  Dy5  1  0.64799422  0.70613910  0.03223879  1
  Dy  Dy6  1  0.35413332  0.29386090  0.53223879  1
  Dy  Dy7  1  0.64586668  0.70613910  0.46776121  1
  Mo  Mo8  1  0.08156279  0.87545884  0.90847313  1
  Mo  Mo9  1  0.91843721  0.12454116  0.09152687  1
  Mo  Mo10  1  0.04297837  0.87545884  0.59152687  1
  Mo  Mo11  1  0.95702163  0.12454116  0.40847313  1
  Mo  Mo12  1  0.76804212  0.48473513  0.85218395  1
  Mo  Mo13  1  0.23195788  0.51526487  0.14781605  1
  Mo  Mo14  1  0.74722275  0.48473513  0.64781605  1
  Mo  Mo15  1  0.25277725  0.51526487  0.35218395  1
  O  O16  1  0.33358616  0.66041107  0.95791205  1
  O  O17  1  0.66641384  0.33958893  0.04208795  1
  O  O18  1  0.00600277  0.66041107  0.54208795  1
  O  O19  1  0.99399723  0.33958893  0.45791205  1
  O  O20  1  0.51020938  0.72170926  0.82689285  1
  O  O21  1  0.48979062  0.27829074  0.17310715  1
  O  O22  1  0.76808137  0.72170926  0.67310715  1
  O  O23  1  0.23191863  0.27829074  0.32689285  1
  O  O24  1  0.27888085  0.96055268  0.53701736  1
  O  O25  1  0.72111915  0.03944732  0.46298264  1
  O  O26  1  0.76056647  0.96055268  0.96298264  1
  O  O27  1  0.23943353  0.03944732  0.03701736  1
  O  O28  1  0.56256187  0.52015915  0.56647202  1
  O  O29  1  0.43743813  0.47984085  0.43352798  1
  O  O30  1  0.91727898  0.52015915  0.93352798  1
  O  O31  1  0.08272102  0.47984085  0.06647202  1
  O  O32  1  0.19977614  0.81724137  0.67044901  1
  O  O33  1  0.80022386  0.18275863  0.32955099  1
  O  O34  1  0.98298248  0.81724137  0.82955099  1
  O  O35  1  0.01701752  0.18275863  0.17044901  1
  O  O36  1  0.27895866  0.90811148  0.39874969  1
  O  O37  1  0.72104134  0.09188852  0.60125031  1
  O  O38  1  0.81292985  0.90811148  0.10125031  1
  O  O39  1  0.18707015  0.09188852  0.89874969  1
  O  O40  1  0.60005591  0.30160316  0.86807583  1
  O  O41  1  0.39994409  0.69839684  0.13192417  1
  O  O42  1  0.09834093  0.30160316  0.63192417  1
  O  O43  1  0.90165907  0.69839684  0.36807583  1
  O  O44  1  0.56514863  0.40631089  0.71372977  1
  O  O45  1  0.43485137  0.59368911  0.28627023  1
  O  O46  1  0.02854048  0.40631089  0.78627023  1
  O  O47  1  0.97145952  0.59368911  0.21372977  1
