# generated using pymatgen
data_LiEr6B3O14
_symmetry_space_group_name_H-M   'P 1'
_cell_length_a   8.35087495
_cell_length_b   8.80311968
_cell_length_c   15.48419437
_cell_angle_alpha   90.00000000
_cell_angle_beta   90.00000000
_cell_angle_gamma   91.74674420
_symmetry_Int_Tables_number   1
_chemical_formula_structural   LiEr6B3O14
_chemical_formula_sum   'Li4 Er24 B12 O56'
_cell_volume   1137.77227838
_cell_formula_units_Z   4
loop_
 _symmetry_equiv_pos_site_id
 _symmetry_equiv_pos_as_xyz
  1  'x, y, z'
loop_
 _atom_site_type_symbol
 _atom_site_label
 _atom_site_symmetry_multiplicity
 _atom_site_fract_x
 _atom_site_fract_y
 _atom_site_fract_z
 _atom_site_occupancy
  Li  Li0  1  0.68051094  0.56049503  0.39609313  1
  Li  Li1  1  0.31948906  0.43950497  0.60390687  1
  Li  Li2  1  0.81948906  0.93950497  0.89609313  1
  Li  Li3  1  0.18051094  0.06049503  0.10390687  1
  Er  Er4  1  0.14256223  0.69275024  0.17780625  1
  Er  Er5  1  0.85743777  0.30724976  0.82219375  1
  Er  Er6  1  0.35743777  0.80724976  0.67780625  1
  Er  Er7  1  0.64256223  0.19275024  0.32219375  1
  Er  Er8  1  0.96023248  0.94443928  0.67396999  1
  Er  Er9  1  0.03976752  0.05556072  0.32603001  1
  Er  Er10  1  0.53976752  0.55556072  0.17396999  1
  Er  Er11  1  0.46023248  0.44443928  0.82603001  1
  Er  Er12  1  0.72701355  0.57528990  0.64393679  1
  Er  Er13  1  0.27298645  0.42471010  0.35606321  1
  Er  Er14  1  0.77298645  0.92471010  0.14393679  1
  Er  Er15  1  0.22701355  0.07528990  0.85606321  1
  Er  Er16  1  0.05197835  0.71759476  0.48680419  1
  Er  Er17  1  0.94802165  0.28240524  0.51319581  1
  Er  Er18  1  0.44802165  0.78240524  0.98680419  1
  Er  Er19  1  0.55197835  0.21759476  0.01319581  1
  Er  Er20  1  0.69966786  0.93877668  0.49609671  1
  Er  Er21  1  0.30033214  0.06122332  0.50390329  1
  Er  Er22  1  0.80033214  0.56122332  0.99609671  1
  Er  Er23  1  0.19966786  0.43877668  0.00390329  1
  Er  Er24  1  0.42187014  0.83435469  0.33411791  1
  Er  Er25  1  0.57812986  0.16564531  0.66588209  1
  Er  Er26  1  0.07812986  0.66564531  0.83411791  1
  Er  Er27  1  0.92187014  0.33435469  0.16588209  1
  B  B28  1  0.42884199  0.97270914  0.17300067  1
  B  B29  1  0.57115801  0.02729086  0.82699933  1
  B  B30  1  0.07115801  0.52729086  0.67300067  1
  B  B31  1  0.92884199  0.47270914  0.32699933  1
  B  B32  1  0.06409960  0.85470423  0.00054402  1
  B  B33  1  0.93590040  0.14529577  0.99945598  1
  B  B34  1  0.43590040  0.64529577  0.50054402  1
  B  B35  1  0.56409960  0.35470423  0.49945598  1
  B  B36  1  0.82029750  0.77851680  0.30699290  1
  B  B37  1  0.17970250  0.22148320  0.69300710  1
  B  B38  1  0.67970250  0.72148320  0.80699290  1
  B  B39  1  0.32029750  0.27851680  0.19300710  1
  O  O40  1  0.94049925  0.82274099  0.24832182  1
  O  O41  1  0.05950075  0.17725901  0.75167818  1
  O  O42  1  0.55950075  0.67725901  0.74832182  1
  O  O43  1  0.44049925  0.32274099  0.25167818  1
  O  O44  1  0.71100205  0.40680851  0.53357640  1
  O  O45  1  0.28899795  0.59319149  0.46642360  1
  O  O46  1  0.78899795  0.09319149  0.03357640  1
  O  O47  1  0.21100205  0.90680851  0.96642360  1
  O  O48  1  0.84395809  0.77894275  0.57934090  1
  O  O49  1  0.15604191  0.22105725  0.42065910  1
  O  O50  1  0.65604191  0.72105725  0.07934090  1
  O  O51  1  0.34395809  0.27894275  0.92065910  1
  O  O52  1  0.02804676  0.88174027  0.08611948  1
  O  O53  1  0.97195324  0.11825973  0.91388052  1
  O  O54  1  0.47195324  0.61825973  0.58611948  1
  O  O55  1  0.52804676  0.38174027  0.41388052  1
  O  O56  1  0.46619839  0.99099342  0.08689725  1
  O  O57  1  0.53380161  0.00900658  0.91310275  1
  O  O58  1  0.03380161  0.50900658  0.58689725  1
  O  O59  1  0.96619839  0.49099342  0.41310275  1
  O  O60  1  0.28174159  0.92282433  0.20490309  1
  O  O61  1  0.71825841  0.07717567  0.79509691  1
  O  O62  1  0.21825841  0.57717567  0.70490309  1
  O  O63  1  0.78174159  0.42282433  0.29509691  1
  O  O64  1  0.45641475  0.27752850  0.55179588  1
  O  O65  1  0.54358525  0.72247150  0.44820412  1
  O  O66  1  0.04358525  0.22247150  0.05179588  1
  O  O67  1  0.95641475  0.77752850  0.94820412  1
  O  O68  1  0.19254422  0.89463154  0.40177211  1
  O  O69  1  0.80745578  0.10536846  0.59822789  1
  O  O70  1  0.30745578  0.60536846  0.90177211  1
  O  O71  1  0.69254422  0.39463154  0.09822789  1
  O  O72  1  0.00880398  0.53588190  0.08962444  1
  O  O73  1  0.99119602  0.46411810  0.91037556  1
  O  O74  1  0.49119602  0.96411810  0.58962444  1
  O  O75  1  0.50880398  0.03588190  0.41037556  1
  O  O76  1  0.16237742  0.87582280  0.58545113  1
  O  O77  1  0.83762258  0.12417720  0.41454887  1
  O  O78  1  0.33762258  0.62417720  0.08545113  1
  O  O79  1  0.66237742  0.37582280  0.91454887  1
  O  O80  1  0.15404905  0.87763159  0.76835008  1
  O  O81  1  0.84595095  0.12236841  0.23164992  1
  O  O82  1  0.34595095  0.62236841  0.26835008  1
  O  O83  1  0.65404905  0.37763159  0.73164992  1
  O  O84  1  0.82650547  0.77216231  0.77462423  1
  O  O85  1  0.17349453  0.22783769  0.22537577  1
  O  O86  1  0.67349453  0.72783769  0.27462423  1
  O  O87  1  0.32650547  0.27216231  0.72537577  1
  O  O88  1  0.85162628  0.79951373  0.39399347  1
  O  O89  1  0.14837372  0.20048627  0.60600653  1
  O  O90  1  0.64837372  0.70048627  0.89399347  1
  O  O91  1  0.35162628  0.29951373  0.10600653  1
  O  O92  1  0.55055887  0.99683180  0.23284693  1
  O  O93  1  0.44944113  0.00316820  0.76715307  1
  O  O94  1  0.94944113  0.50316820  0.73284693  1
  O  O95  1  0.05055887  0.49683180  0.26715307  1
