# generated using pymatgen
data_KLa2Ag3Te8
_symmetry_space_group_name_H-M   'P 1'
_cell_length_a   4.44652362
_cell_length_b   4.45651842
_cell_length_c   21.71439097
_cell_angle_alpha   90.00000000
_cell_angle_beta   89.98338148
_cell_angle_gamma   90.00000000
_symmetry_Int_Tables_number   1
_chemical_formula_structural   KLa2Ag3Te8
_chemical_formula_sum   'K1 La2 Ag3 Te8'
_cell_volume   430.29266670
_cell_formula_units_Z   1
loop_
 _symmetry_equiv_pos_site_id
 _symmetry_equiv_pos_as_xyz
  1  'x, y, z'
loop_
 _atom_site_type_symbol
 _atom_site_label
 _atom_site_symmetry_multiplicity
 _atom_site_fract_x
 _atom_site_fract_y
 _atom_site_fract_z
 _atom_site_occupancy
  K  K0  1  0.50187963  0.50000000  0.74054631  1
  La  La1  1  0.50022373  0.50000000  0.20021692  1
  La  La2  1  0.00030128  0.00000000  0.00175529  1
  Ag  Ag3  1  0.49961452  0.00000000  0.57859969  1
  Ag  Ag4  1  -0.00002906  0.50000000  0.57870201  1
  Ag  Ag5  1  0.99980431  -0.00000000  0.48651018  1
  Te  Te6  1  0.00076193  0.00000000  0.66270577  1
  Te  Te7  1  0.99965732  0.50000000  0.32014877  1
  Te  Te8  1  0.00033681  0.50000000  0.88272518  1
  Te  Te9  1  0.49946045  0.00000000  0.31976799  1
  Te  Te10  1  0.50031361  0.50000000  0.04429987  1
  Te  Te11  1  0.00024015  -0.00000000  0.15745353  1
  Te  Te12  1  0.50028947  -0.00000000  0.88248647  1
  Te  Te13  1  0.50164587  0.50000000  0.48350203  1
