# generated using pymatgen
data_K4Sn20Hg3
_symmetry_space_group_name_H-M   'P 1'
_cell_length_a   12.46168352
_cell_length_b   12.46168352
_cell_length_c   12.46168352
_cell_angle_alpha   90.00000000
_cell_angle_beta   90.00000000
_cell_angle_gamma   90.00000000
_symmetry_Int_Tables_number   1
_chemical_formula_structural   K4Sn20Hg3
_chemical_formula_sum   'K8 Sn40 Hg6'
_cell_volume   1935.21914947
_cell_formula_units_Z   2
loop_
 _symmetry_equiv_pos_site_id
 _symmetry_equiv_pos_as_xyz
  1  'x, y, z'
loop_
 _atom_site_type_symbol
 _atom_site_label
 _atom_site_symmetry_multiplicity
 _atom_site_fract_x
 _atom_site_fract_y
 _atom_site_fract_z
 _atom_site_occupancy
  K  K0  1  -0.00000000  -0.00000000  -0.00000000  1
  K  K1  1  0.50000000  0.50000000  0.50000000  1
  K  K2  1  0.25000000  -0.00000000  0.50000000  1
  K  K3  1  0.75000000  -0.00000000  0.50000000  1
  K  K4  1  0.50000000  0.25000000  -0.00000000  1
  K  K5  1  0.50000000  0.75000000  -0.00000000  1
  K  K6  1  -0.00000000  0.50000000  0.25000000  1
  K  K7  1  -0.00000000  0.50000000  0.75000000  1
  Sn  Sn8  1  0.18260374  0.18260374  0.18260374  1
  Sn  Sn9  1  0.81739626  0.81739626  0.81739626  1
  Sn  Sn10  1  0.81739626  0.81739626  0.18260374  1
  Sn  Sn11  1  0.81739626  0.18260374  0.81739626  1
  Sn  Sn12  1  0.68260374  0.68260374  0.31739626  1
  Sn  Sn13  1  0.18260374  0.18260374  0.81739626  1
  Sn  Sn14  1  0.18260374  0.81739626  0.18260374  1
  Sn  Sn15  1  0.31739626  0.31739626  0.68260374  1
  Sn  Sn16  1  0.18260374  0.81739626  0.81739626  1
  Sn  Sn17  1  0.31739626  0.31739626  0.31739626  1
  Sn  Sn18  1  0.81739626  0.18260374  0.18260374  1
  Sn  Sn19  1  0.68260374  0.68260374  0.68260374  1
  Sn  Sn20  1  0.68260374  0.31739626  0.68260374  1
  Sn  Sn21  1  0.31739626  0.68260374  0.31739626  1
  Sn  Sn22  1  0.31739626  0.68260374  0.68260374  1
  Sn  Sn23  1  0.68260374  0.31739626  0.31739626  1
  Sn  Sn24  1  -0.00000000  0.11691948  0.30999646  1
  Sn  Sn25  1  -0.00000000  0.88308052  0.69000354  1
  Sn  Sn26  1  -0.00000000  0.88308052  0.30999646  1
  Sn  Sn27  1  -0.00000000  0.11691948  0.69000354  1
  Sn  Sn28  1  0.30999646  -0.00000000  0.11691948  1
  Sn  Sn29  1  0.61691948  0.50000000  0.19000354  1
  Sn  Sn30  1  0.69000354  -0.00000000  0.88308052  1
  Sn  Sn31  1  0.38308052  0.50000000  0.80999646  1
  Sn  Sn32  1  0.30999646  0.00000000  0.88308052  1
  Sn  Sn33  1  0.38308052  0.50000000  0.19000354  1
  Sn  Sn34  1  0.69000354  -0.00000000  0.11691948  1
  Sn  Sn35  1  0.61691948  0.50000000  0.80999646  1
  Sn  Sn36  1  0.11691948  0.30999646  -0.00000000  1
  Sn  Sn37  1  0.50000000  0.80999646  0.38308052  1
  Sn  Sn38  1  0.88308052  0.69000354  -0.00000000  1
  Sn  Sn39  1  0.50000000  0.19000354  0.61691948  1
  Sn  Sn40  1  0.11691948  0.69000354  -0.00000000  1
  Sn  Sn41  1  0.50000000  0.19000354  0.38308052  1
  Sn  Sn42  1  0.88308052  0.30999646  -0.00000000  1
  Sn  Sn43  1  0.50000000  0.80999646  0.61691948  1
  Sn  Sn44  1  0.19000354  0.61691948  0.50000000  1
  Sn  Sn45  1  0.80999646  0.38308052  0.50000000  1
  Sn  Sn46  1  0.19000354  0.38308052  0.50000000  1
  Sn  Sn47  1  0.80999646  0.61691948  0.50000000  1
  Hg  Hg48  1  0.25000000  0.50000000  -0.00000000  1
  Hg  Hg49  1  0.75000000  0.50000000  -0.00000000  1
  Hg  Hg50  1  -0.00000000  0.25000000  0.50000000  1
  Hg  Hg51  1  -0.00000000  0.75000000  0.50000000  1
  Hg  Hg52  1  0.50000000  -0.00000000  0.25000000  1
  Hg  Hg53  1  0.50000000  -0.00000000  0.75000000  1
