# generated using pymatgen
data_LaMn3Cr4O12
_symmetry_space_group_name_H-M   'P 1'
_cell_length_a   6.52457146
_cell_length_b   6.52457146
_cell_length_c   6.52457146
_cell_angle_alpha   109.47122063
_cell_angle_beta   109.47122063
_cell_angle_gamma   109.47122063
_symmetry_Int_Tables_number   1
_chemical_formula_structural   LaMn3Cr4O12
_chemical_formula_sum   'La1 Mn3 Cr4 O12'
_cell_volume   213.81298955
_cell_formula_units_Z   1
loop_
 _symmetry_equiv_pos_site_id
 _symmetry_equiv_pos_as_xyz
  1  'x, y, z'
loop_
 _atom_site_type_symbol
 _atom_site_label
 _atom_site_symmetry_multiplicity
 _atom_site_fract_x
 _atom_site_fract_y
 _atom_site_fract_z
 _atom_site_occupancy
  La  La0  1  0.00000000  0.00000000  0.00000000  1
  Mn  Mn1  1  0.50000000  0.50000000  0.00000000  1
  Mn  Mn2  1  0.50000000  0.00000000  0.50000000  1
  Mn  Mn3  1  0.00000000  0.50000000  0.50000000  1
  Cr  Cr4  1  0.50000000  0.50000000  0.50000000  1
  Cr  Cr5  1  0.50000000  0.00000000  0.00000000  1
  Cr  Cr6  1  0.00000000  0.50000000  0.00000000  1
  Cr  Cr7  1  0.00000000  0.00000000  0.50000000  1
  O  O8  1  0.82453692  0.69052362  0.51506054  1
  O  O9  1  0.17546308  0.30947638  0.48493946  1
  O  O10  1  0.17546308  0.69052362  0.86598669  1
  O  O11  1  0.82453692  0.30947638  0.13401331  1
  O  O12  1  0.69052362  0.51506054  0.82453692  1
  O  O13  1  0.30947638  0.48493946  0.17546308  1
  O  O14  1  0.69052362  0.86598669  0.17546308  1
  O  O15  1  0.30947638  0.13401331  0.82453692  1
  O  O16  1  0.51506054  0.82453692  0.69052362  1
  O  O17  1  0.48493946  0.17546308  0.30947638  1
  O  O18  1  0.13401331  0.82453692  0.30947638  1
  O  O19  1  0.86598669  0.17546308  0.69052362  1
