# generated using pymatgen
data_K2Na2NdF7
_symmetry_space_group_name_H-M   'P 1'
_cell_length_a   11.17436297
_cell_length_b   11.17436297
_cell_length_c   11.17436297
_cell_angle_alpha   109.47122063
_cell_angle_beta   109.47122063
_cell_angle_gamma   109.47122063
_symmetry_Int_Tables_number   1
_chemical_formula_structural   K2Na2NdF7
_chemical_formula_sum   'K12 Na12 Nd6 F42'
_cell_volume   1074.10424265
_cell_formula_units_Z   6
loop_
 _symmetry_equiv_pos_site_id
 _symmetry_equiv_pos_as_xyz
  1  'x, y, z'
loop_
 _atom_site_type_symbol
 _atom_site_label
 _atom_site_symmetry_multiplicity
 _atom_site_fract_x
 _atom_site_fract_y
 _atom_site_fract_z
 _atom_site_occupancy
  K  K0  1  0.69308402  0.69308402  0.38616803  1
  K  K1  1  0.30691598  0.30691598  0.61383197  1
  K  K2  1  0.30691598  0.69308402  -0.00000000  1
  K  K3  1  0.69308402  0.30691598  0.00000000  1
  K  K4  1  0.69308402  0.38616803  0.69308402  1
  K  K5  1  0.69308402  -0.00000000  0.30691598  1
  K  K6  1  0.30691598  0.61383197  0.30691598  1
  K  K7  1  0.30691598  -0.00000000  0.69308402  1
  K  K8  1  0.38616803  0.69308402  0.69308402  1
  K  K9  1  0.61383197  0.30691598  0.30691598  1
  K  K10  1  -0.00000000  0.69308402  0.30691598  1
  K  K11  1  0.00000000  0.30691598  0.69308402  1
  Na  Na12  1  0.76071798  0.76071798  0.76071798  1
  Na  Na13  1  0.23928202  0.23928202  0.23928202  1
  Na  Na14  1  0.23928202  -0.00000000  -0.00000000  1
  Na  Na15  1  0.00000000  0.23928202  0.00000000  1
  Na  Na16  1  0.76071798  0.00000000  -0.00000000  1
  Na  Na17  1  -0.00000000  0.76071798  -0.00000000  1
  Na  Na18  1  -0.00000000  -0.00000000  0.23928202  1
  Na  Na19  1  0.00000000  0.00000000  0.76071798  1
  Na  Na20  1  0.50000000  0.50000000  0.50000000  1
  Na  Na21  1  0.50000000  0.00000000  -0.00000000  1
  Na  Na22  1  0.00000000  0.50000000  -0.00000000  1
  Na  Na23  1  0.00000000  0.00000000  0.50000000  1
  Nd  Nd24  1  0.63472438  0.63472438  0.00000000  1
  Nd  Nd25  1  0.36527562  0.36527562  -0.00000000  1
  Nd  Nd26  1  0.63472438  0.00000000  0.63472438  1
  Nd  Nd27  1  0.36527562  -0.00000000  0.36527562  1
  Nd  Nd28  1  0.00000000  0.63472438  0.63472438  1
  Nd  Nd29  1  -0.00000000  0.36527562  0.36527562  1
  F  F30  1  0.74747545  0.57150235  0.57150235  1
  F  F31  1  0.25252455  0.42849765  0.42849765  1
  F  F32  1  0.25252455  0.82402690  0.82402690  1
  F  F33  1  -0.00000000  0.42849765  0.17597310  1
  F  F34  1  0.57150235  0.57150235  0.74747545  1
  F  F35  1  0.74747545  0.17597310  0.17597310  1
  F  F36  1  0.00000000  0.57150235  0.82402690  1
  F  F37  1  0.42849765  0.42849765  0.25252455  1
  F  F38  1  0.00000000  0.17597310  0.42849765  1
  F  F39  1  0.82402690  0.82402690  0.25252455  1
  F  F40  1  0.00000000  0.82402690  0.57150235  1
  F  F41  1  0.17597310  0.17597310  0.74747545  1
  F  F42  1  0.42849765  0.17597310  -0.00000000  1
  F  F43  1  0.57150235  0.82402690  0.00000000  1
  F  F44  1  0.17597310  0.42849765  -0.00000000  1
  F  F45  1  0.82402690  0.57150235  -0.00000000  1
  F  F46  1  0.57150235  0.74747545  0.57150235  1
  F  F47  1  0.57150235  0.00000000  0.82402690  1
  F  F48  1  0.42849765  0.25252455  0.42849765  1
  F  F49  1  0.42849765  0.00000000  0.17597310  1
  F  F50  1  0.17597310  0.00000000  0.42849765  1
  F  F51  1  0.82402690  0.00000000  0.57150235  1
  F  F52  1  0.17597310  0.74747545  0.17597310  1
  F  F53  1  0.82402690  0.25252455  0.82402690  1
  F  F54  1  0.86267577  0.36267577  0.50000000  1
  F  F55  1  0.13732423  0.63732423  0.50000000  1
  F  F56  1  0.36267577  0.50000000  0.86267577  1
  F  F57  1  0.86267577  0.50000000  0.36267577  1
  F  F58  1  0.63732423  0.50000000  0.13732423  1
  F  F59  1  0.13732423  0.50000000  0.63732423  1
  F  F60  1  0.50000000  0.86267577  0.36267577  1
  F  F61  1  0.36267577  0.86267577  0.50000000  1
  F  F62  1  0.50000000  0.13732423  0.63732423  1
  F  F63  1  0.63732423  0.13732423  0.50000000  1
  F  F64  1  0.50000000  0.36267577  0.86267577  1
  F  F65  1  0.50000000  0.63732423  0.13732423  1
  F  F66  1  0.82377888  0.82377888  0.00000000  1
  F  F67  1  0.17622112  0.17622112  -0.00000000  1
  F  F68  1  0.82377888  0.00000000  0.82377888  1
  F  F69  1  0.17622112  -0.00000000  0.17622112  1
  F  F70  1  0.00000000  0.82377888  0.82377888  1
  F  F71  1  -0.00000000  0.17622112  0.17622112  1
