# generated using pymatgen
data_K2PrNb5O15
_symmetry_space_group_name_H-M   'P 1'
_cell_length_a   3.96860520
_cell_length_b   12.79386404
_cell_length_c   12.79386404
_cell_angle_alpha   90.00000000
_cell_angle_beta   90.00000000
_cell_angle_gamma   90.00000000
_symmetry_Int_Tables_number   1
_chemical_formula_structural   K2PrNb5O15
_chemical_formula_sum   'K4 Pr2 Nb10 O30'
_cell_volume   649.59303460
_cell_formula_units_Z   2
loop_
 _symmetry_equiv_pos_site_id
 _symmetry_equiv_pos_as_xyz
  1  'x, y, z'
loop_
 _atom_site_type_symbol
 _atom_site_label
 _atom_site_symmetry_multiplicity
 _atom_site_fract_x
 _atom_site_fract_y
 _atom_site_fract_z
 _atom_site_occupancy
  K  K0  1  0.50000000  0.17014293  0.67014293  1
  K  K1  1  0.50000000  0.82985707  0.32985707  1
  K  K2  1  0.50000000  0.32985707  0.17014293  1
  K  K3  1  0.50000000  0.67014293  0.82985707  1
  Pr  Pr4  1  0.50000000  -0.00000000  0.00000000  1
  Pr  Pr5  1  0.50000000  0.50000000  0.50000000  1
  Nb  Nb6  1  0.00000000  -0.00000000  0.50000000  1
  Nb  Nb7  1  0.00000000  0.50000000  0.00000000  1
  Nb  Nb8  1  -0.00000000  0.07666731  0.21345335  1
  Nb  Nb9  1  0.00000000  0.92333269  0.78654665  1
  Nb  Nb10  1  -0.00000000  0.78654665  0.07666731  1
  Nb  Nb11  1  0.00000000  0.42333269  0.71345335  1
  Nb  Nb12  1  0.00000000  0.21345335  0.92333269  1
  Nb  Nb13  1  -0.00000000  0.57666731  0.28654665  1
  Nb  Nb14  1  0.00000000  0.71345335  0.57666731  1
  Nb  Nb15  1  -0.00000000  0.28654665  0.42333269  1
  O  O16  1  0.50000000  0.07959513  0.19127846  1
  O  O17  1  0.50000000  0.92040487  0.80872154  1
  O  O18  1  0.50000000  0.80872154  0.07959513  1
  O  O19  1  0.50000000  0.42040487  0.69127846  1
  O  O20  1  0.50000000  0.19127846  0.92040487  1
  O  O21  1  0.50000000  0.57959513  0.30872154  1
  O  O22  1  0.50000000  0.69127846  0.57959513  1
  O  O23  1  0.50000000  0.30872154  0.42040487  1
  O  O24  1  0.00000000  0.71756201  0.21756201  1
  O  O25  1  -0.00000000  0.28243799  0.78243799  1
  O  O26  1  -0.00000000  0.78243799  0.71756201  1
  O  O27  1  0.00000000  0.21756201  0.28243799  1
  O  O28  1  0.50000000  -0.00000000  0.50000000  1
  O  O29  1  0.50000000  0.50000000  0.00000000  1
  O  O30  1  -0.00000000  0.13221070  0.05874289  1
  O  O31  1  0.00000000  0.86778930  0.94125711  1
  O  O32  1  -0.00000000  0.94125711  0.13221070  1
  O  O33  1  0.00000000  0.36778930  0.55874289  1
  O  O34  1  0.00000000  0.05874289  0.86778930  1
  O  O35  1  -0.00000000  0.63221070  0.44125711  1
  O  O36  1  0.00000000  0.55874289  0.63221070  1
  O  O37  1  -0.00000000  0.44125711  0.36778930  1
  O  O38  1  -0.00000000  0.99949658  0.34271918  1
  O  O39  1  0.00000000  0.00050342  0.65728082  1
  O  O40  1  -0.00000000  0.65728082  0.99949658  1
  O  O41  1  0.00000000  0.50050342  0.84271918  1
  O  O42  1  0.00000000  0.34271918  0.00050342  1
  O  O43  1  -0.00000000  0.49949658  0.15728082  1
  O  O44  1  0.00000000  0.84271918  0.49949658  1
  O  O45  1  -0.00000000  0.15728082  0.50050342  1
