# generated using pymatgen
data_K2Fe2(PO4)3
_symmetry_space_group_name_H-M   'P 1'
_cell_length_a   10.03759948
_cell_length_b   10.03759948
_cell_length_c   10.03759948
_cell_angle_alpha   90.00000000
_cell_angle_beta   90.00000000
_cell_angle_gamma   90.00000000
_symmetry_Int_Tables_number   1
_chemical_formula_structural   K2Fe2(PO4)3
_chemical_formula_sum   'K8 Fe8 P12 O48'
_cell_volume   1011.32230878
_cell_formula_units_Z   4
loop_
 _symmetry_equiv_pos_site_id
 _symmetry_equiv_pos_as_xyz
  1  'x, y, z'
loop_
 _atom_site_type_symbol
 _atom_site_label
 _atom_site_symmetry_multiplicity
 _atom_site_fract_x
 _atom_site_fract_y
 _atom_site_fract_z
 _atom_site_occupancy
  K  K0  1  0.04310384  0.04310384  0.04310384  1
  K  K1  1  0.45689616  0.95689616  0.54310384  1
  K  K2  1  0.95689616  0.54310384  0.45689616  1
  K  K3  1  0.54310384  0.45689616  0.95689616  1
  K  K4  1  0.81716670  0.81716670  0.81716670  1
  K  K5  1  0.68283330  0.18283330  0.31716670  1
  K  K6  1  0.18283330  0.31716670  0.68283330  1
  K  K7  1  0.31716670  0.68283330  0.18283330  1
  Fe  Fe8  1  0.33590935  0.33590935  0.33590935  1
  Fe  Fe9  1  0.16409065  0.66409065  0.83590935  1
  Fe  Fe10  1  0.66409065  0.83590935  0.16409065  1
  Fe  Fe11  1  0.83590935  0.16409065  0.66409065  1
  Fe  Fe12  1  0.60342365  0.60342365  0.60342365  1
  Fe  Fe13  1  0.89657635  0.39657635  0.10342365  1
  Fe  Fe14  1  0.39657635  0.10342365  0.89657635  1
  Fe  Fe15  1  0.10342365  0.89657635  0.39657635  1
  P  P16  1  0.02086081  0.21087867  0.37577064  1
  P  P17  1  0.47913919  0.78912133  0.87577064  1
  P  P18  1  0.97913919  0.71087867  0.12422936  1
  P  P19  1  0.37577064  0.02086081  0.21087867  1
  P  P20  1  0.52086081  0.28912133  0.62422936  1
  P  P21  1  0.87577064  0.47913919  0.78912133  1
  P  P22  1  0.12422936  0.97913919  0.71087867  1
  P  P23  1  0.62422936  0.52086081  0.28912133  1
  P  P24  1  0.21087867  0.37577064  0.02086081  1
  P  P25  1  0.71087867  0.12422936  0.97913919  1
  P  P26  1  0.28912133  0.62422936  0.52086081  1
  P  P27  1  0.78912133  0.87577064  0.47913919  1
  O  O28  1  0.01277429  0.06389965  0.32784870  1
  O  O29  1  0.48722571  0.93610035  0.82784870  1
  O  O30  1  0.98722571  0.56389965  0.17215130  1
  O  O31  1  0.32784870  0.01277429  0.06389965  1
  O  O32  1  0.51277429  0.43610035  0.67215130  1
  O  O33  1  0.82784870  0.48722571  0.93610035  1
  O  O34  1  0.17215130  0.98722571  0.56389965  1
  O  O35  1  0.67215130  0.51277429  0.43610035  1
  O  O36  1  0.06389965  0.32784870  0.01277429  1
  O  O37  1  0.56389965  0.17215130  0.98722571  1
  O  O38  1  0.43610035  0.67215130  0.51277429  1
  O  O39  1  0.93610035  0.82784870  0.48722571  1
  O  O40  1  0.16723986  0.25037636  0.40069016  1
  O  O41  1  0.33276014  0.74962364  0.90069016  1
  O  O42  1  0.83276014  0.75037636  0.09930984  1
  O  O43  1  0.40069016  0.16723986  0.25037636  1
  O  O44  1  0.66723986  0.24962364  0.59930984  1
  O  O45  1  0.90069016  0.33276014  0.74962364  1
  O  O46  1  0.09930984  0.83276014  0.75037636  1
  O  O47  1  0.59930984  0.66723986  0.24962364  1
  O  O48  1  0.25037636  0.40069016  0.16723986  1
  O  O49  1  0.75037636  0.09930984  0.83276014  1
  O  O50  1  0.24962364  0.59930984  0.66723986  1
  O  O51  1  0.74962364  0.90069016  0.33276014  1
  O  O52  1  0.04680568  0.80197612  0.22778256  1
  O  O53  1  0.45319432  0.19802388  0.72778256  1
  O  O54  1  0.95319432  0.30197612  0.27221744  1
  O  O55  1  0.22778256  0.04680568  0.80197612  1
  O  O56  1  0.54680568  0.69802388  0.77221744  1
  O  O57  1  0.72778256  0.45319432  0.19802388  1
  O  O58  1  0.27221744  0.95319432  0.30197612  1
  O  O59  1  0.77221744  0.54680568  0.69802388  1
  O  O60  1  0.80197612  0.22778256  0.04680568  1
  O  O61  1  0.30197612  0.27221744  0.95319432  1
  O  O62  1  0.69802388  0.77221744  0.54680568  1
  O  O63  1  0.19802388  0.72778256  0.45319432  1
  O  O64  1  0.26811326  0.49247834  0.44355448  1
  O  O65  1  0.23188674  0.50752166  0.94355448  1
  O  O66  1  0.73188674  0.99247834  0.05644552  1
  O  O67  1  0.44355448  0.26811326  0.49247834  1
  O  O68  1  0.76811326  0.00752166  0.55644552  1
  O  O69  1  0.94355448  0.23188674  0.50752166  1
  O  O70  1  0.05644552  0.73188674  0.99247834  1
  O  O71  1  0.55644552  0.76811326  0.00752166  1
  O  O72  1  0.49247834  0.44355448  0.26811326  1
  O  O73  1  0.99247834  0.05644552  0.73188674  1
  O  O74  1  0.00752166  0.55644552  0.76811326  1
  O  O75  1  0.50752166  0.94355448  0.23188674  1
