# generated using pymatgen
data_H9C2N5Cl2
_symmetry_space_group_name_H-M   'P 1'
_cell_length_a   6.60999331
_cell_length_b   7.02973282
_cell_length_c   17.15365931
_cell_angle_alpha   90.00000000
_cell_angle_beta   90.00000000
_cell_angle_gamma   101.79152034
_symmetry_Int_Tables_number   1
_chemical_formula_structural   H9C2N5Cl2
_chemical_formula_sum   'H36 C8 N20 Cl8'
_cell_volume   780.25022444
_cell_formula_units_Z   4
loop_
 _symmetry_equiv_pos_site_id
 _symmetry_equiv_pos_as_xyz
  1  'x, y, z'
loop_
 _atom_site_type_symbol
 _atom_site_label
 _atom_site_symmetry_multiplicity
 _atom_site_fract_x
 _atom_site_fract_y
 _atom_site_fract_z
 _atom_site_occupancy
  H  H0  1  0.55116682  0.64091874  0.78619902  1
  H  H1  1  0.44883318  0.35908126  0.21380098  1
  H  H2  1  0.44883318  0.85908126  0.28619902  1
  H  H3  1  0.55116682  0.14091874  0.71380098  1
  H  H4  1  0.47583317  0.69070673  0.50833997  1
  H  H5  1  0.52416683  0.30929327  0.49166003  1
  H  H6  1  0.52416683  0.80929327  0.00833997  1
  H  H7  1  0.47583317  0.19070673  0.99166003  1
  H  H8  1  0.78582327  0.76087988  0.69966749  1
  H  H9  1  0.21417673  0.23912012  0.30033251  1
  H  H10  1  0.21417673  0.73912012  0.19966749  1
  H  H11  1  0.78582327  0.26087988  0.80033251  1
  H  H12  1  0.70850286  0.94606570  0.94603233  1
  H  H13  1  0.29149714  0.05393430  0.05396767  1
  H  H14  1  0.29149714  0.55393430  0.44603233  1
  H  H15  1  0.70850286  0.44606570  0.55396767  1
  H  H16  1  0.97342419  0.76245500  0.92877357  1
  H  H17  1  0.02657581  0.23754500  0.07122643  1
  H  H18  1  0.02657581  0.73754500  0.42877357  1
  H  H19  1  0.97342419  0.26245500  0.57122643  1
  H  H20  1  0.95276859  0.69258554  0.22439104  1
  H  H21  1  0.04723141  0.30741446  0.77560896  1
  H  H22  1  0.04723141  0.80741446  0.72439104  1
  H  H23  1  0.95276859  0.19258554  0.27560896  1
  H  H24  1  0.72545325  0.93771911  0.45734379  1
  H  H25  1  0.27454675  0.06228089  0.54265621  1
  H  H26  1  0.27454675  0.56228089  0.95734379  1
  H  H27  1  0.72545325  0.43771911  0.04265621  1
  H  H28  1  0.86491122  0.60963362  0.35652507  1
  H  H29  1  0.13508878  0.39036638  0.64347493  1
  H  H30  1  0.13508878  0.89036638  0.85652507  1
  H  H31  1  0.86491122  0.10963362  0.14347493  1
  H  H32  1  0.34762117  0.92564569  0.62230477  1
  H  H33  1  0.65237883  0.07435431  0.37769523  1
  H  H34  1  0.65237883  0.57435431  0.12230477  1
  H  H35  1  0.34762117  0.42564569  0.87769523  1
  C  C36  1  0.54550915  0.68180804  0.90422487  1
  C  C37  1  0.45449085  0.31819196  0.09577513  1
  C  C38  1  0.45449085  0.81819196  0.40422487  1
  C  C39  1  0.54550915  0.18180804  0.59577513  1
  C  C40  1  0.85103145  0.75993714  0.81728148  1
  C  C41  1  0.14896855  0.24006286  0.18271852  1
  C  C42  1  0.14896855  0.74006286  0.31728148  1
  C  C43  1  0.85103145  0.25993714  0.68271852  1
  N  N44  1  0.64901393  0.67992022  0.83443471  1
  N  N45  1  0.35098607  0.32007978  0.16556529  1
  N  N46  1  0.35098607  0.82007978  0.33443471  1
  N  N47  1  0.64901393  0.17992022  0.66556529  1
  N  N48  1  0.61072836  0.81465612  0.95847642  1
  N  N49  1  0.38927164  0.18534388  0.04152358  1
  N  N50  1  0.38927164  0.68534388  0.45847642  1
  N  N51  1  0.61072836  0.31465612  0.54152358  1
  N  N52  1  0.62437229  0.95397862  0.41307614  1
  N  N53  1  0.37562771  0.04602138  0.58692386  1
  N  N54  1  0.37562771  0.54602138  0.91307614  1
  N  N55  1  0.62437229  0.45397862  0.08692386  1
  N  N56  1  0.89699672  0.78968892  0.74184007  1
  N  N57  1  0.10300328  0.21031108  0.25815993  1
  N  N58  1  0.10300328  0.71031108  0.24184007  1
  N  N59  1  0.89699672  0.28968892  0.75815993  1
  N  N60  1  0.99523255  0.80237185  0.87139151  1
  N  N61  1  0.00476745  0.19762815  0.12860849  1
  N  N62  1  0.00476745  0.69762815  0.37139151  1
  N  N63  1  0.99523255  0.30237185  0.62860849  1
  Cl  Cl64  1  0.36599816  0.63173073  0.69077061  1
  Cl  Cl65  1  0.63400184  0.36826927  0.30922939  1
  Cl  Cl66  1  0.63400184  0.86826927  0.19077061  1
  Cl  Cl67  1  0.36599816  0.13173073  0.80922939  1
  Cl  Cl68  1  0.84007434  0.75665111  0.54575032  1
  Cl  Cl69  1  0.15992566  0.24334889  0.45424968  1
  Cl  Cl70  1  0.15992566  0.74334889  0.04575032  1
  Cl  Cl71  1  0.84007434  0.25665111  0.95424968  1
