# generated using pymatgen
data_Eu6Ni20P13
_symmetry_space_group_name_H-M   'P 1'
_cell_length_a   3.79455502
_cell_length_b   12.79208741
_cell_length_c   12.79208741
_cell_angle_alpha   119.99999771
_cell_angle_beta   90.00000000
_cell_angle_gamma   90.00000000
_symmetry_Int_Tables_number   1
_chemical_formula_structural   Eu6Ni20P13
_chemical_formula_sum   'Eu6 Ni20 P13'
_cell_volume   537.74246370
_cell_formula_units_Z   1
loop_
 _symmetry_equiv_pos_site_id
 _symmetry_equiv_pos_as_xyz
  1  'x, y, z'
loop_
 _atom_site_type_symbol
 _atom_site_label
 _atom_site_symmetry_multiplicity
 _atom_site_fract_x
 _atom_site_fract_y
 _atom_site_fract_z
 _atom_site_occupancy
  Eu  Eu0  1  0.00000000  0.53115152  0.81184274  1
  Eu  Eu1  1  0.00000000  0.28069122  0.46884848  1
  Eu  Eu2  1  -0.00000000  0.18815726  0.71930878  1
  Eu  Eu3  1  0.50000000  0.81248110  0.28086910  1
  Eu  Eu4  1  0.50000000  0.46838800  0.18751890  1
  Eu  Eu5  1  0.50000000  0.71913090  0.53161200  1
  Ni  Ni6  1  0.00000000  0.80797814  0.91059653  1
  Ni  Ni7  1  0.00000000  0.10261839  0.19202186  1
  Ni  Ni8  1  0.00000000  0.08940347  0.89738161  1
  Ni  Ni9  1  0.50000000  0.33333300  0.66666700  1
  Ni  Ni10  1  0.50000000  0.92682095  0.08267244  1
  Ni  Ni11  1  0.50000000  0.15585149  0.07317905  1
  Ni  Ni12  1  0.50000000  0.91732756  0.84414851  1
  Ni  Ni13  1  -0.00000000  0.66666700  0.33333300  1
  Ni  Ni14  1  0.00000000  0.56115391  0.58386100  1
  Ni  Ni15  1  -0.00000000  0.02270709  0.43884609  1
  Ni  Ni16  1  0.00000000  0.41613900  0.97729291  1
  Ni  Ni17  1  0.50000000  0.68641599  0.75369240  1
  Ni  Ni18  1  0.50000000  0.06727641  0.31358401  1
  Ni  Ni19  1  0.50000000  0.24630760  0.93272359  1
  Ni  Ni20  1  0.50000000  0.97658870  0.56472396  1
  Ni  Ni21  1  0.50000000  0.58813527  0.02341130  1
  Ni  Ni22  1  0.50000000  0.43527604  0.41186473  1
  Ni  Ni23  1  0.00000000  0.75886596  0.07409345  1
  Ni  Ni24  1  0.00000000  0.31522749  0.24113404  1
  Ni  Ni25  1  -0.00000000  0.92590655  0.68477251  1
  P  P26  1  0.50000000  0.48141136  0.61254622  1
  P  P27  1  0.50000000  0.13113486  0.51858864  1
  P  P28  1  0.50000000  0.38745378  0.86886514  1
  P  P29  1  0.50000000  0.72565975  0.95637673  1
  P  P30  1  0.50000000  0.23071698  0.27434025  1
  P  P31  1  0.50000000  0.04362327  0.76928302  1
  P  P32  1  -0.00000000  0.86723048  0.48267878  1
  P  P33  1  -0.00000000  0.61544830  0.13276952  1
  P  P34  1  -0.00000000  0.51732122  0.38455170  1
  P  P35  1  -0.00000000  0.95461727  0.23314935  1
  P  P36  1  -0.00000000  0.27853208  0.04538273  1
  P  P37  1  -0.00000000  0.76685065  0.72146792  1
  P  P38  1  -0.00000000  -0.00000000  0.00000000  1
