# generated using pymatgen
data_EuIn6Ni7
_symmetry_space_group_name_H-M   'P 1'
_cell_length_a   8.12418205
_cell_length_b   8.80844370
_cell_length_c   8.80555197
_cell_angle_alpha   63.96838227
_cell_angle_beta   62.55787662
_cell_angle_gamma   62.53201802
_symmetry_Int_Tables_number   1
_chemical_formula_structural   EuIn6Ni7
_chemical_formula_sum   'Eu2 In12 Ni14'
_cell_volume   475.25749844
_cell_formula_units_Z   2
loop_
 _symmetry_equiv_pos_site_id
 _symmetry_equiv_pos_as_xyz
  1  'x, y, z'
loop_
 _atom_site_type_symbol
 _atom_site_label
 _atom_site_symmetry_multiplicity
 _atom_site_fract_x
 _atom_site_fract_y
 _atom_site_fract_z
 _atom_site_occupancy
  Eu  Eu0  1  0.25005895  0.24991957  0.24995037  1
  Eu  Eu1  1  0.74993010  0.75007870  0.75005696  1
  In  In2  1  0.67535223  0.95520717  0.04477706  1
  In  In3  1  0.32466893  0.04474534  0.95527275  1
  In  In4  1  0.82455546  0.45523897  0.54475457  1
  In  In5  1  0.17545793  0.54478807  0.45520142  1
  In  In6  1  0.46196229  0.17005984  0.55322268  1
  In  In7  1  0.53804918  0.82993736  0.44676191  1
  In  In8  1  0.81474417  0.55326244  0.16989974  1
  In  In9  1  0.03808235  0.94679469  0.32985538  1
  In  In10  1  0.18528609  0.44677814  0.83008552  1
  In  In11  1  0.96196113  0.05314078  0.67014179  1
  In  In12  1  0.68525969  0.33002715  0.94681577  1
  In  In13  1  0.31471686  0.66999494  0.05319786  1
  Ni  Ni14  1  0.92604959  0.74054793  0.25946506  1
  Ni  Ni15  1  0.07393163  0.25944006  0.74059427  1
  Ni  Ni16  1  0.57408240  0.24068326  0.75931170  1
  Ni  Ni17  1  0.42593868  0.75931560  0.24065648  1
  Ni  Ni18  1  0.70741138  0.08265580  0.26077172  1
  Ni  Ni19  1  0.29255162  0.91733226  0.73926370  1
  Ni  Ni20  1  0.94918665  0.26072290  0.08267043  1
  Ni  Ni21  1  0.79243237  0.23932863  0.41717362  1
  Ni  Ni22  1  0.05080436  0.73922826  0.91737087  1
  Ni  Ni23  1  0.20758599  0.76072737  0.58276112  1
  Ni  Ni24  1  0.55103639  0.41724100  0.23927484  1
  Ni  Ni25  1  0.44894729  0.58281209  0.76067950  1
  Ni  Ni26  1  0.99998276  0.99998662  0.00000817  1
  Ni  Ni27  1  0.49997354  0.50000505  0.50000475  1
