# generated using pymatgen
data_Dy2Cu(SiO3)4
_symmetry_space_group_name_H-M   'P 1'
_cell_length_a   4.82384601
_cell_length_b   7.11895608
_cell_length_c   7.84845432
_cell_angle_alpha   65.46145930
_cell_angle_beta   86.44607029
_cell_angle_gamma   77.01111059
_symmetry_Int_Tables_number   1
_chemical_formula_structural   Dy2Cu(SiO3)4
_chemical_formula_sum   'Dy2 Cu1 Si4 O12'
_cell_volume   238.75638657
_cell_formula_units_Z   1
loop_
 _symmetry_equiv_pos_site_id
 _symmetry_equiv_pos_as_xyz
  1  'x, y, z'
loop_
 _atom_site_type_symbol
 _atom_site_label
 _atom_site_symmetry_multiplicity
 _atom_site_fract_x
 _atom_site_fract_y
 _atom_site_fract_z
 _atom_site_occupancy
  Dy  Dy0  1  0.03716813  0.77212366  0.44979326  1
  Dy  Dy1  1  0.96283187  0.22787634  0.55020674  1
  Cu  Cu2  1  -0.00000000  0.00000000  -0.00000000  1
  Si  Si3  1  0.57460833  0.61023038  0.20349947  1
  Si  Si4  1  0.42539167  0.38976962  0.79650053  1
  Si  Si5  1  0.45467886  0.17890664  0.21354335  1
  Si  Si6  1  0.54532114  0.82109336  0.78645665  1
  O  O7  1  0.26418261  0.76409535  0.19548758  1
  O  O8  1  0.73581739  0.23590465  0.80451242  1
  O  O9  1  0.28868751  0.30003546  0.00533128  1
  O  O10  1  0.71131249  0.69996454  0.99466872  1
  O  O11  1  0.22024593  0.42313605  0.62515261  1
  O  O12  1  0.77975407  0.57686395  0.37484739  1
  O  O13  1  0.25706811  0.98857345  0.79476949  1
  O  O14  1  0.74293189  0.01142655  0.20523051  1
  O  O15  1  0.55626406  0.35908652  0.26464661  1
  O  O16  1  0.44373594  0.64091348  0.73535339  1
  O  O17  1  0.23495189  0.07439669  0.37282179  1
  O  O18  1  0.76504811  0.92560331  0.62717821  1
