# generated using pymatgen
data_KCaV2F9
_symmetry_space_group_name_H-M   'P 1'
_cell_length_a   7.56575748
_cell_length_b   7.56575748
_cell_length_c   23.89680093
_cell_angle_alpha   90.00000000
_cell_angle_beta   90.00000000
_cell_angle_gamma   119.51727315
_symmetry_Int_Tables_number   1
_chemical_formula_structural   KCaV2F9
_chemical_formula_sum   'K6 Ca6 V12 F54'
_cell_volume   1190.32970396
_cell_formula_units_Z   6
loop_
 _symmetry_equiv_pos_site_id
 _symmetry_equiv_pos_as_xyz
  1  'x, y, z'
loop_
 _atom_site_type_symbol
 _atom_site_label
 _atom_site_symmetry_multiplicity
 _atom_site_fract_x
 _atom_site_fract_y
 _atom_site_fract_z
 _atom_site_occupancy
  K  K0  1  0.48890016  0.51109984  0.75000000  1
  K  K1  1  0.51109984  0.48890016  0.25000000  1
  K  K2  1  0.50516632  0.46230381  0.91613767  1
  K  K3  1  0.49483368  0.53769619  0.41613767  1
  K  K4  1  0.53769619  0.49483368  0.58386233  1
  K  K5  1  0.46230381  0.50516632  0.08386233  1
  Ca  Ca6  1  0.98321075  0.98321075  -0.00000000  1
  Ca  Ca7  1  0.01678925  0.01678925  0.50000000  1
  Ca  Ca8  1  0.51490802  0.99951462  0.66680954  1
  Ca  Ca9  1  0.48509198  0.00048538  0.16680954  1
  Ca  Ca10  1  0.00048538  0.48509198  0.83319046  1
  Ca  Ca11  1  0.99951462  0.51490802  0.33319046  1
  V  V12  1  0.48170272  0.98095146  0.99806587  1
  V  V13  1  0.51829728  0.01904854  0.49806587  1
  V  V14  1  0.01904854  0.51829728  0.50193413  1
  V  V15  1  0.98095146  0.48170272  0.00193413  1
  V  V16  1  0.50229791  0.98709484  0.83506451  1
  V  V17  1  0.49770209  0.01290516  0.33506451  1
  V  V18  1  0.01290516  0.49770209  0.66493549  1
  V  V19  1  0.98709484  0.50229791  0.16493549  1
  V  V20  1  0.99769079  0.01270894  0.33149239  1
  V  V21  1  0.00230921  0.98729106  0.83149239  1
  V  V22  1  0.98729106  0.00230921  0.16850761  1
  V  V23  1  0.01270894  0.99769079  0.66850761  1
  F  F24  1  0.62107835  0.82461897  0.98379857  1
  F  F25  1  0.37892165  0.17538103  0.48379857  1
  F  F26  1  0.17538103  0.37892165  0.51620143  1
  F  F27  1  0.82461897  0.62107835  0.01620143  1
  F  F28  1  0.63585354  0.27902174  0.81987999  1
  F  F29  1  0.36414646  0.72097826  0.31987999  1
  F  F30  1  0.72097826  0.36414646  0.68012001  1
  F  F31  1  0.27902174  0.63585354  0.18012001  1
  F  F32  1  0.77565748  0.03553407  0.85135369  1
  F  F33  1  0.22434252  0.96446593  0.35135369  1
  F  F34  1  0.96446593  0.22434252  0.64864631  1
  F  F35  1  0.03553407  0.77565748  0.14864631  1
  F  F36  1  0.52380628  0.92440736  0.75661039  1
  F  F37  1  0.47619372  0.07559264  0.25661039  1
  F  F38  1  0.07559264  0.47619372  0.74338961  1
  F  F39  1  0.92440736  0.52380628  0.24338961  1
  F  F40  1  0.02925823  0.95837456  0.91045397  1
  F  F41  1  0.97074177  0.04162544  0.41045397  1
  F  F42  1  0.04162544  0.97074177  0.58954603  1
  F  F43  1  0.95837456  0.02925823  0.08954603  1
  F  F44  1  0.20818696  0.75290724  0.98284397  1
  F  F45  1  0.79181304  0.24709276  0.48284397  1
  F  F46  1  0.24709276  0.79181304  0.51715603  1
  F  F47  1  0.75290724  0.20818696  0.01715603  1
  F  F48  1  0.97469093  0.02530907  0.75000000  1
  F  F49  1  0.02530907  0.97469093  0.25000000  1
  F  F50  1  0.54087505  0.09401125  0.57694524  1
  F  F51  1  0.45912495  0.90598875  0.07694524  1
  F  F52  1  0.90598875  0.45912495  0.92305476  1
  F  F53  1  0.09401125  0.54087505  0.42305476  1
  F  F54  1  0.71738582  0.82905948  0.66269020  1
  F  F55  1  0.28261418  0.17094052  0.16269020  1
  F  F56  1  0.17094052  0.28261418  0.83730980  1
  F  F57  1  0.82905948  0.71738582  0.33730980  1
  F  F58  1  0.65248357  0.85826270  0.51146938  1
  F  F59  1  0.34751643  0.14173730  0.01146938  1
  F  F60  1  0.14173730  0.34751643  0.98853062  1
  F  F61  1  0.85826270  0.65248357  0.48853062  1
  F  F62  1  0.30758937  0.16410061  0.67620508  1
  F  F63  1  0.69241063  0.83589939  0.17620508  1
  F  F64  1  0.83589939  0.69241063  0.82379492  1
  F  F65  1  0.16410061  0.30758937  0.32379492  1
  F  F66  1  0.23223309  0.94190412  0.81474728  1
  F  F67  1  0.76776691  0.05809588  0.31474728  1
  F  F68  1  0.05809588  0.76776691  0.68525272  1
  F  F69  1  0.94190412  0.23223309  0.18525272  1
  F  F70  1  0.36261388  0.69448489  0.85164177  1
  F  F71  1  0.63738612  0.30551511  0.35164177  1
  F  F72  1  0.30551511  0.63738612  0.64835823  1
  F  F73  1  0.69448489  0.36261388  0.14835823  1
  F  F74  1  0.49371735  0.05612308  0.91669056  1
  F  F75  1  0.50628265  0.94387692  0.41669056  1
  F  F76  1  0.94387692  0.50628265  0.58330944  1
  F  F77  1  0.05612308  0.49371735  0.08330944  1
