# generated using pymatgen
data_EuICl
_symmetry_space_group_name_H-M   'P 1'
_cell_length_a   4.39578680
_cell_length_b   8.40391440
_cell_length_c   10.67812122
_cell_angle_alpha   90.00000000
_cell_angle_beta   90.00000000
_cell_angle_gamma   90.00000000
_symmetry_Int_Tables_number   1
_chemical_formula_structural   EuICl
_chemical_formula_sum   'Eu4 I4 Cl4'
_cell_volume   394.46918921
_cell_formula_units_Z   4
loop_
 _symmetry_equiv_pos_site_id
 _symmetry_equiv_pos_as_xyz
  1  'x, y, z'
loop_
 _atom_site_type_symbol
 _atom_site_label
 _atom_site_symmetry_multiplicity
 _atom_site_fract_x
 _atom_site_fract_y
 _atom_site_fract_z
 _atom_site_occupancy
  Eu  Eu0  1  0.75000000  0.82374056  0.86723284  1
  Eu  Eu1  1  0.25000000  0.17625944  0.13276716  1
  Eu  Eu2  1  0.25000000  0.67625944  0.36723284  1
  Eu  Eu3  1  0.75000000  0.32374056  0.63276716  1
  I  I4  1  0.75000000  0.98821716  0.32030289  1
  I  I5  1  0.25000000  0.01178284  0.67969711  1
  I  I6  1  0.25000000  0.51178284  0.82030289  1
  I  I7  1  0.75000000  0.48821716  0.17969711  1
  Cl  Cl8  1  0.75000000  0.65527963  0.54472429  1
  Cl  Cl9  1  0.25000000  0.34472037  0.45527571  1
  Cl  Cl10  1  0.25000000  0.84472037  0.04472429  1
  Cl  Cl11  1  0.75000000  0.15527963  0.95527571  1
