# generated using pymatgen
data_Ga2Hg5Se8
_symmetry_space_group_name_H-M   'P 1'
_cell_length_a   8.46967700
_cell_length_b   8.46967700
_cell_length_c   8.46967700
_cell_angle_alpha   91.66605876
_cell_angle_beta   119.04280765
_cell_angle_gamma   119.04280765
_symmetry_Int_Tables_number   1
_chemical_formula_structural   Ga2Hg5Se8
_chemical_formula_sum   'Ga2 Hg5 Se8'
_cell_volume   435.63748372
_cell_formula_units_Z   1
loop_
 _symmetry_equiv_pos_site_id
 _symmetry_equiv_pos_as_xyz
  1  'x, y, z'
loop_
 _atom_site_type_symbol
 _atom_site_label
 _atom_site_symmetry_multiplicity
 _atom_site_fract_x
 _atom_site_fract_y
 _atom_site_fract_z
 _atom_site_occupancy
  Ga  Ga0  1  -0.00000000  0.23749978  0.23749978  1
  Ga  Ga1  1  0.00000000  0.76250022  0.76250022  1
  Hg  Hg2  1  0.50000000  0.75000000  0.25000000  1
  Hg  Hg3  1  0.53003908  0.76501954  0.76501954  1
  Hg  Hg4  1  0.46996092  0.23498046  0.23498046  1
  Hg  Hg5  1  -0.00000000  0.23498046  0.76501954  1
  Hg  Hg6  1  -0.00000000  0.76501954  0.23498046  1
  Se  Se7  1  0.74494272  0.14705252  0.89199524  1
  Se  Se8  1  0.25505728  0.14705252  0.40210980  1
  Se  Se9  1  0.25505728  0.10800476  0.85294748  1
  Se  Se10  1  0.74494272  0.59789020  0.85294748  1
  Se  Se11  1  0.76957936  0.63138950  0.40096886  1
  Se  Se12  1  0.23042064  0.63138950  0.86181014  1
  Se  Se13  1  0.23042064  0.59903114  0.36861050  1
  Se  Se14  1  0.76957936  0.13818986  0.36861050  1
