# generated using pymatgen
data_Er2Sn3(PbS4)3
_symmetry_space_group_name_H-M   'P 1'
_cell_length_a   3.94472501
_cell_length_b   11.63060466
_cell_length_c   20.34515753
_cell_angle_alpha   90.00000000
_cell_angle_beta   90.00000000
_cell_angle_gamma   90.00000000
_symmetry_Int_Tables_number   1
_chemical_formula_structural   Er2Sn3(PbS4)3
_chemical_formula_sum   'Er4 Sn6 Pb6 S24'
_cell_volume   933.42640937
_cell_formula_units_Z   2
loop_
 _symmetry_equiv_pos_site_id
 _symmetry_equiv_pos_as_xyz
  1  'x, y, z'
loop_
 _atom_site_type_symbol
 _atom_site_label
 _atom_site_symmetry_multiplicity
 _atom_site_fract_x
 _atom_site_fract_y
 _atom_site_fract_z
 _atom_site_occupancy
  Er  Er0  1  0.50000000  0.64975428  0.41175823  1
  Er  Er1  1  0.50000000  0.14975428  0.58824177  1
  Er  Er2  1  0.50000000  0.82494599  0.89508736  1
  Er  Er3  1  0.50000000  0.32494599  0.10491264  1
  Sn  Sn4  1  0.00000000  0.00085797  0.75055460  1
  Sn  Sn5  1  0.00000000  0.50085797  0.24944540  1
  Sn  Sn6  1  0.00000000  0.51899273  0.91194391  1
  Sn  Sn7  1  0.00000000  0.01899273  0.08805609  1
  Sn  Sn8  1  0.00000000  0.99372599  0.42459634  1
  Sn  Sn9  1  0.00000000  0.49372599  0.57540366  1
  Pb  Pb10  1  0.50000000  0.40376965  0.74219432  1
  Pb  Pb11  1  0.50000000  0.90376965  0.25780568  1
  Pb  Pb12  1  0.50000000  0.19720018  0.91400995  1
  Pb  Pb13  1  0.50000000  0.69720018  0.08599005  1
  Pb  Pb14  1  0.50000000  0.77087510  0.62237791  1
  Pb  Pb15  1  0.50000000  0.27087510  0.37762209  1
  S  S16  1  -0.00000000  0.98918808  0.87640997  1
  S  S17  1  -0.00000000  0.48918808  0.12359003  1
  S  S18  1  -0.00000000  0.98746240  0.62589454  1
  S  S19  1  -0.00000000  0.48746240  0.37410546  1
  S  S20  1  -0.00000000  0.68285897  0.50940136  1
  S  S21  1  -0.00000000  0.18285897  0.49059864  1
  S  S22  1  0.50000000  0.64579553  0.25766693  1
  S  S23  1  0.50000000  0.14579553  0.74233307  1
  S  S24  1  0.50000000  0.84921017  0.75789170  1
  S  S25  1  0.50000000  0.34921017  0.24210830  1
  S  S26  1  0.50000000  0.60167592  0.84158064  1
  S  S27  1  0.50000000  0.10167592  0.15841936  1
  S  S28  1  0.50000000  0.43986948  0.98381352  1
  S  S29  1  0.50000000  0.93986948  0.01618648  1
  S  S30  1  0.50000000  0.93614348  0.49047415  1
  S  S31  1  0.50000000  0.43614348  0.50952585  1
  S  S32  1  -0.00000000  0.33653607  0.84267035  1
  S  S33  1  -0.00000000  0.83653607  0.15732965  1
  S  S34  1  -0.00000000  0.71523476  0.96847504  1
  S  S35  1  -0.00000000  0.21523476  0.03152496  1
  S  S36  1  -0.00000000  0.80306247  0.35927857  1
  S  S37  1  -0.00000000  0.30306247  0.64072143  1
  S  S38  1  -0.00000000  0.60214078  0.67861353  1
  S  S39  1  -0.00000000  0.10214078  0.32138647  1
