# generated using pymatgen
data_As2Pd5
_symmetry_space_group_name_H-M   'P 1'
_cell_length_a   7.47109136
_cell_length_b   7.47109136
_cell_length_c   13.67579039
_cell_angle_alpha   90.00000000
_cell_angle_beta   90.00000000
_cell_angle_gamma   119.99999696
_symmetry_Int_Tables_number   1
_chemical_formula_structural   As2Pd5
_chemical_formula_sum   'As12 Pd30'
_cell_volume   661.07567137
_cell_formula_units_Z   6
loop_
 _symmetry_equiv_pos_site_id
 _symmetry_equiv_pos_as_xyz
  1  'x, y, z'
loop_
 _atom_site_type_symbol
 _atom_site_label
 _atom_site_symmetry_multiplicity
 _atom_site_fract_x
 _atom_site_fract_y
 _atom_site_fract_z
 _atom_site_occupancy
  As  As0  1  0.66666700  0.33333300  0.55106981  1
  As  As1  1  0.33333300  0.66666700  0.05106981  1
  As  As2  1  0.66666700  0.33333300  0.05106981  1
  As  As3  1  0.33333300  0.66666700  0.55106981  1
  As  As4  1  0.67078511  0.67078511  0.78302335  1
  As  As5  1  0.00000000  0.32921489  0.78302335  1
  As  As6  1  0.32921489  0.32921489  0.28302335  1
  As  As7  1  1.00000000  0.67078511  0.28302335  1
  As  As8  1  0.32921489  0.00000000  0.78302335  1
  As  As9  1  0.67078511  1.00000000  0.28302335  1
  As  As10  1  -0.00000000  0.00000000  0.01111782  1
  As  As11  1  -0.00000000  0.00000000  0.51111782  1
  Pd  Pd12  1  0.66666700  0.33333300  0.84680795  1
  Pd  Pd13  1  0.33333300  0.66666700  0.34680795  1
  Pd  Pd14  1  0.66666700  0.33333300  0.34680795  1
  Pd  Pd15  1  0.33333300  0.66666700  0.84680795  1
  Pd  Pd16  1  0.70130977  0.70130977  0.58707137  1
  Pd  Pd17  1  0.00000000  0.29869023  0.58707137  1
  Pd  Pd18  1  0.29869023  0.29869023  0.08707137  1
  Pd  Pd19  1  1.00000000  0.70130977  0.08707137  1
  Pd  Pd20  1  0.29869023  0.00000000  0.58707137  1
  Pd  Pd21  1  0.70130977  1.00000000  0.08707137  1
  Pd  Pd22  1  0.75399828  0.75399828  0.37948875  1
  Pd  Pd23  1  0.00000000  0.24600172  0.37948875  1
  Pd  Pd24  1  0.24600172  0.24600172  0.87948875  1
  Pd  Pd25  1  1.00000000  0.75399828  0.87948875  1
  Pd  Pd26  1  0.24600172  0.00000000  0.37948875  1
  Pd  Pd27  1  0.75399828  1.00000000  0.87948875  1
  Pd  Pd28  1  0.38511107  0.38511107  0.69241924  1
  Pd  Pd29  1  0.00000000  0.61488893  0.69241924  1
  Pd  Pd30  1  0.61488893  0.61488893  0.19241924  1
  Pd  Pd31  1  1.00000000  0.38511107  0.19241924  1
  Pd  Pd32  1  0.61488893  0.00000000  0.69241924  1
  Pd  Pd33  1  0.38511107  1.00000000  0.19241924  1
  Pd  Pd34  1  -0.00000000  0.00000000  0.71430243  1
  Pd  Pd35  1  -0.00000000  0.00000000  0.21430243  1
  Pd  Pd36  1  0.61556823  0.61556823  0.97860536  1
  Pd  Pd37  1  1.00000000  0.38443177  0.97860536  1
  Pd  Pd38  1  0.38443177  0.38443177  0.47860536  1
  Pd  Pd39  1  0.00000000  0.61556823  0.47860536  1
  Pd  Pd40  1  0.38443177  1.00000000  0.97860536  1
  Pd  Pd41  1  0.61556823  0.00000000  0.47860536  1
