# generated using pymatgen
data_Ce3In4Ge
_symmetry_space_group_name_H-M   'P 1'
_cell_length_a   8.25080517
_cell_length_b   8.25080517
_cell_length_c   8.25080517
_cell_angle_alpha   91.12757753
_cell_angle_beta   119.35114216
_cell_angle_gamma   119.35114216
_symmetry_Int_Tables_number   1
_chemical_formula_structural   Ce3In4Ge
_chemical_formula_sum   'Ce6 In8 Ge2'
_cell_volume   400.97893622
_cell_formula_units_Z   2
loop_
 _symmetry_equiv_pos_site_id
 _symmetry_equiv_pos_as_xyz
  1  'x, y, z'
loop_
 _atom_site_type_symbol
 _atom_site_label
 _atom_site_symmetry_multiplicity
 _atom_site_fract_x
 _atom_site_fract_y
 _atom_site_fract_z
 _atom_site_occupancy
  Ce  Ce0  1  0.17352949  0.33676474  0.83676474  1
  Ce  Ce1  1  0.82647051  0.66323526  0.16323526  1
  Ce  Ce2  1  0.50000000  0.16323526  0.33676474  1
  Ce  Ce3  1  0.50000000  0.83676474  0.66323526  1
  Ce  Ce4  1  -0.00000000  0.75000000  0.75000000  1
  Ce  Ce5  1  -0.00000000  0.25000000  0.25000000  1
  In  In6  1  0.21142493  0.67398961  0.17398961  1
  In  In7  1  0.78857507  0.32601039  0.82601039  1
  In  In8  1  0.78857507  0.96256468  0.46256468  1
  In  In9  1  0.50000000  0.46256468  0.67398961  1
  In  In10  1  0.50000000  0.82601039  0.03743532  1
  In  In11  1  0.21142493  0.03743532  0.53743532  1
  In  In12  1  0.50000000  0.53743532  0.32601039  1
  In  In13  1  0.50000000  0.17398961  0.96256468  1
  Ge  Ge14  1  -0.00000000  -0.00000000  -0.00000000  1
  Ge  Ge15  1  -0.00000000  0.50000000  0.50000000  1
