# generated using pymatgen
data_Ba2TbV3O11
_symmetry_space_group_name_H-M   'P 1'
_cell_length_a   7.79788251
_cell_length_b   12.42463513
_cell_length_c   11.33972565
_cell_angle_alpha   103.30301370
_cell_angle_beta   90.00000000
_cell_angle_gamma   90.00000000
_symmetry_Int_Tables_number   1
_chemical_formula_structural   Ba2TbV3O11
_chemical_formula_sum   'Ba8 Tb4 V12 O44'
_cell_volume   1069.17833551
_cell_formula_units_Z   4
loop_
 _symmetry_equiv_pos_site_id
 _symmetry_equiv_pos_as_xyz
  1  'x, y, z'
loop_
 _atom_site_type_symbol
 _atom_site_label
 _atom_site_symmetry_multiplicity
 _atom_site_fract_x
 _atom_site_fract_y
 _atom_site_fract_z
 _atom_site_occupancy
  Ba  Ba0  1  0.27494199  0.77046833  0.94228712  1
  Ba  Ba1  1  0.72505801  0.22953167  0.05771288  1
  Ba  Ba2  1  0.77494199  0.22953167  0.55771288  1
  Ba  Ba3  1  0.22505801  0.77046833  0.44228712  1
  Ba  Ba4  1  0.74773298  0.55441207  0.88938040  1
  Ba  Ba5  1  0.25226702  0.44558793  0.11061960  1
  Ba  Ba6  1  0.24773298  0.44558793  0.61061960  1
  Ba  Ba7  1  0.75226702  0.55441207  0.38938040  1
  Tb  Tb8  1  0.50172103  0.99746036  0.71409747  1
  Tb  Tb9  1  0.49827897  0.00253964  0.28590253  1
  Tb  Tb10  1  0.00172103  0.00253964  0.78590253  1
  Tb  Tb11  1  0.99827897  0.99746036  0.21409747  1
  V  V12  1  0.75532599  0.90650408  0.97666543  1
  V  V13  1  0.24467401  0.09349592  0.02333457  1
  V  V14  1  0.25532599  0.09349592  0.52333457  1
  V  V15  1  0.74467401  0.90650408  0.47666543  1
  V  V16  1  0.51967941  0.68436866  0.67326765  1
  V  V17  1  0.48032059  0.31563134  0.32673235  1
  V  V18  1  0.01967941  0.31563134  0.82673235  1
  V  V19  1  0.98032059  0.68436866  0.17326765  1
  V  V20  1  0.98074115  0.68831562  0.67135888  1
  V  V21  1  0.01925885  0.31168438  0.32864112  1
  V  V22  1  0.48074115  0.31168438  0.82864112  1
  V  V23  1  0.51925885  0.68831562  0.17135888  1
  O  O24  1  0.44564954  0.81957361  0.71702755  1
  O  O25  1  0.55435046  0.18042639  0.28297245  1
  O  O26  1  0.94564954  0.18042639  0.78297245  1
  O  O27  1  0.05435046  0.81957361  0.21702755  1
  O  O28  1  0.54973070  0.17553950  0.80509604  1
  O  O29  1  0.45026930  0.82446050  0.19490396  1
  O  O30  1  0.04973070  0.82446050  0.69490396  1
  O  O31  1  0.95026930  0.17553950  0.30509604  1
  O  O32  1  0.75044922  0.66511304  0.66690080  1
  O  O33  1  0.24955078  0.33488696  0.33309920  1
  O  O34  1  0.25044922  0.33488696  0.83309920  1
  O  O35  1  0.74955078  0.66511304  0.16690080  1
  O  O36  1  0.94415910  0.37570633  0.96697240  1
  O  O37  1  0.05584090  0.62429367  0.03302760  1
  O  O38  1  0.44415910  0.62429367  0.53302760  1
  O  O39  1  0.55584090  0.37570633  0.46697240  1
  O  O40  1  0.93957329  0.39091120  0.73098592  1
  O  O41  1  0.06042671  0.60908880  0.26901408  1
  O  O42  1  0.43957329  0.60908880  0.76901408  1
  O  O43  1  0.56042671  0.39091120  0.23098592  1
  O  O44  1  0.78311099  0.98717293  0.62622996  1
  O  O45  1  0.21688901  0.01282707  0.37377004  1
  O  O46  1  0.28311099  0.01282707  0.87377004  1
  O  O47  1  0.71688901  0.98717293  0.12622996  1
  O  O48  1  0.97441850  0.88435572  0.97506110  1
  O  O49  1  0.02558150  0.11564428  0.02493890  1
  O  O50  1  0.47441850  0.11564428  0.52493890  1
  O  O51  1  0.52558150  0.88435572  0.47506110  1
  O  O52  1  0.64315978  0.78687240  0.94671243  1
  O  O53  1  0.35684022  0.21312760  0.05328757  1
  O  O54  1  0.14315978  0.21312760  0.55328757  1
  O  O55  1  0.85684022  0.78687240  0.44671243  1
  O  O56  1  0.71999272  0.98361232  0.86395964  1
  O  O57  1  0.28000728  0.01638768  0.13604036  1
  O  O58  1  0.21999272  0.01638768  0.63604036  1
  O  O59  1  0.78000728  0.98361232  0.36395964  1
  O  O60  1  0.55863595  0.37025546  0.71851058  1
  O  O61  1  0.44136405  0.62974454  0.28148942  1
  O  O62  1  0.05863595  0.62974454  0.78148942  1
  O  O63  1  0.94136405  0.37025546  0.21851058  1
  O  O64  1  0.56375735  0.38633185  0.96143030  1
  O  O65  1  0.43624265  0.61366815  0.03856970  1
  O  O66  1  0.06375735  0.61366815  0.53856970  1
  O  O67  1  0.93624265  0.38633185  0.46143030  1
