# generated using pymatgen
data_BaEu2CuO5
_symmetry_space_group_name_H-M   'P 1'
_cell_length_a   5.80514258
_cell_length_b   12.47098841
_cell_length_c   7.48189973
_cell_angle_alpha   90.00000000
_cell_angle_beta   90.00000000
_cell_angle_gamma   90.00000000
_symmetry_Int_Tables_number   1
_chemical_formula_structural   BaEu2CuO5
_chemical_formula_sum   'Ba4 Eu8 Cu4 O20'
_cell_volume   541.65860903
_cell_formula_units_Z   4
loop_
 _symmetry_equiv_pos_site_id
 _symmetry_equiv_pos_as_xyz
  1  'x, y, z'
loop_
 _atom_site_type_symbol
 _atom_site_label
 _atom_site_symmetry_multiplicity
 _atom_site_fract_x
 _atom_site_fract_y
 _atom_site_fract_z
 _atom_site_occupancy
  Ba  Ba0  1  0.75000000  0.59494294  0.93110370  1
  Ba  Ba1  1  0.25000000  0.40505706  0.06889630  1
  Ba  Ba2  1  0.25000000  0.90505706  0.43110370  1
  Ba  Ba3  1  0.75000000  0.09494294  0.56889630  1
  Eu  Eu4  1  0.75000000  0.42695295  0.39076088  1
  Eu  Eu5  1  0.25000000  0.57304705  0.60923912  1
  Eu  Eu6  1  0.25000000  0.07304705  0.89076088  1
  Eu  Eu7  1  0.75000000  0.92695295  0.10923912  1
  Eu  Eu8  1  0.75000000  0.71382532  0.38598544  1
  Eu  Eu9  1  0.25000000  0.28617468  0.61401456  1
  Eu  Eu10  1  0.25000000  0.78617468  0.88598544  1
  Eu  Eu11  1  0.75000000  0.21382532  0.11401456  1
  Cu  Cu12  1  0.75000000  0.83904057  0.71887398  1
  Cu  Cu13  1  0.25000000  0.16095943  0.28112602  1
  Cu  Cu14  1  0.25000000  0.66095943  0.21887398  1
  Cu  Cu15  1  0.75000000  0.33904057  0.78112602  1
  O  O16  1  0.98676065  0.73272625  0.64950803  1
  O  O17  1  0.01323935  0.26727375  0.35049197  1
  O  O18  1  0.01323935  0.76727375  0.14950803  1
  O  O19  1  0.48676065  0.26727375  0.35049197  1
  O  O20  1  0.98676065  0.23272625  0.85049197  1
  O  O21  1  0.51323935  0.73272625  0.64950803  1
  O  O22  1  0.51323935  0.23272625  0.85049197  1
  O  O23  1  0.48676065  0.76727375  0.14950803  1
  O  O24  1  0.75000000  0.90276380  0.42187507  1
  O  O25  1  0.25000000  0.09723620  0.57812493  1
  O  O26  1  0.25000000  0.59723620  0.92187507  1
  O  O27  1  0.75000000  0.40276380  0.07812493  1
  O  O28  1  0.98176127  0.93139898  0.82610302  1
  O  O29  1  0.01823873  0.06860102  0.17389698  1
  O  O30  1  0.01823873  0.56860102  0.32610302  1
  O  O31  1  0.48176127  0.06860102  0.17389698  1
  O  O32  1  0.98176127  0.43139898  0.67389698  1
  O  O33  1  0.51823873  0.93139898  0.82610302  1
  O  O34  1  0.51823873  0.43139898  0.67389698  1
  O  O35  1  0.48176127  0.56860102  0.32610302  1
