# generated using pymatgen
data_Cs2NaUBr6
_symmetry_space_group_name_H-M   'P 1'
_cell_length_a   11.68716381
_cell_length_b   11.68716381
_cell_length_c   11.68716381
_cell_angle_alpha   90.00000000
_cell_angle_beta   90.00000000
_cell_angle_gamma   90.00000000
_symmetry_Int_Tables_number   1
_chemical_formula_structural   Cs2NaUBr6
_chemical_formula_sum   'Cs8 Na4 U4 Br24'
_cell_volume   1596.34734309
_cell_formula_units_Z   4
loop_
 _symmetry_equiv_pos_site_id
 _symmetry_equiv_pos_as_xyz
  1  'x, y, z'
loop_
 _atom_site_type_symbol
 _atom_site_label
 _atom_site_symmetry_multiplicity
 _atom_site_fract_x
 _atom_site_fract_y
 _atom_site_fract_z
 _atom_site_occupancy
  Cs  Cs0  1  0.24914722  0.24914722  0.24914722  1
  Cs  Cs1  1  0.75085278  0.75085278  0.75085278  1
  Cs  Cs2  1  0.25085278  0.75085278  0.74914722  1
  Cs  Cs3  1  0.75085278  0.74914722  0.25085278  1
  Cs  Cs4  1  0.74914722  0.24914722  0.25085278  1
  Cs  Cs5  1  0.24914722  0.25085278  0.74914722  1
  Cs  Cs6  1  0.74914722  0.25085278  0.75085278  1
  Cs  Cs7  1  0.25085278  0.74914722  0.24914722  1
  Na  Na8  1  0.50000000  0.50000000  0.50000000  1
  Na  Na9  1  0.00000000  0.50000000  -0.00000000  1
  Na  Na10  1  0.50000000  0.00000000  -0.00000000  1
  Na  Na11  1  0.00000000  0.00000000  0.50000000  1
  U  U12  1  0.00000000  0.00000000  -0.00000000  1
  U  U13  1  0.50000000  0.00000000  0.50000000  1
  U  U14  1  0.00000000  0.50000000  0.50000000  1
  U  U15  1  0.50000000  0.50000000  -0.00000000  1
  Br  Br16  1  0.99315354  0.24730333  0.00663241  1
  Br  Br17  1  0.00684646  0.75269667  0.99336759  1
  Br  Br18  1  0.50684646  0.75269667  0.50663241  1
  Br  Br19  1  0.00684646  0.74730333  0.49336759  1
  Br  Br20  1  0.00663241  0.99315354  0.24730333  1
  Br  Br21  1  0.49315354  0.24730333  0.49336759  1
  Br  Br22  1  0.99315354  0.25269667  0.50663241  1
  Br  Br23  1  0.99336759  0.00684646  0.75269667  1
  Br  Br24  1  0.49315354  0.25269667  0.99336759  1
  Br  Br25  1  0.50663241  0.50684646  0.75269667  1
  Br  Br26  1  0.50684646  0.74730333  0.00663241  1
  Br  Br27  1  0.49336759  0.49315354  0.24730333  1
  Br  Br28  1  0.49336759  0.00684646  0.74730333  1
  Br  Br29  1  0.50663241  0.99315354  0.25269667  1
  Br  Br30  1  0.99336759  0.49315354  0.25269667  1
  Br  Br31  1  0.00663241  0.50684646  0.74730333  1
  Br  Br32  1  0.24730333  0.00663241  0.99315354  1
  Br  Br33  1  0.75269667  0.99336759  0.00684646  1
  Br  Br34  1  0.74730333  0.49336759  0.00684646  1
  Br  Br35  1  0.25269667  0.50663241  0.99315354  1
  Br  Br36  1  0.25269667  0.99336759  0.49315354  1
  Br  Br37  1  0.74730333  0.00663241  0.50684646  1
  Br  Br38  1  0.75269667  0.50663241  0.50684646  1
  Br  Br39  1  0.24730333  0.49336759  0.49315354  1
