# generated using pymatgen
data_Ba5Gd2ZrAl2O13
_symmetry_space_group_name_H-M   'P 1'
_cell_length_a   6.06956133
_cell_length_b   6.06956133
_cell_length_c   25.46371536
_cell_angle_alpha   90.00000000
_cell_angle_beta   90.00000000
_cell_angle_gamma   120.00000473
_symmetry_Int_Tables_number   1
_chemical_formula_structural   Ba5Gd2ZrAl2O13
_chemical_formula_sum   'Ba10 Gd4 Zr2 Al4 O26'
_cell_volume   812.39453036
_cell_formula_units_Z   2
loop_
 _symmetry_equiv_pos_site_id
 _symmetry_equiv_pos_as_xyz
  1  'x, y, z'
loop_
 _atom_site_type_symbol
 _atom_site_label
 _atom_site_symmetry_multiplicity
 _atom_site_fract_x
 _atom_site_fract_y
 _atom_site_fract_z
 _atom_site_occupancy
  Ba  Ba0  1  0.66666700  0.33333300  0.45850797  1
  Ba  Ba1  1  0.33333300  0.66666700  0.54149203  1
  Ba  Ba2  1  0.33333300  0.66666700  0.95850797  1
  Ba  Ba3  1  0.66666700  0.33333300  0.04149203  1
  Ba  Ba4  1  -0.00000000  0.00000000  0.86363655  1
  Ba  Ba5  1  -0.00000000  0.00000000  0.13636345  1
  Ba  Ba6  1  -0.00000000  0.00000000  0.36363655  1
  Ba  Ba7  1  -0.00000000  0.00000000  0.63636345  1
  Ba  Ba8  1  0.66666700  0.33333300  0.75000000  1
  Ba  Ba9  1  0.33333300  0.66666700  0.25000000  1
  Gd  Gd10  1  0.66666700  0.33333300  0.89564987  1
  Gd  Gd11  1  0.33333300  0.66666700  0.10435013  1
  Gd  Gd12  1  0.33333300  0.66666700  0.39564987  1
  Gd  Gd13  1  0.66666700  0.33333300  0.60435013  1
  Zr  Zr14  1  -0.00000000  0.00000000  -0.00000000  1
  Zr  Zr15  1  -0.00000000  0.00000000  0.50000000  1
  Al  Al16  1  0.66666700  0.33333300  0.31801039  1
  Al  Al17  1  0.33333300  0.66666700  0.68198961  1
  Al  Al18  1  0.33333300  0.66666700  0.81801039  1
  Al  Al19  1  0.66666700  0.33333300  0.18198961  1
  O  O20  1  0.49335407  0.50664593  0.84070966  1
  O  O21  1  0.50664593  0.49335407  0.15929034  1
  O  O22  1  0.01329187  0.50664593  0.84070966  1
  O  O23  1  0.50664593  0.49335407  0.34070966  1
  O  O24  1  0.98670813  0.49335407  0.15929034  1
  O  O25  1  0.49335407  0.50664593  0.65929034  1
  O  O26  1  0.49335407  0.98670813  0.84070966  1
  O  O27  1  0.98670813  0.49335407  0.34070966  1
  O  O28  1  0.50664593  0.01329187  0.15929034  1
  O  O29  1  0.01329187  0.50664593  0.65929034  1
  O  O30  1  0.50664593  0.01329187  0.34070966  1
  O  O31  1  0.49335407  0.98670813  0.65929034  1
  O  O32  1  0.83847487  0.16152513  0.95020538  1
  O  O33  1  0.16152513  0.83847487  0.04979462  1
  O  O34  1  0.32305026  0.16152513  0.95020538  1
  O  O35  1  0.16152513  0.83847487  0.45020538  1
  O  O36  1  0.67694974  0.83847487  0.04979462  1
  O  O37  1  0.83847487  0.16152513  0.54979462  1
  O  O38  1  0.83847487  0.67694974  0.95020538  1
  O  O39  1  0.67694974  0.83847487  0.45020538  1
  O  O40  1  0.16152513  0.32305026  0.04979462  1
  O  O41  1  0.32305026  0.16152513  0.54979462  1
  O  O42  1  0.16152513  0.32305026  0.45020538  1
  O  O43  1  0.83847487  0.67694974  0.54979462  1
  O  O44  1  0.66666700  0.33333300  0.25000000  1
  O  O45  1  0.33333300  0.66666700  0.75000000  1
