# generated using pymatgen
data_Th2N3
_symmetry_space_group_name_H-M   'P 1'
_cell_length_a   3.91334634
_cell_length_b   3.91357842
_cell_length_c   6.15321981
_cell_angle_alpha   89.99999998
_cell_angle_beta   89.99624563
_cell_angle_gamma   120.00196786
_symmetry_Int_Tables_number   1
_chemical_formula_structural   Th2N3
_chemical_formula_sum   'Th2 N3'
_cell_volume   81.61063837
_cell_formula_units_Z   1
loop_
 _symmetry_equiv_pos_site_id
 _symmetry_equiv_pos_as_xyz
  1  'x, y, z'
loop_
 _atom_site_type_symbol
 _atom_site_label
 _atom_site_symmetry_multiplicity
 _atom_site_fract_x
 _atom_site_fract_y
 _atom_site_fract_z
 _atom_site_occupancy
  Th  Th0  1  0.33344279  0.66672139  0.24871692  1
  Th  Th1  1  0.66655721  0.33327861  0.75128308  1
  N  N2  1  -0.00000000  -0.00000000  0.00000000  1
  N  N3  1  0.33326513  0.66663257  0.64173243  1
  N  N4  1  0.66673487  0.33336743  0.35826757  1
