# generated using pymatgen
data_CCl3
_symmetry_space_group_name_H-M   'P 1'
_cell_length_a   6.64938180
_cell_length_b   10.55170846
_cell_length_c   11.88942721
_cell_angle_alpha   90.00000000
_cell_angle_beta   90.00000000
_cell_angle_gamma   90.00000000
_symmetry_Int_Tables_number   1
_chemical_formula_structural   CCl3
_chemical_formula_sum   'C8 Cl24'
_cell_volume   834.19001283
_cell_formula_units_Z   8
loop_
 _symmetry_equiv_pos_site_id
 _symmetry_equiv_pos_as_xyz
  1  'x, y, z'
loop_
 _atom_site_type_symbol
 _atom_site_label
 _atom_site_symmetry_multiplicity
 _atom_site_fract_x
 _atom_site_fract_y
 _atom_site_fract_z
 _atom_site_occupancy
  C  C0  1  0.71336127  0.75000000  0.88887607  1
  C  C1  1  0.28663873  0.25000000  0.11112393  1
  C  C2  1  0.21336127  0.25000000  0.61112393  1
  C  C3  1  0.78663873  0.75000000  0.38887607  1
  C  C4  1  0.47916211  0.75000000  0.85965695  1
  C  C5  1  0.52083789  0.25000000  0.14034305  1
  C  C6  1  0.97916211  0.25000000  0.64034305  1
  C  C7  1  0.02083789  0.75000000  0.35965695  1
  Cl  Cl8  1  0.41845480  0.88736975  0.78005093  1
  Cl  Cl9  1  0.58154520  0.11263025  0.21994907  1
  Cl  Cl10  1  0.91845480  0.11263025  0.71994907  1
  Cl  Cl11  1  0.58154520  0.38736975  0.21994907  1
  Cl  Cl12  1  0.08154520  0.88736975  0.28005093  1
  Cl  Cl13  1  0.41845480  0.61263025  0.78005093  1
  Cl  Cl14  1  0.08154520  0.61263025  0.28005093  1
  Cl  Cl15  1  0.91845480  0.38736975  0.71994907  1
  Cl  Cl16  1  0.77313325  0.88753998  0.96855619  1
  Cl  Cl17  1  0.22686675  0.11246002  0.03144381  1
  Cl  Cl18  1  0.27313325  0.11246002  0.53144381  1
  Cl  Cl19  1  0.22686675  0.38753998  0.03144381  1
  Cl  Cl20  1  0.72686675  0.88753998  0.46855619  1
  Cl  Cl21  1  0.77313325  0.61246002  0.96855619  1
  Cl  Cl22  1  0.72686675  0.61246002  0.46855619  1
  Cl  Cl23  1  0.27313325  0.38753998  0.53144381  1
  Cl  Cl24  1  0.33727399  0.75000000  0.98662728  1
  Cl  Cl25  1  0.66272601  0.25000000  0.01337272  1
  Cl  Cl26  1  0.83727399  0.25000000  0.51337272  1
  Cl  Cl27  1  0.16272601  0.75000000  0.48662728  1
  Cl  Cl28  1  0.85522482  0.75000000  0.76235865  1
  Cl  Cl29  1  0.14477518  0.25000000  0.23764135  1
  Cl  Cl30  1  0.35522482  0.25000000  0.73764135  1
  Cl  Cl31  1  0.64477518  0.75000000  0.26235865  1
