# generated using pymatgen
data_Ba2Tm2CuPtO8
_symmetry_space_group_name_H-M   'P 1'
_cell_length_a   5.69418714
_cell_length_b   13.29394708
_cell_length_c   10.36922624
_cell_angle_alpha   90.00000000
_cell_angle_beta   90.00000000
_cell_angle_gamma   90.00000000
_symmetry_Int_Tables_number   1
_chemical_formula_structural   Ba2Tm2CuPtO8
_chemical_formula_sum   'Ba8 Tm8 Cu4 Pt4 O32'
_cell_volume   784.93199510
_cell_formula_units_Z   4
loop_
 _symmetry_equiv_pos_site_id
 _symmetry_equiv_pos_as_xyz
  1  'x, y, z'
loop_
 _atom_site_type_symbol
 _atom_site_label
 _atom_site_symmetry_multiplicity
 _atom_site_fract_x
 _atom_site_fract_y
 _atom_site_fract_z
 _atom_site_occupancy
  Ba  Ba0  1  0.75000000  0.57724016  0.59274618  1
  Ba  Ba1  1  0.25000000  0.42275984  0.40725382  1
  Ba  Ba2  1  0.25000000  0.92275984  0.09274618  1
  Ba  Ba3  1  0.75000000  0.07724016  0.90725382  1
  Ba  Ba4  1  0.75000000  0.79282503  0.31504429  1
  Ba  Ba5  1  0.25000000  0.20717497  0.68495571  1
  Ba  Ba6  1  0.25000000  0.70717497  0.81504429  1
  Ba  Ba7  1  0.75000000  0.29282503  0.18495571  1
  Tm  Tm8  1  0.75000000  0.58265727  0.98713143  1
  Tm  Tm9  1  0.25000000  0.41734273  0.01286857  1
  Tm  Tm10  1  0.25000000  0.91734273  0.48713143  1
  Tm  Tm11  1  0.75000000  0.08265727  0.51286857  1
  Tm  Tm12  1  0.75000000  0.85886335  0.68797775  1
  Tm  Tm13  1  0.25000000  0.14113665  0.31202225  1
  Tm  Tm14  1  0.25000000  0.64113665  0.18797775  1
  Tm  Tm15  1  0.75000000  0.35886335  0.81202225  1
  Cu  Cu16  1  0.75000000  0.53946107  0.26560760  1
  Cu  Cu17  1  0.25000000  0.46053893  0.73439240  1
  Cu  Cu18  1  0.25000000  0.96053893  0.76560760  1
  Cu  Cu19  1  0.75000000  0.03946107  0.23439240  1
  Pt  Pt20  1  0.75000000  0.80523893  0.96816135  1
  Pt  Pt21  1  0.25000000  0.19476107  0.03183865  1
  Pt  Pt22  1  0.25000000  0.69476107  0.46816135  1
  Pt  Pt23  1  0.75000000  0.30523893  0.53183865  1
  O  O24  1  0.75000000  0.70301981  0.81417358  1
  O  O25  1  0.25000000  0.29698019  0.18582642  1
  O  O26  1  0.25000000  0.79698019  0.31417358  1
  O  O27  1  0.75000000  0.20301981  0.68582642  1
  O  O28  1  0.49102637  0.78597019  0.55736255  1
  O  O29  1  0.50897363  0.21402981  0.44263745  1
  O  O30  1  0.50897363  0.71402981  0.05736255  1
  O  O31  1  0.99102637  0.21402981  0.44263745  1
  O  O32  1  0.49102637  0.28597019  0.94263745  1
  O  O33  1  0.00897363  0.78597019  0.55736255  1
  O  O34  1  0.00897363  0.28597019  0.94263745  1
  O  O35  1  0.99102637  0.71402981  0.05736255  1
  O  O36  1  0.99011491  0.88615862  0.85960889  1
  O  O37  1  0.00988509  0.11384138  0.14039111  1
  O  O38  1  0.00988509  0.61384138  0.35960889  1
  O  O39  1  0.49011491  0.11384138  0.14039111  1
  O  O40  1  0.99011491  0.38615862  0.64039111  1
  O  O41  1  0.50988509  0.88615862  0.85960889  1
  O  O42  1  0.50988509  0.38615862  0.64039111  1
  O  O43  1  0.49011491  0.61384138  0.35960889  1
  O  O44  1  0.49634674  0.99145201  0.63405108  1
  O  O45  1  0.50365326  0.00854799  0.36594892  1
  O  O46  1  0.50365326  0.50854799  0.13405108  1
  O  O47  1  0.99634674  0.00854799  0.36594892  1
  O  O48  1  0.49634674  0.49145201  0.86594892  1
  O  O49  1  0.00365326  0.99145201  0.63405108  1
  O  O50  1  0.00365326  0.49145201  0.86594892  1
  O  O51  1  0.99634674  0.50854799  0.13405108  1
  O  O52  1  0.75000000  0.41158337  0.39001439  1
  O  O53  1  0.25000000  0.58841663  0.60998561  1
  O  O54  1  0.25000000  0.08841663  0.89001439  1
  O  O55  1  0.75000000  0.91158337  0.10998561  1
