# generated using pymatgen
data_ZrSc(NiSn)2
_symmetry_space_group_name_H-M   'P 1'
_cell_length_a   4.36103719
_cell_length_b   4.36103719
_cell_length_c   7.56589506
_cell_angle_alpha   73.24955813
_cell_angle_beta   90.00000000
_cell_angle_gamma   120.00000000
_symmetry_Int_Tables_number   1
_chemical_formula_structural   ZrSc(NiSn)2
_chemical_formula_sum   'Zr1 Sc1 Ni2 Sn2'
_cell_volume   117.51216791
_cell_formula_units_Z   1
loop_
 _symmetry_equiv_pos_site_id
 _symmetry_equiv_pos_as_xyz
  1  'x, y, z'
loop_
 _atom_site_type_symbol
 _atom_site_label
 _atom_site_symmetry_multiplicity
 _atom_site_fract_x
 _atom_site_fract_y
 _atom_site_fract_z
 _atom_site_occupancy
  Zr  Zr0  1  0.62580072  0.25160144  0.12259785  1
  Sc  Sc1  1  0.12435508  0.24871016  0.62693476  1
  Ni  Ni2  1  0.99929170  0.99858340  0.00212490  1
  Ni  Ni3  1  0.50077200  0.00154400  0.49768399  1
  Sn  Sn4  1  0.87463508  0.74927015  0.37609477  1
  Sn  Sn5  1  0.37514542  0.75029084  0.87456373  1
