# generated using pymatgen
data_ZrVFe
_symmetry_space_group_name_H-M   'P 1'
_cell_length_a   5.06440884
_cell_length_b   5.06409636
_cell_length_c   8.31940773
_cell_angle_alpha   90.00000000
_cell_angle_beta   90.00000000
_cell_angle_gamma   60.85487885
_symmetry_Int_Tables_number   1
_chemical_formula_structural   ZrVFe
_chemical_formula_sum   'Zr4 V4 Fe4'
_cell_volume   186.35061266
_cell_formula_units_Z   4
loop_
 _symmetry_equiv_pos_site_id
 _symmetry_equiv_pos_as_xyz
  1  'x, y, z'
loop_
 _atom_site_type_symbol
 _atom_site_label
 _atom_site_symmetry_multiplicity
 _atom_site_fract_x
 _atom_site_fract_y
 _atom_site_fract_z
 _atom_site_occupancy
  Zr  Zr0  1  0.33128373  0.33127777  0.56563115  1
  Zr  Zr1  1  0.66475990  0.66474964  0.44661420  1
  Zr  Zr2  1  0.66475990  0.66474964  0.05338580  1
  Zr  Zr3  1  0.33128373  0.33127777  0.93436885  1
  V  V4  1  0.83893748  0.83892224  0.75000000  1
  V  V5  1  0.16545029  0.66370179  0.25000000  1
  V  V6  1  0.66369739  0.16545795  0.25000000  1
  V  V7  1  0.16789469  0.16790103  0.25000000  1
  Fe  Fe8  1  0.99901320  0.99903623  0.50336286  1
  Fe  Fe9  1  0.99901320  0.99903623  0.99663714  1
  Fe  Fe10  1  0.83489012  0.33900802  0.75000000  1
  Fe  Fe11  1  0.33901639  0.83488168  0.75000000  1
