# generated using pymatgen
data_YbCdIn
_symmetry_space_group_name_H-M   'P 1'
_cell_length_a   4.99299087
_cell_length_b   4.99717462
_cell_length_c   7.43690883
_cell_angle_alpha   90.00000000
_cell_angle_beta   89.79733108
_cell_angle_gamma   59.97227780
_symmetry_Int_Tables_number   1
_chemical_formula_structural   YbCdIn
_chemical_formula_sum   'Yb2 Cd2 In2'
_cell_volume   160.65097842
_cell_formula_units_Z   2
loop_
 _symmetry_equiv_pos_site_id
 _symmetry_equiv_pos_as_xyz
  1  'x, y, z'
loop_
 _atom_site_type_symbol
 _atom_site_label
 _atom_site_symmetry_multiplicity
 _atom_site_fract_x
 _atom_site_fract_y
 _atom_site_fract_z
 _atom_site_occupancy
  Yb  Yb0  1  0.00183120  0.99908440  0.73996638  1
  Yb  Yb1  1  0.99816880  0.00091560  0.26003362  1
  Cd  Cd2  1  0.33332998  0.33333501  0.51847117  1
  Cd  Cd3  1  0.66667002  0.66666499  0.48152883  1
  In  In4  1  0.66608380  0.66695810  0.04087386  1
  In  In5  1  0.33391620  0.33304190  0.95912614  1
