# generated using pymatgen
data_ZrTi2Ni9
_symmetry_space_group_name_H-M   'P 1'
_cell_length_a   5.18902484
_cell_length_b   5.18902484
_cell_length_c   6.98653906
_cell_angle_alpha   68.20056293
_cell_angle_beta   68.20056293
_cell_angle_gamma   60.00000022
_symmetry_Int_Tables_number   1
_chemical_formula_structural   ZrTi2Ni9
_chemical_formula_sum   'Zr1 Ti2 Ni9'
_cell_volume   147.17776178
_cell_formula_units_Z   1
loop_
 _symmetry_equiv_pos_site_id
 _symmetry_equiv_pos_as_xyz
  1  'x, y, z'
loop_
 _atom_site_type_symbol
 _atom_site_label
 _atom_site_symmetry_multiplicity
 _atom_site_fract_x
 _atom_site_fract_y
 _atom_site_fract_z
 _atom_site_occupancy
  Zr  Zr0  1  0.21917428  0.21917428  0.34247716  1
  Ti  Ti1  1  0.78285414  0.78285414  0.65143759  1
  Ti  Ti2  1  0.99970685  0.99970685  0.00087945  1
  Ni  Ni3  1  0.50592614  0.50592614  0.99432104  1
  Ni  Ni4  1  0.50592614  0.99382668  0.99432104  1
  Ni  Ni5  1  0.99382668  0.50592614  0.99432104  1
  Ni  Ni6  1  0.75913613  0.28224988  0.67636411  1
  Ni  Ni7  1  0.28224988  0.28224988  0.67636411  1
  Ni  Ni8  1  0.28224988  0.75913613  0.67636411  1
  Ni  Ni9  1  0.23630081  0.71632454  0.33105012  1
  Ni  Ni10  1  0.71632454  0.71632454  0.33105012  1
  Ni  Ni11  1  0.71632454  0.23630081  0.33105012  1
