# generated using pymatgen
data_ZrTiCu
_symmetry_space_group_name_H-M   'P 1'
_cell_length_a   3.09317585
_cell_length_b   3.09317585
_cell_length_c   5.88422522
_cell_angle_alpha   74.76158077
_cell_angle_beta   74.76158077
_cell_angle_gamma   90.00000000
_symmetry_Int_Tables_number   1
_chemical_formula_structural   ZrTiCu
_chemical_formula_sum   'Zr1 Ti1 Cu1'
_cell_volume   52.26493156
_cell_formula_units_Z   1
loop_
 _symmetry_equiv_pos_site_id
 _symmetry_equiv_pos_as_xyz
  1  'x, y, z'
loop_
 _atom_site_type_symbol
 _atom_site_label
 _atom_site_symmetry_multiplicity
 _atom_site_fract_x
 _atom_site_fract_y
 _atom_site_fract_z
 _atom_site_occupancy
  Zr  Zr0  1  0.66472752  0.66472752  0.67054496  1
  Ti  Ti1  1  0.35020405  0.35020405  0.29959190  1
  Cu  Cu2  1  0.98506843  0.98506843  0.02986314  1
