# generated using pymatgen
data_K3Sb5O14
_symmetry_space_group_name_H-M   'P 1'
_cell_length_a   7.27646141
_cell_length_b   7.45808017
_cell_length_c   24.69179265
_cell_angle_alpha   90.00000000
_cell_angle_beta   90.00000000
_cell_angle_gamma   90.00000000
_symmetry_Int_Tables_number   1
_chemical_formula_structural   K3Sb5O14
_chemical_formula_sum   'K12 Sb20 O56'
_cell_volume   1339.98488396
_cell_formula_units_Z   4
loop_
 _symmetry_equiv_pos_site_id
 _symmetry_equiv_pos_as_xyz
  1  'x, y, z'
loop_
 _atom_site_type_symbol
 _atom_site_label
 _atom_site_symmetry_multiplicity
 _atom_site_fract_x
 _atom_site_fract_y
 _atom_site_fract_z
 _atom_site_occupancy
  O  O0  1  0.95371689  0.25646071  0.07386961  1
  O  O1  1  0.45371689  0.74353929  0.42613039  1
  O  O2  1  0.04628311  0.25646071  0.92613039  1
  O  O3  1  0.54628311  0.74353929  0.57386961  1
  O  O4  1  0.04628311  0.74353929  0.92613039  1
  O  O5  1  0.54628311  0.25646071  0.57386961  1
  O  O6  1  0.95371689  0.74353929  0.07386961  1
  O  O7  1  0.45371689  0.25646071  0.42613039  1
  O  O8  1  0.87814267  0.31545976  0.18510770  1
  O  O9  1  0.37814267  0.68454024  0.31489230  1
  O  O10  1  0.12185733  0.31545976  0.81489230  1
  O  O11  1  0.62185733  0.68454024  0.68510770  1
  O  O12  1  0.12185733  0.68454024  0.81489230  1
  O  O13  1  0.62185733  0.31545976  0.68510770  1
  O  O14  1  0.87814267  0.68454024  0.18510770  1
  O  O15  1  0.37814267  0.31545976  0.31489230  1
  O  O16  1  0.83923702  0.19776571  0.39632422  1
  O  O17  1  0.33923702  0.80223429  0.10367578  1
  O  O18  1  0.16076298  0.19776571  0.60367578  1
  O  O19  1  0.66076298  0.80223429  0.89632422  1
  O  O20  1  0.16076298  0.80223429  0.60367578  1
  O  O21  1  0.33855312  0.00000000  0.90603966  1
  O  O22  1  0.66076298  0.19776571  0.89632422  1
  O  O23  1  0.33923702  0.19776571  0.10367578  1
  O  O24  1  0.76118730  0.27426131  0.28842982  1
  O  O25  1  0.26118730  0.72573869  0.21157018  1
  O  O26  1  0.23881270  0.27426131  0.71157018  1
  O  O27  1  0.73881270  0.72573869  0.78842982  1
  O  O28  1  0.23881270  0.72573869  0.71157018  1
  O  O29  1  0.73881270  0.27426131  0.78842982  1
  O  O30  1  0.76118730  0.72573869  0.28842982  1
  O  O31  1  0.26118730  0.27426131  0.21157018  1
  O  O32  1  0.50000000  0.17923329  0.00000000  1
  O  O33  1  0.00000000  0.82076671  0.50000000  1
  O  O34  1  0.50000000  0.82076671  0.00000000  1
  O  O35  1  0.00000000  0.17923329  0.50000000  1
  O  O36  1  0.16058012  0.00000000  0.01762921  1
  O  O37  1  0.66058012  0.00000000  0.48237079  1
  O  O38  1  0.83941988  0.00000000  0.98237079  1
  O  O39  1  0.33941988  0.00000000  0.51762921  1
  O  O40  1  0.18317373  0.50000000  0.11947390  1
  O  O41  1  0.68317373  0.50000000  0.38052610  1
  O  O42  1  0.81682627  0.50000000  0.88052610  1
  O  O43  1  0.31682627  0.50000000  0.61947390  1
  O  O44  1  0.02756848  0.00000000  0.14262966  1
  O  O45  1  0.52756848  0.00000000  0.35737034  1
  O  O46  1  0.97243152  0.00000000  0.85737034  1
  O  O47  1  0.47243152  0.00000000  0.64262966  1
  O  O48  1  0.06489463  0.50000000  0.28154555  1
  O  O49  1  0.56489463  0.50000000  0.21845445  1
  O  O50  1  0.93510537  0.50000000  0.71845445  1
  O  O51  1  0.43510537  0.50000000  0.78154555  1
  O  O52  1  0.16144688  0.00000000  0.40603966  1
  O  O53  1  0.66144688  0.00000000  0.09396034  1
  O  O54  1  0.83855312  0.00000000  0.59396034  1
  O  O55  1  0.83923702  0.80223429  0.39632422  1
  K  K56  1  0.22211201  0.50000000  0.01527194  1
  K  K57  1  0.72211201  0.50000000  0.48472806  1
  K  K58  1  0.77788799  0.50000000  0.98472806  1
  K  K59  1  0.27788799  0.50000000  0.51527194  1
  K  K60  1  0.12628107  0.00000000  0.29403822  1
  K  K61  1  0.62628107  0.00000000  0.20596178  1
  K  K62  1  0.87371893  0.00000000  0.70596178  1
  K  K63  1  0.37371893  0.00000000  0.79403822  1
  K  K64  1  0.10276639  0.50000000  0.38332911  1
  K  K65  1  0.60276639  0.50000000  0.11667089  1
  K  K66  1  0.89723361  0.50000000  0.61667089  1
  K  K67  1  0.39723361  0.50000000  0.88332911  1
  Sb  Sb68  1  0.09349778  0.00000000  0.93778847  1
  Sb  Sb69  1  0.59349778  0.00000000  0.56221153  1
  Sb  Sb70  1  0.90650222  0.00000000  0.06221153  1
  Sb  Sb71  1  0.40650222  0.00000000  0.43778847  1
  Sb  Sb72  1  0.08201898  0.00000000  0.55709732  1
  Sb  Sb73  1  0.58201898  0.00000000  0.94290268  1
  Sb  Sb74  1  0.91798102  0.00000000  0.44290268  1
  Sb  Sb75  1  0.41798102  0.00000000  0.05709732  1
  Sb  Sb76  1  0.32496021  0.50000000  0.25621667  1
  Sb  Sb77  1  0.82496021  0.50000000  0.24378333  1
  Sb  Sb78  1  0.67503979  0.50000000  0.74378333  1
  Sb  Sb79  1  0.17503979  0.50000000  0.75621667  1
  Sb  Sb80  1  0.10994321  0.26440301  0.14533162  1
  Sb  Sb81  1  0.60994321  0.73559699  0.35466838  1
  Sb  Sb82  1  0.89005679  0.26440301  0.85466838  1
  Sb  Sb83  1  0.39005679  0.73559699  0.64533162  1
  Sb  Sb84  1  0.89005679  0.73559699  0.85466838  1
  Sb  Sb85  1  0.39005679  0.26440301  0.64533162  1
  Sb  Sb86  1  0.10994321  0.73559699  0.14533162  1
  Sb  Sb87  1  0.60994321  0.26440301  0.35466838  1
