# generated using pymatgen
data_TmAlGa
_symmetry_space_group_name_H-M   'P 1'
_cell_length_a   3.42165928
_cell_length_b   4.47378635
_cell_length_c   4.48014808
_cell_angle_alpha   119.95907114
_cell_angle_beta   90.00000000
_cell_angle_gamma   90.00000000
_symmetry_Int_Tables_number   1
_chemical_formula_structural   TmAlGa
_chemical_formula_sum   'Tm1 Al1 Ga1'
_cell_volume   59.41744449
_cell_formula_units_Z   1
loop_
 _symmetry_equiv_pos_site_id
 _symmetry_equiv_pos_as_xyz
  1  'x, y, z'
loop_
 _atom_site_type_symbol
 _atom_site_label
 _atom_site_symmetry_multiplicity
 _atom_site_fract_x
 _atom_site_fract_y
 _atom_site_fract_z
 _atom_site_occupancy
  Tm  Tm0  1  0.00000000  0.99977073  0.00005409  1
  Al  Al1  1  0.50000000  0.33295637  0.66644139  1
  Ga  Ga2  1  0.50000000  0.66717290  0.33350452  1
