# generated using pymatgen
data_Y4ZnGa3
_symmetry_space_group_name_H-M   'P 1'
_cell_length_a   4.10049994
_cell_length_b   4.29502933
_cell_length_c   11.36664458
_cell_angle_alpha   79.10957876
_cell_angle_beta   79.60844054
_cell_angle_gamma   90.00000000
_symmetry_Int_Tables_number   1
_chemical_formula_structural   Y4ZnGa3
_chemical_formula_sum   'Y4 Zn1 Ga3'
_cell_volume   193.23669899
_cell_formula_units_Z   1
loop_
 _symmetry_equiv_pos_site_id
 _symmetry_equiv_pos_as_xyz
  1  'x, y, z'
loop_
 _atom_site_type_symbol
 _atom_site_label
 _atom_site_symmetry_multiplicity
 _atom_site_fract_x
 _atom_site_fract_y
 _atom_site_fract_z
 _atom_site_occupancy
  Y  Y0  1  0.32023522  0.57023522  0.35952956  1
  Y  Y1  1  0.07120463  0.82120463  0.85759075  1
  Y  Y2  1  0.67964923  0.42964923  0.64070154  1
  Y  Y3  1  0.92806894  0.17806894  0.14386213  1
  Zn  Zn4  1  0.46285988  0.71285988  0.07428024  1
  Ga  Ga5  1  0.21275917  0.96275917  0.57448166  1
  Ga  Ga6  1  0.53837205  0.28837205  0.92325589  1
  Ga  Ga7  1  0.78685089  0.03685089  0.42629823  1
