# generated using pymatgen
data_Zn4CdSe5
_symmetry_space_group_name_H-M   'P 1'
_cell_length_a   4.12252338
_cell_length_b   4.12252338
_cell_length_c   17.12150888
_cell_angle_alpha   96.91462009
_cell_angle_beta   83.08537991
_cell_angle_gamma   119.99999989
_symmetry_Int_Tables_number   1
_chemical_formula_structural   Zn4CdSe5
_chemical_formula_sum   'Zn4 Cd1 Se5'
_cell_volume   249.55223386
_cell_formula_units_Z   1
loop_
 _symmetry_equiv_pos_site_id
 _symmetry_equiv_pos_as_xyz
  1  'x, y, z'
loop_
 _atom_site_type_symbol
 _atom_site_label
 _atom_site_symmetry_multiplicity
 _atom_site_fract_x
 _atom_site_fract_y
 _atom_site_fract_z
 _atom_site_occupancy
  Zn  Zn0  1  0.59734520  0.40265480  0.20796439  1
  Zn  Zn1  1  0.19922090  0.80077910  0.40233731  1
  Zn  Zn2  1  0.80074308  0.19925692  0.59777075  1
  Zn  Zn3  1  0.40286209  0.59713791  0.79141374  1
  Cd  Cd4  1  0.99890751  0.00109249  0.00327747  1
  Se  Se5  1  0.94638840  0.05361160  0.16083481  1
  Se  Se6  1  0.54840450  0.45159550  0.35478651  1
  Se  Se7  1  0.15013410  0.84986590  0.54959769  1
  Se  Se8  1  0.75184334  0.24815666  0.74446998  1
  Se  Se9  1  0.35415088  0.64584912  0.93754736  1
