# generated using pymatgen
data_V4CrFe3O16
_symmetry_space_group_name_H-M   'P 1'
_cell_length_a   6.77319000
_cell_length_b   6.77319000
_cell_length_c   6.95018697
_cell_angle_alpha   77.16013409
_cell_angle_beta   77.16013409
_cell_angle_gamma   84.26841119
_symmetry_Int_Tables_number   1
_chemical_formula_structural   V4CrFe3O16
_chemical_formula_sum   'V4 Cr1 Fe3 O16'
_cell_volume   302.67355233
_cell_formula_units_Z   1
loop_
 _symmetry_equiv_pos_site_id
 _symmetry_equiv_pos_as_xyz
  1  'x, y, z'
loop_
 _atom_site_type_symbol
 _atom_site_label
 _atom_site_symmetry_multiplicity
 _atom_site_fract_x
 _atom_site_fract_y
 _atom_site_fract_z
 _atom_site_occupancy
  V  V0  1  0.25032348  0.74967652  -0.00000000  1
  V  V1  1  0.75029455  0.24970545  0.00000000  1
  V  V2  1  0.72726585  0.72890777  0.40220557  1
  V  V3  1  0.27109223  0.27273415  0.59779443  1
  Cr  Cr4  1  0.18076325  0.81923675  0.50000000  1
  Fe  Fe5  1  0.81346793  0.18653207  0.50000000  1
  Fe  Fe6  1  0.20605124  0.20542403  0.13556511  1
  Fe  Fe7  1  0.79457597  0.79394876  0.86443489  1
  O  O8  1  0.89135550  0.19992179  0.20040352  1
  O  O9  1  0.20120024  0.89108664  0.20016011  1
  O  O10  1  0.10891336  0.79879976  0.79983989  1
  O  O11  1  0.80007821  0.10864450  0.79959648  1
  O  O12  1  0.21119710  0.50235542  0.10948447  1
  O  O13  1  0.50300808  0.21081084  0.10925447  1
  O  O14  1  0.78918916  0.49699192  0.89074553  1
  O  O15  1  0.49764458  0.78880290  0.89051553  1
  O  O16  1  0.79813175  0.79767034  0.14256859  1
  O  O17  1  0.20232966  0.20186825  0.85743141  1
  O  O18  1  0.14094081  0.13718345  0.45850340  1
  O  O19  1  0.86281655  0.85905919  0.54149660  1
  O  O20  1  0.79360010  0.47831526  0.47377619  1
  O  O21  1  0.47709935  0.79302367  0.47396557  1
  O  O22  1  0.20697633  0.52290065  0.52603443  1
  O  O23  1  0.52168474  0.20639990  0.52622381  1
