# generated using pymatgen
data_Zr2FeS4
_symmetry_space_group_name_H-M   'P 1'
_cell_length_a   3.68200116
_cell_length_b   7.02882403
_cell_length_c   6.32207741
_cell_angle_alpha   63.19616624
_cell_angle_beta   90.00476883
_cell_angle_gamma   105.18998754
_symmetry_Int_Tables_number   1
_chemical_formula_structural   Zr2FeS4
_chemical_formula_sum   'Zr2 Fe1 S4'
_cell_volume   139.60410868
_cell_formula_units_Z   1
loop_
 _symmetry_equiv_pos_site_id
 _symmetry_equiv_pos_as_xyz
  1  'x, y, z'
loop_
 _atom_site_type_symbol
 _atom_site_label
 _atom_site_symmetry_multiplicity
 _atom_site_fract_x
 _atom_site_fract_y
 _atom_site_fract_z
 _atom_site_occupancy
  Zr  Zr0  1  0.49882225  0.99766025  0.49378028  1
  Zr  Zr1  1  0.99445930  0.98879214  0.01745030  1
  Fe  Fe2  1  0.31733995  0.63481533  0.34788986  1
  S  S3  1  0.62260983  0.24502465  0.04454528  1
  S  S4  1  0.12303119  0.24620234  0.54035952  1
  S  S5  1  0.37355251  0.74693876  0.95255092  1
  S  S6  1  0.86523497  0.73056654  0.47507384  1
