# generated using pymatgen
data_Sm4Mo4O11
_symmetry_space_group_name_H-M   'P 1'
_cell_length_a   6.07845886
_cell_length_b   11.09417290
_cell_length_c   16.47181764
_cell_angle_alpha   90.00000000
_cell_angle_beta   90.00000000
_cell_angle_gamma   90.00000000
_symmetry_Int_Tables_number   1
_chemical_formula_structural   Sm4Mo4O11
_chemical_formula_sum   'Sm16 Mo16 O44'
_cell_volume   1110.78482292
_cell_formula_units_Z   4
loop_
 _symmetry_equiv_pos_site_id
 _symmetry_equiv_pos_as_xyz
  1  'x, y, z'
loop_
 _atom_site_type_symbol
 _atom_site_label
 _atom_site_symmetry_multiplicity
 _atom_site_fract_x
 _atom_site_fract_y
 _atom_site_fract_z
 _atom_site_occupancy
  O  O0  1  0.24653787  0.00000000  0.00000000  1
  O  O1  1  0.75346261  0.50000001  0.50000016  1
  O  O2  1  0.75346261  0.00000000  0.00000000  1
  O  O3  1  0.24653787  0.50000001  0.50000016  1
  O  O4  1  0.00000000  0.23388709  0.52184066  1
  O  O5  1  0.00000000  0.76611292  0.47815905  1
  O  O6  1  0.00000000  0.73388710  0.97815921  1
  O  O7  1  0.00000000  0.26611291  0.02184111  1
  O  O8  1  0.00000000  0.04516343  0.65572479  1
  O  O9  1  0.00000000  0.95483658  0.34427492  1
  O  O10  1  0.00000000  0.54516344  0.84427508  1
  O  O11  1  0.00000000  0.45483658  0.15572462  1
  O  O12  1  0.49999938  0.22951154  0.52225413  1
  O  O13  1  0.49999938  0.77048848  0.47774619  1
  O  O14  1  0.49999938  0.72951155  0.97774636  1
  O  O15  1  0.49999938  0.27048847  0.02225397  1
  O  O16  1  0.49999938  0.05037273  0.65481863  1
  O  O17  1  0.49999938  0.94962728  0.34518107  1
  O  O18  1  0.76404870  0.30837718  0.86043581  1
  O  O19  1  0.49999938  0.44962727  0.15481909  1
  O  O20  1  0.24985399  0.96207204  0.17268633  1
  O  O21  1  0.24985399  0.03792798  0.82731337  1
  O  O22  1  0.75014649  0.46207203  0.32731321  1
  O  O23  1  0.75014649  0.53792798  0.67268649  1
  O  O24  1  0.75014649  0.03792798  0.82731337  1
  O  O25  1  0.75014649  0.96207204  0.17268633  1
  O  O26  1  0.24985399  0.53792798  0.67268649  1
  O  O27  1  0.24985399  0.46207203  0.32731321  1
  O  O28  1  0.23595179  0.69162284  0.13956389  1
  O  O29  1  0.23595179  0.30837718  0.86043581  1
  O  O30  1  0.76404870  0.19162283  0.36043627  1
  O  O31  1  0.76404870  0.80837719  0.63956406  1
  O  O32  1  0.26269599  0.22304024  0.17639420  1
  O  O33  1  0.26269599  0.77695977  0.82360551  1
  O  O34  1  0.73730276  0.72304025  0.32360535  1
  O  O35  1  0.73730276  0.27695976  0.67639436  1
  O  O36  1  0.73730276  0.77695977  0.82360551  1
  O  O37  1  0.73730276  0.22304024  0.17639420  1
  O  O38  1  0.26269599  0.27695976  0.67639436  1
  O  O39  1  0.26269599  0.72304025  0.32360535  1
  O  O40  1  0.23595179  0.19162283  0.36043627  1
  O  O41  1  0.23595179  0.80837719  0.63956406  1
  O  O42  1  0.76404870  0.69162284  0.13956389  1
  O  O43  1  0.49999938  0.55037274  0.84518124  1
  Mo  Mo44  1  0.00000000  0.90816651  0.56591100  1
  Mo  Mo45  1  0.00000000  0.09183351  0.43408871  1
  Mo  Mo46  1  0.00000000  0.40816650  0.93408887  1
  Mo  Mo47  1  0.00000000  0.59183351  0.06591084  1
  Mo  Mo48  1  0.49999938  0.89441107  0.57735206  1
  Mo  Mo49  1  0.49999938  0.10558894  0.42264826  1
  Mo  Mo50  1  0.49999938  0.39441106  0.92264781  1
  Mo  Mo51  1  0.49999938  0.60558895  0.07735190  1
  Mo  Mo52  1  0.24740160  0.85861216  0.40998480  1
  Mo  Mo53  1  0.24740160  0.14138786  0.59001552  1
  Mo  Mo54  1  0.75259889  0.35861215  0.09001536  1
  Mo  Mo55  1  0.75259889  0.64138787  0.90998435  1
  Mo  Mo56  1  0.75259889  0.14138786  0.59001552  1
  Mo  Mo57  1  0.75259889  0.85861216  0.40998480  1
  Mo  Mo58  1  0.24740160  0.64138787  0.90998435  1
  Mo  Mo59  1  0.24740160  0.35861215  0.09001536  1
  Sm  Sm60  1  0.00000000  0.61392845  0.57802562  1
  Sm  Sm61  1  0.00000000  0.38607156  0.42197470  1
  Sm  Sm62  1  0.00000000  0.11392845  0.92197486  1
  Sm  Sm63  1  0.00000000  0.88607157  0.07802546  1
  Sm  Sm64  1  0.00000000  0.40153137  0.73665480  1
  Sm  Sm65  1  0.00000000  0.59846864  0.26334490  1
  Sm  Sm66  1  0.00000000  0.90153138  0.76334507  1
  Sm  Sm67  1  0.00000000  0.09846864  0.23665464  1
  Sm  Sm68  1  0.49999938  0.42079022  0.59853789  1
  Sm  Sm69  1  0.49999938  0.57920980  0.40146243  1
  Sm  Sm70  1  0.49999938  0.92079023  0.90146198  1
  Sm  Sm71  1  0.49999938  0.07920979  0.09853773  1
  Sm  Sm72  1  0.49999938  0.18079877  0.77494894  1
  Sm  Sm73  1  0.49999938  0.81920124  0.22505077  1
  Sm  Sm74  1  0.49999938  0.68079878  0.72505093  1
  Sm  Sm75  1  0.49999938  0.31920124  0.27494878  1
