# generated using pymatgen
data_TiNbSbO6
_symmetry_space_group_name_H-M   'P 1'
_cell_length_a   4.91700246
_cell_length_b   5.61360494
_cell_length_c   8.73616295
_cell_angle_alpha   92.04725857
_cell_angle_beta   73.62823656
_cell_angle_gamma   90.64506329
_symmetry_Int_Tables_number   1
_chemical_formula_structural   TiNbSbO6
_chemical_formula_sum   'Ti2 Nb2 Sb2 O12'
_cell_volume   231.21130834
_cell_formula_units_Z   2
loop_
 _symmetry_equiv_pos_site_id
 _symmetry_equiv_pos_as_xyz
  1  'x, y, z'
loop_
 _atom_site_type_symbol
 _atom_site_label
 _atom_site_symmetry_multiplicity
 _atom_site_fract_x
 _atom_site_fract_y
 _atom_site_fract_z
 _atom_site_occupancy
  Ti  Ti0  1  0.58451326  0.67998158  0.34817693  1
  Ti  Ti1  1  0.41548674  0.32001842  0.65182307  1
  Nb  Nb2  1  0.93665895  0.81616828  0.65057038  1
  Nb  Nb3  1  0.06334105  0.18383172  0.34942962  1
  Sb  Sb4  1  0.30421592  0.74388359  0.00120177  1
  Sb  Sb5  1  0.69578408  0.25611641  0.99879823  1
  O  O6  1  0.51731086  0.58424286  0.13759050  1
  O  O7  1  0.65464432  0.91489998  0.86504411  1
  O  O8  1  0.48268914  0.41575714  0.86240950  1
  O  O9  1  0.34535568  0.08510002  0.13495589  1
  O  O10  1  0.22334316  0.84444788  0.43691719  1
  O  O11  1  0.65944718  0.65456996  0.56007742  1
  O  O12  1  0.77665684  0.15555212  0.56308281  1
  O  O13  1  0.34055282  0.34543004  0.43992258  1
  O  O14  1  0.81484317  0.92449165  0.27937676  1
  O  O15  1  0.09914554  0.56563085  0.72243016  1
  O  O16  1  0.18515683  0.07550835  0.72062324  1
  O  O17  1  0.90085446  0.43436915  0.27756984  1
