# generated using pymatgen
data_TiMoAs2
_symmetry_space_group_name_H-M   'P 1'
_cell_length_a   3.41950041
_cell_length_b   6.11190474
_cell_length_c   6.44743753
_cell_angle_alpha   90.00000000
_cell_angle_beta   90.00000000
_cell_angle_gamma   90.00000000
_symmetry_Int_Tables_number   1
_chemical_formula_structural   TiMoAs2
_chemical_formula_sum   'Ti2 Mo2 As4'
_cell_volume   134.74925718
_cell_formula_units_Z   2
loop_
 _symmetry_equiv_pos_site_id
 _symmetry_equiv_pos_as_xyz
  1  'x, y, z'
loop_
 _atom_site_type_symbol
 _atom_site_label
 _atom_site_symmetry_multiplicity
 _atom_site_fract_x
 _atom_site_fract_y
 _atom_site_fract_z
 _atom_site_occupancy
  Ti  Ti0  1  0.25000000  0.50450238  0.31477105  1
  Ti  Ti1  1  0.25000000  0.00450238  0.18522895  1
  Mo  Mo2  1  0.75000000  0.49215092  0.68916652  1
  Mo  Mo3  1  0.75000000  0.99215092  0.81083348  1
  As  As4  1  0.75000000  0.30391425  0.06960940  1
  As  As5  1  0.75000000  0.80391425  0.43039060  1
  As  As6  1  0.25000000  0.69943245  0.92479180  1
  As  As7  1  0.25000000  0.19943245  0.57520820  1
