# generated using pymatgen
data_U4(TeSe)3
_symmetry_space_group_name_H-M   'P 1'
_cell_length_a   4.01340512
_cell_length_b   11.33044008
_cell_length_c   11.76293764
_cell_angle_alpha   90.00000000
_cell_angle_beta   90.00000000
_cell_angle_gamma   90.00000000
_symmetry_Int_Tables_number   1
_chemical_formula_structural   U4(TeSe)3
_chemical_formula_sum   'U8 Te6 Se6'
_cell_volume   534.90366485
_cell_formula_units_Z   2
loop_
 _symmetry_equiv_pos_site_id
 _symmetry_equiv_pos_as_xyz
  1  'x, y, z'
loop_
 _atom_site_type_symbol
 _atom_site_label
 _atom_site_symmetry_multiplicity
 _atom_site_fract_x
 _atom_site_fract_y
 _atom_site_fract_z
 _atom_site_occupancy
  U  U0  1  0.75000000  0.49600459  0.67273483  1
  U  U1  1  0.75000000  0.00399541  0.17273483  1
  U  U2  1  0.25000000  0.49386816  0.30911679  1
  U  U3  1  0.25000000  0.00613184  0.80911679  1
  U  U4  1  0.25000000  0.18418680  0.49930091  1
  U  U5  1  0.25000000  0.31581320  0.99930091  1
  U  U6  1  0.75000000  0.81548314  0.51849902  1
  U  U7  1  0.75000000  0.68451686  0.01849902  1
  Te  Te8  1  0.25000000  0.94773863  0.37023719  1
  Te  Te9  1  0.25000000  0.55226137  0.87023719  1
  Te  Te10  1  0.25000000  0.29002938  0.73534570  1
  Te  Te11  1  0.25000000  0.20997062  0.23534570  1
  Te  Te12  1  0.75000000  0.70445799  0.27539055  1
  Te  Te13  1  0.75000000  0.79554201  0.77539055  1
  Se  Se14  1  0.25000000  0.62751684  0.54219443  1
  Se  Se15  1  0.25000000  0.87248316  0.04219443  1
  Se  Se16  1  0.75000000  0.36886139  0.45282463  1
  Se  Se17  1  0.75000000  0.13113861  0.95282463  1
  Se  Se18  1  0.75000000  0.05068437  0.62435596  1
  Se  Se19  1  0.75000000  0.44931563  0.12435596  1
