# generated using pymatgen
data_Tm4Zr3O12
_symmetry_space_group_name_H-M   'P 1'
_cell_length_a   6.32505430
_cell_length_b   6.35941560
_cell_length_c   6.52326827
_cell_angle_alpha   99.84771834
_cell_angle_beta   98.78482840
_cell_angle_gamma   99.47491197
_symmetry_Int_Tables_number   1
_chemical_formula_structural   Tm4Zr3O12
_chemical_formula_sum   'Tm4 Zr3 O12'
_cell_volume   250.54104277
_cell_formula_units_Z   1
loop_
 _symmetry_equiv_pos_site_id
 _symmetry_equiv_pos_as_xyz
  1  'x, y, z'
loop_
 _atom_site_type_symbol
 _atom_site_label
 _atom_site_symmetry_multiplicity
 _atom_site_fract_x
 _atom_site_fract_y
 _atom_site_fract_z
 _atom_site_occupancy
  Tm  Tm0  1  0.38939851  0.69909732  0.86519353  1
  Tm  Tm1  1  0.69333577  0.86487065  0.38990946  1
  Tm  Tm2  1  0.61060149  0.30090268  0.13480647  1
  Tm  Tm3  1  0.30666423  0.13512935  0.61009054  1
  Zr  Zr4  1  -0.00000000  -0.00000000  -0.00000000  1
  Zr  Zr5  1  0.84867566  0.39549870  0.67239312  1
  Zr  Zr6  1  0.15132434  0.60450130  0.32760688  1
  O  O7  1  0.03325258  0.67725630  0.88945218  1
  O  O8  1  0.68333019  0.92979903  0.06154369  1
  O  O9  1  0.91851389  0.08064457  0.68931781  1
  O  O10  1  0.96674742  0.32274370  0.11054782  1
  O  O11  1  0.31666981  0.07020097  0.93845631  1
  O  O12  1  0.08148611  0.91935543  0.31068219  1
  O  O13  1  0.58333939  0.18600811  0.43091359  1
  O  O14  1  0.17492364  0.42829194  0.57425616  1
  O  O15  1  0.41624606  0.58156892  0.17799090  1
  O  O16  1  0.41666061  0.81399189  0.56908641  1
  O  O17  1  0.82507636  0.57170806  0.42574384  1
  O  O18  1  0.58375394  0.41843108  0.82200910  1
