# generated using pymatgen
data_Ti4WC5
_symmetry_space_group_name_H-M   'P 1'
_cell_length_a   3.06621683
_cell_length_b   3.06621683
_cell_length_c   12.70632819
_cell_angle_alpha   83.06997416
_cell_angle_beta   90.00000000
_cell_angle_gamma   120.00000000
_symmetry_Int_Tables_number   1
_chemical_formula_structural   Ti4WC5
_chemical_formula_sum   'Ti4 W1 C5'
_cell_volume   102.44717073
_cell_formula_units_Z   1
loop_
 _symmetry_equiv_pos_site_id
 _symmetry_equiv_pos_as_xyz
  1  'x, y, z'
loop_
 _atom_site_type_symbol
 _atom_site_label
 _atom_site_symmetry_multiplicity
 _atom_site_fract_x
 _atom_site_fract_y
 _atom_site_fract_z
 _atom_site_occupancy
  Ti  Ti0  1  0.89933712  0.79867425  0.30198863  1
  Ti  Ti1  1  0.49974391  0.99948783  0.50076826  1
  Ti  Ti2  1  0.10025609  0.20051217  0.69923174  1
  Ti  Ti3  1  0.70066288  0.40132575  0.89801137  1
  W  W4  1  0.30000000  0.60000000  0.10000000  1
  C  C5  1  0.39996313  0.79992626  0.80011062  1
  C  C6  1  0.20003687  0.40007374  0.39988938  1
  C  C7  1  0.80000000  0.60000000  0.60000000  1
  C  C8  1  0.00014105  0.00028210  0.99957686  1
  C  C9  1  0.59985895  0.19971790  0.20042314  1
