# generated using pymatgen
data_V10(SiGe)3
_symmetry_space_group_name_H-M   'P 1'
_cell_length_a   4.81027221
_cell_length_b   7.11608193
_cell_length_c   7.14415533
_cell_angle_alpha   96.53358565
_cell_angle_beta   109.67337985
_cell_angle_gamma   70.24578568
_symmetry_Int_Tables_number   1
_chemical_formula_structural   V10(SiGe)3
_chemical_formula_sum   'V10 Si3 Ge3'
_cell_volume   216.72039983
_cell_formula_units_Z   1
loop_
 _symmetry_equiv_pos_site_id
 _symmetry_equiv_pos_as_xyz
  1  'x, y, z'
loop_
 _atom_site_type_symbol
 _atom_site_label
 _atom_site_symmetry_multiplicity
 _atom_site_fract_x
 _atom_site_fract_y
 _atom_site_fract_z
 _atom_site_occupancy
  V  V0  1  0.42394811  0.84588424  0.69378046  1
  V  V1  1  0.57881892  0.14994464  0.30758247  1
  V  V2  1  0.92526090  0.30449535  0.15501715  1
  V  V3  1  0.07234747  0.69597769  0.84067262  1
  V  V4  1  0.72975625  0.69550465  0.15501715  1
  V  V5  1  0.26832515  0.30402231  0.84067262  1
  V  V6  1  0.76983235  0.15411576  0.69378046  1
  V  V7  1  0.22876355  0.85005536  0.30758247  1
  V  V8  1  0.24986370  0.50000000  0.50395631  1
  V  V9  1  0.75409261  0.50000000  0.50395631  1
  Si  Si10  1  0.66566580  0.50000000  0.83133159  1
  Si  Si11  1  0.83395019  0.83144038  0.49934077  1
  Si  Si12  1  0.16539058  0.16855962  0.49934077  1
  Ge  Ge13  1  0.24997105  -0.00000000  -0.00005791  1
  Ge  Ge14  1  0.74997105  0.00000000  -0.00005791  1
  Ge  Ge15  1  0.33404233  0.50000000  0.16808466  1
