# generated using pymatgen
data_TiAl2Cr3C2
_symmetry_space_group_name_H-M   'P 1'
_cell_length_a   2.89736063
_cell_length_b   2.89736697
_cell_length_c   12.91800638
_cell_angle_alpha   90.00000000
_cell_angle_beta   90.00076141
_cell_angle_gamma   59.99992754
_symmetry_Int_Tables_number   1
_chemical_formula_structural   TiAl2Cr3C2
_chemical_formula_sum   'Ti1 Al2 Cr3 C2'
_cell_volume   93.91433099
_cell_formula_units_Z   1
loop_
 _symmetry_equiv_pos_site_id
 _symmetry_equiv_pos_as_xyz
  1  'x, y, z'
loop_
 _atom_site_type_symbol
 _atom_site_label
 _atom_site_symmetry_multiplicity
 _atom_site_fract_x
 _atom_site_fract_y
 _atom_site_fract_z
 _atom_site_occupancy
  Ti  Ti0  1  0.33332695  0.33333653  0.58499246  1
  Al  Al1  1  0.33336432  0.33331784  0.24507836  1
  Al  Al2  1  0.66666647  0.66666677  0.76300423  1
  Cr  Cr3  1  0.66664679  0.66667660  0.40962515  1
  Cr  Cr4  1  0.66668025  0.66665988  0.08402515  1
  Cr  Cr5  1  0.33334055  0.33332973  0.92141579  1
  C  C6  1  0.99999027  0.00000486  0.48934076  1
  C  C7  1  -0.00001560  0.00000780  0.00251809  1
