# generated using pymatgen
data_Ti5Mn7
_symmetry_space_group_name_H-M   'P 1'
_cell_length_a   4.80413954
_cell_length_b   4.80583005
_cell_length_c   7.90914991
_cell_angle_alpha   90.00000000
_cell_angle_beta   90.00753059
_cell_angle_gamma   59.98835897
_symmetry_Int_Tables_number   1
_chemical_formula_structural   Ti5Mn7
_chemical_formula_sum   'Ti5 Mn7'
_cell_volume   158.12243746
_cell_formula_units_Z   1
loop_
 _symmetry_equiv_pos_site_id
 _symmetry_equiv_pos_as_xyz
  1  'x, y, z'
loop_
 _atom_site_type_symbol
 _atom_site_label
 _atom_site_symmetry_multiplicity
 _atom_site_fract_x
 _atom_site_fract_y
 _atom_site_fract_z
 _atom_site_occupancy
  Ti  Ti0  1  0.33331097  0.33334451  0.92938619  1
  Ti  Ti1  1  0.66668903  0.66665549  0.07061381  1
  Ti  Ti2  1  0.66667228  0.66666386  0.44000418  1
  Ti  Ti3  1  0.33332772  0.33333614  0.55999582  1
  Ti  Ti4  1  -0.00000000  -0.00000000  0.00000000  1
  Mn  Mn5  1  0.82662775  0.34660638  0.74292267  1
  Mn  Mn6  1  0.34668023  0.82665988  0.74291592  1
  Mn  Mn7  1  0.82662775  0.82676587  0.74292267  1
  Mn  Mn8  1  0.17337225  0.65339362  0.25707733  1
  Mn  Mn9  1  0.65331977  0.17334012  0.25708408  1
  Mn  Mn10  1  0.17337225  0.17323413  0.25707733  1
  Mn  Mn11  1  0.00000000  -0.00000000  0.50000000  1
