# generated using pymatgen
data_Tm6Ga17Pt5
_symmetry_space_group_name_H-M   'P 1'
_cell_length_a   4.23993554
_cell_length_b   8.11821617
_cell_length_c   16.13292358
_cell_angle_alpha   103.62046697
_cell_angle_beta   97.55086448
_cell_angle_gamma   105.13754683
_symmetry_Int_Tables_number   1
_chemical_formula_structural   Tm6Ga17Pt5
_chemical_formula_sum   'Tm6 Ga17 Pt5'
_cell_volume   509.83174090
_cell_formula_units_Z   1
loop_
 _symmetry_equiv_pos_site_id
 _symmetry_equiv_pos_as_xyz
  1  'x, y, z'
loop_
 _atom_site_type_symbol
 _atom_site_label
 _atom_site_symmetry_multiplicity
 _atom_site_fract_x
 _atom_site_fract_y
 _atom_site_fract_z
 _atom_site_occupancy
  Tm  Tm0  1  0.49689542  0.24692913  0.74686170  1
  Tm  Tm1  1  0.50310458  0.75307087  0.25313830  1
  Tm  Tm2  1  0.80638523  0.70796185  0.90480862  1
  Tm  Tm3  1  0.82027413  0.23144386  0.40910441  1
  Tm  Tm4  1  0.17972587  0.76855614  0.59089559  1
  Tm  Tm5  1  0.19361477  0.29203815  0.09519138  1
  Ga  Ga6  1  0.63825844  0.31653864  0.95997823  1
  Ga  Ga7  1  0.63145884  0.80638288  0.45653479  1
  Ga  Ga8  1  0.36854116  0.19361712  0.54346521  1
  Ga  Ga9  1  0.36174156  0.68346136  0.04002177  1
  Ga  Ga10  1  0.63180468  0.58837046  0.67523890  1
  Ga  Ga11  1  0.63701772  0.09714359  0.17689186  1
  Ga  Ga12  1  0.36298228  0.90285641  0.82310814  1
  Ga  Ga13  1  0.36819532  0.41162954  0.32476110  1
  Ga  Ga14  1  0.83345137  0.06307233  0.60383040  1
  Ga  Ga15  1  0.84576855  0.58328386  0.10825324  1
  Ga  Ga16  1  0.15423145  0.41671614  0.89174676  1
  Ga  Ga17  1  0.16654863  0.93692767  0.39616960  1
  Ga  Ga18  1  0.83843519  0.94209932  0.73477106  1
  Ga  Ga19  1  0.83944935  0.44658536  0.23231335  1
  Ga  Ga20  1  0.16055065  0.55341464  0.76768665  1
  Ga  Ga21  1  0.16156481  0.05790068  0.26522894  1
  Ga  Ga22  1  0.50000000  -0.00000000  -0.00000000  1
  Pt  Pt23  1  0.99842148  0.39312891  0.60371406  1
  Pt  Pt24  1  0.00178874  0.90656969  0.09700779  1
  Pt  Pt25  1  0.99821126  0.09343031  0.90299221  1
  Pt  Pt26  1  0.00157852  0.60687109  0.39628594  1
  Pt  Pt27  1  0.50000000  0.50000000  0.50000000  1
