# generated using pymatgen
data_Ti10CuSn6
_symmetry_space_group_name_H-M   'P 1'
_cell_length_a   5.50324466
_cell_length_b   8.16259018
_cell_length_c   8.15994435
_cell_angle_alpha   120.01073181
_cell_angle_beta   89.98356866
_cell_angle_gamma   90.03285211
_symmetry_Int_Tables_number   1
_chemical_formula_structural   Ti10CuSn6
_chemical_formula_sum   'Ti10 Cu1 Sn6'
_cell_volume   317.40780053
_cell_formula_units_Z   1
loop_
 _symmetry_equiv_pos_site_id
 _symmetry_equiv_pos_as_xyz
  1  'x, y, z'
loop_
 _atom_site_type_symbol
 _atom_site_label
 _atom_site_symmetry_multiplicity
 _atom_site_fract_x
 _atom_site_fract_y
 _atom_site_fract_z
 _atom_site_occupancy
  Ti  Ti0  1  0.49999408  0.33343357  0.66693052  1
  Ti  Ti1  1  0.49999408  0.66650305  0.33306948  1
  Ti  Ti2  1  0.00004460  0.66645824  0.33297304  1
  Ti  Ti3  1  0.00004460  0.33348519  0.66702696  1
  Ti  Ti4  1  0.75951066  0.26217549  1.00000000  1
  Ti  Ti5  1  0.75893647  0.73770422  0.73754295  1
  Ti  Ti6  1  0.75893647  0.00016126  0.26245705  1
  Ti  Ti7  1  0.24041880  0.73777890  0.00000000  1
  Ti  Ti8  1  0.24112196  0.26241791  0.26249171  1
  Ti  Ti9  1  0.24112196  0.99992620  0.73750829  1
  Cu  Cu10  1  0.49988234  0.99987537  0.00000000  1
  Sn  Sn11  1  0.74525993  0.61429425  0.00000000  1
  Sn  Sn12  1  0.74536230  0.38562072  0.38540420  1
  Sn  Sn13  1  0.74536230  0.00021652  0.61459580  1
  Sn  Sn14  1  0.25475584  0.38567108  1.00000000  1
  Sn  Sn15  1  0.25462681  0.61444822  0.61461840  1
  Sn  Sn16  1  0.25462681  0.99982981  0.38538160  1
