# generated using pymatgen
data_TbAlFe
_symmetry_space_group_name_H-M   'P 1'
_cell_length_a   5.43592232
_cell_length_b   5.41969165
_cell_length_c   8.59196491
_cell_angle_alpha   90.00000000
_cell_angle_beta   90.00000000
_cell_angle_gamma   119.90343752
_symmetry_Int_Tables_number   1
_chemical_formula_structural   TbAlFe
_chemical_formula_sum   'Tb4 Al4 Fe4'
_cell_volume   219.42833361
_cell_formula_units_Z   4
loop_
 _symmetry_equiv_pos_site_id
 _symmetry_equiv_pos_as_xyz
  1  'x, y, z'
loop_
 _atom_site_type_symbol
 _atom_site_label
 _atom_site_symmetry_multiplicity
 _atom_site_fract_x
 _atom_site_fract_y
 _atom_site_fract_z
 _atom_site_occupancy
  Tb  Tb0  1  0.66637428  0.33317838  0.56436979  1
  Tb  Tb1  1  0.32607586  0.66304292  0.44894303  1
  Tb  Tb2  1  0.32607586  0.66304292  0.05105697  1
  Tb  Tb3  1  0.66637428  0.33317838  0.93563021  1
  Al  Al4  1  0.67450068  0.83724249  0.75000000  1
  Al  Al5  1  0.83702060  0.67455173  0.25000000  1
  Al  Al6  1  0.83699774  0.16247964  0.25000000  1
  Al  Al7  1  0.32700480  0.16352299  0.25000000  1
  Fe  Fe8  1  0.01295953  0.00646785  0.51220203  1
  Fe  Fe9  1  0.01295953  0.00646785  0.98779797  1
  Fe  Fe10  1  0.15681355  0.32336085  0.75000000  1
  Fe  Fe11  1  0.15684328  0.83346399  0.75000000  1
