# generated using pymatgen
data_ThUB8
_symmetry_space_group_name_H-M   'P 1'
_cell_length_a   4.03598076
_cell_length_b   7.14993556
_cell_length_c   7.14993556
_cell_angle_alpha   91.30965451
_cell_angle_beta   90.00000000
_cell_angle_gamma   90.00000000
_symmetry_Int_Tables_number   1
_chemical_formula_structural   ThUB8
_chemical_formula_sum   'Th2 U2 B16'
_cell_volume   206.27180904
_cell_formula_units_Z   2
loop_
 _symmetry_equiv_pos_site_id
 _symmetry_equiv_pos_as_xyz
  1  'x, y, z'
loop_
 _atom_site_type_symbol
 _atom_site_label
 _atom_site_symmetry_multiplicity
 _atom_site_fract_x
 _atom_site_fract_y
 _atom_site_fract_z
 _atom_site_occupancy
  Th  Th0  1  -0.00000000  0.31172696  0.81172696  1
  Th  Th1  1  0.00000000  0.68827304  0.18827304  1
  U  U2  1  -0.00000000  0.18970058  0.31029942  1
  U  U3  1  0.00000000  0.81029942  0.68970058  1
  B  B4  1  0.79931253  0.50000000  0.50000000  1
  B  B5  1  0.79931253  0.00000000  0.00000000  1
  B  B6  1  0.20068747  0.50000000  0.50000000  1
  B  B7  1  0.20068747  0.00000000  0.00000000  1
  B  B8  1  0.50000000  0.54451365  0.67630229  1
  B  B9  1  0.50000000  0.45548635  0.32369771  1
  B  B10  1  0.50000000  0.96696948  0.17887596  1
  B  B11  1  0.50000000  0.03303052  0.82112404  1
  B  B12  1  0.50000000  0.67887596  0.46696948  1
  B  B13  1  0.50000000  0.32112404  0.53303052  1
  B  B14  1  0.50000000  0.17630229  0.04451365  1
  B  B15  1  0.50000000  0.82369771  0.95548635  1
  B  B16  1  0.50000000  0.08780065  0.58780065  1
  B  B17  1  0.50000000  0.91219935  0.41219935  1
  B  B18  1  0.50000000  0.41134209  0.08865791  1
  B  B19  1  0.50000000  0.58865791  0.91134209  1
