# generated using pymatgen
data_Cs2NaMn(CN)6
_symmetry_space_group_name_H-M   'P 1'
_cell_length_a   7.63889128
_cell_length_b   7.91472203
_cell_length_c   11.04171336
_cell_angle_alpha   90.00000000
_cell_angle_beta   90.20236193
_cell_angle_gamma   90.00000000
_symmetry_Int_Tables_number   1
_chemical_formula_structural   Cs2NaMn(CN)6
_chemical_formula_sum   'Cs4 Na2 Mn2 C12 N12'
_cell_volume   667.57452507
_cell_formula_units_Z   2
loop_
 _symmetry_equiv_pos_site_id
 _symmetry_equiv_pos_as_xyz
  1  'x, y, z'
loop_
 _atom_site_type_symbol
 _atom_site_label
 _atom_site_symmetry_multiplicity
 _atom_site_fract_x
 _atom_site_fract_y
 _atom_site_fract_z
 _atom_site_occupancy
  C  C0  1  0.79209208  0.14258908  0.02326117  1
  C  C1  1  0.29209208  0.35741092  0.52326117  1
  C  C2  1  0.20790792  0.85741092  0.97673883  1
  C  C3  1  0.70790792  0.64258908  0.47673883  1
  C  C4  1  0.64085195  0.29512900  0.47333598  1
  C  C5  1  0.85914805  0.79512900  0.02666402  1
  C  C6  1  0.35914805  0.70487100  0.52666402  1
  C  C7  1  0.14085195  0.20487100  0.97333598  1
  C  C8  1  0.04618763  0.01032097  0.17479985  1
  C  C9  1  0.45381237  0.51032097  0.32520015  1
  C  C10  1  0.95381237  0.98967903  0.82520015  1
  C  C11  1  0.54618763  0.48967903  0.67479985  1
  N  N12  1  0.07489158  0.01860696  0.27951177  1
  N  N13  1  0.42510842  0.51860696  0.22048823  1
  N  N14  1  0.92510842  0.98139304  0.72048823  1
  N  N15  1  0.57489158  0.48139304  0.77951177  1
  N  N16  1  0.72559149  0.17295135  0.45714102  1
  N  N17  1  0.22559149  0.32704865  0.95714102  1
  N  N18  1  0.27440851  0.82704865  0.54285898  1
  N  N19  1  0.77440851  0.67295135  0.04285898  1
  N  N20  1  0.66736463  0.22783066  0.03719929  1
  N  N21  1  0.83263537  0.72783066  0.46280071  1
  N  N22  1  0.33263537  0.77216934  0.96280071  1
  N  N23  1  0.16736463  0.27216934  0.53719929  1
  Na  Na24  1  0.00000000  0.00000000  0.50000000  1
  Na  Na25  1  0.50000000  0.50000000  0.00000000  1
  Mn  Mn26  1  0.00000000  0.00000000  0.00000000  1
  Mn  Mn27  1  0.50000000  0.50000000  0.50000000  1
  Cs  Cs28  1  0.01157273  0.55005747  0.75026681  1
  Cs  Cs29  1  0.48842727  0.05005747  0.74973319  1
  Cs  Cs30  1  0.98842727  0.44994253  0.24973319  1
  Cs  Cs31  1  0.51157273  0.94994253  0.25026681  1
