# generated using pymatgen
data_TlP4(W5O17)4
_symmetry_space_group_name_H-M   'P 1'
_cell_length_a   5.41476104
_cell_length_b   6.73437372
_cell_length_c   36.77683271
_cell_angle_alpha   90.24422416
_cell_angle_beta   90.00958790
_cell_angle_gamma   89.85152497
_symmetry_Int_Tables_number   1
_chemical_formula_structural   TlP4(W5O17)4
_chemical_formula_sum   'Tl1 P4 W20 O68'
_cell_volume   1341.05140150
_cell_formula_units_Z   1
loop_
 _symmetry_equiv_pos_site_id
 _symmetry_equiv_pos_as_xyz
  1  'x, y, z'
loop_
 _atom_site_type_symbol
 _atom_site_label
 _atom_site_symmetry_multiplicity
 _atom_site_fract_x
 _atom_site_fract_y
 _atom_site_fract_z
 _atom_site_occupancy
  Tl  Tl0  1  0.97445176  0.25632568  0.75774203  1
  P  P1  1  0.48123508  0.03941390  0.75989879  1
  P  P2  1  0.52250473  0.94560998  0.26079843  1
  P  P3  1  0.00590599  0.56848313  0.69793448  1
  P  P4  1  0.99689680  0.44765072  0.19989325  1
  W  W5  1  0.00070817  0.91931504  0.62800390  1
  W  W6  1  0.99801713  0.09079291  0.13013949  1
  W  W7  1  0.50703750  0.92263206  0.50055387  1
  W  W8  1  0.49280794  0.07899947  0.00120566  1
  W  W9  1  0.49431417  0.25294686  0.66974346  1
  W  W10  1  0.50204034  0.75215617  0.17162752  1
  W  W11  1  0.50440583  0.59201536  0.58528763  1
  W  W12  1  0.49775921  0.41772811  0.08607260  1
  W  W13  1  0.48281358  0.39859276  0.83198514  1
  W  W14  1  0.51655692  0.58998930  0.33082380  1
  W  W15  1  0.99177778  0.41817707  0.96099245  1
  W  W16  1  0.00822720  0.58731253  0.45845987  1
  W  W17  1  0.48957414  0.73882992  0.91633495  1
  W  W18  1  0.51198438  0.25498555  0.41605905  1
  W  W19  1  0.00333004  0.25706964  0.54313356  1
  W  W20  1  0.99418601  0.75406512  0.04520810  1
  W  W21  1  0.99185196  0.08063813  0.87672381  1
  W  W22  1  0.01192919  0.92043955  0.37420722  1
  W  W23  1  0.98689739  0.73924922  0.79055436  1
  W  W24  1  0.01583925  0.25156925  0.28887327  1
  O  O25  1  0.78496685  0.06288915  0.52049802  1
  O  O26  1  0.21946660  0.93486340  0.02222126  1
  O  O27  1  0.50464451  0.74868064  0.54372853  1
  O  O28  1  0.49566041  0.24990542  0.04549375  1
  O  O29  1  0.26350600  0.93250059  0.89276702  1
  O  O30  1  0.73764187  0.06940321  0.39146491  1
  O  O31  1  0.71758550  0.06963804  0.65312401  1
  O  O32  1  0.27094983  0.93328563  0.15359813  1
  O  O33  1  0.25266503  0.57942728  0.80357474  1
  O  O34  1  0.75129180  0.40820898  0.30414131  1
  O  O35  1  0.99649939  0.08552952  0.58849777  1
  O  O36  1  0.00048811  0.91871345  0.09004985  1
  O  O37  1  0.22169438  0.10831318  0.65722152  1
  O  O38  1  0.76753225  0.90848810  0.15644051  1
  O  O39  1  0.76243299  0.89730356  0.89675344  1
  O  O40  1  0.23933061  0.10130822  0.39548473  1
  O  O41  1  0.70386477  0.22221728  0.85296674  1
  O  O42  1  0.28611577  0.76688378  0.35160754  1
  O  O43  1  0.78118229  0.71751650  0.60628365  1
  O  O44  1  0.22879320  0.26567811  0.10893237  1
  O  O45  1  0.27976869  0.09782023  0.52534156  1
  O  O46  1  0.72139177  0.90367187  0.02636159  1
  O  O47  1  0.49892458  0.11410606  0.72056333  1
  O  O48  1  0.50237325  0.88242638  0.22056732  1
  O  O49  1  0.97837352  0.63387013  0.73840769  1
  O  O50  1  0.01837475  0.38218915  0.24002345  1
  O  O51  1  0.99916038  0.75423785  0.67437884  1
  O  O52  1  0.00452215  0.25933021  0.17595852  1
  O  O53  1  0.48193454  0.58298756  0.87292797  1
  O  O54  1  0.51417144  0.41978929  0.37055826  1
  O  O55  1  0.25594402  0.45915038  0.69500649  1
  O  O56  1  0.74888800  0.55605649  0.19489317  1
  O  O57  1  0.26684638  0.26613119  0.97864247  1
  O  O58  1  0.73048630  0.73466767  0.47686718  1
  O  O59  1  0.98475570  0.24933698  0.91676794  1
  O  O60  1  0.01147412  0.75270699  0.41478087  1
  O  O61  1  0.30056914  0.08252994  0.26902099  1
  O  O62  1  0.70552477  0.90867705  0.76882789  1
  O  O63  1  0.49778177  0.40929381  0.62953942  1
  O  O64  1  0.50145174  0.59032552  0.13099865  1
  O  O65  1  0.47948292  0.22547905  0.78447163  1
  O  O66  1  0.51513783  0.75843108  0.28446411  1
  O  O67  1  0.00729462  0.41649035  0.50087248  1
  O  O68  1  0.99298526  0.58521521  0.00299090  1
  O  O69  1  0.22512029  0.43056584  0.56785547  1
  O  O70  1  0.77054556  0.57041795  0.06906869  1
  O  O71  1  0.28425697  0.76062318  0.61101301  1
  O  O72  1  0.72860793  0.23942024  0.11258877  1
  O  O73  1  0.75868253  0.55847690  0.80671326  1
  O  O74  1  0.24823487  0.43182704  0.30687441  1
  O  O75  1  0.78727124  0.42758274  0.69028821  1
  O  O76  1  0.21693762  0.58368348  0.19156826  1
  O  O77  1  0.24203213  0.92135246  0.76510052  1
  O  O78  1  0.76913786  0.05647351  0.26570958  1
  O  O79  1  0.49142402  0.91380683  0.95911476  1
  O  O80  1  0.50917746  0.08956403  0.45832856  1
  O  O81  1  0.23249431  0.76893552  0.48150078  1
  O  O82  1  0.76661778  0.23474264  0.98322893  1
  O  O83  1  0.18960973  0.25774321  0.84880061  1
  O  O84  1  0.78695660  0.73933299  0.34779793  1
  O  O85  1  0.98767742  0.90257622  0.83005220  1
  O  O86  1  0.01589266  0.09153515  0.32950679  1
  O  O87  1  0.21102786  0.59950893  0.93597127  1
  O  O88  1  0.78827311  0.40255566  0.43371940  1
  O  O89  1  0.72168376  0.39396516  0.56238875  1
  O  O90  1  0.26976798  0.59987519  0.06504885  1
  O  O91  1  0.71359480  0.56423410  0.93988384  1
  O  O92  1  0.28649323  0.43753916  0.43813797  1
