# generated using pymatgen
data_Ti13Pb3
_symmetry_space_group_name_H-M   'P 1'
_cell_length_a   4.79160780
_cell_length_b   5.98951255
_cell_length_c   10.31374564
_cell_angle_alpha   89.98324444
_cell_angle_beta   90.00000000
_cell_angle_gamma   90.00000000
_symmetry_Int_Tables_number   1
_chemical_formula_structural   Ti13Pb3
_chemical_formula_sum   'Ti13 Pb3'
_cell_volume   295.99824763
_cell_formula_units_Z   1
loop_
 _symmetry_equiv_pos_site_id
 _symmetry_equiv_pos_as_xyz
  1  'x, y, z'
loop_
 _atom_site_type_symbol
 _atom_site_label
 _atom_site_symmetry_multiplicity
 _atom_site_fract_x
 _atom_site_fract_y
 _atom_site_fract_z
 _atom_site_occupancy
  Ti  Ti0  1  0.75000000  0.50002661  0.33031621  1
  Ti  Ti1  1  0.75000000  0.99992902  0.84231917  1
  Ti  Ti2  1  0.75000000  0.74625231  0.08435235  1
  Ti  Ti3  1  0.75000000  0.25933876  0.58191935  1
  Ti  Ti4  1  0.75000000  0.25388814  0.08443926  1
  Ti  Ti5  1  0.75000000  0.74079049  0.58192991  1
  Ti  Ti6  1  0.25000000  0.99992674  0.16198385  1
  Ti  Ti7  1  0.25000000  0.50003460  0.65780929  1
  Ti  Ti8  1  0.25000000  0.73251366  0.40860107  1
  Ti  Ti9  1  0.25000000  0.24758547  0.92807937  1
  Ti  Ti10  1  0.25000000  0.26744709  0.40859634  1
  Ti  Ti11  1  0.25000000  0.75211080  0.92805282  1
  Ti  Ti12  1  0.25000000  0.49998447  0.16876472  1
  Pb  Pb13  1  0.25000000  0.00011025  0.66474604  1
  Pb  Pb14  1  0.75000000  0.00015426  0.33613979  1
  Pb  Pb15  1  0.75000000  0.49990734  0.83195046  1
