# generated using pymatgen
data_Tb2Fe17C
_symmetry_space_group_name_H-M   'P 1'
_cell_length_a   6.44947448
_cell_length_b   6.42492498
_cell_length_c   6.44947448
_cell_angle_alpha   83.35592815
_cell_angle_beta   83.54408420
_cell_angle_gamma   83.35592815
_symmetry_Int_Tables_number   1
_chemical_formula_structural   Tb2Fe17C
_chemical_formula_sum   'Tb2 Fe17 C1'
_cell_volume   262.33959666
_cell_formula_units_Z   1
loop_
 _symmetry_equiv_pos_site_id
 _symmetry_equiv_pos_as_xyz
  1  'x, y, z'
loop_
 _atom_site_type_symbol
 _atom_site_label
 _atom_site_symmetry_multiplicity
 _atom_site_fract_x
 _atom_site_fract_y
 _atom_site_fract_z
 _atom_site_occupancy
  Tb  Tb0  1  0.66061231  0.64962761  0.66061231  1
  Tb  Tb1  1  0.33938769  0.35037239  0.33938769  1
  Fe  Fe2  1  0.71466749  -0.00000000  0.28533251  1
  Fe  Fe3  1  0.00048415  0.28996039  0.71070137  1
  Fe  Fe4  1  0.28929863  0.71003961  0.99951585  1
  Fe  Fe5  1  0.99951585  0.71003961  0.28929863  1
  Fe  Fe6  1  0.71070137  0.28996039  0.00048415  1
  Fe  Fe7  1  0.28533251  -0.00000000  0.71466749  1
  Fe  Fe8  1  0.34346700  0.84970070  0.34346700  1
  Fe  Fe9  1  0.84997217  0.34445159  0.34324248  1
  Fe  Fe10  1  0.34324248  0.34445159  0.84997217  1
  Fe  Fe11  1  0.65653300  0.15029930  0.65653300  1
  Fe  Fe12  1  0.15002783  0.65554841  0.65675752  1
  Fe  Fe13  1  0.65675752  0.65554841  0.15002783  1
  Fe  Fe14  1  0.90260821  0.90236065  0.90260821  1
  Fe  Fe15  1  0.09739179  0.09763935  0.09739179  1
  Fe  Fe16  1  -0.00000000  0.50000000  -0.00000000  1
  Fe  Fe17  1  0.50000000  -0.00000000  -0.00000000  1
  Fe  Fe18  1  -0.00000000  -0.00000000  0.50000000  1
  C  C19  1  0.50000000  -0.00000000  0.50000000  1
