# generated using pymatgen
data_Ti5CoSe10
_symmetry_space_group_name_H-M   'P 1'
_cell_length_a   6.14857863
_cell_length_b   7.01698087
_cell_length_c   8.62912629
_cell_angle_alpha   72.88275474
_cell_angle_beta   110.90546028
_cell_angle_gamma   90.01087103
_symmetry_Int_Tables_number   1
_chemical_formula_structural   Ti5CoSe10
_chemical_formula_sum   'Ti5 Co1 Se10'
_cell_volume   330.08568675
_cell_formula_units_Z   1
loop_
 _symmetry_equiv_pos_site_id
 _symmetry_equiv_pos_as_xyz
  1  'x, y, z'
loop_
 _atom_site_type_symbol
 _atom_site_label
 _atom_site_symmetry_multiplicity
 _atom_site_fract_x
 _atom_site_fract_y
 _atom_site_fract_z
 _atom_site_occupancy
  Ti  Ti0  1  0.79461929  0.40099622  0.59944177  1
  Ti  Ti1  1  0.40538071  0.19900378  0.80055823  1
  Ti  Ti2  1  0.60000000  0.80000000  0.20000000  1
  Ti  Ti3  1  0.00151552  0.00157110  0.99806224  1
  Ti  Ti4  1  0.19848448  0.59842890  0.40193776  1
  Co  Co5  1  0.10000000  0.30000000  0.20000000  1
  Se  Se6  1  0.71988319  0.15490571  0.10448490  1
  Se  Se7  1  0.91693925  0.75173112  0.50118967  1
  Se  Se8  1  0.11842929  0.35557481  0.90306069  1
  Se  Se9  1  0.31801210  0.95611101  0.30390768  1
  Se  Se10  1  0.51729044  0.55310524  0.70145519  1
  Se  Se11  1  0.88198790  0.64388899  0.09609232  1
  Se  Se12  1  0.08157071  0.24442519  0.49693931  1
  Se  Se13  1  0.28306075  0.84826888  0.89881033  1
  Se  Se14  1  0.48011681  0.44509429  0.29551510  1
  Se  Se15  1  0.68270956  0.04689476  0.69854481  1
