# generated using pymatgen
data_Ti2Mn3V
_symmetry_space_group_name_H-M   'P 1'
_cell_length_a   4.78344209
_cell_length_b   4.84141521
_cell_length_c   7.89845174
_cell_angle_alpha   90.00000000
_cell_angle_beta   90.00000000
_cell_angle_gamma   120.32413436
_symmetry_Int_Tables_number   1
_chemical_formula_structural   Ti2Mn3V
_chemical_formula_sum   'Ti4 Mn6 V2'
_cell_volume   157.89110918
_cell_formula_units_Z   2
loop_
 _symmetry_equiv_pos_site_id
 _symmetry_equiv_pos_as_xyz
  1  'x, y, z'
loop_
 _atom_site_type_symbol
 _atom_site_label
 _atom_site_symmetry_multiplicity
 _atom_site_fract_x
 _atom_site_fract_y
 _atom_site_fract_z
 _atom_site_occupancy
  Ti  Ti0  1  0.66683478  0.33336026  0.55294944  1
  Ti  Ti1  1  0.33489398  0.66755428  0.43285118  1
  Ti  Ti2  1  0.33489398  0.66755428  0.06714882  1
  Ti  Ti3  1  0.66683478  0.33336026  0.94705056  1
  Mn  Mn4  1  0.66016397  0.83011871  0.75000000  1
  Mn  Mn5  1  0.82874575  0.65726741  0.25000000  1
  Mn  Mn6  1  0.82872438  0.17152525  0.25000000  1
  Mn  Mn7  1  0.34415464  0.17210559  0.25000000  1
  Mn  Mn8  1  0.99537580  0.99757878  0.49080171  1
  Mn  Mn9  1  0.99537580  0.99757878  0.00919829  1
  V  V10  1  0.17199759  0.33824719  0.75000000  1
  V  V11  1  0.17200454  0.83374920  0.75000000  1
