# generated using pymatgen
data_Zn(W18O49)2
_symmetry_space_group_name_H-M   'P 1'
_cell_length_a   7.73299502
_cell_length_b   18.76574423
_cell_length_c   14.76156290
_cell_angle_alpha   112.12722987
_cell_angle_beta   105.18461778
_cell_angle_gamma   78.10960243
_symmetry_Int_Tables_number   1
_chemical_formula_structural   Zn(W18O49)2
_chemical_formula_sum   'Zn1 W36 O98'
_cell_volume   1901.21705600
_cell_formula_units_Z   1
loop_
 _symmetry_equiv_pos_site_id
 _symmetry_equiv_pos_as_xyz
  1  'x, y, z'
loop_
 _atom_site_type_symbol
 _atom_site_label
 _atom_site_symmetry_multiplicity
 _atom_site_fract_x
 _atom_site_fract_y
 _atom_site_fract_z
 _atom_site_occupancy
  Zn  Zn0  1  0.80867996  0.40301669  0.02037660  1
  W  W1  1  0.17948270  0.64273800  0.50189814  1
  W  W2  1  0.67967744  0.64273800  0.50189814  1
  W  W3  1  0.32045516  0.35705218  0.49796758  1
  W  W4  1  0.82046024  0.35705218  0.49796758  1
  W  W5  1  0.03424493  0.77933773  0.34781229  1
  W  W6  1  0.53422963  0.77933773  0.34781229  1
  W  W7  1  0.46574353  0.21937998  0.65106354  1
  W  W8  1  0.96594003  0.21937998  0.65106354  1
  W  W9  1  0.88886527  0.91622683  0.19398400  1
  W  W10  1  0.38889189  0.91622683  0.19398400  1
  W  W11  1  0.61152931  0.08242559  0.80514901  1
  W  W12  1  0.11119410  0.08242559  0.80514901  1
  W  W13  1  0.37648243  0.72302208  0.97598511  1
  W  W14  1  0.87648060  0.72302208  0.97598511  1
  W  W15  1  0.12942069  0.27367292  0.02510175  1
  W  W16  1  0.62200814  0.27367292  0.02510175  1
  W  W17  1  0.25380053  0.74169828  0.74929328  1
  W  W18  1  0.75379447  0.74169828  0.74929328  1
  W  W19  1  0.24636495  0.25890066  0.25153937  1
  W  W20  1  0.74627376  0.25890066  0.25153937  1
  W  W21  1  0.33073214  0.55132036  0.71295246  1
  W  W22  1  0.83089996  0.55132036  0.71295246  1
  W  W23  1  0.16913406  0.44949105  0.28622618  1
  W  W24  1  0.66760107  0.44949105  0.28622618  1
  W  W25  1  0.02106821  0.58522835  0.12624465  1
  W  W26  1  0.51994809  0.58522835  0.12624465  1
  W  W27  1  0.47236923  0.41506272  0.86959210  1
  W  W28  1  0.98216014  0.41506272  0.86959210  1
  W  W29  1  0.12849195  0.87232533  0.62925182  1
  W  W30  1  0.62843453  0.87232533  0.62925182  1
  W  W31  1  0.37152497  0.12693393  0.36996285  1
  W  W32  1  0.87150395  0.12693393  0.36996285  1
  W  W33  1  0.25080161  0.91743236  0.91901537  1
  W  W34  1  0.75078140  0.91743236  0.91901537  1
  W  W35  1  0.24964799  0.08179868  0.08125548  1
  W  W36  1  0.74980880  0.08179868  0.08125548  1
  O  O37  1  0.20374429  0.86160271  0.76911408  1
  O  O38  1  0.70376707  0.86160271  0.76911408  1
  O  O39  1  0.29582426  0.13874044  0.23093758  1
  O  O40  1  0.79637289  0.13874044  0.23093758  1
  O  O41  1  0.96817004  0.85641628  0.29284387  1
  O  O42  1  0.46825756  0.85641628  0.29284387  1
  O  O43  1  0.53221443  0.14286792  0.70720376  1
  O  O44  1  0.03212141  0.14286792  0.70720376  1
  O  O45  1  0.94238243  0.64626400  0.03065126  1
  O  O46  1  0.44200483  0.64626400  0.03065126  1
  O  O47  1  0.57211410  0.36081260  0.97827194  1
  O  O48  1  0.04534524  0.36081260  0.97827194  1
  O  O49  1  0.50149916  0.91768220  0.92068052  1
  O  O50  1  0.00153138  0.91767862  0.92074138  1
  O  O51  1  0.49896251  0.08161463  0.07953965  1
  O  O52  1  0.99924856  0.08100796  0.07950509  1
  O  O53  1  0.18536996  0.54196896  0.41543051  1
  O  O54  1  0.68809158  0.54196896  0.41543051  1
  O  O55  1  0.31270881  0.45847597  0.58387490  1
  O  O56  1  0.81269012  0.45847597  0.58387490  1
  O  O57  1  0.88929237  0.81025887  0.08889189  1
  O  O58  1  0.38934065  0.81025887  0.08889189  1
  O  O59  1  0.61439591  0.18901970  0.91073456  1
  O  O60  1  0.10731895  0.18901970  0.91073456  1
  O  O61  1  0.38102243  0.86907085  0.63111571  1
  O  O62  1  0.88098184  0.86913288  0.63109656  1
  O  O63  1  0.61783450  0.13102402  0.36669302  1
  O  O64  1  0.11789602  0.13105355  0.36684560  1
  O  O65  1  0.50455373  0.74259399  0.75170145  1
  O  O66  1  0.00454422  0.74261584  0.75170428  1
  O  O67  1  0.49587675  0.25793050  0.24968399  1
  O  O68  1  0.99545648  0.25887626  0.24978923  1
  O  O69  1  0.17884831  0.75622647  0.61375464  1
  O  O70  1  0.67867986  0.75622647  0.61375464  1
  O  O71  1  0.32085438  0.24481823  0.38659028  1
  O  O72  1  0.82091766  0.24481823  0.38659028  1
  O  O73  1  0.33289343  0.66001545  0.82582725  1
  O  O74  1  0.83291837  0.66001545  0.82582725  1
  O  O75  1  0.17297838  0.33818060  0.17455732  1
  O  O76  1  0.66339834  0.33818060  0.17455732  1
  O  O77  1  0.10628411  0.97869358  0.69066806  1
  O  O78  1  0.60569037  0.97869358  0.69066806  1
  O  O79  1  0.39412818  0.02077418  0.30904084  1
  O  O80  1  0.89413848  0.02077418  0.30904084  1
  O  O81  1  0.06989747  0.85112839  0.49067144  1
  O  O82  1  0.56964558  0.85112839  0.49067144  1
  O  O83  1  0.43020593  0.14762720  0.50750597  1
  O  O84  1  0.92967284  0.14762720  0.50750597  1
  O  O85  1  0.62289133  0.72233861  0.96812127  1
  O  O86  1  0.12284325  0.72238395  0.96807044  1
  O  O87  1  0.37434231  0.27813016  0.02681478  1
  O  O88  1  0.87582959  0.28476971  0.03642890  1
  O  O89  1  0.02097691  0.68797548  0.22906097  1
  O  O90  1  0.52010858  0.68797548  0.22906097  1
  O  O91  1  0.47680569  0.31374458  0.77271731  1
  O  O92  1  0.98216705  0.31374458  0.77271731  1
  O  O93  1  0.13732450  0.91880184  0.19345083  1
  O  O94  1  0.63735216  0.91878755  0.19349188  1
  O  O95  1  0.86299723  0.08055677  0.80655122  1
  O  O96  1  0.36298899  0.08147046  0.80744844  1
  O  O97  1  0.25429864  0.63304064  0.64151660  1
  O  O98  1  0.75417732  0.63304064  0.64151660  1
  O  O99  1  0.24462363  0.36964844  0.35958465  1
  O  O100  1  0.74531258  0.36964844  0.35958465  1
  O  O101  1  0.28824415  0.77693944  0.35342774  1
  O  O102  1  0.78827845  0.77692016  0.35347706  1
  O  O103  1  0.71177559  0.22332494  0.64687613  1
  O  O104  1  0.21163357  0.22267381  0.64594096  1
  O  O105  1  0.10954993  0.69598515  0.41495115  1
  O  O106  1  0.60941607  0.69598515  0.41495115  1
  O  O107  1  0.39055725  0.30403026  0.58492609  1
  O  O108  1  0.89033859  0.30403026  0.58492609  1
  O  O109  1  0.99238918  0.50073064  0.99942183  1
  O  O110  1  0.50630201  0.50073064  0.99942183  1
  O  O111  1  0.40523856  0.47624899  0.79189932  1
  O  O112  1  0.91041176  0.47624899  0.79189932  1
  O  O113  1  0.09096102  0.52150011  0.20458056  1
  O  O114  1  0.59211944  0.52150011  0.20458056  1
  O  O115  1  0.80262476  0.96814865  0.07397043  1
  O  O116  1  0.30319702  0.96814865  0.07397043  1
  O  O117  1  0.69746116  0.03111158  0.92601702  1
  O  O118  1  0.19744428  0.03111158  0.92601702  1
  O  O119  1  0.43484126  0.64312216  0.51280469  1
  O  O120  1  0.93480622  0.64363549  0.51324793  1
  O  O121  1  0.56522907  0.35656055  0.48701869  1
  O  O122  1  0.06533405  0.35651275  0.48718084  1
  O  O123  1  0.29850212  0.80161041  0.89855517  1
  O  O124  1  0.79844264  0.80161041  0.89855517  1
  O  O125  1  0.20155486  0.19703927  0.10118587  1
  O  O126  1  0.70259174  0.19703927  0.10118587  1
  O  O127  1  0.26890765  0.58653304  0.12434834  1
  O  O128  1  0.76993723  0.58645859  0.12633306  1
  O  O129  1  0.73193113  0.41333023  0.87719250  1
  O  O130  1  0.23307363  0.41306379  0.87921104  1
  O  O131  1  0.58137111  0.55136457  0.71410678  1
  O  O132  1  0.08108275  0.55160103  0.71376653  1
  O  O133  1  0.41820604  0.44897046  0.28538254  1
  O  O134  1  0.91669190  0.44694638  0.28033017  1
