# generated using pymatgen
data_SrCdGa
_symmetry_space_group_name_H-M   'P 1'
_cell_length_a   4.89833837
_cell_length_b   6.28896844
_cell_length_c   6.26742516
_cell_angle_alpha   96.21354603
_cell_angle_beta   113.00289087
_cell_angle_gamma   67.08040701
_symmetry_Int_Tables_number   1
_chemical_formula_structural   SrCdGa
_chemical_formula_sum   'Sr2 Cd2 Ga2'
_cell_volume   163.46851068
_cell_formula_units_Z   2
loop_
 _symmetry_equiv_pos_site_id
 _symmetry_equiv_pos_as_xyz
  1  'x, y, z'
loop_
 _atom_site_type_symbol
 _atom_site_label
 _atom_site_symmetry_multiplicity
 _atom_site_fract_x
 _atom_site_fract_y
 _atom_site_fract_z
 _atom_site_occupancy
  Sr  Sr0  1  0.74807719  0.70851383  0.20466820  1
  Sr  Sr1  1  0.25192281  0.29148617  0.79533180  1
  Cd  Cd2  1  0.06065520  0.11309126  0.23440166  1
  Cd  Cd3  1  0.93934480  0.88690874  0.76559834  1
  Ga  Ga4  1  0.54834998  0.29967572  0.39637567  1
  Ga  Ga5  1  0.45165002  0.70032428  0.60362433  1
