# generated using pymatgen
data_SrLaCoO4
_symmetry_space_group_name_H-M   'P 1'
_cell_length_a   3.85236922
_cell_length_b   3.85236922
_cell_length_c   6.85648957
_cell_angle_alpha   73.68436055
_cell_angle_beta   73.68436055
_cell_angle_gamma   90.00000000
_symmetry_Int_Tables_number   1
_chemical_formula_structural   SrLaCoO4
_chemical_formula_sum   'Sr1 La1 Co1 O4'
_cell_volume   93.38012582
_cell_formula_units_Z   1
loop_
 _symmetry_equiv_pos_site_id
 _symmetry_equiv_pos_as_xyz
  1  'x, y, z'
loop_
 _atom_site_type_symbol
 _atom_site_label
 _atom_site_symmetry_multiplicity
 _atom_site_fract_x
 _atom_site_fract_y
 _atom_site_fract_z
 _atom_site_occupancy
  Sr  Sr0  1  0.35885693  0.35885693  0.28228613  1
  La  La1  1  0.64070749  0.64070749  0.71858502  1
  Co  Co2  1  0.99757184  0.99757184  0.00485631  1
  O  O3  1  0.50564721  0.00564721  0.98870557  1
  O  O4  1  0.00564721  0.50564721  0.98870557  1
  O  O5  1  0.16340170  0.16340170  0.67319661  1
  O  O6  1  0.82816761  0.82816761  0.34366479  1
