# generated using pymatgen
data_Ta8(CuS8)3
_symmetry_space_group_name_H-M   'P 1'
_cell_length_a   3.42983040
_cell_length_b   9.60897060
_cell_length_c   21.79179783
_cell_angle_alpha   89.30708386
_cell_angle_beta   90.00000000
_cell_angle_gamma   90.00000000
_symmetry_Int_Tables_number   1
_chemical_formula_structural   Ta8(CuS8)3
_chemical_formula_sum   'Ta8 Cu3 S24'
_cell_volume   718.14280078
_cell_formula_units_Z   1
loop_
 _symmetry_equiv_pos_site_id
 _symmetry_equiv_pos_as_xyz
  1  'x, y, z'
loop_
 _atom_site_type_symbol
 _atom_site_label
 _atom_site_symmetry_multiplicity
 _atom_site_fract_x
 _atom_site_fract_y
 _atom_site_fract_z
 _atom_site_occupancy
  Ta  Ta0  1  0.75000000  0.44622655  0.18189387  1
  Ta  Ta1  1  0.75000000  0.94636138  0.31795422  1
  Ta  Ta2  1  0.25000000  0.55210132  0.81810775  1
  Ta  Ta3  1  0.25000000  0.05557635  0.68439901  1
  Ta  Ta4  1  0.75000000  0.33429441  0.95716852  1
  Ta  Ta5  1  0.75000000  0.83307298  0.54232414  1
  Ta  Ta6  1  0.25000000  0.66751385  0.04236036  1
  Ta  Ta7  1  0.25000000  0.16714907  0.45814113  1
  Cu  Cu8  1  0.75000000  0.68100267  0.73159225  1
  Cu  Cu9  1  0.25000000  0.81882008  0.23173283  1
  Cu  Cu10  1  0.25000000  0.31896249  0.26819752  1
  S  S11  1  0.75000000  0.47904625  0.05919437  1
  S  S12  1  0.75000000  0.97973941  0.44062565  1
  S  S13  1  0.25000000  0.52319778  0.94244036  1
  S  S14  1  0.25000000  0.01975357  0.55762067  1
  S  S15  1  0.75000000  0.22386001  0.66424918  1
  S  S16  1  0.75000000  0.72965065  0.83467523  1
  S  S17  1  0.25000000  0.76779942  0.33487298  1
  S  S18  1  0.25000000  0.26828436  0.16573514  1
  S  S19  1  0.75000000  0.36618330  0.84002498  1
  S  S20  1  0.75000000  0.86287696  0.66114418  1
  S  S21  1  0.25000000  0.63792324  0.16213144  1
  S  S22  1  0.25000000  0.13730788  0.33794628  1
  S  S23  1  0.75000000  0.47303438  0.28645639  1
  S  S24  1  0.75000000  0.97371438  0.21308453  1
  S  S25  1  0.25000000  0.52613278  0.71372934  1
  S  S26  1  0.25000000  0.02798060  0.78377791  1
  S  S27  1  0.75000000  0.35099226  0.42761147  1
  S  S28  1  0.75000000  0.85112341  0.07194985  1
  S  S29  1  0.25000000  0.64836925  0.57280512  1
  S  S30  1  0.25000000  0.15012956  0.92685625  1
  S  S31  1  0.75000000  0.30219850  0.52054389  1
  S  S32  1  0.75000000  0.80462445  0.97989192  1
  S  S33  1  0.25000000  0.69696488  0.48046091  1
  S  S34  1  0.25000000  0.19619159  0.01922036  1
