# generated using pymatgen
data_SrAlSi5N7O2
_symmetry_space_group_name_H-M   'P 1'
_cell_length_a   4.93742232
_cell_length_b   6.86298438
_cell_length_c   6.83271445
_cell_angle_alpha   90.04453614
_cell_angle_beta   111.53151952
_cell_angle_gamma   69.49518479
_symmetry_Int_Tables_number   1
_chemical_formula_structural   SrAlSi5N7O2
_chemical_formula_sum   'Sr1 Al1 Si5 N7 O2'
_cell_volume   199.54580784
_cell_formula_units_Z   1
loop_
 _symmetry_equiv_pos_site_id
 _symmetry_equiv_pos_as_xyz
  1  'x, y, z'
loop_
 _atom_site_type_symbol
 _atom_site_label
 _atom_site_symmetry_multiplicity
 _atom_site_fract_x
 _atom_site_fract_y
 _atom_site_fract_z
 _atom_site_occupancy
  Sr  Sr0  1  0.70964470  0.00444613  0.98955808  1
  Al  Al1  1  0.64766684  0.85285979  0.47279127  1
  Si  Si2  1  0.34172423  0.66777328  0.66720579  1
  Si  Si3  1  0.34973258  0.33921997  0.33924300  1
  Si  Si4  1  0.02985052  0.14527338  0.53152121  1
  Si  Si5  1  0.03949141  0.46820475  0.85583049  1
  Si  Si6  1  0.65547780  0.52025701  0.14062076  1
  N  N7  1  0.01006100  0.68454655  0.70293727  1
  N  N8  1  -0.00008140  0.31201986  0.30970940  1
  N  N9  1  0.31631850  0.90108274  0.55615795  1
  N  N10  1  0.67239308  0.11048256  0.43250465  1
  N  N11  1  0.68372224  0.55626741  0.89910080  1
  N  N12  1  0.33700046  0.44848529  0.10487735  1
  N  N13  1  0.14185740  0.23066372  0.77157821  1
  O  O14  1  0.42297373  0.50675386  0.50024060  1
  O  O15  1  0.61106692  0.75166372  0.22612316  1
