# generated using pymatgen
data_SrLa2(CoO3)3
_symmetry_space_group_name_H-M   'P 1'
_cell_length_a   5.46471832
_cell_length_b   5.46471832
_cell_length_c   6.69545345
_cell_angle_alpha   90.00000000
_cell_angle_beta   90.00000000
_cell_angle_gamma   120.00000000
_symmetry_Int_Tables_number   1
_chemical_formula_structural   SrLa2(CoO3)3
_chemical_formula_sum   'Sr1 La2 Co3 O9'
_cell_volume   173.15944625
_cell_formula_units_Z   1
loop_
 _symmetry_equiv_pos_site_id
 _symmetry_equiv_pos_as_xyz
  1  'x, y, z'
loop_
 _atom_site_type_symbol
 _atom_site_label
 _atom_site_symmetry_multiplicity
 _atom_site_fract_x
 _atom_site_fract_y
 _atom_site_fract_z
 _atom_site_occupancy
  Sr  Sr0  1  0.66666700  0.33333300  0.83333300  1
  La  La1  1  0.33333300  0.66666700  0.16377283  1
  La  La2  1  0.00000000  -0.00000000  0.50289417  1
  Co  Co3  1  0.33333300  0.66666700  0.66849761  1
  Co  Co4  1  0.00000000  0.00000000  0.99816939  1
  Co  Co5  1  0.66666700  0.33333300  0.33333300  1
  O  O6  1  0.66666700  0.83333300  0.83333300  1
  O  O7  1  0.32452280  0.16226190  0.17525585  1
  O  O8  1  0.00881020  0.50440510  0.49141115  1
  O  O9  1  0.49559490  0.99118980  0.49141115  1
  O  O10  1  0.16666700  0.33333300  0.83333300  1
  O  O11  1  0.83773810  0.67547720  0.17525585  1
  O  O12  1  0.49559490  0.50440510  0.49141115  1
  O  O13  1  0.16666700  0.83333300  0.83333300  1
  O  O14  1  0.83773810  0.16226190  0.17525585  1
