# generated using pymatgen
data_Sr3ZrTi2O9
_symmetry_space_group_name_H-M   'P 1'
_cell_length_a   5.69311837
_cell_length_b   5.69311837
_cell_length_c   12.68456557
_cell_angle_alpha   103.06166530
_cell_angle_beta   76.89144068
_cell_angle_gamma   90.50730824
_symmetry_Int_Tables_number   1
_chemical_formula_structural   Sr3ZrTi2O9
_chemical_formula_sum   'Sr6 Zr2 Ti4 O18'
_cell_volume   389.66441641
_cell_formula_units_Z   2
loop_
 _symmetry_equiv_pos_site_id
 _symmetry_equiv_pos_as_xyz
  1  'x, y, z'
loop_
 _atom_site_type_symbol
 _atom_site_label
 _atom_site_symmetry_multiplicity
 _atom_site_fract_x
 _atom_site_fract_y
 _atom_site_fract_z
 _atom_site_occupancy
  Sr  Sr0  1  0.91961590  0.57945546  0.15961857  1
  Sr  Sr1  1  0.58016210  0.92076653  0.84038143  1
  Sr  Sr2  1  0.25051103  0.24948897  0.50000000  1
  Sr  Sr3  1  0.08038410  0.42054454  0.84038143  1
  Sr  Sr4  1  0.74948897  0.75051103  0.50000000  1
  Sr  Sr5  1  0.41983790  0.07923347  0.15961857  1
  Zr  Zr6  1  0.33265987  0.66618821  0.33352734  1
  Zr  Zr7  1  0.66734013  0.33381179  0.66647266  1
  Ti  Ti8  1  0.50000000  0.50000000  -0.00000000  1
  Ti  Ti9  1  0.83660992  0.16493803  0.32832711  1
  Ti  Ti10  1  0.16339008  0.83506197  0.67167289  1
  Ti  Ti11  1  0.00000000  -0.00000000  -0.00000000  1
  O  O12  1  0.54709263  0.38782333  0.84072971  1
  O  O13  1  0.21028571  0.71635507  0.50606935  1
  O  O14  1  0.88767656  0.05043249  0.16275693  1
  O  O15  1  0.45290737  0.61217667  0.15927029  1
  O  O16  1  0.11232344  0.94956751  0.83724307  1
  O  O17  1  0.78971429  0.28364493  0.49393065  1
  O  O18  1  0.76001119  0.74092878  0.98091858  1
  O  O19  1  0.41910362  0.06448540  0.64538077  1
  O  O20  1  0.08879028  0.39478179  0.30599151  1
  O  O21  1  0.23998881  0.25907122  0.01908142  1
  O  O22  1  0.91120972  0.60521821  0.69400849  1
  O  O23  1  0.58089638  0.93551460  0.35461923  1
  O  O24  1  0.24959357  0.75040643  -0.00000000  1
  O  O25  1  0.59205281  0.40647961  0.33064268  1
  O  O26  1  0.92416406  0.07730351  0.66935732  1
  O  O27  1  0.75040643  0.24959357  0.00000000  1
  O  O28  1  0.07583594  0.92269649  0.33064268  1
  O  O29  1  0.40794719  0.59352039  0.66935732  1
