# generated using pymatgen
data_YbMnGe
_symmetry_space_group_name_H-M   'P 1'
_cell_length_a   6.85303157
_cell_length_b   6.85303157
_cell_length_c   4.38650782
_cell_angle_alpha   90.00000000
_cell_angle_beta   90.00000000
_cell_angle_gamma   120.00000005
_symmetry_Int_Tables_number   1
_chemical_formula_structural   YbMnGe
_chemical_formula_sum   'Yb3 Mn3 Ge3'
_cell_volume   178.40827924
_cell_formula_units_Z   3
loop_
 _symmetry_equiv_pos_site_id
 _symmetry_equiv_pos_as_xyz
  1  'x, y, z'
loop_
 _atom_site_type_symbol
 _atom_site_label
 _atom_site_symmetry_multiplicity
 _atom_site_fract_x
 _atom_site_fract_y
 _atom_site_fract_z
 _atom_site_occupancy
  Mn  Mn0  1  0.76775152  0.76775152  0.50000000  1
  Mn  Mn1  1  0.23224848  0.00000000  0.50000000  1
  Mn  Mn2  1  0.00000000  0.23224848  0.50000000  1
  Ge  Ge3  1  0.66666667  0.33333333  0.50000000  1
  Ge  Ge4  1  0.00000000  0.00000000  0.00000000  1
  Ge  Ge5  1  0.33333333  0.66666667  0.50000000  1
  Yb  Yb6  1  0.00000000  0.56859568  0.00000000  1
  Yb  Yb7  1  0.43140432  0.43140432  0.00000000  1
  Yb  Yb8  1  0.56859568  0.00000000  0.00000000  1
