# generated using pymatgen
data_Sr3CaSn16
_symmetry_space_group_name_H-M   'P 1'
_cell_length_a   4.75945432
_cell_length_b   11.45502730
_cell_length_c   11.45502730
_cell_angle_alpha   76.14650588
_cell_angle_beta   78.00975102
_cell_angle_gamma   78.00975102
_symmetry_Int_Tables_number   1
_chemical_formula_structural   Sr3CaSn16
_chemical_formula_sum   'Sr3 Ca1 Sn16'
_cell_volume   584.86297920
_cell_formula_units_Z   1
loop_
 _symmetry_equiv_pos_site_id
 _symmetry_equiv_pos_as_xyz
  1  'x, y, z'
loop_
 _atom_site_type_symbol
 _atom_site_label
 _atom_site_symmetry_multiplicity
 _atom_site_fract_x
 _atom_site_fract_y
 _atom_site_fract_z
 _atom_site_occupancy
  Sr  Sr0  1  0.38810566  0.98689434  0.23689434  1
  Sr  Sr1  1  0.61209477  0.51319607  0.26261440  1
  Sr  Sr2  1  0.61209477  0.01261440  0.76319607  1
  Ca  Ca3  1  0.38789243  0.48710757  0.73710757  1
  Sn  Sn4  1  0.59000498  0.78499502  0.03499502  1
  Sn  Sn5  1  0.58846018  0.28653982  0.53653982  1
  Sn  Sn6  1  0.40989561  0.21648174  0.96372704  1
  Sn  Sn7  1  0.40989561  0.71372704  0.46648174  1
  Sn  Sn8  1  0.19701235  0.57388942  0.03208588  1
  Sn  Sn9  1  0.19589907  0.07440831  0.53379355  1
  Sn  Sn10  1  0.80512266  0.42640477  0.96334990  1
  Sn  Sn11  1  0.80404612  0.92514792  0.46675983  1
  Sn  Sn12  1  0.19701235  0.78208588  0.82388942  1
  Sn  Sn13  1  0.19589907  0.28379355  0.32440831  1
  Sn  Sn14  1  0.80404612  0.21675983  0.17514792  1
  Sn  Sn15  1  0.80512266  0.71334990  0.67640477  1
  Sn  Sn16  1  0.99865368  0.25295454  0.74973810  1
  Sn  Sn17  1  0.00004411  0.75010584  0.24980595  1
  Sn  Sn18  1  0.00004411  0.99980595  0.00010584  1
  Sn  Sn19  1  0.99865368  0.49973810  0.50295454  1
