# generated using pymatgen
data_Sr6Ir2RuO12
_symmetry_space_group_name_H-M   'P 1'
_cell_length_a   5.57193463
_cell_length_b   6.97776054
_cell_length_c   8.80764054
_cell_angle_alpha   112.25016520
_cell_angle_beta   71.55993006
_cell_angle_gamma   90.00000000
_symmetry_Int_Tables_number   1
_chemical_formula_structural   Sr6Ir2RuO12
_chemical_formula_sum   'Sr6 Ir2 Ru1 O12'
_cell_volume   297.85581989
_cell_formula_units_Z   1
loop_
 _symmetry_equiv_pos_site_id
 _symmetry_equiv_pos_as_xyz
  1  'x, y, z'
loop_
 _atom_site_type_symbol
 _atom_site_label
 _atom_site_symmetry_multiplicity
 _atom_site_fract_x
 _atom_site_fract_y
 _atom_site_fract_z
 _atom_site_occupancy
  Sr  Sr0  1  0.11793276  0.29348539  0.76413547  1
  Sr  Sr1  1  0.78424374  0.29350980  0.43151152  1
  Sr  Sr2  1  0.45087438  0.29460750  0.09825124  1
  Sr  Sr3  1  0.54912562  0.70539250  0.90174876  1
  Sr  Sr4  1  0.21575626  0.70649020  0.56848848  1
  Sr  Sr5  1  0.88206724  0.70651461  0.23586453  1
  Ir  Ir6  1  0.33443743  0.99999543  0.33112414  1
  Ir  Ir7  1  0.66556257  0.00000457  0.66887586  1
  Ru  Ru8  1  0.00000000  -0.00000000  0.00000000  1
  O  O9  1  0.05422900  0.67469657  0.89154300  1
  O  O10  1  0.72078903  0.67419605  0.55842094  1
  O  O11  1  0.38782271  0.67408946  0.22435458  1
  O  O12  1  0.61217729  0.32591054  0.77564542  1
  O  O13  1  0.27921097  0.32580395  0.44157906  1
  O  O14  1  0.94577100  0.32530343  0.10845700  1
  O  O15  1  0.50000000  -0.00000000  0.50000000  1
  O  O16  1  0.16575551  0.00007220  0.16529214  1
  O  O17  1  0.83424449  0.99992780  0.83470786  1
  O  O18  1  0.00000000  -0.00000000  0.50000000  1
  O  O19  1  0.66895336  0.00007220  0.16529214  1
  O  O20  1  0.33104664  0.99992780  0.83470786  1
