# generated using pymatgen
data_Sm4CrFe33
_symmetry_space_group_name_H-M   'P 1'
_cell_length_a   6.44177309
_cell_length_b   6.44177309
_cell_length_c   12.86416734
_cell_angle_alpha   82.85627296
_cell_angle_beta   82.85627296
_cell_angle_gamma   82.98640779
_symmetry_Int_Tables_number   1
_chemical_formula_structural   Sm4CrFe33
_chemical_formula_sum   'Sm4 Cr1 Fe33'
_cell_volume   522.46955295
_cell_formula_units_Z   1
loop_
 _symmetry_equiv_pos_site_id
 _symmetry_equiv_pos_as_xyz
  1  'x, y, z'
loop_
 _atom_site_type_symbol
 _atom_site_label
 _atom_site_symmetry_multiplicity
 _atom_site_fract_x
 _atom_site_fract_y
 _atom_site_fract_z
 _atom_site_occupancy
  Sm  Sm0  1  0.65522408  0.65522408  0.32752792  1
  Sm  Sm1  1  0.65994447  0.65994447  0.83003247  1
  Sm  Sm2  1  0.34087559  0.34087559  0.17074825  1
  Sm  Sm3  1  0.34042429  0.34042429  0.66985489  1
  Cr  Cr4  1  0.90844380  0.90844380  0.45414386  1
  Fe  Fe5  1  0.29208027  0.70799057  0.00016300  1
  Fe  Fe6  1  0.29506527  0.70605671  0.50010981  1
  Fe  Fe7  1  0.70804786  0.99957296  0.14616070  1
  Fe  Fe8  1  0.70704565  0.00060536  0.64717089  1
  Fe  Fe9  1  0.00085005  0.29421558  0.35360812  1
  Fe  Fe10  1  0.99973577  0.29224809  0.85361399  1
  Fe  Fe11  1  0.29421558  0.00085005  0.35360812  1
  Fe  Fe12  1  0.29224809  0.99973577  0.85361399  1
  Fe  Fe13  1  0.99957296  0.70804786  0.14616070  1
  Fe  Fe14  1  0.00060536  0.70704565  0.64717089  1
  Fe  Fe15  1  0.70799057  0.29208027  0.00016300  1
  Fe  Fe16  1  0.70605671  0.29506527  0.50010981  1
  Fe  Fe17  1  0.99849426  0.99849426  0.25088406  1
  Fe  Fe18  1  0.00007556  0.00007556  0.74986287  1
  Fe  Fe19  1  0.99857704  0.50151755  0.49919806  1
  Fe  Fe20  1  0.00000606  0.49998283  0.00018914  1
  Fe  Fe21  1  0.49998283  0.00000606  0.00018914  1
  Fe  Fe22  1  0.50151755  0.99857704  0.49919806  1
  Fe  Fe23  1  0.84386150  0.34060397  0.17174778  1
  Fe  Fe24  1  0.84426567  0.34308107  0.67001282  1
  Fe  Fe25  1  0.34142618  0.34142618  0.42188951  1
  Fe  Fe26  1  0.34209630  0.34209630  0.92206011  1
  Fe  Fe27  1  0.34060397  0.84386150  0.17174778  1
  Fe  Fe28  1  0.34308107  0.84426567  0.67001282  1
  Fe  Fe29  1  0.15547855  0.65831369  0.32933626  1
  Fe  Fe30  1  0.15625434  0.65824129  0.82873952  1
  Fe  Fe31  1  0.65780170  0.65780170  0.07814553  1
  Fe  Fe32  1  0.65864494  0.65864494  0.57811319  1
  Fe  Fe33  1  0.65831369  0.15547855  0.32933626  1
  Fe  Fe34  1  0.65824129  0.15625434  0.82873952  1
  Fe  Fe35  1  0.90399739  0.90399739  0.95204985  1
  Fe  Fe36  1  0.09605314  0.09605314  0.04785864  1
  Fe  Fe37  1  0.09280055  0.09280055  0.54672863  1
