# generated using pymatgen
data_SmTiCo11
_symmetry_space_group_name_H-M   'P 1'
_cell_length_a   4.68032561
_cell_length_b   6.35838399
_cell_length_c   6.35838399
_cell_angle_alpha   97.44447837
_cell_angle_beta   111.59501421
_cell_angle_gamma   68.40498579
_symmetry_Int_Tables_number   1
_chemical_formula_structural   SmTiCo11
_chemical_formula_sum   'Sm1 Ti1 Co11'
_cell_volume   163.58614898
_cell_formula_units_Z   1
loop_
 _symmetry_equiv_pos_site_id
 _symmetry_equiv_pos_as_xyz
  1  'x, y, z'
loop_
 _atom_site_type_symbol
 _atom_site_label
 _atom_site_symmetry_multiplicity
 _atom_site_fract_x
 _atom_site_fract_y
 _atom_site_fract_z
 _atom_site_occupancy
  Sm  Sm0  1  0.00701233  0.99298767  0.00701233  1
  Ti  Ti1  1  0.63064118  0.36935882  0.63064118  1
  Co  Co2  1  0.72996311  0.77003689  0.22996311  1
  Co  Co3  1  0.27694584  0.22305416  0.77694584  1
  Co  Co4  1  0.49851457  0.77855563  0.77558477  1
  Co  Co5  1  0.49851457  0.22441523  0.22144437  1
  Co  Co6  1  0.49963283  0.99465707  0.49837573  1
  Co  Co7  1  0.00408584  0.99465707  0.49837573  1
  Co  Co8  1  0.49963283  0.50162427  0.00534293  1
  Co  Co9  1  0.00408584  0.50162427  0.00534293  1
  Co  Co10  1  0.35437799  0.64562201  0.35437799  1
  Co  Co11  1  0.99829654  0.36146083  0.35805392  1
  Co  Co12  1  0.99829654  0.64194608  0.63853917  1
