# generated using pymatgen
data_SmDyFe17
_symmetry_space_group_name_H-M   'P 1'
_cell_length_a   6.41064107
_cell_length_b   6.41064121
_cell_length_c   6.41064107
_cell_angle_alpha   83.06085850
_cell_angle_beta   83.06086671
_cell_angle_gamma   83.06085850
_symmetry_Int_Tables_number   1
_chemical_formula_structural   SmDyFe17
_chemical_formula_sum   'Sm1 Dy1 Fe17'
_cell_volume   258.09569964
_cell_formula_units_Z   1
loop_
 _symmetry_equiv_pos_site_id
 _symmetry_equiv_pos_as_xyz
  1  'x, y, z'
loop_
 _atom_site_type_symbol
 _atom_site_label
 _atom_site_symmetry_multiplicity
 _atom_site_fract_x
 _atom_site_fract_y
 _atom_site_fract_z
 _atom_site_occupancy
  Sm  Sm0  1  0.34196062  0.34196062  0.34196062  1
  Dy  Dy1  1  0.65841127  0.65841127  0.65841127  1
  Fe  Fe2  1  0.34390294  0.84464438  0.34390294  1
  Fe  Fe3  1  0.84464438  0.34390294  0.34390294  1
  Fe  Fe4  1  0.34390294  0.34390294  0.84464438  1
  Fe  Fe5  1  0.65658914  0.15503523  0.65658914  1
  Fe  Fe6  1  0.15503523  0.65658914  0.65658914  1
  Fe  Fe7  1  0.65658914  0.65658914  0.15503523  1
  Fe  Fe8  1  0.99963909  0.50018490  0.99963909  1
  Fe  Fe9  1  0.50018490  0.99963909  0.99963909  1
  Fe  Fe10  1  0.99963909  0.99963909  0.50018490  1
  Fe  Fe11  1  0.70770118  0.99943521  0.29281261  1
  Fe  Fe12  1  0.99943521  0.29281261  0.70770118  1
  Fe  Fe13  1  0.29281261  0.70770118  0.99943521  1
  Fe  Fe14  1  0.99943521  0.70770118  0.29281261  1
  Fe  Fe15  1  0.70770118  0.29281261  0.99943521  1
  Fe  Fe16  1  0.29281261  0.99943521  0.70770118  1
  Fe  Fe17  1  0.90325334  0.90325334  0.90325334  1
  Fe  Fe18  1  0.09634994  0.09634994  0.09634994  1
