# generated using pymatgen
data_Sr2Sm2TlNi2O9
_symmetry_space_group_name_H-M   'P 1'
_cell_length_a   3.80617609
_cell_length_b   3.80617609
_cell_length_c   15.13115932
_cell_angle_alpha   82.73079979
_cell_angle_beta   82.73079979
_cell_angle_gamma   89.65441533
_symmetry_Int_Tables_number   1
_chemical_formula_structural   Sr2Sm2TlNi2O9
_chemical_formula_sum   'Sr2 Sm2 Tl1 Ni2 O9'
_cell_volume   215.68414670
_cell_formula_units_Z   1
loop_
 _symmetry_equiv_pos_site_id
 _symmetry_equiv_pos_as_xyz
  1  'x, y, z'
loop_
 _atom_site_type_symbol
 _atom_site_label
 _atom_site_symmetry_multiplicity
 _atom_site_fract_x
 _atom_site_fract_y
 _atom_site_fract_z
 _atom_site_occupancy
  Sr  Sr0  1  0.58977196  0.58977196  0.83052078  1
  Sr  Sr1  1  0.42029275  0.42029275  0.16947922  1
  Sm  Sm2  1  0.70333120  0.70333120  0.59479979  1
  Sm  Sm3  1  0.29813099  0.29813099  0.40520021  1
  Tl  Tl4  1  0.03806983  0.03806983  0.00000000  1
  Ni  Ni5  1  0.14933444  0.14933444  0.70413612  1
  Ni  Ni6  1  0.85347055  0.85347055  0.29586388  1
  O  O7  1  0.15162349  0.65172872  0.69928400  1
  O  O8  1  0.65172872  0.15162349  0.69928400  1
  O  O9  1  0.85090750  0.35101273  0.30071600  1
  O  O10  1  0.35101273  0.85090750  0.30071600  1
  O  O11  1  0.07040112  0.07040112  0.85766395  1
  O  O12  1  0.92806506  0.92806506  0.14233605  1
  O  O13  1  0.22050353  0.22050353  0.55982531  1
  O  O14  1  0.78032885  0.78032885  0.44017469  1
  O  O15  1  0.47802728  0.47802728  0.00000000  1
