# generated using pymatgen
data_Sm2Fe17C
_symmetry_space_group_name_H-M   'P 1'
_cell_length_a   6.46617055
_cell_length_b   6.46617055
_cell_length_c   6.46505817
_cell_angle_alpha   83.59092650
_cell_angle_beta   83.59092650
_cell_angle_gamma   83.48704660
_symmetry_Int_Tables_number   1
_chemical_formula_structural   Sm2Fe17C
_chemical_formula_sum   'Sm2 Fe17 C1'
_cell_volume   265.54577762
_cell_formula_units_Z   1
loop_
 _symmetry_equiv_pos_site_id
 _symmetry_equiv_pos_as_xyz
  1  'x, y, z'
loop_
 _atom_site_type_symbol
 _atom_site_label
 _atom_site_symmetry_multiplicity
 _atom_site_fract_x
 _atom_site_fract_y
 _atom_site_fract_z
 _atom_site_occupancy
  Sm  Sm0  1  0.66163143  0.66163143  0.64927156  1
  Sm  Sm1  1  0.33836857  0.33836857  0.35072844  1
  Fe  Fe2  1  0.34286282  0.34286282  0.85063397  1
  Fe  Fe3  1  0.34161445  0.84927707  0.34266112  1
  Fe  Fe4  1  0.84927707  0.34161445  0.34266112  1
  Fe  Fe5  1  0.65713718  0.65713718  0.14936603  1
  Fe  Fe6  1  0.65838555  0.15072293  0.65733888  1
  Fe  Fe7  1  0.15072293  0.65838555  0.65733888  1
  Fe  Fe8  1  0.90362567  0.90362567  0.90320943  1
  Fe  Fe9  1  0.09637433  0.09637433  0.09679057  1
  Fe  Fe10  1  -0.00000000  -0.00000000  0.50000000  1
  Fe  Fe11  1  -0.00000000  0.50000000  -0.00000000  1
  Fe  Fe12  1  0.50000000  -0.00000000  -0.00000000  1
  Fe  Fe13  1  0.28528864  0.71471136  0.00000000  1
  Fe  Fe14  1  0.71160370  0.00039823  0.28850749  1
  Fe  Fe15  1  0.99960177  0.28839630  0.71149251  1
  Fe  Fe16  1  0.28839630  0.99960177  0.71149251  1
  Fe  Fe17  1  0.00039823  0.71160370  0.28850749  1
  Fe  Fe18  1  0.71471136  0.28528864  -0.00000000  1
  C  C19  1  0.50000000  0.50000000  -0.00000000  1
