# generated using pymatgen
data_Sr8V6O19
_symmetry_space_group_name_H-M   'P 1'
_cell_length_a   5.58735304
_cell_length_b   5.56731619
_cell_length_c   14.34646315
_cell_angle_alpha   90.00000000
_cell_angle_beta   78.77109385
_cell_angle_gamma   90.00000000
_symmetry_Int_Tables_number   1
_chemical_formula_structural   Sr8V6O19
_chemical_formula_sum   'Sr8 V6 O19'
_cell_volume   437.72621811
_cell_formula_units_Z   1
loop_
 _symmetry_equiv_pos_site_id
 _symmetry_equiv_pos_as_xyz
  1  'x, y, z'
loop_
 _atom_site_type_symbol
 _atom_site_label
 _atom_site_symmetry_multiplicity
 _atom_site_fract_x
 _atom_site_fract_y
 _atom_site_fract_z
 _atom_site_occupancy
  Sr  Sr0  1  0.43103743  0.00000000  0.13792514  1
  Sr  Sr1  1  0.93099156  0.50000000  0.13801688  1
  Sr  Sr2  1  0.06699258  0.50000000  0.86601485  1
  Sr  Sr3  1  0.56702540  0.00000000  0.86594921  1
  Sr  Sr4  1  0.29872639  0.00000000  0.40254721  1
  Sr  Sr5  1  0.79925280  0.50000000  0.40149440  1
  Sr  Sr6  1  0.20243511  0.50000000  0.59512979  1
  Sr  Sr7  1  0.70315083  0.00000000  0.59369833  1
  V  V8  1  0.13831479  0.00000000  0.72337041  1
  V  V9  1  0.64388590  0.50000000  0.71222819  1
  V  V10  1  0.35965397  0.50000000  0.28069206  1
  V  V11  1  0.85961684  -0.00000000  0.28076631  1
  V  V12  1  0.49450070  0.50000000  0.01099860  1
  V  V13  1  0.00112339  0.00000000  0.99775322  1
  O  O14  1  0.20873708  -0.00000000  0.58252584  1
  O  O15  1  0.71353328  0.50000000  0.57293344  1
  O  O16  1  0.29201642  0.50000000  0.41596716  1
  O  O17  1  0.79003453  0.00000000  0.41993094  1
  O  O18  1  0.38617130  0.24909696  0.73004920  1
  O  O19  1  0.88377950  0.75090304  0.73004920  1
  O  O20  1  0.88377950  0.24909696  0.73004920  1
  O  O21  1  0.38617130  0.75090304  0.73004920  1
  O  O22  1  0.10837776  0.24563941  0.27679695  1
  O  O23  1  0.61482529  0.75436059  0.27679695  1
  O  O24  1  0.61482529  0.24563941  0.27679695  1
  O  O25  1  0.10837776  0.75436059  0.27679695  1
  O  O26  1  0.25838271  0.25472875  0.99296993  1
  O  O27  1  0.74864736  0.74527125  0.99296993  1
  O  O28  1  0.25838271  0.74527125  0.99296993  1
  O  O29  1  0.74864736  0.25472875  0.99296993  1
  O  O30  1  0.06771974  -0.00000000  0.86456052  1
  O  O31  1  0.93420638  0.00000000  0.13158725  1
  O  O32  1  0.42667702  0.50000000  0.14664596  1
