# generated using pymatgen
data_Sr2La3FeCo4O15
_symmetry_space_group_name_H-M   'P 1'
_cell_length_a   5.49929124
_cell_length_b   5.49929047
_cell_length_c   11.57823827
_cell_angle_alpha   76.26191415
_cell_angle_beta   103.73808826
_cell_angle_gamma   119.99999541
_symmetry_Int_Tables_number   1
_chemical_formula_structural   Sr2La3FeCo4O15
_chemical_formula_sum   'Sr2 La3 Fe1 Co4 O15'
_cell_volume   291.61567055
_cell_formula_units_Z   1
loop_
 _symmetry_equiv_pos_site_id
 _symmetry_equiv_pos_as_xyz
  1  'x, y, z'
loop_
 _atom_site_type_symbol
 _atom_site_label
 _atom_site_symmetry_multiplicity
 _atom_site_fract_x
 _atom_site_fract_y
 _atom_site_fract_z
 _atom_site_occupancy
  Sr  Sr0  1  0.70016296  0.29983704  0.10048889  1
  Sr  Sr1  1  0.50009958  0.49990042  0.50029873  1
  La  La2  1  0.09981283  0.90018717  0.29943849  1
  La  La3  1  0.89956382  0.10043618  0.69869145  1
  La  La4  1  0.29925715  0.70074285  0.89777144  1
  Fe  Fe5  1  0.39962712  0.60037288  0.19888136  1
  Co  Co6  1  0.80007034  0.19992966  0.40021103  1
  Co  Co7  1  0.19848132  0.80151868  0.59544395  1
  Co  Co8  1  0.59996599  0.40003401  0.79989798  1
  Co  Co9  1  -0.00019879  0.00019879  -0.00059637  1
  O  O10  1  0.50627217  0.00241042  0.50145134  1
  O  O11  1  0.28687389  0.19548129  0.89591131  1
  O  O12  1  0.70628525  0.80425328  0.09777868  1
  O  O13  1  0.09554203  0.39660479  0.30233244  1
  O  O14  1  0.90894221  0.60162915  0.70568391  1
  O  O15  1  0.99758958  0.49372783  0.50145134  1
  O  O16  1  0.80451871  0.71312611  0.89591131  1
  O  O17  1  0.19574672  0.29371475  0.09777868  1
  O  O18  1  0.60339521  0.90445797  0.30233244  1
  O  O19  1  0.39837085  0.09105779  0.70568391  1
  O  O20  1  0.60339521  0.39660479  0.30233244  1
  O  O21  1  0.39837085  0.60162915  0.70568391  1
  O  O22  1  0.80451871  0.19548129  0.89591131  1
  O  O23  1  0.19574672  0.80425328  0.09777868  1
  O  O24  1  0.99758958  0.00241042  0.50145134  1
