# generated using pymatgen
data_SrCa3Al6Si6(HO13)2
_symmetry_space_group_name_H-M   'P 1'
_cell_length_a   5.64068810
_cell_length_b   8.95149745
_cell_length_c   10.35028143
_cell_angle_alpha   115.03797023
_cell_angle_beta   90.00000000
_cell_angle_gamma   90.00000000
_symmetry_Int_Tables_number   1
_chemical_formula_structural   SrCa3Al6Si6(HO13)2
_chemical_formula_sum   'Sr1 Ca3 Al6 Si6 H2 O26'
_cell_volume   473.50146256
_cell_formula_units_Z   1
loop_
 _symmetry_equiv_pos_site_id
 _symmetry_equiv_pos_as_xyz
  1  'x, y, z'
loop_
 _atom_site_type_symbol
 _atom_site_label
 _atom_site_symmetry_multiplicity
 _atom_site_fract_x
 _atom_site_fract_y
 _atom_site_fract_z
 _atom_site_occupancy
  Sr  Sr0  1  0.75000000  0.59285047  0.42019619  1
  Ca  Ca1  1  0.25000000  0.23310615  0.84032035  1
  Ca  Ca2  1  0.75000000  0.76769268  0.16001905  1
  Ca  Ca3  1  0.25000000  0.39410080  0.58625938  1
  Al  Al4  1  0.75000000  0.71687572  0.78135895  1
  Al  Al5  1  0.25000000  0.28397427  0.22125924  1
  Al  Al6  1  0.49987423  0.00039100  0.00012547  1
  Al  Al7  1  0.00012577  0.00039100  0.00012547  1
  Al  Al8  1  0.49975317  0.00017315  0.49969472  1
  Al  Al9  1  0.00024683  0.00017315  0.49969472  1
  Si  Si10  1  0.25000000  0.82193374  0.68968113  1
  Si  Si11  1  0.75000000  0.17732641  0.31136446  1
  Si  Si12  1  0.25000000  0.66373885  0.95388271  1
  Si  Si13  1  0.75000000  0.33556374  0.04359626  1
  Si  Si14  1  0.75000000  0.32141142  0.72220605  1
  Si  Si15  1  0.25000000  0.67943452  0.27558744  1
  H  H16  1  0.75000000  0.95352751  0.67964481  1
  H  H17  1  0.25000000  0.04812625  0.32184597  1
  O  O18  1  0.75000000  0.92775488  0.57688411  1
  O  O19  1  0.25000000  0.07683987  0.42514213  1
  O  O20  1  0.51133518  0.21449614  0.64829618  1
  O  O21  1  0.01378877  0.78895464  0.34921212  1
  O  O22  1  0.48621123  0.78895464  0.34921212  1
  O  O23  1  0.98866482  0.21449614  0.64829618  1
  O  O24  1  0.75000000  0.33989563  0.88635633  1
  O  O25  1  0.25000000  0.65481701  0.10934272  1
  O  O26  1  0.49811786  0.76534788  0.95318774  1
  O  O27  1  0.99769658  0.23488666  0.04677738  1
  O  O28  1  0.50230342  0.23488666  0.04677738  1
  O  O29  1  0.00188214  0.76534788  0.95318774  1
  O  O30  1  0.25000000  0.94314138  0.60296079  1
  O  O31  1  0.75000000  0.05690893  0.39772782  1
  O  O32  1  0.25000000  0.96572163  0.85926777  1
  O  O33  1  0.75000000  0.03549897  0.14139322  1
  O  O34  1  0.48587641  0.70440744  0.65707044  1
  O  O35  1  0.98733195  0.29492633  0.34585452  1
  O  O36  1  0.51266805  0.29492633  0.34585452  1
  O  O37  1  0.01412359  0.70440744  0.65707044  1
  O  O38  1  0.75000000  0.49450029  0.71011160  1
  O  O39  1  0.25000000  0.50658995  0.28937757  1
  O  O40  1  0.75000000  0.94712282  0.87041915  1
  O  O41  1  0.25000000  0.05359115  0.13011538  1
  O  O42  1  0.25000000  0.48181925  0.82994225  1
  O  O43  1  0.75000000  0.51896928  0.16330003  1
