# generated using pymatgen
data_Rb2BaBr4
_symmetry_space_group_name_H-M   'P 1'
_cell_length_a   8.82575646
_cell_length_b   8.82575646
_cell_length_c   8.82575646
_cell_angle_alpha   69.97771511
_cell_angle_beta   71.62537392
_cell_angle_gamma   110.02228489
_symmetry_Int_Tables_number   1
_chemical_formula_structural   Rb2BaBr4
_chemical_formula_sum   'Rb4 Ba2 Br8'
_cell_volume   529.07211647
_cell_formula_units_Z   2
loop_
 _symmetry_equiv_pos_site_id
 _symmetry_equiv_pos_as_xyz
  1  'x, y, z'
loop_
 _atom_site_type_symbol
 _atom_site_label
 _atom_site_symmetry_multiplicity
 _atom_site_fract_x
 _atom_site_fract_y
 _atom_site_fract_z
 _atom_site_occupancy
  Rb  Rb0  1  0.86889401  0.61889401  0.75000000  1
  Rb  Rb1  1  0.63110599  0.88110599  0.25000000  1
  Rb  Rb2  1  0.75000000  0.11889401  0.63110599  1
  Rb  Rb3  1  0.25000000  0.38110599  0.86889401  1
  Ba  Ba4  1  0.37500000  0.25000000  0.37500000  1
  Ba  Ba5  1  0.12500000  0.75000000  0.12500000  1
  Br  Br6  1  0.84927571  0.36492943  0.15124867  1
  Br  Br7  1  0.48382190  0.13507057  0.01565372  1
  Br  Br8  1  0.65072429  0.49947562  0.48434628  1
  Br  Br9  1  0.01617810  0.00052438  0.34875133  1
  Br  Br10  1  0.48434628  0.63507057  0.01617810  1
  Br  Br11  1  0.34875133  0.86492943  0.65072429  1
  Br  Br12  1  0.15124867  0.50052438  0.48382190  1
  Br  Br13  1  0.01565372  0.99947562  0.84927571  1
