# generated using pymatgen
data_Sr10Mn8B2O25
_symmetry_space_group_name_H-M   'P 1'
_cell_length_a   7.83887992
_cell_length_b   17.76329928
_cell_length_c   9.73740614
_cell_angle_alpha   82.91708150
_cell_angle_beta   66.26458083
_cell_angle_gamma   77.25289292
_symmetry_Int_Tables_number   1
_chemical_formula_structural   Sr10Mn8B2O25
_chemical_formula_sum   'Sr20 Mn16 B4 O50'
_cell_volume   1209.69582079
_cell_formula_units_Z   2
loop_
 _symmetry_equiv_pos_site_id
 _symmetry_equiv_pos_as_xyz
  1  'x, y, z'
loop_
 _atom_site_type_symbol
 _atom_site_label
 _atom_site_symmetry_multiplicity
 _atom_site_fract_x
 _atom_site_fract_y
 _atom_site_fract_z
 _atom_site_occupancy
  Sr  Sr0  1  0.38396260  0.84702310  0.87676616  1
  Sr  Sr1  1  0.38472162  0.64192003  0.08241251  1
  Sr  Sr2  1  0.38351837  0.44720770  0.29013350  1
  Sr  Sr3  1  0.38296572  0.04752283  0.68872282  1
  Sr  Sr4  1  0.38361023  0.24815286  0.48981872  1
  Sr  Sr5  1  0.10775185  0.75297690  0.52323384  1
  Sr  Sr6  1  0.11921137  0.55247717  0.71127718  1
  Sr  Sr7  1  0.12158181  0.35184714  0.91018128  1
  Sr  Sr8  1  0.10905417  0.95807997  0.31758749  1
  Sr  Sr9  1  0.12085957  0.15279230  0.10986650  1
  Sr  Sr10  1  0.63915700  0.75290497  0.51412577  1
  Sr  Sr11  1  0.64199579  0.55134548  0.70766112  1
  Sr  Sr12  1  0.63915821  0.35144552  0.90811512  1
  Sr  Sr13  1  0.63575449  0.95499506  0.31358831  1
  Sr  Sr14  1  0.63920066  0.15242916  0.10775344  1
  Sr  Sr15  1  0.90618774  0.84709503  0.88587423  1
  Sr  Sr16  1  0.90433786  0.64500494  0.08641169  1
  Sr  Sr17  1  0.89938327  0.44757084  0.29224656  1
  Sr  Sr18  1  0.90100239  0.04865452  0.69233888  1
  Sr  Sr19  1  0.89871885  0.24855448  0.49188488  1
  Mn  Mn20  1  0.75246838  0.69989925  0.80401527  1
  Mn  Mn21  1  0.76078413  0.49775389  0.99760723  1
  Mn  Mn22  1  0.75937702  0.29977294  0.19862672  1
  Mn  Mn23  1  0.75770421  0.90083102  0.59868476  1
  Mn  Mn24  1  0.75766018  0.10130724  0.39898553  1
  Mn  Mn25  1  0.25721999  0.69916898  0.80131524  1
  Mn  Mn26  1  0.25795295  0.49869276  0.00101447  1
  Mn  Mn27  1  0.25777668  0.30022706  0.20137328  1
  Mn  Mn28  1  0.25638291  0.90010075  0.59598473  1
  Mn  Mn29  1  0.25614525  0.10224611  0.40239277  1
  Mn  Mn30  1  0.51906480  0.80000000  0.20000000  1
  Mn  Mn31  1  0.00885655  0.99902175  0.99939366  1
  Mn  Mn32  1  0.00798248  0.20010807  0.79998330  1
  Mn  Mn33  1  0.00807385  0.39989193  0.60001670  1
  Mn  Mn34  1  0.00727195  0.60097825  0.40060634  1
  Mn  Mn35  1  0.01366718  0.80000000  0.20000000  1
  B  B36  1  0.54489940  0.99779292  0.00158729  1
  B  B37  1  0.54398848  0.19982435  0.79956735  1
  B  B38  1  0.54338019  0.40017565  0.60043265  1
  B  B39  1  0.54427961  0.60220708  0.39841271  1
  O  O40  1  0.75311637  0.80000000  0.20000000  1
  O  O41  1  0.72613926  0.60070115  0.39972070  1
  O  O42  1  0.72561032  0.40011283  0.59986838  1
  O  O43  1  0.72656111  0.99929885  0.00027930  1
  O  O44  1  0.72559153  0.19988717  0.80013162  1
  O  O45  1  0.89113839  0.64862253  0.59549820  1
  O  O46  1  0.89705944  0.44640765  0.79314302  1
  O  O47  1  0.89637038  0.24759380  0.99305206  1
  O  O48  1  0.89934626  0.85011100  0.39023867  1
  O  O49  1  0.89524144  0.04815852  0.19196014  1
  O  O50  1  0.13969593  0.74988900  0.00976133  1
  O  O51  1  0.13536010  0.55184148  0.20803986  1
  O  O52  1  0.13701624  0.35240620  0.40694794  1
  O  O53  1  0.13525912  0.95137747  0.80450180  1
  O  O54  1  0.13661012  0.15359235  0.60685698  1
  O  O55  1  0.51470691  0.69495463  0.78258911  1
  O  O56  1  0.51470772  0.49564945  0.98959099  1
  O  O57  1  0.51527602  0.29728746  0.18793766  1
  O  O58  1  0.51314243  0.89887158  0.59029920  1
  O  O59  1  0.51491197  0.09781274  0.38781233  1
  O  O60  1  0.00231321  0.70112842  0.80970080  1
  O  O61  1  0.00053704  0.50218726  0.01218767  1
  O  O62  1  0.00050115  0.30271254  0.21206234  1
  O  O63  1  0.99225066  0.90504537  0.61741089  1
  O  O64  1  0.99994817  0.10435055  0.41040901  1
  O  O65  1  0.07075250  0.70143921  0.30199208  1
  O  O66  1  0.05913523  0.50076540  0.50143163  1
  O  O67  1  0.06092829  0.30000000  0.70000000  1
  O  O68  1  0.07418379  0.89856079  0.09800792  1
  O  O69  1  0.06133226  0.09923460  0.89856837  1
  O  O70  1  0.57744942  0.75498921  0.02280924  1
  O  O71  1  0.53812176  0.57248416  0.27511293  1
  O  O72  1  0.53662405  0.37000282  0.47806143  1
  O  O73  1  0.53797925  0.96643836  0.88013406  1
  O  O74  1  0.53793539  0.16967277  0.67696264  1
  O  O75  1  0.38455168  0.63356164  0.51986594  1
  O  O76  1  0.38457080  0.43032723  0.72303736  1
  O  O77  1  0.38468830  0.22999718  0.92193857  1
  O  O78  1  0.35524787  0.84501079  0.37719076  1
  O  O79  1  0.38571886  0.02751584  0.12488707  1
  O  O80  1  0.74954054  0.80329060  0.71333201  1
  O  O81  1  0.74865201  0.60222168  0.91654259  1
  O  O82  1  0.74234796  0.40641215  0.12816743  1
  O  O83  1  0.74377467  0.00779364  0.52323389  1
  O  O84  1  0.74202197  0.20718898  0.32594226  1
  O  O85  1  0.26616315  0.79670940  0.68666799  1
  O  O86  1  0.27480220  0.59220636  0.87676611  1
  O  O87  1  0.27515321  0.39281102  0.07405774  1
  O  O88  1  0.26741628  0.99777832  0.48345741  1
  O  O89  1  0.27692753  0.19358785  0.27183257  1
