# generated using pymatgen
data_Nd2Fe17C
_symmetry_space_group_name_H-M   'P 1'
_cell_length_a   6.49663571
_cell_length_b   6.49663571
_cell_length_c   6.50862397
_cell_angle_alpha   83.84017325
_cell_angle_beta   83.84017325
_cell_angle_gamma   83.47760191
_symmetry_Int_Tables_number   1
_chemical_formula_structural   Nd2Fe17C
_chemical_formula_sum   'Nd2 Fe17 C1'
_cell_volume   270.09013971
_cell_formula_units_Z   1
loop_
 _symmetry_equiv_pos_site_id
 _symmetry_equiv_pos_as_xyz
  1  'x, y, z'
loop_
 _atom_site_type_symbol
 _atom_site_label
 _atom_site_symmetry_multiplicity
 _atom_site_fract_x
 _atom_site_fract_y
 _atom_site_fract_z
 _atom_site_occupancy
  Nd  Nd0  1  0.66147148  0.66147148  0.64753233  1
  Nd  Nd1  1  0.33852852  0.33852852  0.35246767  1
  Fe  Fe2  1  0.90365260  0.90365260  0.90293716  1
  Fe  Fe3  1  0.09634740  0.09634740  0.09706284  1
  Fe  Fe4  1  0.34257014  0.34257014  0.85209247  1
  Fe  Fe5  1  0.34099431  0.85006917  0.34205788  1
  Fe  Fe6  1  0.85006917  0.34099431  0.34205788  1
  Fe  Fe7  1  0.65742986  0.65742986  0.14790753  1
  Fe  Fe8  1  0.65900569  0.14993083  0.65794212  1
  Fe  Fe9  1  0.14993083  0.65900569  0.65794212  1
  Fe  Fe10  1  0.28573129  0.71426871  -0.00000000  1
  Fe  Fe11  1  0.71403971  0.00059280  0.28600192  1
  Fe  Fe12  1  0.99940720  0.28596029  0.71399808  1
  Fe  Fe13  1  0.28596029  0.99940720  0.71399808  1
  Fe  Fe14  1  0.00059280  0.71403971  0.28600192  1
  Fe  Fe15  1  0.71426871  0.28573129  0.00000000  1
  Fe  Fe16  1  -0.00000000  -0.00000000  0.50000000  1
  Fe  Fe17  1  -0.00000000  0.50000000  -0.00000000  1
  Fe  Fe18  1  0.50000000  -0.00000000  -0.00000000  1
  C  C19  1  0.50000000  0.50000000  -0.00000000  1
