# generated using pymatgen
data_SrTbO3
_symmetry_space_group_name_H-M   'P 1'
_cell_length_a   6.04834532
_cell_length_b   6.22670828
_cell_length_c   8.59764500
_cell_angle_alpha   90.00000000
_cell_angle_beta   90.00000000
_cell_angle_gamma   90.00000000
_symmetry_Int_Tables_number   1
_chemical_formula_structural   SrTbO3
_chemical_formula_sum   'Sr4 Tb4 O12'
_cell_volume   323.79833189
_cell_formula_units_Z   4
loop_
 _symmetry_equiv_pos_site_id
 _symmetry_equiv_pos_as_xyz
  1  'x, y, z'
loop_
 _atom_site_type_symbol
 _atom_site_label
 _atom_site_symmetry_multiplicity
 _atom_site_fract_x
 _atom_site_fract_y
 _atom_site_fract_z
 _atom_site_occupancy
  O  O0  1  0.20279861  0.20540037  0.56038702  1
  O  O1  1  0.70279861  0.29459963  0.43961298  1
  O  O2  1  0.29720139  0.70540037  0.93961298  1
  O  O3  1  0.79720139  0.79459963  0.06038702  1
  O  O4  1  0.79720139  0.79459963  0.43961298  1
  O  O5  1  0.29720139  0.70540037  0.56038702  1
  O  O6  1  0.70279861  0.29459963  0.06038702  1
  O  O7  1  0.20279861  0.20540037  0.93961298  1
  O  O8  1  0.11305091  0.44969438  0.25000000  1
  O  O9  1  0.61305091  0.05030562  0.75000000  1
  O  O10  1  0.38694909  0.94969438  0.25000000  1
  O  O11  1  0.88694909  0.55030562  0.75000000  1
  Sr  Sr12  1  0.98332738  0.05068900  0.25000000  1
  Sr  Sr13  1  0.48332738  0.44931100  0.75000000  1
  Sr  Sr14  1  0.51667262  0.55068900  0.25000000  1
  Sr  Sr15  1  0.01667262  0.94931100  0.75000000  1
  Tb  Tb16  1  0.50000000  0.00000000  0.00000000  1
  Tb  Tb17  1  0.00000000  0.50000000  0.00000000  1
  Tb  Tb18  1  0.00000000  0.50000000  0.50000000  1
  Tb  Tb19  1  0.50000000  0.00000000  0.50000000  1
