# generated using pymatgen
data_Pr3Se2NO
_symmetry_space_group_name_H-M   'P 1'
_cell_length_a   4.10077137
_cell_length_b   9.77430318
_cell_length_c   12.57301825
_cell_angle_alpha   95.85282820
_cell_angle_beta   80.61438820
_cell_angle_gamma   90.00000000
_symmetry_Int_Tables_number   1
_chemical_formula_structural   Pr3Se2NO
_chemical_formula_sum   'Pr9 Se6 N3 O3'
_cell_volume   494.54476166
_cell_formula_units_Z   3
loop_
 _symmetry_equiv_pos_site_id
 _symmetry_equiv_pos_as_xyz
  1  'x, y, z'
loop_
 _atom_site_type_symbol
 _atom_site_label
 _atom_site_symmetry_multiplicity
 _atom_site_fract_x
 _atom_site_fract_y
 _atom_site_fract_z
 _atom_site_occupancy
  Pr  Pr0  1  0.08868112  0.64495007  0.82263777  1
  Pr  Pr1  1  0.90946429  0.35420465  0.18107141  1
  Pr  Pr2  1  0.18849403  0.01183102  0.62301194  1
  Pr  Pr3  1  0.81154142  0.98854486  0.37691716  1
  Pr  Pr4  1  0.28082498  0.66830362  0.43835004  1
  Pr  Pr5  1  0.71867991  0.33212616  0.56264019  1
  Pr  Pr6  1  0.00020102  0.99209076  0.99959796  1
  Pr  Pr7  1  0.46330881  0.67711090  0.07338239  1
  Pr  Pr8  1  0.53747312  0.32006903  0.92505376  1
  Se  Se9  1  0.13224264  0.32956792  0.73551471  1
  Se  Se10  1  0.86710191  0.66472096  0.26579618  1
  Se  Se11  1  0.30876906  0.33441026  0.38246188  1
  Se  Se12  1  0.69072427  0.66691815  0.61855146  1
  Se  Se13  1  0.41286028  0.04513375  0.17427944  1
  Se  Se14  1  0.58816052  0.97246855  0.82367896  1
  N  N15  1  0.27756581  0.89811795  0.44486838  1
  N  N16  1  0.72315256  0.10266635  0.55369487  1
  N  N17  1  0.00108932  0.75554193  0.99782135  1
  O  O18  1  0.44674314  0.43231603  0.10651371  1
  O  O19  1  0.55327914  0.55648472  0.89344171  1
  O  O20  1  0.99964265  0.25242235  0.00071471  1
