# generated using pymatgen
data_NbCrFe
_symmetry_space_group_name_H-M   'P 1'
_cell_length_a   4.88499230
_cell_length_b   4.88485576
_cell_length_c   7.80250280
_cell_angle_alpha   90.00000000
_cell_angle_beta   90.00000000
_cell_angle_gamma   59.23675076
_symmetry_Int_Tables_number   1
_chemical_formula_structural   NbCrFe
_chemical_formula_sum   'Nb4 Cr4 Fe4'
_cell_volume   159.98835993
_cell_formula_units_Z   4
loop_
 _symmetry_equiv_pos_site_id
 _symmetry_equiv_pos_as_xyz
  1  'x, y, z'
loop_
 _atom_site_type_symbol
 _atom_site_label
 _atom_site_symmetry_multiplicity
 _atom_site_fract_x
 _atom_site_fract_y
 _atom_site_fract_z
 _atom_site_occupancy
  Nb  Nb0  1  0.33315746  0.33315097  0.55756642  1
  Nb  Nb1  1  0.66580931  0.66579816  0.43532419  1
  Nb  Nb2  1  0.66580931  0.66579816  0.06467581  1
  Nb  Nb3  1  0.33315746  0.33315097  0.94243358  1
  Cr  Cr4  1  0.99910764  0.99916544  0.49090387  1
  Cr  Cr5  1  0.99910764  0.99916544  0.00909613  1
  Cr  Cr6  1  0.82989400  0.34166342  0.75000000  1
  Cr  Cr7  1  0.34169663  0.82987873  0.75000000  1
  Fe  Fe8  1  0.82917757  0.82917228  0.75000000  1
  Fe  Fe9  1  0.17162997  0.65888270  0.25000000  1
  Fe  Fe10  1  0.65892257  0.17163598  0.25000000  1
  Fe  Fe11  1  0.17253044  0.17253775  0.25000000  1
