# generated using pymatgen
data_Sm3Ni7P5
_symmetry_space_group_name_H-M   'P 1'
_cell_length_a   3.88778439
_cell_length_b   16.44594088
_cell_length_c   16.44785494
_cell_angle_alpha   119.97979979
_cell_angle_beta   90.00000000
_cell_angle_gamma   90.00000000
_symmetry_Int_Tables_number   1
_chemical_formula_structural   Sm3Ni7P5
_chemical_formula_sum   'Sm12 Ni28 P20'
_cell_volume   910.93871560
_cell_formula_units_Z   4
loop_
 _symmetry_equiv_pos_site_id
 _symmetry_equiv_pos_as_xyz
  1  'x, y, z'
loop_
 _atom_site_type_symbol
 _atom_site_label
 _atom_site_symmetry_multiplicity
 _atom_site_fract_x
 _atom_site_fract_y
 _atom_site_fract_z
 _atom_site_occupancy
  Sm  Sm0  1  0.75000000  0.87951373  0.64574521  1
  Sm  Sm1  1  0.75000000  0.35460801  0.23378496  1
  Sm  Sm2  1  0.75000000  0.76397850  0.12130866  1
  Sm  Sm3  1  0.25000000  0.12192401  0.35692891  1
  Sm  Sm4  1  0.25000000  0.64443224  0.76524396  1
  Sm  Sm5  1  0.25000000  0.23417984  0.87946592  1
  Sm  Sm6  1  0.75000000  0.61649353  0.44032598  1
  Sm  Sm7  1  0.75000000  0.55947140  0.17610084  1
  Sm  Sm8  1  0.75000000  0.82438532  0.38373029  1
  Sm  Sm9  1  0.25000000  0.38312037  0.55883748  1
  Sm  Sm10  1  0.25000000  0.44101822  0.82431417  1
  Sm  Sm11  1  0.25000000  0.17566219  0.61663560  1
  Ni  Ni12  1  0.75000000  0.01368786  0.56636857  1
  Ni  Ni13  1  0.75000000  0.43335565  0.44697556  1
  Ni  Ni14  1  0.75000000  0.55321739  0.98605767  1
  Ni  Ni15  1  0.25000000  0.98562661  0.43241606  1
  Ni  Ni16  1  0.25000000  0.56777697  0.55354690  1
  Ni  Ni17  1  0.25000000  0.44646561  0.01468949  1
  Ni  Ni18  1  0.75000000  0.06738367  0.82372770  1
  Ni  Ni19  1  0.75000000  0.17710422  0.24372977  1
  Ni  Ni20  1  0.75000000  0.74946426  0.92652695  1
  Ni  Ni21  1  0.25000000  0.92623945  0.17709803  1
  Ni  Ni22  1  0.25000000  0.82262800  0.75010955  1
  Ni  Ni23  1  0.25000000  0.25026688  0.07321049  1
  Ni  Ni24  1  0.75000000  0.28408629  0.77356143  1
  Ni  Ni25  1  0.75000000  0.22645383  0.51030648  1
  Ni  Ni26  1  0.75000000  0.48925983  0.71567543  1
  Ni  Ni27  1  0.25000000  0.71551311  0.22618133  1
  Ni  Ni28  1  0.25000000  0.77377668  0.48990438  1
  Ni  Ni29  1  0.25000000  0.51023978  0.28395286  1
  Ni  Ni30  1  0.75000000  0.69822234  0.65541267  1
  Ni  Ni31  1  0.75000000  0.34345869  0.04264828  1
  Ni  Ni32  1  0.75000000  0.95821400  0.30242421  1
  Ni  Ni33  1  0.25000000  0.30281310  0.34598656  1
  Ni  Ni34  1  0.25000000  0.65562211  0.95783879  1
  Ni  Ni35  1  0.25000000  0.04306434  0.69713313  1
  Ni  Ni36  1  0.75000000  0.91266972  0.05894399  1
  Ni  Ni37  1  0.25000000  0.05912108  0.14839066  1
  Ni  Ni38  1  0.25000000  0.85168892  0.91162602  1
  Ni  Ni39  1  0.25000000  0.09220301  0.93856371  1
  P  P40  1  0.75000000  0.33320736  0.66654231  1
  P  P41  1  0.25000000  0.66674456  0.33333708  1
  P  P42  1  0.75000000  0.39123971  0.92786199  1
  P  P43  1  0.75000000  0.07231114  0.46351467  1
  P  P44  1  0.75000000  0.53629483  0.60871705  1
  P  P45  1  0.25000000  0.60803806  0.07181162  1
  P  P46  1  0.25000000  0.92820109  0.53718486  1
  P  P47  1  0.25000000  0.46290291  0.39094197  1
  P  P48  1  0.75000000  0.18106321  0.98175387  1
  P  P49  1  0.75000000  0.02321962  0.20483258  1
  P  P50  1  0.75000000  0.80031970  0.81726957  1
  P  P51  1  0.25000000  0.81673838  0.02187497  1
  P  P52  1  0.25000000  0.97888416  0.79409414  1
  P  P53  1  0.25000000  0.20611450  0.18507754  1
  P  P54  1  0.75000000  0.12888238  0.72249552  1
  P  P55  1  0.75000000  0.27752271  0.40658592  1
  P  P56  1  0.75000000  0.59238069  0.87044167  1
  P  P57  1  0.25000000  0.87010238  0.27776481  1
  P  P58  1  0.25000000  0.72240507  0.59308500  1
  P  P59  1  0.25000000  0.40701678  0.12938417  1
