# generated using pymatgen
data_PrGa3Co10
_symmetry_space_group_name_H-M   'P 1'
_cell_length_a   7.98275067
_cell_length_b   7.98275067
_cell_length_c   8.07003977
_cell_angle_alpha   60.72846693
_cell_angle_beta   60.72846693
_cell_angle_gamma   90.65369395
_symmetry_Int_Tables_number   1
_chemical_formula_structural   PrGa3Co10
_chemical_formula_sum   'Pr2 Ga6 Co20'
_cell_volume   369.50491563
_cell_formula_units_Z   2
loop_
 _symmetry_equiv_pos_site_id
 _symmetry_equiv_pos_as_xyz
  1  'x, y, z'
loop_
 _atom_site_type_symbol
 _atom_site_label
 _atom_site_symmetry_multiplicity
 _atom_site_fract_x
 _atom_site_fract_y
 _atom_site_fract_z
 _atom_site_occupancy
  Pr  Pr0  1  0.25169164  0.25169164  0.49661673  1
  Pr  Pr1  1  0.75169164  0.75169164  0.49661673  1
  Ga  Ga2  1  0.55127924  0.05127924  0.25278091  1
  Ga  Ga3  1  0.19593985  0.69593985  0.25278091  1
  Ga  Ga4  1  0.29953018  0.44384410  0.75662571  1
  Ga  Ga5  1  0.94384410  0.79953018  0.75662571  1
  Ga  Ga6  1  0.44606788  0.94606788  0.75188930  1
  Ga  Ga7  1  0.80204282  0.30204282  0.75188930  1
  Co  Co8  1  0.99843186  0.49843186  0.00313627  1
  Co  Co9  1  0.49894099  0.99894099  0.00211802  1
  Co  Co10  1  0.20379729  0.94811544  0.34808726  1
  Co  Co11  1  0.44811544  0.70379729  0.34808726  1
  Co  Co12  1  0.93598946  0.43598946  0.34894507  1
  Co  Co13  1  0.71506547  0.21506547  0.34894507  1
  Co  Co14  1  0.79827782  0.06058022  0.64114196  1
  Co  Co15  1  0.56058022  0.29827782  0.64114196  1
  Co  Co16  1  0.06102584  0.56102584  0.64983579  1
  Co  Co17  1  0.28913837  0.78913837  0.64983579  1
  Co  Co18  1  0.29754387  0.55923935  0.00603305  1
  Co  Co19  1  0.69642308  0.43472760  0.00603305  1
  Co  Co20  1  0.19935876  0.06234840  0.00104051  1
  Co  Co21  1  0.79960073  0.93661109  0.00104051  1
  Co  Co22  1  0.43661109  0.29960073  0.00104051  1
  Co  Co23  1  0.56234840  0.69935876  0.00104051  1
  Co  Co24  1  0.93472760  0.19642308  0.00603305  1
  Co  Co25  1  0.05923935  0.79754387  0.00603305  1
  Co  Co26  1  0.70530800  0.55738899  0.23730301  1
  Co  Co27  1  0.05738899  0.20530800  0.23730301  1
