# generated using pymatgen
data_Sn4H26(Br4O5)3
_symmetry_space_group_name_H-M   'P 1'
_cell_length_a   9.97127506
_cell_length_b   14.58248436
_cell_length_c   14.93272793
_cell_angle_alpha   119.33172081
_cell_angle_beta   90.00000000
_cell_angle_gamma   90.00000000
_symmetry_Int_Tables_number   1
_chemical_formula_structural   Sn4H26(Br4O5)3
_chemical_formula_sum   'Sn8 H52 Br24 O30'
_cell_volume   1892.94212695
_cell_formula_units_Z   2
loop_
 _symmetry_equiv_pos_site_id
 _symmetry_equiv_pos_as_xyz
  1  'x, y, z'
loop_
 _atom_site_type_symbol
 _atom_site_label
 _atom_site_symmetry_multiplicity
 _atom_site_fract_x
 _atom_site_fract_y
 _atom_site_fract_z
 _atom_site_occupancy
  Sn  Sn0  1  0.26145337  0.82929760  0.07120259  1
  Sn  Sn1  1  0.75982962  0.17023732  0.42962919  1
  Sn  Sn2  1  0.74017038  0.17023732  0.92962919  1
  Sn  Sn3  1  0.23854663  0.82929760  0.57120259  1
  Sn  Sn4  1  0.99764110  0.67619793  0.92832294  1
  Sn  Sn5  1  0.49635765  0.32447945  0.57114370  1
  Sn  Sn6  1  0.00364235  0.32447945  0.07114370  1
  Sn  Sn7  1  0.50235890  0.67619793  0.42832294  1
  H  H8  1  0.11728191  0.57353082  0.72668724  1
  H  H9  1  0.61669721  0.42674027  0.77355348  1
  H  H10  1  0.88330279  0.42674027  0.27355348  1
  H  H11  1  0.38271809  0.57353082  0.22668724  1
  H  H12  1  0.03676412  0.89239839  0.00472585  1
  H  H13  1  0.56069966  0.11608296  0.52705321  1
  H  H14  1  0.93930034  0.11608296  0.02705321  1
  H  H15  1  0.46323588  0.89239839  0.50472585  1
  H  H16  1  0.71174819  0.90152647  0.10202646  1
  H  H17  1  0.21150594  0.09701059  0.39547634  1
  H  H18  1  0.28849406  0.09701059  0.89547634  1
  H  H19  1  0.78825181  0.90152647  0.60202646  1
  H  H20  1  0.03291667  0.85174095  0.19171901  1
  H  H21  1  0.53057739  0.14476634  0.30995392  1
  H  H22  1  0.96942261  0.14476634  0.80995392  1
  H  H23  1  0.46708333  0.85174095  0.69171901  1
  H  H24  1  0.34497813  0.49397882  0.00906197  1
  H  H25  1  0.84513042  0.50605356  0.49090448  1
  H  H26  1  0.65486958  0.50605356  0.99090448  1
  H  H27  1  0.15502187  0.49397882  0.50906197  1
  H  H28  1  0.27697691  0.44923213  0.90025270  1
  H  H29  1  0.77720258  0.55017765  0.59977488  1
  H  H30  1  0.72279742  0.55017765  0.09977488  1
  H  H31  1  0.22302309  0.44923213  0.40025270  1
  H  H32  1  0.22408400  0.61642929  0.99275515  1
  H  H33  1  0.72416699  0.38292416  0.50654844  1
  H  H34  1  0.77583301  0.38292416  0.00654844  1
  H  H35  1  0.27591600  0.61642929  0.49275515  1
  H  H36  1  0.14389673  0.93720616  0.27458534  1
  H  H37  1  0.64233112  0.06587988  0.22768065  1
  H  H38  1  0.85766888  0.06587988  0.72768065  1
  H  H39  1  0.35610327  0.93720616  0.77458534  1
  H  H40  1  0.98429036  0.47610030  0.59347914  1
  H  H41  1  0.48430650  0.52388237  0.90650663  1
  H  H42  1  0.01569350  0.52388237  0.40650663  1
  H  H43  1  0.51570964  0.47610030  0.09347914  1
  H  H44  1  0.63531392  0.95866958  0.05153716  1
  H  H45  1  0.15397778  0.03384051  0.44746608  1
  H  H46  1  0.34602222  0.03384051  0.94746608  1
  H  H47  1  0.86468608  0.95866958  0.55153716  1
  H  H48  1  0.20474633  0.67999049  0.80330788  1
  H  H49  1  0.70947405  0.32333870  0.69558164  1
  H  H50  1  0.79052595  0.32333870  0.19558164  1
  H  H51  1  0.29525367  0.67999049  0.30330788  1
  H  H52  1  0.10009642  0.41025973  0.60884137  1
  H  H53  1  0.59983880  0.58998299  0.89137325  1
  H  H54  1  0.90016120  0.58998299  0.39137325  1
  H  H55  1  0.39990358  0.41025973  0.10884137  1
  H  H56  1  0.85954142  0.00589995  0.07650574  1
  H  H57  1  0.64045858  0.00589995  0.57650574  1
  H  H58  1  0.99433081  0.05766615  0.13160404  1
  H  H59  1  0.50566919  0.05766615  0.63160404  1
  Br  Br60  1  0.41152031  0.77301270  0.90882741  1
  Br  Br61  1  0.90702946  0.22773388  0.59321121  1
  Br  Br62  1  0.59297054  0.22773388  0.09321121  1
  Br  Br63  1  0.08847969  0.77301270  0.40882741  1
  Br  Br64  1  0.96327365  0.47971500  0.85837539  1
  Br  Br65  1  0.46444113  0.52134804  0.64231259  1
  Br  Br66  1  0.03555887  0.52134804  0.14231259  1
  Br  Br67  1  0.53672635  0.47971500  0.35837539  1
  Br  Br68  1  0.29824171  0.02699633  0.13621025  1
  Br  Br69  1  0.79535961  0.97332982  0.36076177  1
  Br  Br70  1  0.70464039  0.97332982  0.86076177  1
  Br  Br71  1  0.20175829  0.02699633  0.63621025  1
  Br  Br72  1  0.81226181  0.70681527  0.82622523  1
  Br  Br73  1  0.31264182  0.29299704  0.67384661  1
  Br  Br74  1  0.18735818  0.29299704  0.17384661  1
  Br  Br75  1  0.68773819  0.70681527  0.32622523  1
  Br  Br76  1  0.44025818  0.79132299  0.17045648  1
  Br  Br77  1  0.94069875  0.21031293  0.33102690  1
  Br  Br78  1  0.55930125  0.21031293  0.83102690  1
  Br  Br79  1  0.05974182  0.79132299  0.67045648  1
  Br  Br80  1  0.84395846  0.74548733  0.09253668  1
  Br  Br81  1  0.34329126  0.25823964  0.40791946  1
  Br  Br82  1  0.15670874  0.25823964  0.90791946  1
  Br  Br83  1  0.65604154  0.74548733  0.59253668  1
  O  O84  1  0.08829858  0.82623682  0.98403089  1
  O  O85  1  0.58128866  0.17203918  0.50842856  1
  O  O86  1  0.91871134  0.17203918  0.00842856  1
  O  O87  1  0.41170142  0.82623682  0.48403089  1
  O  O88  1  0.69666137  0.97081251  0.10767894  1
  O  O89  1  0.18832581  0.02644473  0.38316961  1
  O  O90  1  0.31167419  0.02644473  0.88316961  1
  O  O91  1  0.80333863  0.97081251  0.60767894  1
  O  O92  1  0.12694407  0.87517602  0.20272436  1
  O  O93  1  0.62715098  0.13057034  0.29568803  1
  O  O94  1  0.87284902  0.13057034  0.79568803  1
  O  O95  1  0.37305593  0.87517602  0.70272436  1
  O  O96  1  0.13925727  0.62822836  0.80002073  1
  O  O97  1  0.63610309  0.37050148  0.70033163  1
  O  O98  1  0.86389691  0.37050148  0.20033163  1
  O  O99  1  0.36074273  0.62822836  0.30002073  1
  O  O100  1  0.16708930  0.68103248  0.01585293  1
  O  O101  1  0.66686548  0.31846091  0.48338007  1
  O  O102  1  0.83313452  0.31846091  0.98338007  1
  O  O103  1  0.33291070  0.68103248  0.51585293  1
  O  O104  1  0.32634394  0.50992735  0.95246627  1
  O  O105  1  0.82629734  0.48959470  0.54716792  1
  O  O106  1  0.67370266  0.48959470  0.04716792  1
  O  O107  1  0.17365606  0.50992735  0.45246627  1
  O  O108  1  0.08163005  0.47692280  0.61057384  1
  O  O109  1  0.58170042  0.52322765  0.88957403  1
  O  O110  1  0.91829958  0.52322765  0.38957403  1
  O  O111  1  0.41836995  0.47692280  0.11057384  1
  O  O112  1  0.95329095  0.01949217  0.06324174  1
  O  O113  1  0.54670905  0.01949217  0.56324174  1
