# generated using pymatgen
data_NaCe2Se3
_symmetry_space_group_name_H-M   'P 1'
_cell_length_a   4.22928068
_cell_length_b   5.97923351
_cell_length_c   7.41138878
_cell_angle_alpha   66.21025986
_cell_angle_beta   73.42183787
_cell_angle_gamma   90.00000000
_symmetry_Int_Tables_number   1
_chemical_formula_structural   NaCe2Se3
_chemical_formula_sum   'Na1 Ce2 Se3'
_cell_volume   162.94324572
_cell_formula_units_Z   1
loop_
 _symmetry_equiv_pos_site_id
 _symmetry_equiv_pos_as_xyz
  1  'x, y, z'
loop_
 _atom_site_type_symbol
 _atom_site_label
 _atom_site_symmetry_multiplicity
 _atom_site_fract_x
 _atom_site_fract_y
 _atom_site_fract_z
 _atom_site_occupancy
  Na  Na0  1  0.00000000  -0.00000000  -0.00000000  1
  Ce  Ce1  1  0.33506300  0.33506300  0.32987300  1
  Ce  Ce2  1  0.66493700  0.66493700  0.67012700  1
  Se  Se3  1  0.00000000  0.50000000  -0.00000000  1
  Se  Se4  1  0.32983850  0.82983850  0.34032201  1
  Se  Se5  1  0.67016150  0.17016150  0.65967799  1
