# generated using pymatgen
data_NaZrNb(PO4)3
_symmetry_space_group_name_H-M   'P 1'
_cell_length_a   8.92865796
_cell_length_b   8.92865693
_cell_length_c   9.15139707
_cell_angle_alpha   60.80192555
_cell_angle_beta   119.19807233
_cell_angle_gamma   120.00000008
_symmetry_Int_Tables_number   1
_chemical_formula_structural   NaZrNb(PO4)3
_chemical_formula_sum   'Na2 Zr2 Nb2 P6 O24'
_cell_volume   522.04009414
_cell_formula_units_Z   2
loop_
 _symmetry_equiv_pos_site_id
 _symmetry_equiv_pos_as_xyz
  1  'x, y, z'
loop_
 _atom_site_type_symbol
 _atom_site_label
 _atom_site_symmetry_multiplicity
 _atom_site_fract_x
 _atom_site_fract_y
 _atom_site_fract_z
 _atom_site_occupancy
  Na  Na0  1  0.49800258  0.50199742  0.49400773  1
  Na  Na1  1  0.99800258  0.00199742  0.99400773  1
  Zr  Zr2  1  0.64355529  0.35644471  0.93066588  1
  Zr  Zr3  1  0.14355529  0.85644471  0.43066588  1
  Nb  Nb4  1  0.35515887  0.64484113  0.06547662  1
  Nb  Nb5  1  0.85515887  0.14484113  0.56547662  1
  P  P6  1  0.24780916  0.03806012  0.75012631  1
  P  P7  1  0.54037726  0.75219084  0.75012631  1
  P  P8  1  0.96193988  0.45962274  0.75012631  1
  P  P9  1  0.46193988  0.25219084  0.25012631  1
  P  P10  1  0.04037726  0.53806012  0.25012631  1
  P  P11  1  0.74780916  0.95962274  0.25012631  1
  O  O12  1  0.58110160  0.78018792  0.24112620  1
  O  O13  1  0.44021252  0.41889840  0.24112620  1
  O  O14  1  0.21981208  0.55978748  0.24112620  1
  O  O15  1  0.71981208  0.91889840  0.74112620  1
  O  O16  1  0.94021252  0.28018792  0.74112620  1
  O  O17  1  0.08110160  0.05978748  0.74112620  1
  O  O18  1  0.41273526  0.21726200  0.75691358  1
  O  O19  1  0.56144032  0.58726474  0.75691358  1
  O  O20  1  0.78273800  0.43855968  0.75691358  1
  O  O21  1  0.28273800  0.08726474  0.25691358  1
  O  O22  1  0.06144032  0.71726200  0.25691358  1
  O  O23  1  0.91273526  0.93855968  0.25691358  1
  O  O24  1  0.28937231  0.87742992  0.92020851  1
  O  O25  1  0.50826611  0.71062769  0.92020851  1
  O  O26  1  0.12257008  0.49173389  0.92020851  1
  O  O27  1  0.62257008  0.21062769  0.42020851  1
  O  O28  1  0.00826611  0.37742992  0.42020851  1
  O  O29  1  0.78937231  0.99173389  0.42020851  1
  O  O30  1  0.70810805  0.12140426  0.08490866  1
  O  O31  1  0.49820487  0.29189195  0.08490866  1
  O  O32  1  0.87859574  0.50179513  0.08490866  1
  O  O33  1  0.37859574  0.79189195  0.58490866  1
  O  O34  1  0.99820487  0.62140426  0.58490866  1
  O  O35  1  0.20810805  0.00179513  0.58490866  1
