# generated using pymatgen
data_LaYbO3
_symmetry_space_group_name_H-M   'P 1'
_cell_length_a   5.92694127
_cell_length_b   6.13268314
_cell_length_c   8.46152975
_cell_angle_alpha   90.00000000
_cell_angle_beta   90.00000000
_cell_angle_gamma   90.00000000
_symmetry_Int_Tables_number   1
_chemical_formula_structural   LaYbO3
_chemical_formula_sum   'La4 Yb4 O12'
_cell_volume   307.56013011
_cell_formula_units_Z   4
loop_
 _symmetry_equiv_pos_site_id
 _symmetry_equiv_pos_as_xyz
  1  'x, y, z'
loop_
 _atom_site_type_symbol
 _atom_site_label
 _atom_site_symmetry_multiplicity
 _atom_site_fract_x
 _atom_site_fract_y
 _atom_site_fract_z
 _atom_site_occupancy
  O  O0  1  0.36193207  0.57942195  0.50782312  1
  O  O1  1  0.63806793  0.42057805  0.00782312  1
  O  O2  1  0.13806793  0.07942195  0.50782312  1
  O  O3  1  0.86193207  0.92057805  0.00782312  1
  O  O4  1  0.30291329  0.79512241  0.17540084  1
  O  O5  1  0.69708671  0.20487759  0.67540084  1
  O  O6  1  0.19708671  0.29512241  0.17540084  1
  O  O7  1  0.80291329  0.70487759  0.67540084  1
  O  O8  1  0.83483306  0.66105108  0.31506552  1
  O  O9  1  0.16516694  0.33894892  0.81506552  1
  O  O10  1  0.66516694  0.16105108  0.31506552  1
  O  O11  1  0.33483306  0.83894892  0.81506552  1
  La  La12  1  0.51168918  0.94509071  0.51773580  1
  La  La13  1  0.48831082  0.05490929  0.01773580  1
  La  La14  1  0.98831082  0.44509071  0.51773580  1
  La  La15  1  0.01168918  0.55490929  0.01773580  1
  Yb  Yb16  1  0.99904317  0.99438883  0.26017471  1
  Yb  Yb17  1  0.00095683  0.00561117  0.76017471  1
  Yb  Yb18  1  0.50095683  0.49438883  0.26017471  1
  Yb  Yb19  1  0.49904317  0.50561117  0.76017471  1
