# generated using pymatgen
data_Nb4AgBi5O18
_symmetry_space_group_name_H-M   'P 1'
_cell_length_a   5.57027899
_cell_length_b   5.60818374
_cell_length_c   12.93699736
_cell_angle_alpha   90.16999201
_cell_angle_beta   77.56776085
_cell_angle_gamma   90.78963812
_symmetry_Int_Tables_number   1
_chemical_formula_structural   Nb4AgBi5O18
_chemical_formula_sum   'Nb4 Ag1 Bi5 O18'
_cell_volume   394.62671892
_cell_formula_units_Z   1
loop_
 _symmetry_equiv_pos_site_id
 _symmetry_equiv_pos_as_xyz
  1  'x, y, z'
loop_
 _atom_site_type_symbol
 _atom_site_label
 _atom_site_symmetry_multiplicity
 _atom_site_fract_x
 _atom_site_fract_y
 _atom_site_fract_z
 _atom_site_occupancy
  Nb  Nb0  1  0.34461940  0.53484726  0.82920945  1
  Nb  Nb1  1  0.17382885  0.53484726  0.17079055  1
  Nb  Nb2  1  0.67125473  0.04110083  0.16848659  1
  Nb  Nb3  1  0.83974132  0.04110083  0.83151341  1
  Ag  Ag4  1  0.75871265  0.52877714  0.00000000  1
  Bi  Bi5  1  0.27485511  0.98975608  0.00000000  1
  Bi  Bi6  1  0.98108840  0.49023687  0.59972071  1
  Bi  Bi7  1  0.58080911  0.49023687  0.40027929  1
  Bi  Bi8  1  0.01786605  0.98995455  0.39982540  1
  Bi  Bi9  1  0.41769144  0.98995455  0.60017460  1
  O  O10  1  0.02512662  0.78048760  0.86458416  1
  O  O11  1  0.88971079  0.78048760  0.13541584  1
  O  O12  1  0.97517799  0.27229395  0.13662800  1
  O  O13  1  0.11180600  0.27229395  0.86337200  1
  O  O14  1  0.31036528  0.59408274  0.00000000  1
  O  O15  1  0.67103554  0.08308174  0.00000000  1
  O  O16  1  0.52658229  0.86986308  0.82799219  1
  O  O17  1  0.35457448  0.86986308  0.17200781  1
  O  O18  1  0.45353299  0.36114036  0.18302058  1
  O  O19  1  0.63655357  0.36114036  0.81697942  1
  O  O20  1  0.73655993  0.76610616  0.50440672  1
  O  O21  1  0.24096665  0.76610616  0.49559328  1
  O  O22  1  0.26051755  0.26547264  0.49750205  1
  O  O23  1  0.75801960  0.26547264  0.50249795  1
  O  O24  1  0.33445390  0.57475344  0.68399363  1
  O  O25  1  0.01844753  0.57475344  0.31600637  1
  O  O26  1  0.66002413  0.06489440  0.31605398  1
  O  O27  1  0.97607810  0.06489440  0.68394602  1
