# generated using pymatgen
data_Na4LiNb5O15
_symmetry_space_group_name_H-M   'P 1'
_cell_length_a   5.52571649
_cell_length_b   5.52571649
_cell_length_c   23.65487440
_cell_angle_alpha   96.70738138
_cell_angle_beta   96.70738138
_cell_angle_gamma   60.00001077
_symmetry_Int_Tables_number   1
_chemical_formula_structural   Na4LiNb5O15
_chemical_formula_sum   'Na8 Li2 Nb10 O30'
_cell_volume   619.78693179
_cell_formula_units_Z   2
loop_
 _symmetry_equiv_pos_site_id
 _symmetry_equiv_pos_as_xyz
  1  'x, y, z'
loop_
 _atom_site_type_symbol
 _atom_site_label
 _atom_site_symmetry_multiplicity
 _atom_site_fract_x
 _atom_site_fract_y
 _atom_site_fract_z
 _atom_site_occupancy
  Na  Na0  1  0.35505255  0.35505255  0.06515766  1
  Na  Na1  1  0.75530317  0.75530317  0.26590951  1
  Na  Na2  1  0.15548867  0.15548867  0.46646602  1
  Na  Na3  1  0.55523251  0.55523251  0.66569754  1
  Na  Na4  1  0.95492878  0.95492878  0.86478634  1
  Na  Na5  1  0.05529428  0.05529428  0.16588284  1
  Na  Na6  1  0.45538196  0.45538196  0.36614587  1
  Na  Na7  1  0.85544415  0.85544415  0.56633244  1
  Li  Li8  1  0.25772218  0.25772218  0.77316654  1
  Li  Li9  1  0.65763066  0.65763066  0.97289197  1
  Nb  Nb10  1  0.70301594  0.70301594  0.10904782  1
  Nb  Nb11  1  0.10336996  0.10336996  0.31010989  1
  Nb  Nb12  1  0.50357374  0.50357374  0.51072122  1
  Nb  Nb13  1  0.90373585  0.90373585  0.71120756  1
  Nb  Nb14  1  0.30327895  0.30327895  0.90983684  1
  Nb  Nb15  1  0.00258824  0.00258824  0.00776473  1
  Nb  Nb16  1  0.40320464  0.40320464  0.20961391  1
  Nb  Nb17  1  0.80347141  0.80347141  0.41041422  1
  Nb  Nb18  1  0.20376112  0.20376112  0.61128335  1
  Nb  Nb19  1  0.60306951  0.60306951  0.80920853  1
  O  O20  1  0.65133539  0.84825503  0.75022425  1
  O  O21  1  0.05092780  0.24822807  0.94902537  1
  O  O22  1  0.47648935  0.61941295  0.14891209  1
  O  O23  1  0.87613248  0.01999474  0.34968811  1
  O  O24  1  0.27687472  0.41959575  0.55030103  1
  O  O25  1  0.84825503  0.25063383  0.75022425  1
  O  O26  1  0.24822807  0.64986950  0.94902537  1
  O  O27  1  0.61941295  0.05300979  0.14891209  1
  O  O28  1  0.01999474  0.45356088  0.34968811  1
  O  O29  1  0.41959575  0.85383057  0.55030103  1
  O  O30  1  0.25063383  0.65133539  0.75022425  1
  O  O31  1  0.64986950  0.05092780  0.94902537  1
  O  O32  1  0.05300979  0.47648935  0.14891209  1
  O  O33  1  0.45356088  0.87613248  0.34968811  1
  O  O34  1  0.85383057  0.27687472  0.55030103  1
  O  O35  1  0.97372073  0.55553837  0.65025836  1
  O  O36  1  0.37242426  0.95529712  0.84865800  1
  O  O37  1  0.77531348  0.35305708  0.04798210  1
  O  O38  1  0.17646933  0.75316585  0.24939626  1
  O  O39  1  0.57623334  0.15369727  0.44992617  1
  O  O40  1  0.55553837  0.12099925  0.65025836  1
  O  O41  1  0.95529712  0.52093662  0.84865800  1
  O  O42  1  0.35305708  0.91961154  0.04798210  1
  O  O43  1  0.75316585  0.31976108  0.24939626  1
  O  O44  1  0.15369727  0.71999556  0.44992617  1
  O  O45  1  0.12099925  0.97372073  0.65025836  1
  O  O46  1  0.52093662  0.37242426  0.84865800  1
  O  O47  1  0.91961154  0.77531348  0.04798210  1
  O  O48  1  0.31976108  0.17646933  0.24939626  1
  O  O49  1  0.71999556  0.57623334  0.44992617  1
