# generated using pymatgen
data_Nb2PbO6
_symmetry_space_group_name_H-M   'P 1'
_cell_length_a   3.94725595
_cell_length_b   12.99088874
_cell_length_c   13.07360405
_cell_angle_alpha   92.22033801
_cell_angle_beta   90.00000000
_cell_angle_gamma   90.00000000
_symmetry_Int_Tables_number   1
_chemical_formula_structural   Nb2PbO6
_chemical_formula_sum   'Nb10 Pb5 O30'
_cell_volume   669.88969983
_cell_formula_units_Z   5
loop_
 _symmetry_equiv_pos_site_id
 _symmetry_equiv_pos_as_xyz
  1  'x, y, z'
loop_
 _atom_site_type_symbol
 _atom_site_label
 _atom_site_symmetry_multiplicity
 _atom_site_fract_x
 _atom_site_fract_y
 _atom_site_fract_z
 _atom_site_occupancy
  Nb  Nb0  1  0.00000000  0.06234671  0.29663341  1
  Nb  Nb1  1  0.00000000  0.70831021  0.93164975  1
  Nb  Nb2  1  0.00000000  0.78893012  0.43968042  1
  Nb  Nb3  1  0.00000000  0.56903442  0.21973605  1
  Nb  Nb4  1  -0.00000000  0.91452980  0.71161314  1
  Nb  Nb5  1  -0.00000000  0.28145081  0.08543580  1
  Nb  Nb6  1  -0.00000000  0.49687462  0.50525485  1
  Nb  Nb7  1  0.00000000  0.19609325  0.57637688  1
  Nb  Nb8  1  -0.00000000  0.41409781  0.78511684  1
  Nb  Nb9  1  0.00000000  0.99932344  0.00336072  1
  Pb  Pb10  1  0.50000000  0.28247158  0.37990610  1
  Pb  Pb11  1  0.50000000  0.63031130  0.72338869  1
  Pb  Pb12  1  0.50000000  0.12639827  0.83708320  1
  Pb  Pb13  1  0.50000000  0.80333699  0.21959835  1
  Pb  Pb14  1  0.50000000  0.48667183  0.00798493  1
  O  O15  1  0.50000000  0.93438396  0.71203597  1
  O  O16  1  0.50000000  0.31094598  0.07043798  1
  O  O17  1  -0.00000000  0.28542662  0.70881977  1
  O  O18  1  0.50000000  0.21779361  0.55689078  1
  O  O19  1  0.50000000  0.44157722  0.78300950  1
  O  O20  1  -0.00000000  0.07390800  0.63653662  1
  O  O21  1  0.00000000  0.37410819  0.92168190  1
  O  O22  1  -0.00000000  0.86684243  0.56310655  1
  O  O23  1  -0.00000000  0.44555677  0.12584717  1
  O  O24  1  0.00000000  0.34962458  0.48520208  1
  O  O25  1  -0.00000000  0.50727417  0.65191844  1
  O  O26  1  0.50000000  0.79598824  0.40276556  1
  O  O27  1  0.50000000  0.59152597  0.19673191  1
  O  O28  1  0.50000000  0.50548614  0.49774962  1
  O  O29  1  0.00000000  0.01220347  0.14713941  1
  O  O30  1  -0.00000000  0.85446177  0.98944293  1
  O  O31  1  0.00000000  0.66057114  0.49434306  1
  O  O32  1  -0.00000000  0.50386647  0.34046723  1
  O  O33  1  -0.00000000  0.15203145  0.42359142  1
  O  O34  1  0.00000000  0.57980672  0.84248125  1
  O  O35  1  -0.00000000  0.92926594  0.34084075  1
  O  O36  1  -0.00000000  0.64877754  0.05776283  1
  O  O37  1  -0.00000000  0.71937802  0.27679966  1
  O  O38  1  0.00000000  0.22501392  0.21195680  1
  O  O39  1  -0.00000000  0.78559754  0.76914160  1
  O  O40  1  0.50000000  0.08771683  0.29124739  1
  O  O41  1  0.50000000  0.71157766  0.90661082  1
  O  O42  1  -0.00000000  0.01642173  0.83716170  1
  O  O43  1  -0.00000000  0.16618299  0.99070643  1
  O  O44  1  0.50000000  0.01860382  0.98165374  1
