# generated using pymatgen
data_NbNi
_symmetry_space_group_name_H-M   'P 1'
_cell_length_a   4.90270499
_cell_length_b   4.90270499
_cell_length_c   18.00255874
_cell_angle_alpha   97.82610318
_cell_angle_beta   97.82610318
_cell_angle_gamma   59.99999559
_symmetry_Int_Tables_number   1
_chemical_formula_structural   NbNi
_chemical_formula_sum   'Nb13 Ni13'
_cell_volume   370.08425195
_cell_formula_units_Z   13
loop_
 _symmetry_equiv_pos_site_id
 _symmetry_equiv_pos_as_xyz
  1  'x, y, z'
loop_
 _atom_site_type_symbol
 _atom_site_label
 _atom_site_symmetry_multiplicity
 _atom_site_fract_x
 _atom_site_fract_y
 _atom_site_fract_z
 _atom_site_occupancy
  Nb  Nb0  1  0.77520205  0.77520205  0.32560616  1
  Nb  Nb1  1  0.27365146  0.27365146  0.82095438  1
  Nb  Nb2  1  0.72634854  0.72634854  0.17904562  1
  Nb  Nb3  1  0.22479795  0.22479795  0.67439384  1
  Nb  Nb4  1  0.41796597  0.41796597  0.25389791  1
  Nb  Nb5  1  0.91550034  0.91550034  0.74650103  1
  Nb  Nb6  1  0.08449966  0.08449966  0.25349897  1
  Nb  Nb7  1  0.58203403  0.58203403  0.74610209  1
  Nb  Nb8  1  0.82698985  0.82698985  0.48096955  1
  Nb  Nb9  1  0.32662838  0.32662838  0.97988514  1
  Nb  Nb10  1  0.67337162  0.67337162  0.02011486  1
  Nb  Nb11  1  0.17301015  0.17301015  0.51903045  1
  Nb  Nb12  1  0.00000000  -0.00000000  0.00000000  1
  Ni  Ni13  1  0.70241229  0.20845188  0.11931605  1
  Ni  Ni14  1  0.20371057  0.70418565  0.61208187  1
  Ni  Ni15  1  0.20845188  0.20845188  0.11931605  1
  Ni  Ni16  1  0.70418565  0.70418565  0.61208187  1
  Ni  Ni17  1  0.20845188  0.70241229  0.11931605  1
  Ni  Ni18  1  0.70418565  0.20371057  0.61208187  1
  Ni  Ni19  1  0.79628943  0.29581435  0.38791813  1
  Ni  Ni20  1  0.29758771  0.79154812  0.88068395  1
  Ni  Ni21  1  0.29581435  0.29581435  0.38791813  1
  Ni  Ni22  1  0.79154812  0.79154812  0.88068395  1
  Ni  Ni23  1  0.29581435  0.79628943  0.38791813  1
  Ni  Ni24  1  0.79154812  0.29758771  0.88068395  1
  Ni  Ni25  1  0.50000000  0.50000000  0.50000000  1
