# generated using pymatgen
data_NaCaMgAl(SiO3)4
_symmetry_space_group_name_H-M   'P 1'
_cell_length_a   5.31949547
_cell_length_b   6.56482123
_cell_length_c   6.56482123
_cell_angle_alpha   84.76289664
_cell_angle_beta   77.24146578
_cell_angle_gamma   77.24146578
_symmetry_Int_Tables_number   1
_chemical_formula_structural   NaCaMgAl(SiO3)4
_chemical_formula_sum   'Na1 Ca1 Mg1 Al1 Si4 O12'
_cell_volume   217.85477132
_cell_formula_units_Z   1
loop_
 _symmetry_equiv_pos_site_id
 _symmetry_equiv_pos_as_xyz
  1  'x, y, z'
loop_
 _atom_site_type_symbol
 _atom_site_label
 _atom_site_symmetry_multiplicity
 _atom_site_fract_x
 _atom_site_fract_y
 _atom_site_fract_z
 _atom_site_occupancy
  Na  Na0  1  0.75000000  0.70045886  0.29954114  1
  Ca  Ca1  1  0.25000000  0.30091714  0.69908286  1
  Mg  Mg2  1  0.75000000  0.09001327  0.90998673  1
  Al  Al3  1  0.25000000  0.90122400  0.09877600  1
  Si  Si4  1  0.72100558  0.62261643  0.80578759  1
  Si  Si5  1  0.77899442  0.19421241  0.37738357  1
  Si  Si6  1  0.26773450  0.38447099  0.19575380  1
  Si  Si7  1  0.23226550  0.80424620  0.61552901  1
  O  O8  1  0.81106298  0.38804606  0.89356448  1
  O  O9  1  0.68893702  0.10643552  0.61195394  1
  O  O10  1  0.19798017  0.62220850  0.10503758  1
  O  O11  1  0.30201983  0.89496242  0.37779150  1
  O  O12  1  0.61124554  0.80783983  0.97307861  1
  O  O13  1  0.88875446  0.02692139  0.19216017  1
  O  O14  1  0.34695766  0.19350765  0.03409428  1
  O  O15  1  0.15304234  0.96590572  0.80649235  1
  O  O16  1  0.50084368  0.62962813  0.65678876  1
  O  O17  1  0.99915632  0.34321124  0.37037187  1
  O  O18  1  0.50037817  0.35748623  0.33431201  1
  O  O19  1  0.99962183  0.66568799  0.64251377  1
