# generated using pymatgen
data_NbFe
_symmetry_space_group_name_H-M   'P 1'
_cell_length_a   4.92631107
_cell_length_b   4.92631107
_cell_length_c   18.13953938
_cell_angle_alpha   97.80426485
_cell_angle_beta   97.80426485
_cell_angle_gamma   59.99999336
_symmetry_Int_Tables_number   1
_chemical_formula_structural   NbFe
_chemical_formula_sum   'Nb13 Fe13'
_cell_volume   376.52623374
_cell_formula_units_Z   13
loop_
 _symmetry_equiv_pos_site_id
 _symmetry_equiv_pos_as_xyz
  1  'x, y, z'
loop_
 _atom_site_type_symbol
 _atom_site_label
 _atom_site_symmetry_multiplicity
 _atom_site_fract_x
 _atom_site_fract_y
 _atom_site_fract_z
 _atom_site_occupancy
  Nb  Nb0  1  0.82556491  0.82556491  0.47669473  1
  Nb  Nb1  1  0.32614922  0.32614922  0.97844766  1
  Nb  Nb2  1  0.67385078  0.67385078  0.02155234  1
  Nb  Nb3  1  0.17443509  0.17443509  0.52330527  1
  Nb  Nb4  1  0.77354473  0.77354473  0.32063420  1
  Nb  Nb5  1  0.27549429  0.27549429  0.82648286  1
  Nb  Nb6  1  0.72450571  0.72450571  0.17351714  1
  Nb  Nb7  1  0.22645527  0.22645527  0.67936580  1
  Nb  Nb8  1  0.41554557  0.41554557  0.24663670  1
  Nb  Nb9  1  0.91769383  0.91769383  0.75308148  1
  Nb  Nb10  1  0.08230617  0.08230617  0.24691852  1
  Nb  Nb11  1  0.58445443  0.58445443  0.75336330  1
  Nb  Nb12  1  0.50000000  0.50000000  0.50000000  1
  Fe  Fe13  1  0.70341892  0.20356834  0.11055560  1
  Fe  Fe14  1  0.19847856  0.70999818  0.61847493  1
  Fe  Fe15  1  0.20356834  0.20356834  0.11055560  1
  Fe  Fe16  1  0.70999818  0.70999818  0.61847493  1
  Fe  Fe17  1  0.20356834  0.70341892  0.11055560  1
  Fe  Fe18  1  0.70999818  0.19847856  0.61847493  1
  Fe  Fe19  1  0.80152144  0.29000182  0.38152507  1
  Fe  Fe20  1  0.29658108  0.79643166  0.88944440  1
  Fe  Fe21  1  0.29000182  0.29000182  0.38152507  1
  Fe  Fe22  1  0.79643166  0.79643166  0.88944440  1
  Fe  Fe23  1  0.29000182  0.80152144  0.38152507  1
  Fe  Fe24  1  0.79643166  0.29658108  0.88944440  1
  Fe  Fe25  1  0.00000000  -0.00000000  0.00000000  1
