# generated using pymatgen
data_NaY(MoO4)2
_symmetry_space_group_name_H-M   'P 1'
_cell_length_a   5.28101422
_cell_length_b   5.28101422
_cell_length_c   6.83166346
_cell_angle_alpha   67.26248153
_cell_angle_beta   67.26248153
_cell_angle_gamma   90.00000000
_symmetry_Int_Tables_number   1
_chemical_formula_structural   NaY(MoO4)2
_chemical_formula_sum   'Na1 Y1 Mo2 O8'
_cell_volume   159.54686321
_cell_formula_units_Z   1
loop_
 _symmetry_equiv_pos_site_id
 _symmetry_equiv_pos_as_xyz
  1  'x, y, z'
loop_
 _atom_site_type_symbol
 _atom_site_label
 _atom_site_symmetry_multiplicity
 _atom_site_fract_x
 _atom_site_fract_y
 _atom_site_fract_z
 _atom_site_occupancy
  Na  Na0  1  0.37500000  0.62500000  0.25000000  1
  Y  Y1  1  0.62500000  0.37500000  0.75000000  1
  Mo  Mo2  1  0.87500000  0.12500000  0.25000000  1
  Mo  Mo3  1  0.12500000  0.87500000  0.75000000  1
  O  O4  1  0.71983574  0.35638575  0.07122018  1
  O  O5  1  0.20894408  0.07239407  0.07122018  1
  O  O6  1  0.36837993  0.20125425  0.58662471  1
  O  O7  1  0.04499536  0.71212105  0.58662471  1
  O  O8  1  0.28787895  0.63162007  0.91337529  1
  O  O9  1  0.79874575  0.95500464  0.91337529  1
  O  O10  1  0.64361425  0.79105592  0.42877982  1
  O  O11  1  0.92760593  0.28016426  0.42877982  1
