# generated using pymatgen
data_Nb3MoSe8
_symmetry_space_group_name_H-M   'P 1'
_cell_length_a   3.44652945
_cell_length_b   5.97467290
_cell_length_c   13.62738372
_cell_angle_alpha   80.92058048
_cell_angle_beta   90.01777321
_cell_angle_gamma   90.00962909
_symmetry_Int_Tables_number   1
_chemical_formula_structural   Nb3MoSe8
_chemical_formula_sum   'Nb3 Mo1 Se8'
_cell_volume   277.09758591
_cell_formula_units_Z   1
loop_
 _symmetry_equiv_pos_site_id
 _symmetry_equiv_pos_as_xyz
  1  'x, y, z'
loop_
 _atom_site_type_symbol
 _atom_site_label
 _atom_site_symmetry_multiplicity
 _atom_site_fract_x
 _atom_site_fract_y
 _atom_site_fract_z
 _atom_site_occupancy
  Nb  Nb0  1  0.49967107  0.33266629  0.49888320  1
  Nb  Nb1  1  0.99997976  0.32789404  0.99900614  1
  Nb  Nb2  1  0.99969309  0.83347344  0.49841807  1
  Mo  Mo3  1  0.49995841  0.83917847  0.99868168  1
  Se  Se4  1  0.99986843  0.71556501  0.87658112  1
  Se  Se5  1  0.00001405  0.21333327  0.37178610  1
  Se  Se6  1  0.49985081  0.20789451  0.87317512  1
  Se  Se7  1  0.49999996  0.71238990  0.37215512  1
  Se  Se8  1  0.50016301  0.11699497  0.12501955  1
  Se  Se9  1  0.00026685  0.12122818  0.62582180  1
  Se  Se10  1  0.00008113  0.62885955  0.12102551  1
  Se  Se11  1  0.50025342  0.62192237  0.62544659  1
