# generated using pymatgen
data_Na11TiNb2Si4(PO13)2
_symmetry_space_group_name_H-M   'P 1'
_cell_length_a   5.57465319
_cell_length_b   7.24691276
_cell_length_c   14.71390586
_cell_angle_alpha   92.58766111
_cell_angle_beta   95.39981910
_cell_angle_gamma   90.55149584
_symmetry_Int_Tables_number   1
_chemical_formula_structural   Na11TiNb2Si4(PO13)2
_chemical_formula_sum   'Na11 Ti1 Nb2 Si4 P2 O26'
_cell_volume   591.12857744
_cell_formula_units_Z   1
loop_
 _symmetry_equiv_pos_site_id
 _symmetry_equiv_pos_as_xyz
  1  'x, y, z'
loop_
 _atom_site_type_symbol
 _atom_site_label
 _atom_site_symmetry_multiplicity
 _atom_site_fract_x
 _atom_site_fract_y
 _atom_site_fract_z
 _atom_site_occupancy
  Na  Na0  1  0.50569602  0.76095371  0.49710310  1
  Na  Na1  1  0.49630953  0.24241345  0.50028915  1
  Na  Na2  1  0.29478668  0.00936283  0.26528951  1
  Na  Na3  1  0.70513558  0.99133818  0.73607790  1
  Na  Na4  1  0.80517426  0.49264902  0.13359649  1
  Na  Na5  1  0.19486476  0.50711503  0.86633208  1
  Na  Na6  1  0.99995235  0.49954257  0.50004587  1
  Na  Na7  1  0.75272574  0.26411837  0.92191857  1
  Na  Na8  1  0.24721007  0.73588252  0.07817513  1
  Na  Na9  1  0.81759276  0.01805680  0.10045543  1
  Na  Na10  1  0.18248330  0.98206974  0.89957160  1
  Ti  Ti11  1  0.02604811  0.00088198  0.49181844  1
  Nb  Nb12  1  0.69809521  0.50701586  0.71609064  1
  Nb  Nb13  1  0.30151939  0.49240576  0.28401253  1
  Si  Si14  1  0.80225338  0.20480119  0.31610662  1
  Si  Si15  1  0.19618087  0.79573119  0.68451547  1
  Si  Si16  1  0.81710250  0.78116544  0.30367804  1
  Si  Si17  1  0.18262623  0.21825944  0.69513530  1
  P  P18  1  0.68666112  0.74424344  0.93351066  1
  P  P19  1  0.31325235  0.25566802  0.06651662  1
  O  O20  1  0.74433491  0.56982245  0.87016595  1
  O  O21  1  0.25534142  0.43016785  0.12980060  1
  O  O22  1  0.58764425  0.25735722  0.05683234  1
  O  O23  1  0.41226938  0.74264037  0.94314615  1
  O  O24  1  0.56667057  0.67655078  0.25810360  1
  O  O25  1  0.43279127  0.32334011  0.74172695  1
  O  O26  1  0.95011157  0.30366716  0.74442429  1
  O  O27  1  0.05042194  0.69653540  0.25483789  1
  O  O28  1  0.54154549  0.28964383  0.28138649  1
  O  O29  1  0.45775778  0.71069801  0.71805946  1
  O  O30  1  0.98179747  0.68544936  0.72768930  1
  O  O31  1  0.01731538  0.31435355  0.27275036  1
  O  O32  1  0.82949755  0.72563022  0.02866105  1
  O  O33  1  0.17044572  0.27426893  0.97134696  1
  O  O34  1  0.76432072  0.92733620  0.89169419  1
  O  O35  1  0.23573266  0.07266581  0.10841362  1
  O  O36  1  0.74138104  0.99067967  0.57918689  1
  O  O37  1  0.26557078  0.00341440  0.42393457  1
  O  O38  1  0.79604718  0.99441244  0.26477480  1
  O  O39  1  0.20407855  0.00616625  0.73525548  1
  O  O40  1  0.67807021  0.48445010  0.59339249  1
  O  O41  1  0.32193416  0.51494301  0.40666423  1
  O  O42  1  0.84187318  0.78974094  0.41416093  1
  O  O43  1  0.16447884  0.21052471  0.58464281  1
  O  O44  1  0.83725768  0.19911027  0.42647252  1
  O  O45  1  0.15329011  0.80187641  0.57437692  1
