# generated using pymatgen
data_Na3Cd(RhO2)8
_symmetry_space_group_name_H-M   'P 1'
_cell_length_a   3.10701545
_cell_length_b   9.15097086
_cell_length_c   10.94746412
_cell_angle_alpha   89.60829301
_cell_angle_beta   90.00000000
_cell_angle_gamma   90.00000000
_symmetry_Int_Tables_number   1
_chemical_formula_structural   Na3Cd(RhO2)8
_chemical_formula_sum   'Na3 Cd1 Rh8 O16'
_cell_volume   311.25330144
_cell_formula_units_Z   1
loop_
 _symmetry_equiv_pos_site_id
 _symmetry_equiv_pos_as_xyz
  1  'x, y, z'
loop_
 _atom_site_type_symbol
 _atom_site_label
 _atom_site_symmetry_multiplicity
 _atom_site_fract_x
 _atom_site_fract_y
 _atom_site_fract_z
 _atom_site_occupancy
  Na  Na0  1  0.75000000  0.23652590  0.34224555  1
  Na  Na1  1  0.25000000  0.26364951  0.84232217  1
  Na  Na2  1  0.25000000  0.76257220  0.65799747  1
  Cd  Cd3  1  0.75000000  0.73695445  0.16085416  1
  Rh  Rh4  1  0.75000000  0.08869437  0.60316701  1
  Rh  Rh5  1  0.75000000  0.58799792  0.89604101  1
  Rh  Rh6  1  0.25000000  0.91312597  0.40187059  1
  Rh  Rh7  1  0.25000000  0.40865240  0.09928086  1
  Rh  Rh8  1  0.75000000  0.05864400  0.11586910  1
  Rh  Rh9  1  0.75000000  0.55196730  0.38489913  1
  Rh  Rh10  1  0.25000000  0.94508976  0.88194883  1
  Rh  Rh11  1  0.25000000  0.44413478  0.61745445  1
  O  O12  1  0.75000000  0.95640527  0.28640118  1
  O  O13  1  0.75000000  0.46955615  0.20837684  1
  O  O14  1  0.25000000  0.03622191  0.71227069  1
  O  O15  1  0.25000000  0.53536763  0.78711178  1
  O  O16  1  0.75000000  0.30447297  0.66003029  1
  O  O17  1  0.75000000  0.80591313  0.83882237  1
  O  O18  1  0.25000000  0.69787380  0.33461644  1
  O  O19  1  0.25000000  0.19506144  0.16047660  1
  O  O20  1  0.75000000  0.38343576  0.97652003  1
  O  O21  1  0.75000000  0.88713638  0.52442332  1
  O  O22  1  0.25000000  0.61596468  0.02501438  1
  O  O23  1  0.25000000  0.11723553  0.47968480  1
  O  O24  1  0.75000000  0.08243870  0.92974348  1
  O  O25  1  0.75000000  0.58258625  0.57039765  1
  O  O26  1  0.25000000  0.91470652  0.06885767  1
  O  O27  1  0.25000000  0.41761531  0.43330212  1
