# generated using pymatgen
data_LuSc3(MnSi)4
_symmetry_space_group_name_H-M   'P 1'
_cell_length_a   3.91040631
_cell_length_b   6.61338395
_cell_length_c   7.45525902
_cell_angle_alpha   90.69268333
_cell_angle_beta   90.00000000
_cell_angle_gamma   90.00000000
_symmetry_Int_Tables_number   1
_chemical_formula_structural   LuSc3(MnSi)4
_chemical_formula_sum   'Lu1 Sc3 Mn4 Si4'
_cell_volume   192.78650069
_cell_formula_units_Z   1
loop_
 _symmetry_equiv_pos_site_id
 _symmetry_equiv_pos_as_xyz
  1  'x, y, z'
loop_
 _atom_site_type_symbol
 _atom_site_label
 _atom_site_symmetry_multiplicity
 _atom_site_fract_x
 _atom_site_fract_y
 _atom_site_fract_z
 _atom_site_occupancy
  Lu  Lu0  1  0.75000000  0.47895686  0.18181504  1
  Sc  Sc1  1  0.75000000  0.97923456  0.32179812  1
  Sc  Sc2  1  0.25000000  0.51925922  0.81402712  1
  Sc  Sc3  1  0.25000000  0.01611575  0.68243345  1
  Mn  Mn4  1  0.75000000  0.35850214  0.55960063  1
  Mn  Mn5  1  0.75000000  0.86427589  0.94353868  1
  Mn  Mn6  1  0.25000000  0.64113657  0.44549639  1
  Mn  Mn7  1  0.25000000  0.14357320  0.05230545  1
  Si  Si8  1  0.75000000  0.22080195  0.86978208  1
  Si  Si9  1  0.75000000  0.71980197  0.62330078  1
  Si  Si10  1  0.25000000  0.78496725  0.11967360  1
  Si  Si11  1  0.25000000  0.27337465  0.38622866  1
