# generated using pymatgen
data_Na12Ca3Fe2(SiO3)12
_symmetry_space_group_name_H-M   'P 1'
_cell_length_a   7.49746278
_cell_length_b   10.38100297
_cell_length_c   10.58532152
_cell_angle_alpha   90.00000000
_cell_angle_beta   90.02449653
_cell_angle_gamma   90.00000000
_symmetry_Int_Tables_number   1
_chemical_formula_structural   Na12Ca3Fe2(SiO3)12
_chemical_formula_sum   'Na12 Ca3 Fe2 Si12 O36'
_cell_volume   823.86802515
_cell_formula_units_Z   1
loop_
 _symmetry_equiv_pos_site_id
 _symmetry_equiv_pos_as_xyz
  1  'x, y, z'
loop_
 _atom_site_type_symbol
 _atom_site_label
 _atom_site_symmetry_multiplicity
 _atom_site_fract_x
 _atom_site_fract_y
 _atom_site_fract_z
 _atom_site_occupancy
  Na  Na0  1  0.51092232  0.76921070  0.25416522  1
  Na  Na1  1  0.48233552  0.74566144  0.73445078  1
  Na  Na2  1  0.05203833  0.79470840  0.23547534  1
  Na  Na3  1  0.98383709  0.75972583  0.76746157  1
  Na  Na4  1  0.48233552  0.25433856  0.73445078  1
  Na  Na5  1  0.51092232  0.23078930  0.25416522  1
  Na  Na6  1  0.98383709  0.24027417  0.76746157  1
  Na  Na7  1  0.05203833  0.20529160  0.23547534  1
  Na  Na8  1  0.43346350  0.00000000  0.43274457  1
  Na  Na9  1  0.99922238  0.50000000  0.00472144  1
  Na  Na10  1  0.99660607  0.50000000  0.49982646  1
  Na  Na11  1  0.44625482  0.00000000  0.02390717  1
  Ca  Ca12  1  0.73319521  0.00000000  0.76299863  1
  Ca  Ca13  1  0.75829709  0.50000000  0.26064185  1
  Ca  Ca14  1  0.24347038  0.50000000  0.73644974  1
  Fe  Fe15  1  0.50118785  0.50000000  0.49940294  1
  Fe  Fe16  1  0.00296072  0.00000000  0.00297767  1
  Si  Si17  1  0.76131779  0.00000000  0.28087072  1
  Si  Si18  1  0.24422300  0.00000000  0.72198194  1
  Si  Si19  1  0.25368713  0.50000000  0.22246255  1
  Si  Si20  1  0.74695013  0.50000000  0.77974569  1
  Si  Si21  1  0.21678163  0.76423682  0.51078728  1
  Si  Si22  1  0.78702682  0.76806478  0.49535811  1
  Si  Si23  1  0.71758802  0.73279643  0.99316013  1
  Si  Si24  1  0.28415670  0.72860551  0.00455125  1
  Si  Si25  1  0.78702682  0.23193522  0.49535811  1
  Si  Si26  1  0.21678163  0.23576318  0.51078728  1
  Si  Si27  1  0.28415670  0.27139449  0.00455125  1
  Si  Si28  1  0.71758802  0.26720357  0.99316013  1
  O  O29  1  0.18201753  0.86068298  0.03956740  1
  O  O30  1  0.81291294  0.86396419  0.94301682  1
  O  O31  1  0.68768480  0.63547255  0.44745620  1
  O  O32  1  0.31522405  0.63241031  0.56085504  1
  O  O33  1  0.81291294  0.13603581  0.94301682  1
  O  O34  1  0.18201753  0.13931702  0.03956740  1
  O  O35  1  0.31522405  0.36758969  0.56085504  1
  O  O36  1  0.68768480  0.36452745  0.44745620  1
  O  O37  1  0.28291664  0.82120505  0.38049751  1
  O  O38  1  0.72101364  0.82939922  0.62672692  1
  O  O39  1  0.78731202  0.66816788  0.12240516  1
  O  O40  1  0.22292699  0.66097262  0.87471407  1
  O  O41  1  0.72101364  0.17060078  0.62672692  1
  O  O42  1  0.28291664  0.17879495  0.38049751  1
  O  O43  1  0.22292699  0.33902738  0.87471407  1
  O  O44  1  0.78731202  0.33183212  0.12240516  1
  O  O45  1  0.00086515  0.72800646  0.51013543  1
  O  O46  1  0.50038657  0.76464468  0.00143379  1
  O  O47  1  0.00086515  0.27199354  0.51013543  1
  O  O48  1  0.50038657  0.23535532  0.00143379  1
  O  O49  1  0.56570346  0.00000000  0.22227290  1
  O  O50  1  0.43148598  0.00000000  0.79680467  1
  O  O51  1  0.06226713  0.50000000  0.29023776  1
  O  O52  1  0.93905705  0.50000000  0.71237133  1
  O  O53  1  0.25947603  0.62825777  0.12629428  1
  O  O54  1  0.74091533  0.62853887  0.87376508  1
  O  O55  1  0.77686065  0.87027041  0.37505209  1
  O  O56  1  0.24144232  0.86945401  0.62969365  1
  O  O57  1  0.74091533  0.37146113  0.87376508  1
  O  O58  1  0.25947603  0.37174223  0.12629428  1
  O  O59  1  0.24144232  0.13054599  0.62969365  1
  O  O60  1  0.77686065  0.12972959  0.37505209  1
  O  O61  1  0.43441720  0.50000000  0.30871259  1
  O  O62  1  0.56745520  0.50000000  0.69322722  1
  O  O63  1  0.92987421  0.00000000  0.18518929  1
  O  O64  1  0.05932152  0.00000000  0.80330661  1
