# generated using pymatgen
data_BCl2
_symmetry_space_group_name_H-M   'P 1'
_cell_length_a   6.71018110
_cell_length_b   8.45573206
_cell_length_c   12.77983828
_cell_angle_alpha   90.00000000
_cell_angle_beta   90.00000000
_cell_angle_gamma   90.00000000
_symmetry_Int_Tables_number   1
_chemical_formula_structural   BCl2
_chemical_formula_sum   'B8 Cl16'
_cell_volume   725.12155045
_cell_formula_units_Z   8
loop_
 _symmetry_equiv_pos_site_id
 _symmetry_equiv_pos_as_xyz
  1  'x, y, z'
loop_
 _atom_site_type_symbol
 _atom_site_label
 _atom_site_symmetry_multiplicity
 _atom_site_fract_x
 _atom_site_fract_y
 _atom_site_fract_z
 _atom_site_occupancy
  B  B0  1  0.39415841  0.05327425  0.51390242  1
  B  B1  1  0.89415841  0.44672575  0.48609758  1
  B  B2  1  0.60584159  0.55327425  0.98609758  1
  B  B3  1  0.10584159  0.94672575  0.01390242  1
  B  B4  1  0.60584159  0.94672575  0.48609758  1
  B  B5  1  0.10584159  0.55327425  0.51390242  1
  B  B6  1  0.39415841  0.44672575  0.01390242  1
  B  B7  1  0.89415841  0.05327425  0.98609758  1
  Cl  Cl8  1  0.78749145  0.04946970  0.86160491  1
  Cl  Cl9  1  0.28749145  0.45053030  0.13839509  1
  Cl  Cl10  1  0.21250855  0.54946970  0.63839509  1
  Cl  Cl11  1  0.71250855  0.95053030  0.36160491  1
  Cl  Cl12  1  0.21250855  0.95053030  0.13839509  1
  Cl  Cl13  1  0.71250855  0.54946970  0.86160491  1
  Cl  Cl14  1  0.78749145  0.45053030  0.36160491  1
  Cl  Cl15  1  0.28749145  0.04946970  0.63839509  1
  Cl  Cl16  1  0.27951753  0.16772634  0.41659881  1
  Cl  Cl17  1  0.77951753  0.33227366  0.58340119  1
  Cl  Cl18  1  0.72048247  0.66772634  0.08340119  1
  Cl  Cl19  1  0.22048247  0.83227366  0.91659881  1
  Cl  Cl20  1  0.72048247  0.83227366  0.58340119  1
  Cl  Cl21  1  0.22048247  0.66772634  0.41659881  1
  Cl  Cl22  1  0.27951753  0.33227366  0.91659881  1
  Cl  Cl23  1  0.77951753  0.16772634  0.08340119  1
