# generated using pymatgen
data_Na2TiNiO4
_symmetry_space_group_name_H-M   'P 1'
_cell_length_a   3.04539732
_cell_length_b   5.66727731
_cell_length_c   5.25020249
_cell_angle_alpha   72.22394972
_cell_angle_beta   89.99999829
_cell_angle_gamma   89.99999273
_symmetry_Int_Tables_number   1
_chemical_formula_structural   Na2TiNiO4
_chemical_formula_sum   'Na2 Ti1 Ni1 O4'
_cell_volume   86.28766061
_cell_formula_units_Z   1
loop_
 _symmetry_equiv_pos_site_id
 _symmetry_equiv_pos_as_xyz
  1  'x, y, z'
loop_
 _atom_site_type_symbol
 _atom_site_label
 _atom_site_symmetry_multiplicity
 _atom_site_fract_x
 _atom_site_fract_y
 _atom_site_fract_z
 _atom_site_occupancy
  Na  Na0  1  -0.00000000  0.00000000  -0.00000000  1
  Na  Na1  1  0.50000000  0.00000000  0.50000000  1
  Ti  Ti2  1  0.50000000  0.50000000  -0.00000000  1
  Ni  Ni3  1  -0.00000000  0.50000000  0.50000000  1
  O  O4  1  0.50000000  0.69953245  0.24744674  1
  O  O5  1  1.00000000  0.70153219  0.78258973  1
  O  O6  1  0.50000000  0.30046755  0.75255326  1
  O  O7  1  0.00000000  0.29846781  0.21741027  1
