# generated using pymatgen
data_Mn3Fe3(PO4)4
_symmetry_space_group_name_H-M   'P 1'
_cell_length_a   6.34027747
_cell_length_b   8.95015409
_cell_length_c   11.47908382
_cell_angle_alpha   90.00000000
_cell_angle_beta   90.00000000
_cell_angle_gamma   99.26310826
_symmetry_Int_Tables_number   1
_chemical_formula_structural   Mn3Fe3(PO4)4
_chemical_formula_sum   'Mn6 Fe6 P8 O32'
_cell_volume   642.90287001
_cell_formula_units_Z   2
loop_
 _symmetry_equiv_pos_site_id
 _symmetry_equiv_pos_as_xyz
  1  'x, y, z'
loop_
 _atom_site_type_symbol
 _atom_site_label
 _atom_site_symmetry_multiplicity
 _atom_site_fract_x
 _atom_site_fract_y
 _atom_site_fract_z
 _atom_site_occupancy
  Mn  Mn0  1  0.65287919  0.06132849  0.61479864  1
  Mn  Mn1  1  0.84712081  0.93867151  0.11479864  1
  Mn  Mn2  1  0.83343229  0.72680212  0.42761730  1
  Mn  Mn3  1  0.66656771  0.27319788  0.92761730  1
  Mn  Mn4  1  0.17034994  0.27980329  0.57012026  1
  Mn  Mn5  1  0.32965006  0.72019671  0.07012026  1
  Fe  Fe6  1  0.61284327  0.36567444  0.30407324  1
  Fe  Fe7  1  0.88715673  0.63432556  0.80407324  1
  Fe  Fe8  1  0.38818636  0.63290820  0.69618270  1
  Fe  Fe9  1  0.11181364  0.36709180  0.19618270  1
  Fe  Fe10  1  0.36287468  0.92890030  0.38589106  1
  Fe  Fe11  1  0.13712532  0.07109970  0.88589106  1
  P  P12  1  0.87925948  0.09218213  0.36066632  1
  P  P13  1  0.62074052  0.90781787  0.86066632  1
  P  P14  1  0.11957220  0.90825537  0.63976154  1
  P  P15  1  0.38042780  0.09174463  0.13976154  1
  P  P16  1  0.30720422  0.60731734  0.41454906  1
  P  P17  1  0.19279578  0.39268266  0.91454906  1
  P  P18  1  0.69331288  0.39291648  0.58537573  1
  P  P19  1  0.80668712  0.60708352  0.08537573  1
  O  O20  1  0.88363824  0.94166618  0.29439910  1
  O  O21  1  0.61636176  0.05833382  0.79439910  1
  O  O22  1  0.11782346  0.05580223  0.71087198  1
  O  O23  1  0.38217654  0.94419777  0.21087198  1
  O  O24  1  0.32156767  0.48033406  0.32474924  1
  O  O25  1  0.17843233  0.51966594  0.82474924  1
  O  O26  1  0.67983244  0.52110567  0.67460780  1
  O  O27  1  0.82016756  0.47889433  0.17460780  1
  O  O28  1  0.51410928  0.72720245  0.41410586  1
  O  O29  1  0.98589072  0.27279755  0.91410586  1
  O  O30  1  0.48674946  0.27387982  0.58714919  1
  O  O31  1  0.01325054  0.72612018  0.08714919  1
  O  O32  1  0.26624012  0.53679444  0.53870391  1
  O  O33  1  0.23375988  0.46320556  0.03870391  1
  O  O34  1  0.73445122  0.46306694  0.46084676  1
  O  O35  1  0.76554878  0.53693306  0.96084676  1
  O  O36  1  0.66782701  0.07436152  0.43240847  1
  O  O37  1  0.83217299  0.92563848  0.93240847  1
  O  O38  1  0.32680061  0.92971607  0.56404938  1
  O  O39  1  0.17319939  0.07028393  0.06404938  1
  O  O40  1  0.13351746  0.70196389  0.37833435  1
  O  O41  1  0.36648254  0.29803611  0.87833435  1
  O  O42  1  0.86845964  0.29958471  0.62247256  1
  O  O43  1  0.63154036  0.70041529  0.12247256  1
  O  O44  1  0.08382311  0.13008779  0.43373642  1
  O  O45  1  0.41617689  0.86991221  0.93373642  1
  O  O46  1  0.91048453  0.87616281  0.56888700  1
  O  O47  1  0.58951547  0.12383719  0.06888700  1
  O  O48  1  0.86607899  0.22526367  0.27377439  1
  O  O49  1  0.63392101  0.77473633  0.77377439  1
  O  O50  1  0.13458363  0.77139864  0.72186774  1
  O  O51  1  0.36541637  0.22860136  0.22186774  1
