# generated using pymatgen
data_MoPd4
_symmetry_space_group_name_H-M   'P 1'
_cell_length_a   2.79585633
_cell_length_b   2.79585633
_cell_length_c   11.53480546
_cell_angle_alpha   90.00000000
_cell_angle_beta   96.96091139
_cell_angle_gamma   120.00000000
_symmetry_Int_Tables_number   1
_chemical_formula_structural   MoPd4
_chemical_formula_sum   'Mo1 Pd4'
_cell_volume   77.31716782
_cell_formula_units_Z   1
loop_
 _symmetry_equiv_pos_site_id
 _symmetry_equiv_pos_as_xyz
  1  'x, y, z'
loop_
 _atom_site_type_symbol
 _atom_site_label
 _atom_site_symmetry_multiplicity
 _atom_site_fract_x
 _atom_site_fract_y
 _atom_site_fract_z
 _atom_site_occupancy
  Mo  Mo0  1  -0.00000000  -0.00000000  0.00000000  1
  Pd  Pd1  1  0.79644265  0.39822133  0.19466398  1
  Pd  Pd2  1  0.59919845  0.79959923  0.39879768  1
  Pd  Pd3  1  0.40080155  0.20040077  0.60120232  1
  Pd  Pd4  1  0.20355735  0.60177867  0.80533602  1
