# generated using pymatgen
data_MnV(Co2Si)2
_symmetry_space_group_name_H-M   'P 1'
_cell_length_a   3.99732702
_cell_length_b   3.99732702
_cell_length_c   6.91878348
_cell_angle_alpha   73.20938464
_cell_angle_beta   90.00000000
_cell_angle_gamma   120.00000000
_symmetry_Int_Tables_number   1
_chemical_formula_structural   MnV(Co2Si)2
_chemical_formula_sum   'Mn1 V1 Co4 Si2'
_cell_volume   90.25803362
_cell_formula_units_Z   1
loop_
 _symmetry_equiv_pos_site_id
 _symmetry_equiv_pos_as_xyz
  1  'x, y, z'
loop_
 _atom_site_type_symbol
 _atom_site_label
 _atom_site_symmetry_multiplicity
 _atom_site_fract_x
 _atom_site_fract_y
 _atom_site_fract_z
 _atom_site_occupancy
  Mn  Mn0  1  0.00000000  0.00000000  -0.00000000  1
  V  V1  1  0.50000000  0.00000000  0.50000000  1
  Co  Co2  1  0.62483464  0.24966927  0.12549609  1
  Co  Co3  1  0.12492556  0.24985112  0.62522333  1
  Co  Co4  1  0.87507444  0.75014888  0.37477667  1
  Co  Co5  1  0.37516536  0.75033073  0.87450391  1
  Si  Si6  1  0.25016459  0.50032919  0.24950622  1
  Si  Si7  1  0.74983541  0.49967081  0.75049378  1
