# generated using pymatgen
data_La2Ti3(BiO6)2
_symmetry_space_group_name_H-M   'P 1'
_cell_length_a   3.85163965
_cell_length_b   3.85163965
_cell_length_c   16.90068466
_cell_angle_alpha   83.44801534
_cell_angle_beta   83.44801534
_cell_angle_gamma   89.92186486
_symmetry_Int_Tables_number   1
_chemical_formula_structural   La2Ti3(BiO6)2
_chemical_formula_sum   'La2 Ti3 Bi2 O12'
_cell_volume   247.44217067
_cell_formula_units_Z   1
loop_
 _symmetry_equiv_pos_site_id
 _symmetry_equiv_pos_as_xyz
  1  'x, y, z'
loop_
 _atom_site_type_symbol
 _atom_site_label
 _atom_site_symmetry_multiplicity
 _atom_site_fract_x
 _atom_site_fract_y
 _atom_site_fract_z
 _atom_site_occupancy
  La  La0  1  0.43766230  0.42989397  0.13244373  1
  La  La1  1  0.57010603  0.56233770  0.86755627  1
  Ti  Ti2  1  0.99484927  0.00515073  -0.00000000  1
  Ti  Ti3  1  0.12916437  0.12833529  0.74250034  1
  Ti  Ti4  1  0.87166471  0.87083563  0.25749966  1
  Bi  Bi5  1  0.28844792  0.28829490  0.42325718  1
  Bi  Bi6  1  0.71170510  0.71155208  0.57674282  1
  O  O7  1  0.61601350  0.11669404  0.76780749  1
  O  O8  1  0.11549847  0.61617901  0.76780749  1
  O  O9  1  0.38382099  0.88450153  0.23219251  1
  O  O10  1  0.88330596  0.38398650  0.23219251  1
  O  O11  1  0.05653477  0.06106483  0.88240040  1
  O  O12  1  0.93893517  0.94346523  0.11759960  1
  O  O13  1  0.75006146  0.24993854  0.50000000  1
  O  O14  1  0.25006146  0.74993854  0.50000000  1
  O  O15  1  0.18262813  0.18238648  0.63498539  1
  O  O16  1  0.81761352  0.81737187  0.36501461  1
  O  O17  1  0.48328060  0.04435374  0.00000000  1
  O  O18  1  0.95564626  0.51671940  1.00000000  1
