# generated using pymatgen
data_KV5S8
_symmetry_space_group_name_H-M   'P 1'
_cell_length_a   3.27416959
_cell_length_b   8.49173865
_cell_length_c   8.95146548
_cell_angle_alpha   104.48926670
_cell_angle_beta   79.46217541
_cell_angle_gamma   90.00000000
_symmetry_Int_Tables_number   1
_chemical_formula_structural   KV5S8
_chemical_formula_sum   'K1 V5 S8'
_cell_volume   236.62741807
_cell_formula_units_Z   1
loop_
 _symmetry_equiv_pos_site_id
 _symmetry_equiv_pos_as_xyz
  1  'x, y, z'
loop_
 _atom_site_type_symbol
 _atom_site_label
 _atom_site_symmetry_multiplicity
 _atom_site_fract_x
 _atom_site_fract_y
 _atom_site_fract_z
 _atom_site_occupancy
  K  K0  1  0.04230107  1.00000000  0.00000000  1
  V  V1  1  0.15029378  0.50692953  0.70280668  1
  V  V2  1  0.85310045  0.49307047  0.29719332  1
  V  V3  1  0.79072768  0.85843767  0.42140230  1
  V  V4  1  0.21212998  0.14156233  0.57859770  1
  V  V5  1  0.50031378  0.50000000  0.00000000  1
  S  S6  1  0.26009493  0.65960499  0.48190610  1
  S  S7  1  0.74200103  0.34039501  0.51809390  1
  S  S8  1  0.66329719  0.99899276  0.67803797  1
  S  S9  1  0.34133516  0.00100724  0.32196203  1
  S  S10  1  0.92518792  0.67708403  0.14988976  1
  S  S11  1  0.07507767  0.32291597  0.85011024  1
  S  S12  1  0.58854797  0.68342533  0.83004342  1
  S  S13  1  0.41859139  0.31657467  0.16995658  1
