# generated using pymatgen
data_Li3Fe(MoO4)3
_symmetry_space_group_name_H-M   'P 1'
_cell_length_a   5.19890249
_cell_length_b   10.62310688
_cell_length_c   17.81346756
_cell_angle_alpha   90.83813947
_cell_angle_beta   90.00000000
_cell_angle_gamma   90.00000000
_symmetry_Int_Tables_number   1
_chemical_formula_structural   Li3Fe(MoO4)3
_chemical_formula_sum   'Li12 Fe4 Mo12 O48'
_cell_volume   983.70577659
_cell_formula_units_Z   4
loop_
 _symmetry_equiv_pos_site_id
 _symmetry_equiv_pos_as_xyz
  1  'x, y, z'
loop_
 _atom_site_type_symbol
 _atom_site_label
 _atom_site_symmetry_multiplicity
 _atom_site_fract_x
 _atom_site_fract_y
 _atom_site_fract_z
 _atom_site_occupancy
  Li  Li0  1  0.74794829  0.74883306  0.19737145  1
  Li  Li1  1  0.24440521  0.75685831  0.29982027  1
  Li  Li2  1  0.25559479  0.25685831  0.79982027  1
  Li  Li3  1  0.75205171  0.24883306  0.69737145  1
  Li  Li4  1  0.75152678  0.91845259  0.02888833  1
  Li  Li5  1  0.74356035  0.07493572  0.52782980  1
  Li  Li6  1  0.24583890  0.43127697  0.97095681  1
  Li  Li7  1  0.74847322  0.41845259  0.52888833  1
  Li  Li8  1  0.25416110  0.93127697  0.47095681  1
  Li  Li9  1  0.75643965  0.57493572  0.02782980  1
  Li  Li10  1  0.10636899  0.24842754  0.25195595  1
  Li  Li11  1  0.39363101  0.74842754  0.75195595  1
  Fe  Fe12  1  0.25129141  0.57110463  0.47453427  1
  Fe  Fe13  1  0.24870859  0.07110463  0.97453427  1
  Fe  Fe14  1  0.60257903  0.24865327  0.25020065  1
  Fe  Fe15  1  0.89742097  0.74865327  0.75020065  1
  Mo  Mo16  1  0.78223665  0.52835841  0.34485361  1
  Mo  Mo17  1  0.28210628  0.97353515  0.15629469  1
  Mo  Mo18  1  0.22187570  0.02386752  0.65717363  1
  Mo  Mo19  1  0.72467548  0.47343146  0.84354428  1
  Mo  Mo20  1  0.21789372  0.47353515  0.65629469  1
  Mo  Mo21  1  0.71776335  0.02835841  0.84485361  1
  Mo  Mo22  1  0.77532452  0.97343146  0.34354428  1
  Mo  Mo23  1  0.27812430  0.52386752  0.15717363  1
  Mo  Mo24  1  0.28358036  0.25074760  0.44171141  1
  Mo  Mo25  1  0.78171646  0.24960198  0.05680690  1
  Mo  Mo26  1  0.71828354  0.74960198  0.55680690  1
  Mo  Mo27  1  0.21641964  0.75074760  0.94171141  1
  O  O28  1  0.08258648  0.12160217  0.46128849  1
  O  O29  1  0.59176627  0.38052269  0.03630485  1
  O  O30  1  0.92959391  0.61805362  0.53460200  1
  O  O31  1  0.40815757  0.89413172  0.96150378  1
  O  O32  1  0.90823373  0.88052269  0.53630485  1
  O  O33  1  0.41741352  0.62160217  0.96128849  1
  O  O34  1  0.09184243  0.39413172  0.46150378  1
  O  O35  1  0.57040609  0.11805362  0.03460200  1
  O  O36  1  0.37401290  0.25034120  0.34224813  1
  O  O37  1  0.84110468  0.24833123  0.15724582  1
  O  O38  1  0.65889532  0.74833123  0.65724582  1
  O  O39  1  0.12598710  0.75034120  0.84224813  1
  O  O40  1  0.58934831  0.62393628  0.28921436  1
  O  O41  1  0.07988491  0.87846990  0.21113208  1
  O  O42  1  0.41864031  0.12129735  0.71651497  1
  O  O43  1  0.92100265  0.37349718  0.78646792  1
  O  O44  1  0.42011509  0.37846990  0.71113208  1
  O  O45  1  0.91065169  0.12393628  0.78921436  1
  O  O46  1  0.57899735  0.87349718  0.28646792  1
  O  O47  1  0.08135969  0.62129735  0.21651497  1
  O  O48  1  0.84408047  0.38130739  0.29484272  1
  O  O49  1  0.36506215  0.11967871  0.20601795  1
  O  O50  1  0.13161284  0.87815223  0.70701191  1
  O  O51  1  0.65831026  0.62244532  0.79252155  1
  O  O52  1  0.13493785  0.61967871  0.70601795  1
  O  O53  1  0.65591953  0.88130739  0.79484272  1
  O  O54  1  0.84168974  0.12244532  0.29252155  1
  O  O55  1  0.36838716  0.37815223  0.20701191  1
  O  O56  1  0.54963324  0.25096221  0.50436871  1
  O  O57  1  0.06314744  0.23685552  0.99338921  1
  O  O58  1  0.43685256  0.73685552  0.49338921  1
  O  O59  1  0.95036676  0.75096221  0.00436871  1
  O  O60  1  0.07176014  0.61211885  0.37808981  1
  O  O61  1  0.55807289  0.88790620  0.12742513  1
  O  O62  1  0.94881948  0.11217001  0.62800000  1
  O  O63  1  0.44566289  0.38784476  0.87190364  1
  O  O64  1  0.94192711  0.38790620  0.62742513  1
  O  O65  1  0.42823986  0.11211885  0.87808981  1
  O  O66  1  0.05433711  0.88784476  0.37190364  1
  O  O67  1  0.55118052  0.61217001  0.12800000  1
  O  O68  1  0.57445500  0.49639534  0.42448440  1
  O  O69  1  0.09070190  0.01345131  0.07242405  1
  O  O70  1  0.41294614  0.98313768  0.57677318  1
  O  O71  1  0.91456634  0.50930689  0.92428329  1
  O  O72  1  0.40929810  0.51345131  0.57242405  1
  O  O73  1  0.92554500  0.99639534  0.92448440  1
  O  O74  1  0.58543366  0.00930689  0.42428329  1
  O  O75  1  0.08705386  0.48313768  0.07677318  1
