# generated using pymatgen
data_Li(TaS2)2
_symmetry_space_group_name_H-M   'P 1'
_cell_length_a   3.35968202
_cell_length_b   3.35968692
_cell_length_c   12.89346305
_cell_angle_alpha   90.00000000
_cell_angle_beta   90.00064476
_cell_angle_gamma   59.99995173
_symmetry_Int_Tables_number   1
_chemical_formula_structural   Li(TaS2)2
_chemical_formula_sum   'Li1 Ta2 S4'
_cell_volume   126.03668844
_cell_formula_units_Z   1
loop_
 _symmetry_equiv_pos_site_id
 _symmetry_equiv_pos_as_xyz
  1  'x, y, z'
loop_
 _atom_site_type_symbol
 _atom_site_label
 _atom_site_symmetry_multiplicity
 _atom_site_fract_x
 _atom_site_fract_y
 _atom_site_fract_z
 _atom_site_occupancy
  Li  Li0  1  0.00000000  -0.00000000  0.50000000  1
  Ta  Ta1  1  0.00003739  0.99998131  0.75303099  1
  Ta  Ta2  1  0.99996261  0.00001869  0.24696901  1
  S  S3  1  0.33336099  0.33331950  0.62950595  1
  S  S4  1  0.66663901  0.66668050  0.37049405  1
  S  S5  1  0.66662556  0.66668722  0.12855422  1
  S  S6  1  0.33337444  0.33331278  0.87144578  1
