# generated using pymatgen
data_La6Co(SiS7)2
_symmetry_space_group_name_H-M   'P 1'
_cell_length_a   5.81868591
_cell_length_b   10.30730040
_cell_length_c   10.30915595
_cell_angle_alpha   119.99984641
_cell_angle_beta   90.00011226
_cell_angle_gamma   90.00142549
_symmetry_Int_Tables_number   1
_chemical_formula_structural   La6Co(SiS7)2
_chemical_formula_sum   'La6 Co1 Si2 S14'
_cell_volume   535.45658154
_cell_formula_units_Z   1
loop_
 _symmetry_equiv_pos_site_id
 _symmetry_equiv_pos_as_xyz
  1  'x, y, z'
loop_
 _atom_site_type_symbol
 _atom_site_label
 _atom_site_symmetry_multiplicity
 _atom_site_fract_x
 _atom_site_fract_y
 _atom_site_fract_z
 _atom_site_occupancy
  La  La0  1  0.24893608  0.22717394  0.35618391  1
  La  La1  1  0.24901446  0.64376559  0.87103140  1
  La  La2  1  0.24893548  0.12908869  0.77284988  1
  La  La3  1  0.74805149  0.77313333  0.64348943  1
  La  La4  1  0.74806370  0.35658341  0.12963737  1
  La  La5  1  0.74806363  0.87025163  0.22686600  1
  Co  Co6  1  0.49295228  0.99998767  0.99993375  1
  Si  Si7  1  0.83199265  0.33337924  0.66670988  1
  Si  Si8  1  0.33393053  0.66663939  0.33331193  1
  S  S9  1  0.46922797  0.33336834  0.66667611  1
  S  S10  1  0.97075652  0.66661850  0.33332908  1
  S  S11  1  0.97012377  0.11289053  0.52558870  1
  S  S12  1  0.97010334  0.47440707  0.58721288  1
  S  S13  1  0.97013486  0.41280676  0.88711735  1
  S  S14  1  0.47233764  0.88692940  0.47346129  1
  S  S15  1  0.47226972  0.52653312  0.41350777  1
  S  S16  1  0.47234167  0.58645888  0.11306397  1
  S  S17  1  0.71479423  0.15083433  0.23781206  1
  S  S18  1  0.71489251  0.76213862  0.91305483  1
  S  S19  1  0.71486493  0.08696793  0.84908927  1
  S  S20  1  0.24485779  0.84622603  0.76104119  1
  S  S21  1  0.24470949  0.23902429  0.08517739  1
  S  S22  1  0.24464526  0.91479330  0.15385456  1
