# generated using pymatgen
data_La3YSb3
_symmetry_space_group_name_H-M   'P 1'
_cell_length_a   8.33556018
_cell_length_b   8.28204308
_cell_length_c   8.33556018
_cell_angle_alpha   70.61176592
_cell_angle_beta   70.28721186
_cell_angle_gamma   109.57310975
_symmetry_Int_Tables_number   1
_chemical_formula_structural   La3YSb3
_chemical_formula_sum   'La6 Y2 Sb6'
_cell_volume   441.54868455
_cell_formula_units_Z   2
loop_
 _symmetry_equiv_pos_site_id
 _symmetry_equiv_pos_as_xyz
  1  'x, y, z'
loop_
 _atom_site_type_symbol
 _atom_site_label
 _atom_site_symmetry_multiplicity
 _atom_site_fract_x
 _atom_site_fract_y
 _atom_site_fract_z
 _atom_site_occupancy
  La  La0  1  0.64199263  0.50297165  0.49962778  1
  La  La1  1  0.99740058  0.99702835  0.36097902  1
  La  La2  1  0.49939891  0.64383648  0.99961562  1
  La  La3  1  0.35654790  0.85616352  0.64443757  1
  La  La4  1  0.14668897  0.50028394  0.49955700  1
  La  La5  1  0.00015906  0.99971606  0.85359497  1
  Y  Y6  1  0.86043209  0.36096045  0.13913132  1
  Y  Y7  1  0.49990823  0.13903955  0.00052836  1
  Sb  Sb8  1  0.38531267  0.25000000  0.36468733  1
  Sb  Sb9  1  0.12518391  0.75000000  0.12481609  1
  Sb  Sb10  1  0.86781055  0.61033469  0.76131600  1
  Sb  Sb11  1  0.62834930  0.88966531  0.24252414  1
  Sb  Sb12  1  0.74702451  0.13076362  0.62544568  1
  Sb  Sb13  1  0.24379071  0.36923638  0.88373910  1
