# generated using pymatgen
data_Li5Ga(GeO4)2
_symmetry_space_group_name_H-M   'P 1'
_cell_length_a   5.12604723
_cell_length_b   6.46582630
_cell_length_c   10.87194350
_cell_angle_alpha   90.00000000
_cell_angle_beta   90.00000000
_cell_angle_gamma   89.80840757
_symmetry_Int_Tables_number   1
_chemical_formula_structural   Li5Ga(GeO4)2
_chemical_formula_sum   'Li10 Ga2 Ge4 O16'
_cell_volume   360.33910494
_cell_formula_units_Z   2
loop_
 _symmetry_equiv_pos_site_id
 _symmetry_equiv_pos_as_xyz
  1  'x, y, z'
loop_
 _atom_site_type_symbol
 _atom_site_label
 _atom_site_symmetry_multiplicity
 _atom_site_fract_x
 _atom_site_fract_y
 _atom_site_fract_z
 _atom_site_occupancy
  Li  Li0  1  0.30284835  0.74483101  0.91565279  1
  Li  Li1  1  0.19715165  0.75516899  0.41565279  1
  Li  Li2  1  0.71657565  0.23707484  0.07954340  1
  Li  Li3  1  0.78342435  0.26292516  0.57954340  1
  Li  Li4  1  0.81265434  0.49757465  0.34002446  1
  Li  Li5  1  0.68734566  0.00242535  0.84002446  1
  Li  Li6  1  0.81733004  0.00446432  0.33541503  1
  Li  Li7  1  0.68266996  0.49553568  0.83541503  1
  Li  Li8  1  0.17810510  0.50468183  0.66886836  1
  Li  Li9  1  0.32189490  0.99531817  0.16886836  1
  Ga  Ga10  1  0.17765037  0.00227618  0.66487105  1
  Ga  Ga11  1  0.32234963  0.49772382  0.16487105  1
  Ge  Ge12  1  0.16977268  0.26394407  0.91018030  1
  Ge  Ge13  1  0.33022732  0.23605593  0.41018030  1
  Ge  Ge14  1  0.80805092  0.75743206  0.08428188  1
  Ge  Ge15  1  0.69194908  0.74256794  0.58428188  1
  O  O16  1  0.21132874  0.24430232  0.56877965  1
  O  O17  1  0.28867126  0.25569768  0.06877965  1
  O  O18  1  0.79183381  0.74967527  0.43211391  1
  O  O19  1  0.70816619  0.75032473  0.93211391  1
  O  O20  1  0.28703958  0.02979168  0.82913005  1
  O  O21  1  0.21296042  0.47020832  0.32913005  1
  O  O22  1  0.68954746  0.52553019  0.16399380  1
  O  O23  1  0.81045254  0.97446981  0.66399380  1
  O  O24  1  0.70951033  0.97701767  0.16447762  1
  O  O25  1  0.79048967  0.52298233  0.66447762  1
  O  O26  1  0.29513969  0.47911847  0.83533715  1
  O  O27  1  0.20486031  0.02088153  0.33533715  1
  O  O28  1  0.33436964  0.76922276  0.59352019  1
  O  O29  1  0.16563036  0.73077724  0.09352019  1
  O  O30  1  0.66864300  0.25321325  0.41381035  1
  O  O31  1  0.83135700  0.24678675  0.91381035  1
