# generated using pymatgen
data_HoAlGa
_symmetry_space_group_name_H-M   'P 1'
_cell_length_a   3.54987791
_cell_length_b   4.44691843
_cell_length_c   4.44674095
_cell_angle_alpha   60.00072649
_cell_angle_beta   90.00000000
_cell_angle_gamma   90.00000000
_symmetry_Int_Tables_number   1
_chemical_formula_structural   HoAlGa
_chemical_formula_sum   'Ho1 Al1 Ga1'
_cell_volume   60.79225047
_cell_formula_units_Z   1
loop_
 _symmetry_equiv_pos_site_id
 _symmetry_equiv_pos_as_xyz
  1  'x, y, z'
loop_
 _atom_site_type_symbol
 _atom_site_label
 _atom_site_symmetry_multiplicity
 _atom_site_fract_x
 _atom_site_fract_y
 _atom_site_fract_z
 _atom_site_occupancy
  Ho  Ho0  1  -0.00000000  0.99996911  0.00001794  1
  Al  Al1  1  0.50000000  0.33332963  0.33336371  1
  Ga  Ga2  1  0.50000000  0.66660126  0.66671835  1
