# generated using pymatgen
data_KBa3Ga5(Se5Cl)2
_symmetry_space_group_name_H-M   'P 1'
_cell_length_a   8.78110903
_cell_length_b   8.78687437
_cell_length_c   10.10440154
_cell_angle_alpha   64.06027145
_cell_angle_beta   63.98916111
_cell_angle_gamma   89.97941311
_symmetry_Int_Tables_number   1
_chemical_formula_structural   KBa3Ga5(Se5Cl)2
_chemical_formula_sum   'K1 Ba3 Ga5 Se10 Cl2'
_cell_volume   612.14358234
_cell_formula_units_Z   1
loop_
 _symmetry_equiv_pos_site_id
 _symmetry_equiv_pos_as_xyz
  1  'x, y, z'
loop_
 _atom_site_type_symbol
 _atom_site_label
 _atom_site_symmetry_multiplicity
 _atom_site_fract_x
 _atom_site_fract_y
 _atom_site_fract_z
 _atom_site_occupancy
  K  K0  1  0.25632501  0.12459802  0.22823898  1
  Ba  Ba1  1  0.51485716  0.64770166  0.22900272  1
  Ba  Ba2  1  0.35386058  0.74503592  0.77143544  1
  Ba  Ba3  1  0.87610804  0.48345632  0.77080819  1
  Ga  Ga4  1  0.73924560  0.13970826  0.33189216  1
  Ga  Ga5  1  0.93168959  0.52787029  0.32980829  1
  Ga  Ga6  1  0.47187447  0.26034929  0.66918076  1
  Ga  Ga7  1  0.85924843  0.06931003  0.66642517  1
  Ga  Ga8  1  0.00089834  0.00012350  0.00133376  1
  Se  Se9  1  0.82987467  0.92585629  0.51829078  1
  Se  Se10  1  0.65067293  0.55536422  0.51632897  1
  Se  Se11  1  0.44481866  0.16787815  0.48414848  1
  Se  Se12  1  0.06974199  0.35119998  0.48553412  1
  Se  Se13  1  0.92516574  0.43056249  0.14183505  1
  Se  Se14  1  0.57263438  0.07188333  0.85749039  1
  Se  Se15  1  0.71503282  0.04676836  0.14595813  1
  Se  Se16  1  0.14099388  0.80551624  0.14512710  1
  Se  Se17  1  0.19264015  0.28753984  0.85060423  1
  Se  Se18  1  0.95244126  0.86064037  0.85393697  1
  Cl  Cl19  1  0.50200719  0.50316190  0.99849609  1
  Cl  Cl20  1  0.24986909  0.74547554  0.50412422  1
