# generated using pymatgen
data_La4Ti2Se5O4
_symmetry_space_group_name_H-M   'P 1'
_cell_length_a   4.03622260
_cell_length_b   16.77210160
_cell_length_c   18.68550492
_cell_angle_alpha   90.00000000
_cell_angle_beta   90.00000000
_cell_angle_gamma   83.08911060
_symmetry_Int_Tables_number   1
_chemical_formula_structural   La4Ti2Se5O4
_chemical_formula_sum   'La16 Ti8 Se20 O16'
_cell_volume   1255.74235657
_cell_formula_units_Z   4
loop_
 _symmetry_equiv_pos_site_id
 _symmetry_equiv_pos_as_xyz
  1  'x, y, z'
loop_
 _atom_site_type_symbol
 _atom_site_label
 _atom_site_symmetry_multiplicity
 _atom_site_fract_x
 _atom_site_fract_y
 _atom_site_fract_z
 _atom_site_occupancy
  La  La0  1  0.89678828  0.20642343  0.45492443  1
  La  La1  1  0.10314380  0.79371239  0.54375913  1
  La  La2  1  0.89685620  0.20628761  0.04375913  1
  La  La3  1  0.10321172  0.79357657  0.95492443  1
  La  La4  1  0.45771527  0.08456946  0.25048740  1
  La  La5  1  0.54228473  0.91543054  0.75048740  1
  La  La6  1  0.74140517  0.51718965  0.86159004  1
  La  La7  1  0.25753950  0.48492099  0.13814624  1
  La  La8  1  0.74246050  0.51507901  0.63814624  1
  La  La9  1  0.25859483  0.48281035  0.36159004  1
  La  La10  1  0.68421345  0.63157310  0.25011360  1
  La  La11  1  0.31578655  0.36842690  0.75011360  1
  La  La12  1  0.56576172  0.86847656  0.37964439  1
  La  La13  1  0.43417803  0.13164393  0.61989275  1
  La  La14  1  0.56582197  0.86835607  0.11989275  1
  La  La15  1  0.43423828  0.13152344  0.87964439  1
  Ti  Ti16  1  0.67136760  0.65726480  0.43758842  1
  Ti  Ti17  1  0.32885097  0.34229806  0.56214256  1
  Ti  Ti18  1  0.67114903  0.65770194  0.06214256  1
  Ti  Ti19  1  0.32863240  0.34273520  0.93758842  1
  Ti  Ti20  1  0.99996065  0.00007869  0.50020816  1
  Ti  Ti21  1  0.00003935  0.99992131  0.00020816  1
  Ti  Ti22  1  0.87043089  0.25913821  0.25218178  1
  Ti  Ti23  1  0.12956911  0.74086179  0.75218178  1
  Se  Se24  1  0.86366135  0.27267729  0.85037571  1
  Se  Se25  1  0.13636824  0.72726351  0.14987467  1
  Se  Se26  1  0.86363176  0.27273649  0.64987467  1
  Se  Se27  1  0.13633865  0.72732271  0.35037571  1
  Se  Se28  1  0.79267796  0.41464407  0.24937898  1
  Se  Se29  1  0.20732204  0.58535593  0.74937898  1
  Se  Se30  1  0.80205880  0.39588240  0.48435841  1
  Se  Se31  1  0.19757983  0.60484033  0.51673976  1
  Se  Se32  1  0.80242017  0.39515967  0.01673976  1
  Se  Se33  1  0.19794120  0.60411760  0.98435841  1
  Se  Se34  1  0.47341798  0.05316404  0.41564892  1
  Se  Se35  1  0.52675844  0.94648312  0.58549678  1
  Se  Se36  1  0.47324156  0.05351688  0.08549678  1
  Se  Se37  1  0.52658202  0.94683596  0.91564892  1
  Se  Se38  1  0.03336663  0.93326674  0.24998489  1
  Se  Se39  1  0.96663337  0.06673326  0.74998489  1
  Se  Se40  1  0.36435203  0.27129594  0.34495459  1
  Se  Se41  1  0.63001400  0.73997200  0.66001867  1
  Se  Se42  1  0.36998600  0.26002800  0.16001867  1
  Se  Se43  1  0.63564797  0.72870406  0.84495459  1
  O  O44  1  0.61620746  0.76758507  0.47818202  1
  O  O45  1  0.38383694  0.23232612  0.52191303  1
  O  O46  1  0.61616306  0.76767388  0.02191303  1
  O  O47  1  0.38379254  0.23241493  0.97818202  1
  O  O48  1  0.94883523  0.10232954  0.94868719  1
  O  O49  1  0.05110262  0.89779477  0.05134286  1
  O  O50  1  0.94889738  0.10220523  0.55134286  1
  O  O51  1  0.05116477  0.89767046  0.44868719  1
  O  O52  1  0.71617262  0.56765476  0.37138833  1
  O  O53  1  0.28400098  0.43199805  0.62884803  1
  O  O54  1  0.71599902  0.56800195  0.12884803  1
  O  O55  1  0.28382738  0.43234524  0.87138833  1
  O  O56  1  0.22081626  0.55836748  0.24993625  1
  O  O57  1  0.77918374  0.44163252  0.74993625  1
  O  O58  1  0.92706576  0.14586849  0.26069200  1
  O  O59  1  0.07293424  0.85413151  0.76069200  1
