# generated using pymatgen
data_SmH3(CO2)3
_symmetry_space_group_name_H-M   'P 1'
_cell_length_a   6.27869297
_cell_length_b   6.27869297
_cell_length_c   6.27869297
_cell_angle_alpha   115.44565785
_cell_angle_beta   115.44565781
_cell_angle_gamma   115.44565769
_symmetry_Int_Tables_number   1
_chemical_formula_structural   SmH3(CO2)3
_chemical_formula_sum   'Sm1 H3 C3 O6'
_cell_volume   132.73059201
_cell_formula_units_Z   1
loop_
 _symmetry_equiv_pos_site_id
 _symmetry_equiv_pos_as_xyz
  1  'x, y, z'
loop_
 _atom_site_type_symbol
 _atom_site_label
 _atom_site_symmetry_multiplicity
 _atom_site_fract_x
 _atom_site_fract_y
 _atom_site_fract_z
 _atom_site_occupancy
  H  H0  1  0.98250346  0.46638250  0.46638250  1
  H  H1  1  0.46638250  0.46638250  0.98250346  1
  H  H2  1  0.46638250  0.98250346  0.46638250  1
  C  C3  1  0.22766044  0.68798259  0.22766044  1
  C  C4  1  0.68798259  0.22766044  0.22766044  1
  C  C5  1  0.22766044  0.22766044  0.68798259  1
  O  O6  1  0.50325896  0.24940751  0.24940751  1
  O  O7  1  0.95449330  0.55612778  0.95449330  1
  O  O8  1  0.95449330  0.95449330  0.55612778  1
  O  O9  1  0.24940751  0.50325896  0.24940751  1
  O  O10  1  0.24940751  0.24940751  0.50325896  1
  O  O11  1  0.55612778  0.95449330  0.95449330  1
  Sm  Sm12  1  0.84100636  0.84100636  0.84100636  1
