# generated using pymatgen
data_La4ZnCu2MoO12
_symmetry_space_group_name_H-M   'P 1'
_cell_length_a   8.03137885
_cell_length_b   11.68735918
_cell_length_c   7.99721805
_cell_angle_alpha   99.89895153
_cell_angle_beta   119.68790318
_cell_angle_gamma   100.03091060
_symmetry_Int_Tables_number   1
_chemical_formula_structural   La4ZnCu2MoO12
_chemical_formula_sum   'La8 Zn2 Cu4 Mo2 O24'
_cell_volume   612.21683552
_cell_formula_units_Z   2
loop_
 _symmetry_equiv_pos_site_id
 _symmetry_equiv_pos_as_xyz
  1  'x, y, z'
loop_
 _atom_site_type_symbol
 _atom_site_label
 _atom_site_symmetry_multiplicity
 _atom_site_fract_x
 _atom_site_fract_y
 _atom_site_fract_z
 _atom_site_occupancy
  La  La0  1  0.50000000  -0.00000000  -0.00000000  1
  La  La1  1  0.75127965  0.50586558  0.25477038  1
  La  La2  1  0.24872035  0.49413442  0.74522962  1
  La  La3  1  0.00000000  -0.00000000  0.50000000  1
  La  La4  1  0.73836743  0.49752914  0.73775078  1
  La  La5  1  0.26163257  0.50247086  0.26224922  1
  La  La6  1  0.00000000  -0.00000000  -0.00000000  1
  La  La7  1  0.50000000  -0.00000000  0.50000000  1
  Zn  Zn8  1  0.74132073  0.75315314  0.52831134  1
  Zn  Zn9  1  0.25867927  0.24684686  0.47168866  1
  Cu  Cu10  1  0.17225595  0.74974052  0.52164783  1
  Cu  Cu11  1  0.82774405  0.25025948  0.47835217  1
  Cu  Cu12  1  0.72889610  0.74884373  0.07994009  1
  Cu  Cu13  1  0.27110390  0.25115627  0.92005991  1
  Mo  Mo14  1  0.20604120  0.74609779  0.03729420  1
  Mo  Mo15  1  0.79395880  0.25390221  0.96270580  1
  O  O16  1  0.86970272  0.41703595  0.53620885  1
  O  O17  1  0.13029728  0.58296405  0.46379115  1
  O  O18  1  0.89002909  0.74860340  0.36436166  1
  O  O19  1  0.10997091  0.25139660  0.63563834  1
  O  O20  1  0.34419001  0.74711109  0.30491132  1
  O  O21  1  0.65580999  0.25288891  0.69508868  1
  O  O22  1  0.88258344  0.42911675  0.04807094  1
  O  O23  1  0.11741656  0.57088325  0.95192906  1
  O  O24  1  0.65912667  0.25160462  0.09134585  1
  O  O25  1  0.34087333  0.74839538  0.90865415  1
  O  O26  1  0.05793588  0.25144250  0.10473205  1
  O  O27  1  0.94206412  0.74855750  0.89526795  1
  O  O28  1  0.21000196  0.08441746  0.87795190  1
  O  O29  1  0.78999804  0.91558254  0.12204810  1
  O  O30  1  0.70511883  0.07555104  0.87022736  1
  O  O31  1  0.29488117  0.92444896  0.12977264  1
  O  O32  1  0.70507386  0.08350892  0.37185312  1
  O  O33  1  0.29492614  0.91649108  0.62814688  1
  O  O34  1  0.78962745  0.91927051  0.62727801  1
  O  O35  1  0.21037255  0.08072949  0.37272199  1
  O  O36  1  0.37857439  0.41762205  0.04822142  1
  O  O37  1  0.62142561  0.58237795  0.95177858  1
  O  O38  1  0.62451600  0.58591855  0.46329314  1
  O  O39  1  0.37548400  0.41408145  0.53670686  1
