# generated using pymatgen
data_KMn2O4
_symmetry_space_group_name_H-M   'P 1'
_cell_length_a   2.95187161
_cell_length_b   6.58822778
_cell_length_c   10.64178213
_cell_angle_alpha   92.68015208
_cell_angle_beta   89.98159236
_cell_angle_gamma   76.73796793
_symmetry_Int_Tables_number   1
_chemical_formula_structural   KMn2O4
_chemical_formula_sum   'K2 Mn4 O8'
_cell_volume   201.20449287
_cell_formula_units_Z   2
loop_
 _symmetry_equiv_pos_site_id
 _symmetry_equiv_pos_as_xyz
  1  'x, y, z'
loop_
 _atom_site_type_symbol
 _atom_site_label
 _atom_site_symmetry_multiplicity
 _atom_site_fract_x
 _atom_site_fract_y
 _atom_site_fract_z
 _atom_site_occupancy
  K  K0  1  0.99269574  0.99251718  0.47650255  1
  K  K1  1  0.98072886  0.03128098  0.92046003  1
  Mn  Mn2  1  0.72525902  0.52572752  0.61976529  1
  Mn  Mn3  1  0.25463843  0.46916511  0.37577459  1
  Mn  Mn4  1  0.22293399  0.53502003  0.87166269  1
  Mn  Mn5  1  0.75405249  0.47299569  0.12322642  1
  O  O6  1  0.79651212  0.38972950  0.77647260  1
  O  O7  1  0.18488417  0.60671051  0.22189342  1
  O  O8  1  0.66528521  0.64280510  0.45163441  1
  O  O9  1  0.31450288  0.35078054  0.54598282  1
  O  O10  1  0.64675927  0.68594199  0.95470072  1
  O  O11  1  0.32786977  0.32999969  0.03327419  1
  O  O12  1  0.13618520  0.69906641  0.67784909  1
  O  O13  1  0.84134284  0.30115975  0.31730118  1
