# generated using pymatgen
data_KCu7S4
_symmetry_space_group_name_H-M   'P 1'
_cell_length_a   3.84414304
_cell_length_b   7.41834063
_cell_length_c   7.42906909
_cell_angle_alpha   95.33009648
_cell_angle_beta   105.92327550
_cell_angle_gamma   74.76760858
_symmetry_Int_Tables_number   1
_chemical_formula_structural   KCu7S4
_chemical_formula_sum   'K1 Cu7 S4'
_cell_volume   196.52027105
_cell_formula_units_Z   1
loop_
 _symmetry_equiv_pos_site_id
 _symmetry_equiv_pos_as_xyz
  1  'x, y, z'
loop_
 _atom_site_type_symbol
 _atom_site_label
 _atom_site_symmetry_multiplicity
 _atom_site_fract_x
 _atom_site_fract_y
 _atom_site_fract_z
 _atom_site_occupancy
  K  K0  1  0.99687175  0.00081468  0.00186488  1
  Cu  Cu1  1  0.94047419  0.38500119  0.33733806  1
  Cu  Cu2  1  0.99634204  0.61181676  0.65726315  1
  Cu  Cu3  1  0.38150960  0.66241410  0.38359912  1
  Cu  Cu4  1  0.64494120  0.34198838  0.60923856  1
  Cu  Cu5  1  0.66641128  0.54139531  0.90843618  1
  Cu  Cu6  1  0.78030919  0.91387269  0.42193243  1
  Cu  Cu7  1  0.26283473  0.10747969  0.57734388  1
  S  S8  1  0.77930492  0.66354335  0.19813731  1
  S  S9  1  0.25513852  0.33912417  0.81850686  1
  S  S10  1  0.40164519  0.80858928  0.67159091  1
  S  S11  1  0.52521738  0.20296040  0.31974864  1
