# generated using pymatgen
data_La3TaCo2O9
_symmetry_space_group_name_H-M   'P 1'
_cell_length_a   5.78294486
_cell_length_b   8.03839579
_cell_length_c   16.88568795
_cell_angle_alpha   89.90844454
_cell_angle_beta   90.00000000
_cell_angle_gamma   90.00000000
_symmetry_Int_Tables_number   1
_chemical_formula_structural   La3TaCo2O9
_chemical_formula_sum   'La12 Ta4 Co8 O36'
_cell_volume   784.94032680
_cell_formula_units_Z   4
loop_
 _symmetry_equiv_pos_site_id
 _symmetry_equiv_pos_as_xyz
  1  'x, y, z'
loop_
 _atom_site_type_symbol
 _atom_site_label
 _atom_site_symmetry_multiplicity
 _atom_site_fract_x
 _atom_site_fract_y
 _atom_site_fract_z
 _atom_site_occupancy
  La  La0  1  0.05091643  0.26317346  0.01210020  1
  La  La1  1  0.04364835  0.26074205  0.32874549  1
  La  La2  1  0.05914135  0.23085684  0.67067579  1
  La  La3  1  0.44085865  0.73085684  0.17067579  1
  La  La4  1  0.44908357  0.76317346  0.51210020  1
  La  La5  1  0.45635165  0.76074205  0.82874549  1
  La  La6  1  0.94908357  0.73682654  0.32123280  1
  La  La7  1  0.94085865  0.76914316  0.66265821  1
  La  La8  1  0.95635165  0.73925795  0.00458751  1
  La  La9  1  0.55914135  0.26914316  0.16265821  1
  La  La10  1  0.54364835  0.23925795  0.50458751  1
  La  La11  1  0.55091643  0.23682654  0.82123280  1
  Ta  Ta12  1  0.00105841  0.50231601  0.49992658  1
  Ta  Ta13  1  0.99894159  0.49768399  0.83340642  1
  Ta  Ta14  1  0.49894159  0.00231601  -0.00007342  1
  Ta  Ta15  1  0.50105841  0.99768399  0.33340642  1
  Co  Co16  1  0.50358260  0.49978155  0.99686771  1
  Co  Co17  1  0.49641740  0.50021845  0.33646529  1
  Co  Co18  1  0.50000000  0.50000000  0.66666700  1
  Co  Co19  1  0.00000000  0.00000000  0.16666700  1
  Co  Co20  1  0.99641740  0.99978155  0.49686771  1
  Co  Co21  1  0.00358260  0.00021845  0.83646529  1
  Co  Co22  1  0.00000000  0.50000000  0.16666700  1
  Co  Co23  1  0.50000000  0.00000000  0.66666700  1
  O  O24  1  0.79685451  0.45789785  0.06403176  1
  O  O25  1  0.80336352  0.45395414  0.40400819  1
  O  O26  1  0.80578497  0.44687856  0.73928018  1
  O  O27  1  0.69421503  0.94687856  0.23928018  1
  O  O28  1  0.70314549  0.95789785  0.56403176  1
  O  O29  1  0.69663648  0.95395414  0.90400819  1
  O  O30  1  0.20314549  0.54210215  0.26930224  1
  O  O31  1  0.19421503  0.55312144  0.59405282  1
  O  O32  1  0.19663648  0.54604586  0.92932481  1
  O  O33  1  0.30578497  0.05312144  0.09405282  1
  O  O34  1  0.30336352  0.04604586  0.42932481  1
  O  O35  1  0.29685451  0.04210215  0.76930224  1
  O  O36  1  0.30150412  0.45190657  0.09728160  1
  O  O37  1  0.28628910  0.44571860  0.43708741  1
  O  O38  1  0.28415795  0.44931916  0.76988029  1
  O  O39  1  0.21584205  0.94931916  0.26988029  1
  O  O40  1  0.19849588  0.95190657  0.59728160  1
  O  O41  1  0.21371090  0.94571860  0.93708741  1
  O  O42  1  0.69849588  0.54809343  0.23605140  1
  O  O43  1  0.71584205  0.55068084  0.56345371  1
  O  O44  1  0.71371090  0.55428140  0.89624559  1
  O  O45  1  0.78415795  0.05068084  0.06345371  1
  O  O46  1  0.78628910  0.05428140  0.39624559  1
  O  O47  1  0.80150412  0.04809343  0.73605140  1
  O  O48  1  0.47183447  0.23907000  0.30325416  1
  O  O49  1  0.46694941  0.25508092  0.63831422  1
  O  O50  1  0.47239883  0.23868318  0.96530245  1
  O  O51  1  0.03305059  0.75508092  0.13831422  1
  O  O52  1  0.02760117  0.73868318  0.46530245  1
  O  O53  1  0.02816553  0.73907000  0.80325416  1
  O  O54  1  0.52816553  0.76093000  0.03007984  1
  O  O55  1  0.52760117  0.76131682  0.36803055  1
  O  O56  1  0.53305059  0.74491908  0.69501878  1
  O  O57  1  0.96694941  0.24491908  0.19501878  1
  O  O58  1  0.97183447  0.26093000  0.53007984  1
  O  O59  1  0.97239883  0.26131682  0.86803055  1
