# generated using pymatgen
data_In4As3P
_symmetry_space_group_name_H-M   'P 1'
_cell_length_a   4.35268607
_cell_length_b   6.07306185
_cell_length_c   8.73272836
_cell_angle_alpha   90.00000000
_cell_angle_beta   90.00000000
_cell_angle_gamma   90.00000000
_symmetry_Int_Tables_number   1
_chemical_formula_structural   In4As3P
_chemical_formula_sum   'In4 As3 P1'
_cell_volume   230.84209192
_cell_formula_units_Z   1
loop_
 _symmetry_equiv_pos_site_id
 _symmetry_equiv_pos_as_xyz
  1  'x, y, z'
loop_
 _atom_site_type_symbol
 _atom_site_label
 _atom_site_symmetry_multiplicity
 _atom_site_fract_x
 _atom_site_fract_y
 _atom_site_fract_z
 _atom_site_occupancy
  In  In0  1  0.00000000  0.00461571  0.99440231  1
  In  In1  1  0.50000000  0.50172659  0.25000000  1
  In  In2  1  -0.00000000  0.00461571  0.50559769  1
  In  In3  1  0.50000000  0.49086776  0.75000000  1
  As  As4  1  0.50000000  0.74963882  0.99819057  1
  As  As5  1  0.00000000  0.24893332  0.25000000  1
  As  As6  1  0.50000000  0.74963882  0.50180943  1
  P  P7  1  0.00000000  0.24996329  0.75000000  1
