# generated using pymatgen
data_Hf5Sc5Ge6
_symmetry_space_group_name_H-M   'P 1'
_cell_length_a   5.65599465
_cell_length_b   7.96093222
_cell_length_c   7.97736335
_cell_angle_alpha   59.93359257
_cell_angle_beta   89.99941652
_cell_angle_gamma   90.00310477
_symmetry_Int_Tables_number   1
_chemical_formula_structural   Hf5Sc5Ge6
_chemical_formula_sum   'Hf5 Sc5 Ge6'
_cell_volume   310.86506389
_cell_formula_units_Z   1
loop_
 _symmetry_equiv_pos_site_id
 _symmetry_equiv_pos_as_xyz
  1  'x, y, z'
loop_
 _atom_site_type_symbol
 _atom_site_label
 _atom_site_symmetry_multiplicity
 _atom_site_fract_x
 _atom_site_fract_y
 _atom_site_fract_z
 _atom_site_occupancy
  Hf  Hf0  1  0.75001693  0.24506820  0.75623391  1
  Hf  Hf1  1  0.75003428  0.75493222  0.00131038  1
  Hf  Hf2  1  0.74997696  0.00001091  0.24337482  1
  Hf  Hf3  1  0.24999255  0.75479510  0.24641446  1
  Hf  Hf4  1  0.24996616  0.24520483  0.00123030  1
  Sc  Sc5  1  0.25002250  0.00001143  0.75470214  1
  Sc  Sc6  1  0.50058997  0.33371919  0.33228102  1
  Sc  Sc7  1  0.50059417  0.66627290  0.66599564  1
  Sc  Sc8  1  0.99940298  0.66626488  0.66600152  1
  Sc  Sc9  1  0.99941045  0.33374865  0.33225521  1
  Ge  Ge10  1  0.75000605  0.60849199  0.39133128  1
  Ge  Ge11  1  0.74997195  0.39148610  0.99990122  1
  Ge  Ge12  1  0.75001404  0.00003502  0.60948459  1
  Ge  Ge13  1  0.24998373  0.39061276  0.60873785  1
  Ge  Ge14  1  0.25003078  0.60930781  0.99944610  1
  Ge  Ge15  1  0.24998651  0.00003800  0.39129955  1
