# generated using pymatgen
data_K4N2O5
_symmetry_space_group_name_H-M   'P 1'
_cell_length_a   5.14541805
_cell_length_b   5.37427957
_cell_length_c   8.82469441
_cell_angle_alpha   72.27177193
_cell_angle_beta   73.05010761
_cell_angle_gamma   90.00000000
_symmetry_Int_Tables_number   1
_chemical_formula_structural   K4N2O5
_chemical_formula_sum   'K4 N2 O5'
_cell_volume   221.28496638
_cell_formula_units_Z   1
loop_
 _symmetry_equiv_pos_site_id
 _symmetry_equiv_pos_as_xyz
  1  'x, y, z'
loop_
 _atom_site_type_symbol
 _atom_site_label
 _atom_site_symmetry_multiplicity
 _atom_site_fract_x
 _atom_site_fract_y
 _atom_site_fract_z
 _atom_site_occupancy
  K  K0  1  0.00000000  0.50000000  -0.00000000  1
  K  K1  1  0.50000000  0.00000000  -0.00000000  1
  K  K2  1  0.33509771  0.33509771  0.32980459  1
  K  K3  1  0.66490229  0.66490229  0.67019541  1
  N  N4  1  0.11960044  0.11960044  0.76079912  1
  N  N5  1  0.88039956  0.88039956  0.23920088  1
  O  O6  1  0.50000000  0.50000000  -0.00000000  1
  O  O7  1  0.16173171  0.36338053  0.67653657  1
  O  O8  1  0.16173171  0.96008290  0.67653657  1
  O  O9  1  0.83826829  0.63661947  0.32346343  1
  O  O10  1  0.83826829  0.03991710  0.32346343  1
