# generated using pymatgen
data_GdDy
_symmetry_space_group_name_H-M   'P 1'
_cell_length_a   3.58080913
_cell_length_b   3.58246437
_cell_length_c   5.71947067
_cell_angle_alpha   90.04526315
_cell_angle_beta   90.03373950
_cell_angle_gamma   59.97566090
_symmetry_Int_Tables_number   1
_chemical_formula_structural   GdDy
_chemical_formula_sum   'Gd1 Dy1'
_cell_volume   63.52472724
_cell_formula_units_Z   1
loop_
 _symmetry_equiv_pos_site_id
 _symmetry_equiv_pos_as_xyz
  1  'x, y, z'
loop_
 _atom_site_type_symbol
 _atom_site_label
 _atom_site_symmetry_multiplicity
 _atom_site_fract_x
 _atom_site_fract_y
 _atom_site_fract_z
 _atom_site_occupancy
  Gd  Gd0  1  0.66660400  0.66669358  0.25000659  1
  Dy  Dy1  1  0.33339600  0.33330642  0.74999341  1
