# generated using pymatgen
data_K7Be12(PO4)12
_symmetry_space_group_name_H-M   'P 1'
_cell_length_a   11.70845390
_cell_length_b   11.70845390
_cell_length_c   11.70845390
_cell_angle_alpha   70.52877937
_cell_angle_beta   70.52877937
_cell_angle_gamma   109.47122063
_symmetry_Int_Tables_number   1
_chemical_formula_structural   K7Be12(PO4)12
_chemical_formula_sum   'K7 Be12 P12 O48'
_cell_volume   1235.59675776
_cell_formula_units_Z   1
loop_
 _symmetry_equiv_pos_site_id
 _symmetry_equiv_pos_as_xyz
  1  'x, y, z'
loop_
 _atom_site_type_symbol
 _atom_site_label
 _atom_site_symmetry_multiplicity
 _atom_site_fract_x
 _atom_site_fract_y
 _atom_site_fract_z
 _atom_site_occupancy
  K  K0  1  0.50000000  0.00000000  0.50000000  1
  K  K1  1  0.50000000  0.50000000  -0.00000000  1
  K  K2  1  0.00000000  0.50000000  0.50000000  1
  K  K3  1  0.61384603  0.61384603  0.38615397  1
  K  K4  1  0.38615397  -0.00000000  -0.00000000  1
  K  K5  1  0.00000000  0.38615397  -0.00000000  1
  K  K6  1  -0.00000000  0.00000000  0.61384603  1
  Be  Be7  1  0.84751046  0.69848604  0.58885800  1
  Be  Be8  1  0.41114200  0.84751046  0.30151396  1
  Be  Be9  1  0.69848604  0.41114200  0.15248954  1
  Be  Be10  1  0.15248954  0.56363154  0.14902442  1
  Be  Be11  1  0.58885800  0.28734404  0.56363154  1
  Be  Be12  1  0.30151396  0.14902442  0.28734404  1
  Be  Be13  1  0.71265596  0.30151396  0.85097558  1
  Be  Be14  1  0.85097558  0.15248954  0.43636846  1
  Be  Be15  1  0.43636846  0.58885800  0.71265596  1
  Be  Be16  1  0.28734404  0.43636846  0.41114200  1
  Be  Be17  1  0.14902442  0.71265596  0.69848604  1
  Be  Be18  1  0.56363154  0.85097558  0.84751046  1
  P  P19  1  0.58311038  0.43311246  0.71841178  1
  P  P20  1  0.28158822  0.58311038  0.56688754  1
  P  P21  1  0.43311246  0.28158822  0.41688962  1
  P  P22  1  0.41688962  0.69847784  0.14999792  1
  P  P23  1  0.71841178  0.15152424  0.69847784  1
  P  P24  1  0.56688754  0.14999792  0.15152424  1
  P  P25  1  0.84847576  0.56688754  0.85000208  1
  P  P26  1  0.85000208  0.41688962  0.30152216  1
  P  P27  1  0.30152216  0.71841178  0.84847576  1
  P  P28  1  0.15152424  0.30152216  0.28158822  1
  P  P29  1  0.14999792  0.84847576  0.43311246  1
  P  P30  1  0.69847784  0.85000208  0.58311038  1
  O  O31  1  0.58724738  0.32979138  0.83844527  1
  O  O32  1  0.16155473  0.58724738  0.67020862  1
  O  O33  1  0.32979138  0.16155473  0.41275262  1
  O  O34  1  0.41275262  0.57430735  0.25745600  1
  O  O35  1  0.83844527  0.16823665  0.57430735  1
  O  O36  1  0.67020862  0.25745600  0.16823665  1
  O  O37  1  0.83176335  0.67020862  0.74254400  1
  O  O38  1  0.74254400  0.41275262  0.42569265  1
  O  O39  1  0.42569265  0.83844527  0.83176335  1
  O  O40  1  0.16823665  0.42569265  0.16155473  1
  O  O41  1  0.25745600  0.83176335  0.32979138  1
  O  O42  1  0.57430735  0.74254400  0.58724738  1
  O  O43  1  0.48445311  0.48198137  0.78291210  1
  O  O44  1  0.21708790  0.48445311  0.51801863  1
  O  O45  1  0.48198137  0.21708790  0.51554689  1
  O  O46  1  0.51554689  0.73263479  0.00247174  1
  O  O47  1  0.78291210  0.26489347  0.73263479  1
  O  O48  1  0.51801863  0.00247174  0.26489347  1
  O  O49  1  0.73510653  0.51801863  0.99752826  1
  O  O50  1  0.99752826  0.51554689  0.26736521  1
  O  O51  1  0.26736521  0.78291210  0.73510653  1
  O  O52  1  0.26489347  0.26736521  0.21708790  1
  O  O53  1  0.00247174  0.73510653  0.48198137  1
  O  O54  1  0.73263479  0.99752826  0.48445311  1
  O  O55  1  0.52751539  0.35942637  0.64576083  1
  O  O56  1  0.35423917  0.52751539  0.64057363  1
  O  O57  1  0.35942637  0.35423917  0.47248461  1
  O  O58  1  0.47248461  0.82672379  0.16808902  1
  O  O59  1  0.64576083  0.00518720  0.82672379  1
  O  O60  1  0.64057363  0.16808902  0.00518720  1
  O  O61  1  0.99481280  0.64057363  0.83191098  1
  O  O62  1  0.83191098  0.47248461  0.17327621  1
  O  O63  1  0.17327621  0.64576083  0.99481280  1
  O  O64  1  0.00518720  0.17327621  0.35423917  1
  O  O65  1  0.16808902  0.99481280  0.35942637  1
  O  O66  1  0.82672379  0.83191098  0.52751539  1
  O  O67  1  0.73117058  0.56029689  0.60662183  1
  O  O68  1  0.39337817  0.73117058  0.43970311  1
  O  O69  1  0.56029689  0.39337817  0.26882942  1
  O  O70  1  0.26882942  0.66220760  0.17087369  1
  O  O71  1  0.60662183  0.16691871  0.66220760  1
  O  O72  1  0.43970311  0.17087369  0.16691871  1
  O  O73  1  0.83308129  0.43970311  0.82912631  1
  O  O74  1  0.82912631  0.26882942  0.33779240  1
  O  O75  1  0.33779240  0.60662183  0.83308129  1
  O  O76  1  0.16691871  0.33779240  0.39337817  1
  O  O77  1  0.17087369  0.83308129  0.56029689  1
  O  O78  1  0.66220760  0.82912631  0.73117058  1
