# generated using pymatgen
data_Fe3NiSb8
_symmetry_space_group_name_H-M   'P 1'
_cell_length_a   3.27153540
_cell_length_b   5.77030828
_cell_length_c   13.04445917
_cell_angle_alpha   89.81483812
_cell_angle_beta   90.00000000
_cell_angle_gamma   90.00000000
_symmetry_Int_Tables_number   1
_chemical_formula_structural   Fe3NiSb8
_chemical_formula_sum   'Fe3 Ni1 Sb8'
_cell_volume   246.24898555
_cell_formula_units_Z   1
loop_
 _symmetry_equiv_pos_site_id
 _symmetry_equiv_pos_as_xyz
  1  'x, y, z'
loop_
 _atom_site_type_symbol
 _atom_site_label
 _atom_site_symmetry_multiplicity
 _atom_site_fract_x
 _atom_site_fract_y
 _atom_site_fract_z
 _atom_site_occupancy
  Fe  Fe0  1  0.50000000  0.49777633  0.25132296  1
  Fe  Fe1  1  0.50000000  0.50222367  0.74867704  1
  Fe  Fe2  1  -0.00000000  -0.00000000  -0.00000000  1
  Ni  Ni3  1  0.00000000  -0.00000000  0.50000000  1
  Sb  Sb4  1  0.50000000  0.69446857  0.07287254  1
  Sb  Sb5  1  0.50000000  0.69165969  0.57344439  1
  Sb  Sb6  1  0.50000000  0.30834031  0.42655561  1
  Sb  Sb7  1  0.50000000  0.30553143  0.92712746  1
  Sb  Sb8  1  0.00000000  0.19779792  0.17504944  1
  Sb  Sb9  1  0.00000000  0.19443091  0.68161368  1
  Sb  Sb10  1  0.00000000  0.80556909  0.31838632  1
  Sb  Sb11  1  0.00000000  0.80220208  0.82495056  1
