# generated using pymatgen
data_Ga2AsP
_symmetry_space_group_name_H-M   'P 1'
_cell_length_a   3.97573195
_cell_length_b   3.97573195
_cell_length_c   6.87880755
_cell_angle_alpha   73.20285503
_cell_angle_beta   90.00000000
_cell_angle_gamma   120.00000000
_symmetry_Int_Tables_number   1
_chemical_formula_structural   Ga2AsP
_chemical_formula_sum   'Ga2 As1 P1'
_cell_volume   88.76537272
_cell_formula_units_Z   1
loop_
 _symmetry_equiv_pos_site_id
 _symmetry_equiv_pos_as_xyz
  1  'x, y, z'
loop_
 _atom_site_type_symbol
 _atom_site_label
 _atom_site_symmetry_multiplicity
 _atom_site_fract_x
 _atom_site_fract_y
 _atom_site_fract_z
 _atom_site_occupancy
  Ga  Ga0  1  0.00240818  0.00481636  0.99277545  1
  Ga  Ga1  1  0.49754777  0.99509554  0.50735669  1
  As  As2  1  0.87497786  0.74995573  0.37506641  1
  P  P3  1  0.37506618  0.75013237  0.87480145  1
