# generated using pymatgen
data_InCuTeSe
_symmetry_space_group_name_H-M   'P 1'
_cell_length_a   6.11594647
_cell_length_b   6.08468169
_cell_length_c   7.47533601
_cell_angle_alpha   65.98449961
_cell_angle_beta   65.85326111
_cell_angle_gamma   90.00000000
_symmetry_Int_Tables_number   1
_chemical_formula_structural   InCuTeSe
_chemical_formula_sum   'In2 Cu2 Te2 Se2'
_cell_volume   227.19684620
_cell_formula_units_Z   2
loop_
 _symmetry_equiv_pos_site_id
 _symmetry_equiv_pos_as_xyz
  1  'x, y, z'
loop_
 _atom_site_type_symbol
 _atom_site_label
 _atom_site_symmetry_multiplicity
 _atom_site_fract_x
 _atom_site_fract_y
 _atom_site_fract_z
 _atom_site_occupancy
  In  In0  1  0.24189860  0.74189860  0.51620279  1
  In  In1  1  0.50810140  0.50810140  0.98379721  1
  Cu  Cu2  1  0.74086039  0.24086039  0.51827921  1
  Cu  Cu3  1  0.00913961  0.00913961  0.98172079  1
  Te  Te4  1  0.08949689  0.12500000  0.25000000  1
  Te  Te5  1  0.66050311  0.62500000  0.25000000  1
  Se  Se6  1  0.37500000  0.90484025  0.75000000  1
  Se  Se7  1  0.87500000  0.34515975  0.75000000  1
