# generated using pymatgen
data_In2AgSe3I
_symmetry_space_group_name_H-M   'P 1'
_cell_length_a   4.23273633
_cell_length_b   7.41322522
_cell_length_c   7.72285212
_cell_angle_alpha   81.54285023
_cell_angle_beta   89.99999990
_cell_angle_gamma   106.58787438
_symmetry_Int_Tables_number   1
_chemical_formula_structural   In2AgSe3I
_chemical_formula_sum   'In2 Ag1 Se3 I1'
_cell_volume   229.49356678
_cell_formula_units_Z   1
loop_
 _symmetry_equiv_pos_site_id
 _symmetry_equiv_pos_as_xyz
  1  'x, y, z'
loop_
 _atom_site_type_symbol
 _atom_site_label
 _atom_site_symmetry_multiplicity
 _atom_site_fract_x
 _atom_site_fract_y
 _atom_site_fract_z
 _atom_site_occupancy
  In  In0  1  0.43739467  0.87478934  0.17967229  1
  In  In1  1  0.18984440  0.37968880  0.93758701  1
  Ag  Ag2  1  0.69385920  0.38771841  0.44968476  1
  Se  Se3  1  0.99749384  0.99498768  0.98327469  1
  Se  Se4  1  0.75429485  0.50858969  0.75721523  1
  Se  Se5  1  0.25096168  0.50192336  0.24521600  1
  I  I6  1  0.48865135  0.97730271  0.50985001  1
