# generated using pymatgen
data_Hg2TeSe
_symmetry_space_group_name_H-M   'P 1'
_cell_length_a   4.57954085
_cell_length_b   4.57954086
_cell_length_c   7.91217714
_cell_angle_alpha   73.17806024
_cell_angle_beta   90.00000000
_cell_angle_gamma   120.00000005
_symmetry_Int_Tables_number   1
_chemical_formula_structural   Hg2TeSe
_chemical_formula_sum   'Hg2 Te1 Se1'
_cell_volume   135.44345679
_cell_formula_units_Z   1
loop_
 _symmetry_equiv_pos_site_id
 _symmetry_equiv_pos_as_xyz
  1  'x, y, z'
loop_
 _atom_site_type_symbol
 _atom_site_label
 _atom_site_symmetry_multiplicity
 _atom_site_fract_x
 _atom_site_fract_y
 _atom_site_fract_z
 _atom_site_occupancy
  Hg  Hg0  1  0.99561696  0.99123391  0.01314913  1
  Hg  Hg1  1  0.50411856  0.00823711  0.48764433  1
  Te  Te2  1  0.37546373  0.75092746  0.87360881  1
  Se  Se3  1  0.87480076  0.74960151  0.37559773  1
