# generated using pymatgen
data_Er3ScS6
_symmetry_space_group_name_H-M   'P 1'
_cell_length_a   3.85756904
_cell_length_b   10.86397207
_cell_length_c   11.06681425
_cell_angle_alpha   109.35965605
_cell_angle_beta   90.00000000
_cell_angle_gamma   90.00000000
_symmetry_Int_Tables_number   1
_chemical_formula_structural   Er3ScS6
_chemical_formula_sum   'Er6 Sc2 S12'
_cell_volume   437.56921708
_cell_formula_units_Z   2
loop_
 _symmetry_equiv_pos_site_id
 _symmetry_equiv_pos_as_xyz
  1  'x, y, z'
loop_
 _atom_site_type_symbol
 _atom_site_label
 _atom_site_symmetry_multiplicity
 _atom_site_fract_x
 _atom_site_fract_y
 _atom_site_fract_z
 _atom_site_occupancy
  Er  Er0  1  0.25000000  0.54882544  0.19326686  1
  Er  Er1  1  0.75000000  0.45117456  0.80673314  1
  Er  Er2  1  0.25000000  0.18181003  0.00005092  1
  Er  Er3  1  0.75000000  0.81818997  -0.00005092  1
  Er  Er4  1  0.25000000  0.66401402  0.58349469  1
  Er  Er5  1  0.75000000  0.33598598  0.41650531  1
  Sc  Sc6  1  0.25000000  0.93762243  0.33423332  1
  Sc  Sc7  1  0.75000000  0.06237757  0.66576668  1
  S  S8  1  0.25000000  0.61070290  0.96360560  1
  S  S9  1  0.75000000  0.38929710  0.03639440  1
  S  S10  1  0.25000000  0.23521525  0.76920280  1
  S  S11  1  0.75000000  0.76478475  0.23079720  1
  S  S12  1  0.25000000  0.30919339  0.25002965  1
  S  S13  1  0.75000000  0.69080661  0.74997035  1
  S  S14  1  0.25000000  0.98091490  0.12147057  1
  S  S15  1  0.75000000  0.01908510  0.87852943  1
  S  S16  1  0.25000000  0.90313795  0.56077857  1
  S  S17  1  0.75000000  0.09686205  0.43922143  1
  S  S18  1  0.25000000  0.41817081  0.60013709  1
  S  S19  1  0.75000000  0.58182919  0.39986291  1
