# generated using pymatgen
data_CuP7I
_symmetry_space_group_name_H-M   'P 1'
_cell_length_a   9.84757436
_cell_length_b   9.97824099
_cell_length_c   16.59953864
_cell_angle_alpha   105.22014397
_cell_angle_beta   90.00000000
_cell_angle_gamma   90.00000000
_symmetry_Int_Tables_number   1
_chemical_formula_structural   CuP7I
_chemical_formula_sum   'Cu8 P56 I8'
_cell_volume   1573.88319479
_cell_formula_units_Z   8
loop_
 _symmetry_equiv_pos_site_id
 _symmetry_equiv_pos_as_xyz
  1  'x, y, z'
loop_
 _atom_site_type_symbol
 _atom_site_label
 _atom_site_symmetry_multiplicity
 _atom_site_fract_x
 _atom_site_fract_y
 _atom_site_fract_z
 _atom_site_occupancy
  Cu  Cu0  1  0.64175796  0.69161989  0.32122327  1
  Cu  Cu1  1  0.14175796  0.30838011  0.17877673  1
  Cu  Cu2  1  0.35824204  0.30838011  0.67877673  1
  Cu  Cu3  1  0.85824204  0.69161989  0.82122327  1
  Cu  Cu4  1  0.92618720  0.04135206  0.38753867  1
  Cu  Cu5  1  0.42618720  0.95864794  0.11246133  1
  Cu  Cu6  1  0.07381280  0.95864794  0.61246133  1
  Cu  Cu7  1  0.57381280  0.04135206  0.88753867  1
  P  P8  1  0.57597872  0.16570880  0.31094992  1
  P  P9  1  0.07597872  0.83429120  0.18905008  1
  P  P10  1  0.42402128  0.83429120  0.68905008  1
  P  P11  1  0.92402128  0.16570880  0.81094992  1
  P  P12  1  0.84191335  0.17986394  0.50953580  1
  P  P13  1  0.34191335  0.82013606  0.99046420  1
  P  P14  1  0.15808665  0.82013606  0.49046420  1
  P  P15  1  0.65808665  0.17986394  0.00953580  1
  P  P16  1  0.31515482  0.54175881  0.35427944  1
  P  P17  1  0.81515482  0.45824119  0.14572056  1
  P  P18  1  0.68484518  0.45824119  0.64572056  1
  P  P19  1  0.18484518  0.54175881  0.85427944  1
  P  P20  1  0.03487593  0.69838100  0.27297514  1
  P  P21  1  0.53487593  0.30161900  0.22702486  1
  P  P22  1  0.96512407  0.30161900  0.72702486  1
  P  P23  1  0.46512407  0.69838100  0.77297514  1
  P  P24  1  0.32451734  0.91941866  0.33628655  1
  P  P25  1  0.82451734  0.08058134  0.16371345  1
  P  P26  1  0.67548266  0.08058134  0.66371345  1
  P  P27  1  0.17548266  0.91941866  0.83628655  1
  P  P28  1  0.61454897  0.14686976  0.49896125  1
  P  P29  1  0.11454897  0.85313024  0.00103875  1
  P  P30  1  0.38545103  0.85313024  0.50103875  1
  P  P31  1  0.88545103  0.14686976  0.99896125  1
  P  P32  1  0.85427194  0.38096902  0.33730351  1
  P  P33  1  0.35427194  0.61903098  0.16269649  1
  P  P34  1  0.14572806  0.61903098  0.66269649  1
  P  P35  1  0.64572806  0.38096902  0.83730351  1
  P  P36  1  0.72845709  0.45820754  0.45192146  1
  P  P37  1  0.22845709  0.54179246  0.04807854  1
  P  P38  1  0.27154291  0.54179246  0.54807854  1
  P  P39  1  0.77154291  0.45820754  0.95192146  1
  P  P40  1  0.55133857  0.30733985  0.43648372  1
  P  P41  1  0.05133857  0.69266015  0.06351628  1
  P  P42  1  0.44866143  0.69266015  0.56351628  1
  P  P43  1  0.94866143  0.30733985  0.93648372  1
  P  P44  1  0.80406303  0.15391245  0.30297707  1
  P  P45  1  0.30406303  0.84608755  0.19702293  1
  P  P46  1  0.19593697  0.84608755  0.69702293  1
  P  P47  1  0.69593697  0.15391245  0.80297707  1
  P  P48  1  0.69955091  0.46448928  0.26339054  1
  P  P49  1  0.19955091  0.53551072  0.23660946  1
  P  P50  1  0.30044909  0.53551072  0.73660946  1
  P  P51  1  0.80044909  0.46448928  0.76339054  1
  P  P52  1  0.14487816  0.59118516  0.44889768  1
  P  P53  1  0.64487816  0.40881484  0.05110232  1
  P  P54  1  0.85512184  0.40881484  0.55110232  1
  P  P55  1  0.35512184  0.59118516  0.94889768  1
  P  P56  1  0.10932079  0.88497528  0.37319217  1
  P  P57  1  0.60932079  0.11502472  0.12680783  1
  P  P58  1  0.89067921  0.11502472  0.62680783  1
  P  P59  1  0.39067921  0.88497528  0.87319217  1
  P  P60  1  0.42895981  0.74063393  0.37039357  1
  P  P61  1  0.92895981  0.25936607  0.12960643  1
  P  P62  1  0.57104019  0.25936607  0.62960643  1
  P  P63  1  0.07104019  0.74063393  0.87039357  1
  I  I64  1  0.79845076  0.81770991  0.44744522  1
  I  I65  1  0.29845076  0.18229009  0.05255478  1
  I  I66  1  0.20154924  0.18229009  0.55255478  1
  I  I67  1  0.70154924  0.81770991  0.94744522  1
  I  I68  1  0.18461097  0.20486376  0.30587680  1
  I  I69  1  0.68461097  0.79513624  0.19412320  1
  I  I70  1  0.81538903  0.79513624  0.69412320  1
  I  I71  1  0.31538903  0.20486376  0.80587680  1
