# generated using pymatgen
data_Dy2Ga3Ni
_symmetry_space_group_name_H-M   'P 1'
_cell_length_a   4.29175593
_cell_length_b   4.29040226
_cell_length_c   7.51161351
_cell_angle_alpha   90.00000000
_cell_angle_beta   89.99699887
_cell_angle_gamma   60.01042580
_symmetry_Int_Tables_number   1
_chemical_formula_structural   Dy2Ga3Ni
_chemical_formula_sum   'Dy2 Ga3 Ni1'
_cell_volume   119.79605336
_cell_formula_units_Z   1
loop_
 _symmetry_equiv_pos_site_id
 _symmetry_equiv_pos_as_xyz
  1  'x, y, z'
loop_
 _atom_site_type_symbol
 _atom_site_label
 _atom_site_symmetry_multiplicity
 _atom_site_fract_x
 _atom_site_fract_y
 _atom_site_fract_z
 _atom_site_occupancy
  Dy  Dy0  1  0.00005355  0.99997323  0.77397055  1
  Dy  Dy1  1  -0.00008051  0.00004026  0.23633676  1
  Ga  Ga2  1  0.66668357  0.66665822  0.01489372  1
  Ga  Ga3  1  0.66669396  0.66665302  0.46134632  1
  Ga  Ga4  1  0.33337045  0.33331478  0.54211087  1
  Ni  Ni5  1  0.33327899  0.33336050  0.97134178  1
