# generated using pymatgen
data_Dy2Ga3Co
_symmetry_space_group_name_H-M   'P 1'
_cell_length_a   4.29961131
_cell_length_b   5.67615823
_cell_length_c   5.57721380
_cell_angle_alpha   94.47534131
_cell_angle_beta   112.67244332
_cell_angle_gamma   67.74415214
_symmetry_Int_Tables_number   1
_chemical_formula_structural   Dy2Ga3Co
_chemical_formula_sum   'Dy2 Ga3 Co1'
_cell_volume   115.86980768
_cell_formula_units_Z   1
loop_
 _symmetry_equiv_pos_site_id
 _symmetry_equiv_pos_as_xyz
  1  'x, y, z'
loop_
 _atom_site_type_symbol
 _atom_site_label
 _atom_site_symmetry_multiplicity
 _atom_site_fract_x
 _atom_site_fract_y
 _atom_site_fract_z
 _atom_site_occupancy
  Dy  Dy0  1  0.75356589  0.70279540  0.20992717  1
  Dy  Dy1  1  0.25062183  0.29293688  0.79418053  1
  Ga  Ga2  1  0.46540138  0.68224432  0.61304708  1
  Ga  Ga3  1  0.05157607  0.12738220  0.23053433  1
  Ga  Ga4  1  0.93264614  0.90229965  0.76759194  1
  Co  Co5  1  0.54618870  0.29234155  0.38471894  1
