# generated using pymatgen
data_DyEr
_symmetry_space_group_name_H-M   'P 1'
_cell_length_a   3.58347103
_cell_length_b   3.58359658
_cell_length_c   5.68126333
_cell_angle_alpha   90.00000000
_cell_angle_beta   90.00000000
_cell_angle_gamma   59.99885203
_symmetry_Int_Tables_number   1
_chemical_formula_structural   DyEr
_chemical_formula_sum   'Dy1 Er1'
_cell_volume   63.18202473
_cell_formula_units_Z   1
loop_
 _symmetry_equiv_pos_site_id
 _symmetry_equiv_pos_as_xyz
  1  'x, y, z'
loop_
 _atom_site_type_symbol
 _atom_site_label
 _atom_site_symmetry_multiplicity
 _atom_site_fract_x
 _atom_site_fract_y
 _atom_site_fract_z
 _atom_site_occupancy
  Dy  Dy0  1  0.33336368  0.33331816  0.75000000  1
  Er  Er1  1  0.66663632  0.66668184  0.25000000  1
