# generated using pymatgen
data_Ga3Cu3(Te2Se)2
_symmetry_space_group_name_H-M   'P 1'
_cell_length_a   5.95940973
_cell_length_b   5.96836432
_cell_length_c   18.27205451
_cell_angle_alpha   99.39962404
_cell_angle_beta   99.47998145
_cell_angle_gamma   90.00000000
_symmetry_Int_Tables_number   1
_chemical_formula_structural   Ga3Cu3(Te2Se)2
_chemical_formula_sum   'Ga6 Cu6 Te8 Se4'
_cell_volume   632.17504619
_cell_formula_units_Z   2
loop_
 _symmetry_equiv_pos_site_id
 _symmetry_equiv_pos_as_xyz
  1  'x, y, z'
loop_
 _atom_site_type_symbol
 _atom_site_label
 _atom_site_symmetry_multiplicity
 _atom_site_fract_x
 _atom_site_fract_y
 _atom_site_fract_z
 _atom_site_occupancy
  Ga  Ga0  1  0.58790095  0.08835238  0.17323066  1
  Ga  Ga1  1  0.26088183  0.76104858  0.50166663  1
  Ga  Ga2  1  0.92954015  0.43026461  0.83631944  1
  Ga  Ga3  1  0.16209905  0.16512272  0.32676934  1
  Ga  Ga4  1  0.82045985  0.84394416  0.66368056  1
  Ga  Ga5  1  0.48911817  0.50938196  0.99833337  1
  Cu  Cu6  1  0.08622490  0.58542490  0.17339506  1
  Cu  Cu7  1  0.74132796  0.24083697  0.50257598  1
  Cu  Cu8  1  0.40671469  0.90753312  0.83651468  1
  Cu  Cu9  1  0.00867204  0.98826099  0.99742402  1
  Cu  Cu10  1  0.66377510  0.66203083  0.32660494  1
  Cu  Cu11  1  0.34328531  0.32101744  0.66348532  1
  Te  Te12  1  0.04171287  0.53135463  0.58335741  1
  Te  Te13  1  0.70828713  0.19799622  0.91664259  1
  Te  Te14  1  0.27874197  0.29267324  0.08553852  1
  Te  Te15  1  0.94555991  0.95723266  0.41432020  1
  Te  Te16  1  0.61183177  0.62500929  0.74992915  1
  Te  Te17  1  0.80444009  0.79291346  0.08567980  1
  Te  Te18  1  0.47125803  0.45713372  0.41446148  1
  Te  Te19  1  0.13816823  0.12508014  0.75007085  1
  Se  Se20  1  0.87500000  0.37868260  0.25000000  1
  Se  Se21  1  0.54133556  0.04923757  0.58255257  1
  Se  Se22  1  0.20866444  0.71668400  0.91744743  1
  Se  Se23  1  0.37500000  0.87278382  0.25000000  1
