# generated using pymatgen
data_Dy(Fe5Mo)2
_symmetry_space_group_name_H-M   'P 1'
_cell_length_a   4.72674474
_cell_length_b   6.50611018
_cell_length_c   6.50611018
_cell_angle_alpha   96.92029827
_cell_angle_beta   111.30018756
_cell_angle_gamma   68.69981244
_symmetry_Int_Tables_number   1
_chemical_formula_structural   Dy(Fe5Mo)2
_chemical_formula_sum   'Dy1 Fe10 Mo2'
_cell_volume   173.66407837
_cell_formula_units_Z   1
loop_
 _symmetry_equiv_pos_site_id
 _symmetry_equiv_pos_as_xyz
  1  'x, y, z'
loop_
 _atom_site_type_symbol
 _atom_site_label
 _atom_site_symmetry_multiplicity
 _atom_site_fract_x
 _atom_site_fract_y
 _atom_site_fract_z
 _atom_site_occupancy
  Dy  Dy0  1  0.00000000  -0.00000000  0.00000000  1
  Fe  Fe1  1  0.71839781  0.78160219  0.21839781  1
  Fe  Fe2  1  0.28160219  0.21839781  0.78160219  1
  Fe  Fe3  1  0.50000000  0.77460196  0.77460196  1
  Fe  Fe4  1  0.50000000  0.22539804  0.22539804  1
  Fe  Fe5  1  0.50000000  -0.00000000  0.50000000  1
  Fe  Fe6  1  0.00000000  -0.00000000  0.50000000  1
  Fe  Fe7  1  0.50000000  0.50000000  0.00000000  1
  Fe  Fe8  1  0.00000000  0.50000000  0.00000000  1
  Fe  Fe9  1  0.64284692  0.35715308  0.64284692  1
  Fe  Fe10  1  0.35715308  0.64284692  0.35715308  1
  Mo  Mo11  1  0.00000000  0.35782298  0.35782298  1
  Mo  Mo12  1  0.00000000  0.64217702  0.64217702  1
