# generated using pymatgen
data_CrCoH18(CN2)6
_symmetry_space_group_name_H-M   'P 1'
_cell_length_a   7.41601102
_cell_length_b   7.41601102
_cell_length_c   7.41601102
_cell_angle_alpha   97.23595281
_cell_angle_beta   97.23595286
_cell_angle_gamma   97.23595280
_symmetry_Int_Tables_number   1
_chemical_formula_structural   CrCoH18(CN2)6
_chemical_formula_sum   'Cr1 Co1 H18 C6 N12'
_cell_volume   397.19969942
_cell_formula_units_Z   1
loop_
 _symmetry_equiv_pos_site_id
 _symmetry_equiv_pos_as_xyz
  1  'x, y, z'
loop_
 _atom_site_type_symbol
 _atom_site_label
 _atom_site_symmetry_multiplicity
 _atom_site_fract_x
 _atom_site_fract_y
 _atom_site_fract_z
 _atom_site_occupancy
  H  H0  1  0.44281840  0.64104218  0.20179840  1
  H  H1  1  0.64104218  0.20179840  0.44281840  1
  H  H2  1  0.20179840  0.44281840  0.64104218  1
  H  H3  1  0.55718160  0.35895782  0.79820160  1
  H  H4  1  0.35895782  0.79820160  0.55718160  1
  H  H5  1  0.79820160  0.55718160  0.35895782  1
  H  H6  1  0.31337284  0.43935127  0.17730863  1
  H  H7  1  0.43935127  0.17730863  0.31337284  1
  H  H8  1  0.17730863  0.31337284  0.43935127  1
  H  H9  1  0.68662716  0.56064873  0.82269137  1
  H  H10  1  0.56064873  0.82269137  0.68662716  1
  H  H11  1  0.82269137  0.68662716  0.56064873  1
  H  H12  1  0.25201697  0.61924120  0.29449693  1
  H  H13  1  0.61924120  0.29449693  0.25201697  1
  H  H14  1  0.74798303  0.38075880  0.70550307  1
  H  H15  1  0.38075880  0.70550307  0.74798303  1
  H  H16  1  0.70550307  0.74798303  0.38075880  1
  H  H17  1  0.29449693  0.25201697  0.61924120  1
  C  C18  1  0.05267392  0.75573750  0.87151668  1
  C  C19  1  0.87151668  0.05267392  0.75573750  1
  C  C20  1  0.12848332  0.94732608  0.24426250  1
  C  C21  1  0.94732608  0.24426250  0.12848332  1
  C  C22  1  0.24426250  0.12848332  0.94732608  1
  C  C23  1  0.75573750  0.87151668  0.05267392  1
  N  N24  1  0.36314191  0.55488688  0.27023286  1
  N  N25  1  0.55488688  0.27023286  0.36314191  1
  N  N26  1  0.27023286  0.36314191  0.55488688  1
  N  N27  1  0.63685809  0.44511312  0.72976714  1
  N  N28  1  0.44511312  0.72976714  0.63685809  1
  N  N29  1  0.72976714  0.63685809  0.44511312  1
  N  N30  1  0.79184831  0.08129141  0.61715548  1
  N  N31  1  0.08129141  0.61715548  0.79184831  1
  N  N32  1  0.61715548  0.79184831  0.08129141  1
  N  N33  1  0.20815169  0.91870859  0.38284452  1
  N  N34  1  0.91870859  0.38284452  0.20815169  1
  N  N35  1  0.38284452  0.20815169  0.91870859  1
  Cr  Cr36  1  0.00000000  0.00000000  0.00000000  1
  Co  Co37  1  0.50000000  0.50000000  0.50000000  1
