# generated using pymatgen
data_Fe9BP2
_symmetry_space_group_name_H-M   'P 1'
_cell_length_a   4.35027315
_cell_length_b   6.71508584
_cell_length_c   18.78793346
_cell_angle_alpha   90.13819937
_cell_angle_beta   82.95756323
_cell_angle_gamma   109.01218707
_symmetry_Int_Tables_number   1
_chemical_formula_structural   Fe9BP2
_chemical_formula_sum   'Fe36 B4 P8'
_cell_volume   514.57514813
_cell_formula_units_Z   4
loop_
 _symmetry_equiv_pos_site_id
 _symmetry_equiv_pos_as_xyz
  1  'x, y, z'
loop_
 _atom_site_type_symbol
 _atom_site_label
 _atom_site_symmetry_multiplicity
 _atom_site_fract_x
 _atom_site_fract_y
 _atom_site_fract_z
 _atom_site_occupancy
  Fe  Fe0  1  0.45265676  0.40033902  0.01044323  1
  Fe  Fe1  1  0.77943740  0.39298137  0.34258956  1
  Fe  Fe2  1  0.11609534  0.39567927  0.67766428  1
  Fe  Fe3  1  0.38180979  0.60274790  0.31417873  1
  Fe  Fe4  1  0.71837280  0.60300452  0.65133552  1
  Fe  Fe5  1  0.06337287  0.60017885  0.99221293  1
  Fe  Fe6  1  0.66008335  0.94464020  0.12724396  1
  Fe  Fe7  1  0.99209212  0.94730723  0.46171873  1
  Fe  Fe8  1  0.32527621  0.94757109  0.79779128  1
  Fe  Fe9  1  0.18301815  0.06113950  0.20381172  1
  Fe  Fe10  1  0.51885570  0.05384819  0.53841446  1
  Fe  Fe11  1  0.84775777  0.05113228  0.87344633  1
  Fe  Fe12  1  0.59495333  0.39134537  0.22354592  1
  Fe  Fe13  1  0.92427924  0.38759673  0.55895530  1
  Fe  Fe14  1  0.25391397  0.38517715  0.89361566  1
  Fe  Fe15  1  0.75621971  0.61007311  0.10862459  1
  Fe  Fe16  1  0.08308402  0.60484467  0.44353977  1
  Fe  Fe17  1  0.41574646  0.60515941  0.77979450  1
  Fe  Fe18  1  0.09223470  0.34310964  0.12955976  1
  Fe  Fe19  1  0.41509160  0.32719154  0.46824133  1
  Fe  Fe20  1  0.74823241  0.32765249  0.80317652  1
  Fe  Fe21  1  0.21239177  0.65947996  0.19966224  1
  Fe  Fe22  1  0.54098904  0.65360687  0.53959609  1
  Fe  Fe23  1  0.87310058  0.65032298  0.87741200  1
  Fe  Fe24  1  0.84767424  0.18709188  0.00493039  1
  Fe  Fe25  1  0.17949452  0.19029534  0.33648484  1
  Fe  Fe26  1  0.51478125  0.18902653  0.67187516  1
  Fe  Fe27  1  0.00907161  0.81853920  0.32262585  1
  Fe  Fe28  1  0.34190963  0.81789457  0.65867404  1
  Fe  Fe29  1  0.66199651  0.81194659  0.99707820  1
  Fe  Fe30  1  0.19548415  0.95611994  0.06367357  1
  Fe  Fe31  1  0.52169324  0.97451037  0.39315132  1
  Fe  Fe32  1  0.85602140  0.97492622  0.72796862  1
  Fe  Fe33  1  0.63799902  0.04568511  0.26808939  1
  Fe  Fe34  1  0.97520170  0.04514702  0.60270493  1
  Fe  Fe35  1  0.30384844  0.04159635  0.93906427  1
  B  B36  1  0.05876472  0.34018497  0.24686594  1
  B  B37  1  0.39249874  0.33647791  0.58310581  1
  B  B38  1  0.72139158  0.33182192  0.91756411  1
  B  B39  1  0.30233317  0.66264770  0.08518127  1
  P  P40  1  0.62448459  0.66079178  0.41469917  1
  P  P41  1  0.95797029  0.66324110  0.75197110  1
  P  P42  1  0.56078615  0.24918469  0.11047729  1
  P  P43  1  0.89133456  0.24688349  0.44369294  1
  P  P44  1  0.22459098  0.24722302  0.77871077  1
  P  P45  1  0.76059367  0.75631570  0.21927888  1
  P  P46  1  0.09006474  0.75430966  0.55438246  1
  P  P47  1  0.42094602  0.75200961  0.89117523  1
