# generated using pymatgen
data_Er15Fe4Ru4C25
_symmetry_space_group_name_H-M   'P 1'
_cell_length_a   5.07585566
_cell_length_b   12.00365931
_cell_length_c   12.00732366
_cell_angle_alpha   120.00676991
_cell_angle_beta   90.00887613
_cell_angle_gamma   89.98139616
_symmetry_Int_Tables_number   1
_chemical_formula_structural   Er15Fe4Ru4C25
_chemical_formula_sum   'Er15 Fe4 Ru4 C25'
_cell_volume   633.53427979
_cell_formula_units_Z   1
loop_
 _symmetry_equiv_pos_site_id
 _symmetry_equiv_pos_as_xyz
  1  'x, y, z'
loop_
 _atom_site_type_symbol
 _atom_site_label
 _atom_site_symmetry_multiplicity
 _atom_site_fract_x
 _atom_site_fract_y
 _atom_site_fract_z
 _atom_site_occupancy
  Er  Er0  1  0.25189035  0.11662365  0.70927750  1
  Er  Er1  1  0.25206060  0.29101640  0.40775216  1
  Er  Er2  1  0.25169831  0.59269864  0.88323068  1
  Er  Er3  1  0.74274249  0.88443509  0.59665292  1
  Er  Er4  1  0.74259256  0.40344880  0.28802666  1
  Er  Er5  1  0.74264995  0.71192398  0.11539585  1
  Er  Er6  1  0.24146398  0.63575479  0.48931938  1
  Er  Er7  1  0.24172811  0.51071916  0.14631942  1
  Er  Er8  1  0.24207656  0.85327344  0.36453653  1
  Er  Er9  1  0.75497399  0.36430919  0.85294742  1
  Er  Er10  1  0.75476229  0.14710633  0.51145564  1
  Er  Er11  1  0.75503893  0.48891726  0.63575096  1
  Er  Er12  1  0.50552415  0.83030450  0.83083634  1
  Er  Er13  1  0.50537262  0.16901317  0.99937404  1
  Er  Er14  1  0.50557703  0.00056907  0.16917359  1
  Fe  Fe15  1  0.00972152  0.74476609  0.74374871  1
  Fe  Fe16  1  0.00924832  0.25571008  0.00012021  1
  Fe  Fe17  1  0.00967953  0.99916062  0.25517099  1
  Fe  Fe18  1  0.26543523  0.33334762  0.66673031  1
  Ru  Ru19  1  0.74051706  0.66664439  0.33325120  1
  Ru  Ru20  1  0.00579549  0.13663745  0.13646400  1
  Ru  Ru21  1  0.00524749  0.86379399  0.00021239  1
  Ru  Ru22  1  0.00564180  0.99987243  0.86358875  1
  C  C23  1  0.24198348  0.87627536  0.57667922  1
  C  C24  1  0.24145388  0.42357508  0.29992990  1
  C  C25  1  0.24147983  0.70007486  0.12351433  1
  C  C26  1  0.75822255  0.12460087  0.69901343  1
  C  C27  1  0.75808955  0.30092210  0.42565403  1
  C  C28  1  0.75798252  0.57449252  0.87521324  1
  C  C29  1  0.18682914  0.88288799  0.69260430  1
  C  C30  1  0.18761536  0.30740992  0.19085035  1
  C  C31  1  0.18754208  0.80954830  0.11702214  1
  C  C32  1  0.80187016  0.11081082  0.80535704  1
  C  C33  1  0.80211612  0.19476229  0.30544715  1
  C  C34  1  0.80202920  0.69475629  0.88932677  1
  C  C35  1  0.25759982  0.35644163  0.82943059  1
  C  C36  1  0.25736846  0.17065744  0.52696962  1
  C  C37  1  0.25770550  0.47308696  0.64351067  1
  C  C38  1  0.73898377  0.63787348  0.48057940  1
  C  C39  1  0.73948514  0.51919771  0.15753824  1
  C  C40  1  0.73966938  0.84256627  0.36192063  1
  C  C41  1  0.23712735  0.32063255  0.91981744  1
  C  C42  1  0.23705502  0.08003167  0.40086146  1
  C  C43  1  0.23667150  0.59938766  0.67956805  1
  C  C44  1  0.76282915  0.68232576  0.60782015  1
  C  C45  1  0.76257461  0.39195866  0.07426061  1
  C  C46  1  0.76254974  0.92574072  0.31790106  1
  C  C47  1  0.25172835  0.99993695  0.99987455  1
