# generated using pymatgen
data_Ce2Mn7Al10
_symmetry_space_group_name_H-M   'P 1'
_cell_length_a   6.69652793
_cell_length_b   6.69974779
_cell_length_c   6.69652777
_cell_angle_alpha   82.94346735
_cell_angle_beta   83.47594785
_cell_angle_gamma   82.94346137
_symmetry_Int_Tables_number   1
_chemical_formula_structural   Ce2Mn7Al10
_chemical_formula_sum   'Ce2 Mn7 Al10'
_cell_volume   294.42147704
_cell_formula_units_Z   1
loop_
 _symmetry_equiv_pos_site_id
 _symmetry_equiv_pos_as_xyz
  1  'x, y, z'
loop_
 _atom_site_type_symbol
 _atom_site_label
 _atom_site_symmetry_multiplicity
 _atom_site_fract_x
 _atom_site_fract_y
 _atom_site_fract_z
 _atom_site_occupancy
  Ce  Ce0  1  0.65547730  0.65835162  0.65547730  1
  Ce  Ce1  1  0.35084800  0.35908190  0.35084800  1
  Mn  Mn2  1  -0.00552096  0.99624007  0.50763165  1
  Mn  Mn3  1  0.99636505  0.50464547  0.99636505  1
  Mn  Mn4  1  0.50763165  0.99624007  -0.00552096  1
  Mn  Mn5  1  0.34041596  0.84085592  0.34041596  1
  Mn  Mn6  1  0.14245619  0.66087924  0.66202811  1
  Mn  Mn7  1  0.66202811  0.66087924  0.14245619  1
  Mn  Mn8  1  0.65979949  0.14491639  0.65979949  1
  Al  Al9  1  0.89086259  0.89178120  0.89086259  1
  Al  Al10  1  0.11748386  0.10650817  0.11748386  1
  Al  Al11  1  0.30161075  0.70533235  0.00072008  1
  Al  Al12  1  0.68571418  0.99000526  0.30836934  1
  Al  Al13  1  0.99537040  0.29957934  0.70182363  1
  Al  Al14  1  0.30836934  0.99000526  0.68571418  1
  Al  Al15  1  0.00072008  0.70533235  0.30161075  1
  Al  Al16  1  0.70182363  0.29957934  0.99537040  1
  Al  Al17  1  0.84358491  0.34489340  0.34495946  1
  Al  Al18  1  0.34495946  0.34489340  0.84358491  1
