# generated using pymatgen
data_Cu10Hg2Sb4S13
_symmetry_space_group_name_H-M   'P 1'
_cell_length_a   9.15878729
_cell_length_b   9.15864996
_cell_length_c   9.15877054
_cell_angle_alpha   73.39997521
_cell_angle_beta   69.07287124
_cell_angle_gamma   110.92602162
_symmetry_Int_Tables_number   1
_chemical_formula_structural   Cu10Hg2Sb4S13
_chemical_formula_sum   'Cu10 Hg2 Sb4 S13'
_cell_volume   590.28347402
_cell_formula_units_Z   1
loop_
 _symmetry_equiv_pos_site_id
 _symmetry_equiv_pos_as_xyz
  1  'x, y, z'
loop_
 _atom_site_type_symbol
 _atom_site_label
 _atom_site_symmetry_multiplicity
 _atom_site_fract_x
 _atom_site_fract_y
 _atom_site_fract_z
 _atom_site_occupancy
  Cu  Cu0  1  0.26364170  0.76364098  0.49999792  1
  Cu  Cu1  1  0.73635320  0.50000225  0.76364676  1
  Cu  Cu2  1  0.50000135  0.25000013  0.25000013  1
  Cu  Cu3  1  0.26364588  0.50000090  0.23635632  1
  Cu  Cu4  1  0.73636345  0.23636155  0.49999856  1
  Cu  Cu5  1  0.50000152  0.75000022  0.75000015  1
  Cu  Cu6  1  0.77443215  0.77442962  0.99999964  1
  Cu  Cu7  1  0.77442584  -0.00000055  0.22557437  1
  Cu  Cu8  1  0.22557226  0.22557157  0.99999613  1
  Cu  Cu9  1  0.22557325  0.00000231  0.77442836  1
  Hg  Hg10  1  0.00000415  0.76381740  0.23618261  1
  Hg  Hg11  1  0.99999843  0.23618287  0.76381350  1
  Sb  Sb12  1  0.45286442  0.46859551  0.53140403  1
  Sb  Sb13  1  0.54713451  0.01573272  0.98426691  1
  Sb  Sb14  1  0.00000034  0.53140661  0.01573379  1
  Sb  Sb15  1  0.00000158  0.98426804  0.46859274  1
  S  S16  1  0.00000397  -0.00000002  -0.00000335  1
  S  S17  1  0.73632296  0.48241822  0.51756370  1
  S  S18  1  0.52626062  0.51710323  0.22844348  1
  S  S19  1  0.52625840  0.77155220  0.48290166  1
  S  S20  1  0.26367657  0.74609002  0.25389844  1
  S  S21  1  0.47372320  0.24528303  0.00917220  1
  S  S22  1  0.47373222  0.99083814  0.75470902  1
  S  S23  1  0.00001334  0.51757685  0.74609882  1
  S  S24  1  0.25445074  0.48289570  0.99084450  1
  S  S25  1  0.74554081  0.22844571  0.24529750  1
  S  S26  1  0.00000666  0.25390771  0.48241359  1
  S  S27  1  0.74554378  0.75471491  0.77156245  1
  S  S28  1  0.25445269  0.00916216  0.51710607  1
