# generated using pymatgen
data_Zr6Al2CoH10
_symmetry_space_group_name_H-M   'P 1'
_cell_length_a   8.13331827
_cell_length_b   8.13331827
_cell_length_c   7.13059161
_cell_angle_alpha   90.00000000
_cell_angle_beta   90.00000000
_cell_angle_gamma   119.99999997
_symmetry_Int_Tables_number   1
_chemical_formula_structural   Zr6Al2CoH10
_chemical_formula_sum   'Zr12 Al4 Co2 H20'
_cell_volume   408.49968894
_cell_formula_units_Z   2
loop_
 _symmetry_equiv_pos_site_id
 _symmetry_equiv_pos_as_xyz
  1  'x, y, z'
loop_
 _atom_site_type_symbol
 _atom_site_label
 _atom_site_symmetry_multiplicity
 _atom_site_fract_x
 _atom_site_fract_y
 _atom_site_fract_z
 _atom_site_occupancy
  H  H0  1  0.00000000  0.00000000  0.50000000  1
  H  H1  1  0.00000000  0.00000000  0.00000000  1
  H  H2  1  0.27873995  0.00000000  0.50000000  1
  H  H3  1  0.72126005  0.72126005  0.00000000  1
  H  H4  1  0.00000000  0.27873995  0.00000000  1
  H  H5  1  0.00000000  0.27873995  0.50000000  1
  H  H6  1  0.72126005  0.72126005  0.50000000  1
  H  H7  1  0.27873995  0.00000000  0.00000000  1
  H  H8  1  0.29480764  0.41010854  0.75000000  1
  H  H9  1  0.58989146  0.88469910  0.75000000  1
  H  H10  1  0.11530090  0.70519236  0.75000000  1
  H  H11  1  0.70519236  0.11530090  0.25000000  1
  H  H12  1  0.88469910  0.58989146  0.25000000  1
  H  H13  1  0.41010854  0.29480764  0.25000000  1
  H  H14  1  0.23471585  0.11554927  0.75000000  1
  H  H15  1  0.88445073  0.11916659  0.75000000  1
  H  H16  1  0.88083341  0.76528415  0.75000000  1
  H  H17  1  0.76528415  0.88083341  0.25000000  1
  H  H18  1  0.11554927  0.23471585  0.25000000  1
  H  H19  1  0.11916659  0.88445073  0.25000000  1
  Al  Al20  1  0.66666667  0.33333333  0.55245294  1
  Al  Al21  1  0.66666667  0.33333333  0.94754706  1
  Al  Al22  1  0.33333333  0.66666667  0.44754706  1
  Al  Al23  1  0.33333333  0.66666667  0.05245294  1
  Co  Co24  1  0.00000000  0.00000000  0.75000000  1
  Co  Co25  1  0.00000000  0.00000000  0.25000000  1
  Zr  Zr26  1  0.73775018  0.00000000  0.50000000  1
  Zr  Zr27  1  0.26224982  0.26224982  0.00000000  1
  Zr  Zr28  1  0.00000000  0.73775018  0.00000000  1
  Zr  Zr29  1  0.00000000  0.73775018  0.50000000  1
  Zr  Zr30  1  0.26224982  0.26224982  0.50000000  1
  Zr  Zr31  1  0.73775018  0.00000000  0.00000000  1
  Zr  Zr32  1  0.04866191  0.42285921  0.75000000  1
  Zr  Zr33  1  0.57714079  0.62580270  0.75000000  1
  Zr  Zr34  1  0.37419730  0.95133809  0.75000000  1
  Zr  Zr35  1  0.95133809  0.37419730  0.25000000  1
  Zr  Zr36  1  0.62580270  0.57714079  0.25000000  1
  Zr  Zr37  1  0.42285921  0.04866191  0.25000000  1
