# generated using pymatgen
data_Cr8CoCu3Se16
_symmetry_space_group_name_H-M   'P 1'
_cell_length_a   7.37270124
_cell_length_b   10.42238839
_cell_length_c   7.37270124
_cell_angle_alpha   90.00000000
_cell_angle_beta   90.00000000
_cell_angle_gamma   90.00000000
_symmetry_Int_Tables_number   1
_chemical_formula_structural   Cr8CoCu3Se16
_chemical_formula_sum   'Cr8 Co1 Cu3 Se16'
_cell_volume   566.52688416
_cell_formula_units_Z   1
loop_
 _symmetry_equiv_pos_site_id
 _symmetry_equiv_pos_as_xyz
  1  'x, y, z'
loop_
 _atom_site_type_symbol
 _atom_site_label
 _atom_site_symmetry_multiplicity
 _atom_site_fract_x
 _atom_site_fract_y
 _atom_site_fract_z
 _atom_site_occupancy
  Cr  Cr0  1  0.75000000  0.75143254  0.75049546  1
  Cr  Cr1  1  0.25000000  0.25033707  0.25293013  1
  Cr  Cr2  1  0.75000000  0.75143254  0.24950454  1
  Cr  Cr3  1  0.25000000  0.25033707  0.74706987  1
  Cr  Cr4  1  0.00293013  0.49966293  0.50000000  1
  Cr  Cr5  1  0.50049546  0.99856746  -0.00000000  1
  Cr  Cr6  1  0.99950454  0.99856746  0.00000000  1
  Cr  Cr7  1  0.49706987  0.49966293  0.50000000  1
  Co  Co8  1  0.75000000  0.37500000  0.00000000  1
  Cu  Cu9  1  0.25000000  0.87500000  0.50000000  1
  Cu  Cu10  1  0.25000000  0.62510451  0.00000000  1
  Cu  Cu11  1  0.75000000  0.12489549  0.50000000  1
  Se  Se12  1  0.75000000  0.50631667  0.26227269  1
  Se  Se13  1  0.25000000  0.00823808  0.76594895  1
  Se  Se14  1  0.75000000  0.50631667  0.73772731  1
  Se  Se15  1  0.25000000  0.00823808  0.23405105  1
  Se  Se16  1  0.01227269  0.24368333  -0.00000000  1
  Se  Se17  1  0.51594895  0.74176192  0.50000000  1
  Se  Se18  1  0.48772731  0.24368333  -0.00000000  1
  Se  Se19  1  0.98405105  0.74176192  0.50000000  1
  Se  Se20  1  0.25000000  0.49237687  0.73458772  1
  Se  Se21  1  0.75000000  0.99211422  0.23479463  1
  Se  Se22  1  0.25000000  0.49237687  0.26541228  1
  Se  Se23  1  0.75000000  0.99211422  0.76520537  1
  Se  Se24  1  0.98479463  0.75788578  0.00000000  1
  Se  Se25  1  0.48458772  0.25762313  0.50000000  1
  Se  Se26  1  0.51520537  0.75788578  0.00000000  1
  Se  Se27  1  0.01541228  0.25762313  0.50000000  1
