# generated using pymatgen
data_Eu2(ZrSe2)5
_symmetry_space_group_name_H-M   'P 1'
_cell_length_a   6.52085967
_cell_length_b   10.64267816
_cell_length_c   8.34825761
_cell_angle_alpha   62.44142080
_cell_angle_beta   66.96028606
_cell_angle_gamma   90.03379730
_symmetry_Int_Tables_number   1
_chemical_formula_structural   Eu2(ZrSe2)5
_chemical_formula_sum   'Eu2 Zr5 Se10'
_cell_volume   460.79174107
_cell_formula_units_Z   1
loop_
 _symmetry_equiv_pos_site_id
 _symmetry_equiv_pos_as_xyz
  1  'x, y, z'
loop_
 _atom_site_type_symbol
 _atom_site_label
 _atom_site_symmetry_multiplicity
 _atom_site_fract_x
 _atom_site_fract_y
 _atom_site_fract_z
 _atom_site_occupancy
  Eu  Eu0  1  0.79304369  0.08755043  0.41230837  1
  Eu  Eu1  1  0.00695631  0.51244957  0.98769163  1
  Zr  Zr2  1  0.40000000  0.80000000  0.20000000  1
  Zr  Zr3  1  0.80234414  0.60207819  0.39957693  1
  Zr  Zr4  1  0.19192964  0.40089073  0.59865670  1
  Zr  Zr5  1  0.60807036  0.19910927  0.80134330  1
  Zr  Zr6  1  0.99765586  0.99792181  0.00042307  1
  Se  Se7  1  0.97945160  0.84137732  0.38119537  1
  Se  Se8  1  0.57254588  0.04390809  0.17837528  1
  Se  Se9  1  0.17693322  0.24528072  0.97822857  1
  Se  Se10  1  0.77003800  0.44441355  0.78109095  1
  Se  Se11  1  0.38216515  0.64795876  0.57263176  1
  Se  Se12  1  0.41783485  0.95204124  0.82736824  1
  Se  Se13  1  0.02996200  0.15558645  0.61890905  1
  Se  Se14  1  0.62306678  0.35471928  0.42177143  1
  Se  Se15  1  0.22745412  0.55609191  0.22162472  1
  Se  Se16  1  0.82054840  0.75862268  0.01880463  1
