# generated using pymatgen
data_Co(BRh2)3
_symmetry_space_group_name_H-M   'P 1'
_cell_length_a   4.75226888
_cell_length_b   7.50493078
_cell_length_c   7.49202835
_cell_angle_alpha   59.94301522
_cell_angle_beta   89.87719001
_cell_angle_gamma   90.00000000
_symmetry_Int_Tables_number   1
_chemical_formula_structural   Co(BRh2)3
_chemical_formula_sum   'Co2 B6 Rh12'
_cell_volume   231.27396285
_cell_formula_units_Z   2
loop_
 _symmetry_equiv_pos_site_id
 _symmetry_equiv_pos_as_xyz
  1  'x, y, z'
loop_
 _atom_site_type_symbol
 _atom_site_label
 _atom_site_symmetry_multiplicity
 _atom_site_fract_x
 _atom_site_fract_y
 _atom_site_fract_z
 _atom_site_occupancy
  Co  Co0  1  0.00455583  0.09232656  0.45761237  1
  Co  Co1  1  0.00455583  0.45006106  0.45761237  1
  B  B2  1  0.25881104  0.18831296  0.62337407  1
  B  B3  1  0.26004887  0.62356490  0.19159122  1
  B  B4  1  0.26004887  0.18484388  0.19159122  1
  B  B5  1  0.75934507  0.81042120  0.37915760  1
  B  B6  1  0.76089949  0.37969088  0.80856229  1
  B  B7  1  0.76089949  0.81174683  0.80856229  1
  Rh  Rh8  1  0.16579890  0.87265551  0.25468897  1
  Rh  Rh9  1  0.16647455  0.25125088  0.87075506  1
  Rh  Rh10  1  0.16647455  0.87799406  0.87075506  1
  Rh  Rh11  1  0.67876478  0.12793709  0.74412583  1
  Rh  Rh12  1  0.67115058  0.74961623  0.12703975  1
  Rh  Rh13  1  0.67115058  0.12334402  0.12703975  1
  Rh  Rh14  1  0.49294578  0.33271792  0.33456415  1
  Rh  Rh15  1  0.98895548  0.66822470  0.66355060  1
  Rh  Rh16  1  0.50970166  0.54332102  0.91335795  1
  Rh  Rh17  1  0.50179581  0.92236948  0.53773470  1
  Rh  Rh18  1  0.50179581  0.53989582  0.53773470  1
  Rh  Rh19  1  0.00896701  0.44970499  0.10059002  1
