# generated using pymatgen
data_Cd4Te3Se
_symmetry_space_group_name_H-M   'P 1'
_cell_length_a   4.62272442
_cell_length_b   4.62272441
_cell_length_c   15.27671052
_cell_angle_alpha   90.00000000
_cell_angle_beta   81.29774702
_cell_angle_gamma   120.00000005
_symmetry_Int_Tables_number   1
_chemical_formula_structural   Cd4Te3Se
_chemical_formula_sum   'Cd4 Te3 Se1'
_cell_volume   278.37192882
_cell_formula_units_Z   1
loop_
 _symmetry_equiv_pos_site_id
 _symmetry_equiv_pos_as_xyz
  1  'x, y, z'
loop_
 _atom_site_type_symbol
 _atom_site_label
 _atom_site_symmetry_multiplicity
 _atom_site_fract_x
 _atom_site_fract_y
 _atom_site_fract_z
 _atom_site_occupancy
  Cd  Cd0  1  0.99323822  0.99661911  0.01014267  1
  Cd  Cd1  1  0.50704999  0.25352500  0.23942501  1
  Cd  Cd2  1  0.00200820  0.50100410  0.49698770  1
  Cd  Cd3  1  0.49783233  0.74891616  0.75325151  1
  Te  Te4  1  0.37984028  0.18992014  0.43023958  1
  Te  Te5  1  0.87527309  0.43763655  0.68709036  1
  Te  Te6  1  0.37106054  0.68553027  0.94340919  1
  Se  Se7  1  0.87369735  0.93684867  0.18945398  1
