# generated using pymatgen
data_Ca2P7Ir12
_symmetry_space_group_name_H-M   'P 1'
_cell_length_a   3.94837753
_cell_length_b   9.59814658
_cell_length_c   9.59844914
_cell_angle_alpha   60.01498085
_cell_angle_beta   90.01532481
_cell_angle_gamma   90.02147335
_symmetry_Int_Tables_number   1
_chemical_formula_structural   Ca2P7Ir12
_chemical_formula_sum   'Ca2 P7 Ir12'
_cell_volume   315.06724634
_cell_formula_units_Z   1
loop_
 _symmetry_equiv_pos_site_id
 _symmetry_equiv_pos_as_xyz
  1  'x, y, z'
loop_
 _atom_site_type_symbol
 _atom_site_label
 _atom_site_symmetry_multiplicity
 _atom_site_fract_x
 _atom_site_fract_y
 _atom_site_fract_z
 _atom_site_occupancy
  Ca  Ca0  1  0.25063064  0.33330738  0.33332170  1
  Ca  Ca1  1  0.74936936  0.66669262  0.66667830  1
  P  P2  1  0.50000000  0.00000000  -0.00000000  1
  P  P3  1  0.75376180  0.12435297  0.58971310  1
  P  P4  1  0.75389278  0.28585512  0.12437959  1
  P  P5  1  0.75383709  0.58965687  0.28592495  1
  P  P6  1  0.24623820  0.87564703  0.41028690  1
  P  P7  1  0.24610722  0.71414488  0.87562041  1
  P  P8  1  0.24616291  0.41034313  0.71407505  1
  Ir  Ir9  1  0.75493874  0.89622385  0.84317882  1
  Ir  Ir10  1  0.75462249  0.26047771  0.89627595  1
  Ir  Ir11  1  0.75498176  0.84288257  0.26059901  1
  Ir  Ir12  1  0.24506126  0.10377615  0.15682118  1
  Ir  Ir13  1  0.24537751  0.73952229  0.10372405  1
  Ir  Ir14  1  0.24501824  0.15711743  0.73940099  1
  Ir  Ir15  1  0.74996039  0.38348845  0.55092061  1
  Ir  Ir16  1  0.74994739  0.06596489  0.38339853  1
  Ir  Ir17  1  0.74992577  0.55084963  0.06567964  1
  Ir  Ir18  1  0.25003961  0.61651155  0.44907939  1
  Ir  Ir19  1  0.25005261  0.93403511  0.61660147  1
  Ir  Ir20  1  0.25007423  0.44915037  0.93432036  1
