# generated using pymatgen
data_CaFe3(SiO3)4
_symmetry_space_group_name_H-M   'P 1'
_cell_length_a   5.31880349
_cell_length_b   6.76282987
_cell_length_c   13.46566865
_cell_angle_alpha   89.74936625
_cell_angle_beta   100.56688624
_cell_angle_gamma   77.83583155
_symmetry_Int_Tables_number   1
_chemical_formula_structural   CaFe3(SiO3)4
_chemical_formula_sum   'Ca2 Fe6 Si8 O24'
_cell_volume   464.99113884
_cell_formula_units_Z   2
loop_
 _symmetry_equiv_pos_site_id
 _symmetry_equiv_pos_as_xyz
  1  'x, y, z'
loop_
 _atom_site_type_symbol
 _atom_site_label
 _atom_site_symmetry_multiplicity
 _atom_site_fract_x
 _atom_site_fract_y
 _atom_site_fract_z
 _atom_site_occupancy
  Ca  Ca0  1  0.60133542  0.29788390  0.35091713  1
  Ca  Ca1  1  0.10133542  0.29788390  0.85091713  1
  Fe  Fe2  1  0.19904787  0.10249282  0.44911041  1
  Fe  Fe3  1  0.69904787  0.10249282  0.94911041  1
  Fe  Fe4  1  0.29590379  0.90770699  0.04616094  1
  Fe  Fe5  1  0.79590379  0.90770699  0.54616094  1
  Fe  Fe6  1  0.87824793  0.74415206  0.12803875  1
  Fe  Fe7  1  0.37824793  0.74415206  0.62803875  1
  Si  Si8  1  0.14198904  0.61673064  0.40059454  1
  Si  Si9  1  0.64198904  0.61673064  0.90059454  1
  Si  Si10  1  0.95024745  0.19870388  0.19169634  1
  Si  Si11  1  0.45024745  0.19870388  0.69169634  1
  Si  Si12  1  0.35365916  0.38165491  0.10365416  1
  Si  Si13  1  0.85365916  0.38165491  0.60365416  1
  Si  Si14  1  0.55906660  0.79281202  0.30907137  1
  Si  Si15  1  0.05906660  0.79281202  0.80907137  1
  O  O16  1  0.83761382  0.61691431  0.34153093  1
  O  O17  1  0.33761382  0.61691431  0.84153093  1
  O  O18  1  0.19553185  0.31681535  0.19152592  1
  O  O19  1  0.69553185  0.31681535  0.69152592  1
  O  O20  1  0.66139293  0.36831031  0.16666085  1
  O  O21  1  0.16139293  0.36831031  0.66666085  1
  O  O22  1  0.32117565  0.66652534  0.31588812  1
  O  O23  1  0.82117565  0.66652534  0.81588812  1
  O  O24  1  0.13243166  0.79437569  0.48283075  1
  O  O25  1  0.63243166  0.79437569  0.98283075  1
  O  O26  1  0.95372881  0.03395809  0.10300363  1
  O  O27  1  0.45372881  0.03395809  0.60300363  1
  O  O28  1  0.35688485  0.21790566  0.01544406  1
  O  O29  1  0.85688485  0.21790566  0.51544406  1
  O  O30  1  0.54970279  0.96892931  0.39114728  1
  O  O31  1  0.04970279  0.96892931  0.89114728  1
  O  O32  1  0.27551877  0.38930223  0.44327668  1
  O  O33  1  0.77551877  0.38930223  0.94327668  1
  O  O34  1  0.97251840  0.11337850  0.30516754  1
  O  O35  1  0.47251840  0.11337850  0.80516754  1
  O  O36  1  0.20838768  0.61681341  0.07271963  1
  O  O37  1  0.70838768  0.61681341  0.57271963  1
  O  O38  1  0.55561551  0.85463459  0.19156098  1
  O  O39  1  0.05561551  0.85463459  0.69156098  1
