# generated using pymatgen
data_Ca3MnO4
_symmetry_space_group_name_H-M   'P 1'
_cell_length_a   3.36699599
_cell_length_b   5.84830700
_cell_length_c   5.81210510
_cell_angle_alpha   99.42879430
_cell_angle_beta   106.83723509
_cell_angle_gamma   90.00000007
_symmetry_Int_Tables_number   1
_chemical_formula_structural   Ca3MnO4
_chemical_formula_sum   'Ca3 Mn1 O4'
_cell_volume   107.92482382
_cell_formula_units_Z   1
loop_
 _symmetry_equiv_pos_site_id
 _symmetry_equiv_pos_as_xyz
  1  'x, y, z'
loop_
 _atom_site_type_symbol
 _atom_site_label
 _atom_site_symmetry_multiplicity
 _atom_site_fract_x
 _atom_site_fract_y
 _atom_site_fract_z
 _atom_site_occupancy
  Ca  Ca0  1  0.74836297  0.24666345  0.49672595  1
  Ca  Ca1  1  0.50000000  0.50000000  -0.00000000  1
  Ca  Ca2  1  0.25163703  0.75333655  0.50327405  1
  Mn  Mn3  1  -0.00000000  -0.00000000  -0.00000000  1
  O  O4  1  0.37922562  0.12041441  0.75845123  1
  O  O5  1  0.12523845  0.36959551  0.25047691  1
  O  O6  1  0.87476155  0.63040449  0.74952309  1
  O  O7  1  0.62077438  0.87958559  0.24154877  1
