# generated using pymatgen
data_CaAl2(SiO4)2
_symmetry_space_group_name_H-M   'P 1'
_cell_length_a   7.18490459
_cell_length_b   7.77883805
_cell_length_c   7.65372223
_cell_angle_alpha   114.34830113
_cell_angle_beta   100.14406823
_cell_angle_gamma   107.26964644
_symmetry_Int_Tables_number   1
_chemical_formula_structural   CaAl2(SiO4)2
_chemical_formula_sum   'Ca2 Al4 Si4 O16'
_cell_volume   349.55731706
_cell_formula_units_Z   2
loop_
 _symmetry_equiv_pos_site_id
 _symmetry_equiv_pos_as_xyz
  1  'x, y, z'
loop_
 _atom_site_type_symbol
 _atom_site_label
 _atom_site_symmetry_multiplicity
 _atom_site_fract_x
 _atom_site_fract_y
 _atom_site_fract_z
 _atom_site_occupancy
  Ca  Ca0  1  0.10965423  0.79561989  0.75727910  1
  Ca  Ca1  1  0.89034577  0.20438011  0.24272090  1
  Al  Al2  1  0.31544205  0.30267064  0.07246776  1
  Al  Al3  1  0.68455795  0.69732936  0.92753224  1
  Al  Al4  1  0.21281243  0.67412889  0.34510101  1
  Al  Al5  1  0.78718757  0.32587111  0.65489899  1
  Si  Si6  1  0.36194116  0.06151931  0.29478133  1
  Si  Si7  1  0.63805884  0.93848069  0.70521867  1
  Si  Si8  1  0.23436839  0.31382431  0.67566413  1
  Si  Si9  1  0.76563161  0.68617569  0.32433587  1
  O  O10  1  0.97713302  0.65308833  0.39753843  1
  O  O11  1  0.02286698  0.34691167  0.60246157  1
  O  O12  1  0.38403037  0.81222989  0.60509138  1
  O  O13  1  0.61596963  0.18777011  0.39490862  1
  O  O14  1  0.57917220  0.45954242  0.18738864  1
  O  O15  1  0.42082780  0.54045758  0.81261136  1
  O  O16  1  0.28488200  0.81894386  0.22765306  1
  O  O17  1  0.71511800  0.18105614  0.77234694  1
  O  O18  1  0.25434749  0.17580508  0.45389251  1
  O  O19  1  0.74565251  0.82419492  0.54610749  1
  O  O20  1  0.21305062  0.18835269  0.80296380  1
  O  O21  1  0.78694938  0.81164731  0.19703620  1
  O  O22  1  0.27581795  0.07025823  0.08603671  1
  O  O23  1  0.72418205  0.92974177  0.91396329  1
  O  O24  1  0.16999876  0.41497794  0.20501796  1
  O  O25  1  0.83000124  0.58502206  0.79498204  1
