# generated using pymatgen
data_Ca2La2MgTi3O12
_symmetry_space_group_name_H-M   'P 1'
_cell_length_a   5.52575341
_cell_length_b   5.56496227
_cell_length_c   7.82857159
_cell_angle_alpha   90.05590203
_cell_angle_beta   89.95780406
_cell_angle_gamma   90.09552825
_symmetry_Int_Tables_number   1
_chemical_formula_structural   Ca2La2MgTi3O12
_chemical_formula_sum   'Ca2 La2 Mg1 Ti3 O12'
_cell_volume   240.73283139
_cell_formula_units_Z   1
loop_
 _symmetry_equiv_pos_site_id
 _symmetry_equiv_pos_as_xyz
  1  'x, y, z'
loop_
 _atom_site_type_symbol
 _atom_site_label
 _atom_site_symmetry_multiplicity
 _atom_site_fract_x
 _atom_site_fract_y
 _atom_site_fract_z
 _atom_site_occupancy
  Ca  Ca0  1  0.50572249  0.53150825  0.24185072  1
  Ca  Ca1  1  0.01068492  0.96419146  0.75823503  1
  La  La2  1  0.99001117  0.03269271  0.23829102  1
  La  La3  1  0.49637568  0.47588064  0.76119956  1
  Mg  Mg4  1  -0.00007136  0.50123081  0.00020682  1
  Ti  Ti5  1  0.49855057  0.00041555  0.50088506  1
  Ti  Ti6  1  0.99929008  0.50267783  0.49863720  1
  Ti  Ti7  1  0.49962828  0.99938956  0.99944505  1
  O  O8  1  0.42519533  0.98242580  0.25392325  1
  O  O9  1  0.08015526  0.48267171  0.26114686  1
  O  O10  1  0.58163696  0.01299384  0.74604782  1
  O  O11  1  0.92442208  0.51784058  0.73944290  1
  O  O12  1  0.77495165  0.79026410  0.03790237  1
  O  O13  1  0.71442723  0.28142641  0.45728556  1
  O  O14  1  0.21931798  0.21373745  0.54330653  1
  O  O15  1  0.29098226  0.72236746  0.96206341  1
  O  O16  1  0.22196028  0.20609908  0.95916542  1
  O  O17  1  0.28262010  0.72070025  0.54081456  1
  O  O18  1  0.77896080  0.78303208  0.45859394  1
  O  O19  1  0.70517824  0.27845442  0.04155691  1
