# generated using pymatgen
data_CaTmMn2O6
_symmetry_space_group_name_H-M   'P 1'
_cell_length_a   5.31266847
_cell_length_b   5.55191564
_cell_length_c   7.54314888
_cell_angle_alpha   90.00000000
_cell_angle_beta   90.00000000
_cell_angle_gamma   90.00000000
_symmetry_Int_Tables_number   1
_chemical_formula_structural   CaTmMn2O6
_chemical_formula_sum   'Ca2 Tm2 Mn4 O12'
_cell_volume   222.48885100
_cell_formula_units_Z   2
loop_
 _symmetry_equiv_pos_site_id
 _symmetry_equiv_pos_as_xyz
  1  'x, y, z'
loop_
 _atom_site_type_symbol
 _atom_site_label
 _atom_site_symmetry_multiplicity
 _atom_site_fract_x
 _atom_site_fract_y
 _atom_site_fract_z
 _atom_site_occupancy
  Ca  Ca0  1  0.51139086  0.44467948  0.25000000  1
  Ca  Ca1  1  0.01139086  0.05532052  0.75000000  1
  Tm  Tm2  1  0.98101343  0.93034779  0.25000000  1
  Tm  Tm3  1  0.48101343  0.56965221  0.75000000  1
  Mn  Mn4  1  0.49939145  0.00485444  0.00022607  1
  Mn  Mn5  1  0.99939145  0.49514556  0.50022607  1
  Mn  Mn6  1  0.49939145  0.00485444  0.49977393  1
  Mn  Mn7  1  0.99939145  0.49514556  0.99977393  1
  O  O8  1  0.38904678  0.02833175  0.25000000  1
  O  O9  1  0.08720847  0.53662769  0.25000000  1
  O  O10  1  0.58720847  0.96337231  0.75000000  1
  O  O11  1  0.88904678  0.47166825  0.75000000  1
  O  O12  1  0.70712363  0.70955693  0.04853789  1
  O  O13  1  0.80915516  0.19219303  0.44701991  1
  O  O14  1  0.30915516  0.30780697  0.55298009  1
  O  O15  1  0.20712363  0.79044307  0.95146211  1
  O  O16  1  0.30915516  0.30780697  0.94701991  1
  O  O17  1  0.20712363  0.79044307  0.54853789  1
  O  O18  1  0.70712363  0.70955693  0.45146211  1
  O  O19  1  0.80915516  0.19219303  0.05298009  1
