# generated using pymatgen
data_BaSrGa4
_symmetry_space_group_name_H-M   'P 1'
_cell_length_a   4.41021405
_cell_length_b   4.41022878
_cell_length_c   9.92244511
_cell_angle_alpha   90.00000000
_cell_angle_beta   90.00000000
_cell_angle_gamma   119.99989835
_symmetry_Int_Tables_number   1
_chemical_formula_structural   BaSrGa4
_chemical_formula_sum   'Ba1 Sr1 Ga4'
_cell_volume   167.13621737
_cell_formula_units_Z   1
loop_
 _symmetry_equiv_pos_site_id
 _symmetry_equiv_pos_as_xyz
  1  'x, y, z'
loop_
 _atom_site_type_symbol
 _atom_site_label
 _atom_site_symmetry_multiplicity
 _atom_site_fract_x
 _atom_site_fract_y
 _atom_site_fract_z
 _atom_site_occupancy
  Ba  Ba0  1  0.99997988  0.00000000  0.50000000  1
  Sr  Sr1  1  0.99998616  -0.00000000  -0.00000000  1
  Ga  Ga2  1  0.33330221  0.66668744  0.24566974  1
  Ga  Ga3  1  0.33330221  0.66668744  0.75433026  1
  Ga  Ga4  1  0.66661477  0.33331256  0.24566974  1
  Ga  Ga5  1  0.66661477  0.33331256  0.75433026  1
