# generated using pymatgen
data_Ca8ZnCo3(Si2O7)4
_symmetry_space_group_name_H-M   'P 1'
_cell_length_a   5.06234050
_cell_length_b   11.19217185
_cell_length_c   11.19217185
_cell_angle_alpha   90.00000000
_cell_angle_beta   90.00000000
_cell_angle_gamma   90.00000000
_symmetry_Int_Tables_number   1
_chemical_formula_structural   Ca8ZnCo3(Si2O7)4
_chemical_formula_sum   'Ca8 Zn1 Co3 Si8 O28'
_cell_volume   634.13261808
_cell_formula_units_Z   1
loop_
 _symmetry_equiv_pos_site_id
 _symmetry_equiv_pos_as_xyz
  1  'x, y, z'
loop_
 _atom_site_type_symbol
 _atom_site_label
 _atom_site_symmetry_multiplicity
 _atom_site_fract_x
 _atom_site_fract_y
 _atom_site_fract_z
 _atom_site_occupancy
  Ca  Ca0  1  0.50377931  0.24995931  0.91904439  1
  Ca  Ca1  1  0.50386509  0.74995514  0.41899916  1
  Ca  Ca2  1  0.49622069  0.41904439  0.25004069  1
  Ca  Ca3  1  0.49613491  0.91899916  0.75004486  1
  Ca  Ca4  1  0.50377931  0.75004069  0.08095561  1
  Ca  Ca5  1  0.50386509  0.25004486  0.58100084  1
  Ca  Ca6  1  0.49622069  0.58095561  0.74995931  1
  Ca  Ca7  1  0.49613491  0.08100084  0.24995514  1
  Zn  Zn8  1  -0.00000000  0.50000000  0.00000000  1
  Co  Co9  1  0.00000000  -0.00000000  0.50000000  1
  Co  Co10  1  0.99986750  -0.00000000  0.00000000  1
  Co  Co11  1  0.00013250  0.50000000  0.50000000  1
  Si  Si12  1  0.93750590  0.25010108  0.10907630  1
  Si  Si13  1  0.93705745  0.74998667  0.60915386  1
  Si  Si14  1  0.06249410  0.60907630  0.24989892  1
  Si  Si15  1  0.06294255  0.10915386  0.75001333  1
  Si  Si16  1  0.93750590  0.74989892  0.89092370  1
  Si  Si17  1  0.93705745  0.25001333  0.39084614  1
  Si  Si18  1  0.06249410  0.39092370  0.75010108  1
  Si  Si19  1  0.06294255  0.89084614  0.24998667  1
  O  O20  1  0.17798068  0.25007059  0.75008851  1
  O  O21  1  0.17798068  0.74992941  0.24991149  1
  O  O22  1  0.82201932  0.74991149  0.75007059  1
  O  O23  1  0.82201932  0.25008851  0.24992941  1
  O  O24  1  0.78185767  0.36558337  0.05142010  1
  O  O25  1  0.78131220  0.86540664  0.55152937  1
  O  O26  1  0.21855459  0.55143097  0.36523079  1
  O  O27  1  0.21868907  0.05153062  0.86543248  1
  O  O28  1  0.78185767  0.63441663  0.94857990  1
  O  O29  1  0.78131220  0.13459336  0.44847063  1
  O  O30  1  0.21855459  0.44856903  0.63476921  1
  O  O31  1  0.21868907  0.94846938  0.13456752  1
  O  O32  1  0.21814233  0.44857990  0.86558337  1
  O  O33  1  0.21868780  0.94847063  0.36540664  1
  O  O34  1  0.78144541  0.86523079  0.94856903  1
  O  O35  1  0.78131093  0.36543248  0.44846938  1
  O  O36  1  0.21814233  0.55142010  0.13441663  1
  O  O37  1  0.21868780  0.05152937  0.63459336  1
  O  O38  1  0.78144541  0.13476921  0.05143097  1
  O  O39  1  0.78131093  0.63456752  0.55153062  1
  O  O40  1  0.25617550  0.24976864  0.10711816  1
  O  O41  1  0.25575451  0.74998114  0.60700492  1
  O  O42  1  0.74382450  0.60711816  0.25023136  1
  O  O43  1  0.74424549  0.10700492  0.75001886  1
  O  O44  1  0.25617550  0.75023136  0.89288184  1
  O  O45  1  0.25575451  0.25001886  0.39299508  1
  O  O46  1  0.74382450  0.39288184  0.74976864  1
  O  O47  1  0.74424549  0.89299508  0.24998114  1
