# generated using pymatgen
data_BaSrY(CuO2)4
_symmetry_space_group_name_H-M   'P 1'
_cell_length_a   3.84031470
_cell_length_b   3.89408494
_cell_length_c   13.76317155
_cell_angle_alpha   81.86722069
_cell_angle_beta   90.00000000
_cell_angle_gamma   90.00000000
_symmetry_Int_Tables_number   1
_chemical_formula_structural   BaSrY(CuO2)4
_chemical_formula_sum   'Ba1 Sr1 Y1 Cu4 O8'
_cell_volume   203.75153852
_cell_formula_units_Z   1
loop_
 _symmetry_equiv_pos_site_id
 _symmetry_equiv_pos_as_xyz
  1  'x, y, z'
loop_
 _atom_site_type_symbol
 _atom_site_label
 _atom_site_symmetry_multiplicity
 _atom_site_fract_x
 _atom_site_fract_y
 _atom_site_fract_z
 _atom_site_occupancy
  Ba  Ba0  1  0.50000000  0.36353504  0.27292992  1
  Sr  Sr1  1  0.50000000  0.63467755  0.73064491  1
  Y  Y2  1  0.50000000  0.50085452  0.99829095  1
  Cu  Cu3  1  -0.00000000  0.78671492  0.42657016  1
  Cu  Cu4  1  -0.00000000  0.21106135  0.57787731  1
  Cu  Cu5  1  0.00000000  0.93838236  0.12323529  1
  Cu  Cu6  1  -0.00000000  0.06339340  0.87321320  1
  O  O7  1  0.00000000  0.85482956  0.29034089  1
  O  O8  1  -0.00000000  0.14324160  0.71351681  1
  O  O9  1  0.00000000  0.44829743  0.10340515  1
  O  O10  1  0.00000000  0.55503412  0.88993175  1
  O  O11  1  0.50000000  0.94853565  0.10292870  1
  O  O12  1  0.50000000  0.05420329  0.89159343  1
  O  O13  1  0.00000000  0.28056374  0.43887252  1
  O  O14  1  0.00000000  0.71667550  0.56664900  1
