# generated using pymatgen
data_Cu5(Si2O7)2
_symmetry_space_group_name_H-M   'P 1'
_cell_length_a   7.64469940
_cell_length_b   7.72680010
_cell_length_c   5.71809038
_cell_angle_alpha   88.19573554
_cell_angle_beta   109.70877602
_cell_angle_gamma   114.39629862
_symmetry_Int_Tables_number   1
_chemical_formula_structural   Cu5(Si2O7)2
_chemical_formula_sum   'Si4 Cu5 O14'
_cell_volume   287.28521375
_cell_formula_units_Z   1
loop_
 _symmetry_equiv_pos_site_id
 _symmetry_equiv_pos_as_xyz
  1  'x, y, z'
loop_
 _atom_site_type_symbol
 _atom_site_label
 _atom_site_symmetry_multiplicity
 _atom_site_fract_x
 _atom_site_fract_y
 _atom_site_fract_z
 _atom_site_occupancy
  O  O0  1  0.22430659  0.02493372  0.30797153  1
  O  O1  1  0.00078491  0.70821373  0.43652930  1
  O  O2  1  0.62895791  0.24386233  0.58996651  1
  O  O3  1  0.78547627  0.75128586  0.99857006  1
  O  O4  1  0.81195355  0.41017134  0.09072947  1
  O  O5  1  0.18804645  0.58982866  0.90927053  1
  O  O6  1  0.36537098  0.94734404  0.78406593  1
  O  O7  1  0.99921509  0.29178627  0.56347070  1
  O  O8  1  0.59099738  0.53085667  0.28910002  1
  O  O9  1  0.21452373  0.24871414  0.00142994  1
  O  O10  1  0.40900262  0.46914333  0.71089998  1
  O  O11  1  0.37104209  0.75613767  0.41003349  1
  O  O12  1  0.77569341  0.97506628  0.69202847  1
  O  O13  1  0.63462902  0.05265596  0.21593407  1
  Si  Si14  1  0.23748291  0.85463502  0.48802551  1
  Si  Si15  1  0.21307552  0.41339418  0.80299681  1
  Si  Si16  1  0.78692448  0.58660582  0.19700319  1
  Si  Si17  1  0.76251709  0.14536498  0.51197449  1
  Cu  Cu18  1  0.60627861  0.18470494  0.91435608  1
  Cu  Cu19  1  0.42610673  0.28007598  0.31512853  1
  Cu  Cu20  1  0.57389327  0.71992402  0.68487147  1
  Cu  Cu21  1  0.39372139  0.81529506  0.08564392  1
  Cu  Cu22  1  0.00000000  0.00000000  0.00000000  1
