# generated using pymatgen
data_Ca3Ta4(O6F)2
_symmetry_space_group_name_H-M   'P 1'
_cell_length_a   7.49109156
_cell_length_b   7.39729074
_cell_length_c   7.49109156
_cell_angle_alpha   90.00000000
_cell_angle_beta   60.00000000
_cell_angle_gamma   120.42035921
_symmetry_Int_Tables_number   1
_chemical_formula_structural   Ca3Ta4(O6F)2
_chemical_formula_sum   'Ca3 Ta4 O12 F2'
_cell_volume   291.64805954
_cell_formula_units_Z   1
loop_
 _symmetry_equiv_pos_site_id
 _symmetry_equiv_pos_as_xyz
  1  'x, y, z'
loop_
 _atom_site_type_symbol
 _atom_site_label
 _atom_site_symmetry_multiplicity
 _atom_site_fract_x
 _atom_site_fract_y
 _atom_site_fract_z
 _atom_site_occupancy
  Ca  Ca0  1  0.50000000  0.50000000  0.50000000  1
  Ca  Ca1  1  0.00000000  0.50000000  0.00000000  1
  Ca  Ca2  1  0.00000000  0.50000000  0.50000000  1
  Ta  Ta3  1  0.50000000  0.50000000  0.00000000  1
  Ta  Ta4  1  0.50000000  0.00000000  0.00000000  1
  Ta  Ta5  1  0.00000000  0.00000000  0.50000000  1
  Ta  Ta6  1  0.00000000  0.00000000  0.00000000  1
  O  O7  1  0.87088170  0.92675660  0.31455915  1
  O  O8  1  0.64204503  0.32387767  0.92897749  1
  O  O9  1  0.24131575  0.92675660  0.94412510  1
  O  O10  1  0.25285516  0.32387767  0.31816736  1
  O  O11  1  0.25285516  0.32387767  0.92897749  1
  O  O12  1  0.24131575  0.92675660  0.31455915  1
  O  O13  1  0.12911830  0.07324340  0.68544085  1
  O  O14  1  0.35795497  0.67612233  0.07102251  1
  O  O15  1  0.75868425  0.07324340  0.05587490  1
  O  O16  1  0.74714484  0.67612233  0.68183264  1
  O  O17  1  0.74714484  0.67612233  0.07102251  1
  O  O18  1  0.75868425  0.07324340  0.68544085  1
  F  F19  1  0.77493512  0.41240268  0.36253244  1
  F  F20  1  0.22506488  0.58759732  0.63746756  1
