# generated using pymatgen
data_Ba2Ca2Tl2Cu3O10
_symmetry_space_group_name_H-M   'P 1'
_cell_length_a   3.87998315
_cell_length_b   3.89488231
_cell_length_c   18.58130450
_cell_angle_alpha   83.98398271
_cell_angle_beta   84.00708034
_cell_angle_gamma   90.00000000
_symmetry_Int_Tables_number   1
_chemical_formula_structural   Ba2Ca2Tl2Cu3O10
_chemical_formula_sum   'Ba2 Ca2 Tl2 Cu3 O10'
_cell_volume   277.71245416
_cell_formula_units_Z   1
loop_
 _symmetry_equiv_pos_site_id
 _symmetry_equiv_pos_as_xyz
  1  'x, y, z'
loop_
 _atom_site_type_symbol
 _atom_site_label
 _atom_site_symmetry_multiplicity
 _atom_site_fract_x
 _atom_site_fract_y
 _atom_site_fract_z
 _atom_site_occupancy
  Ba  Ba0  1  0.14119924  0.14423314  0.71760151  1
  Ba  Ba1  1  0.85880076  0.86183465  0.28239849  1
  Ca  Ca2  1  0.04447131  0.04453107  0.91105738  1
  Ca  Ca3  1  0.95552869  0.95558845  0.08894262  1
  Tl  Tl4  1  0.71865620  0.70475944  0.56268760  1
  Tl  Tl5  1  0.28134380  0.26744704  0.43731240  1
  Cu  Cu6  1  0.50000000  0.49995838  0.00000000  1
  Cu  Cu7  1  0.58648876  0.58700938  0.82702249  1
  Cu  Cu8  1  0.41351124  0.41403187  0.17297751  1
  O  O9  1  0.66277605  0.67263137  0.67444789  1
  O  O10  1  0.33722395  0.34707926  0.32555211  1
  O  O11  1  0.08679209  0.58706739  0.82641582  1
  O  O12  1  0.58683688  0.08734608  0.82632624  1
  O  O13  1  0.91320791  0.41348321  0.17358418  1
  O  O14  1  0.41316312  0.91367232  0.17367376  1
  O  O15  1  -0.00000000  0.50001400  0.00000000  1
  O  O16  1  0.50000000  0.99997097  0.00000000  1
  O  O17  1  0.77527670  0.87594769  0.44944661  1
  O  O18  1  0.22472330  0.32539430  0.55055339  1
