# generated using pymatgen
data_BaNb4Bi4PbO18
_symmetry_space_group_name_H-M   'P 1'
_cell_length_a   5.66769032
_cell_length_b   11.36309748
_cell_length_c   12.82331265
_cell_angle_alpha   102.80250135
_cell_angle_beta   90.00001061
_cell_angle_gamma   89.99992821
_symmetry_Int_Tables_number   1
_chemical_formula_structural   BaNb4Bi4PbO18
_chemical_formula_sum   'Ba2 Nb8 Bi8 Pb2 O36'
_cell_volume   805.32263441
_cell_formula_units_Z   2
loop_
 _symmetry_equiv_pos_site_id
 _symmetry_equiv_pos_as_xyz
  1  'x, y, z'
loop_
 _atom_site_type_symbol
 _atom_site_label
 _atom_site_symmetry_multiplicity
 _atom_site_fract_x
 _atom_site_fract_y
 _atom_site_fract_z
 _atom_site_occupancy
  Ba  Ba0  1  0.75000112  0.62079850  0.00001231  1
  Ba  Ba1  1  0.75000327  0.12079862  0.00001063  1
  Nb  Nb2  1  0.74999932  0.41222837  0.17446139  1
  Nb  Nb3  1  0.75000027  0.91222931  0.17446178  1
  Nb  Nb4  1  0.24999906  0.16280657  0.17542136  1
  Nb  Nb5  1  0.24999975  0.66280597  0.17542065  1
  Nb  Nb6  1  0.24999952  0.57498471  0.82439215  1
  Nb  Nb7  1  0.24999832  0.07498626  0.82439299  1
  Nb  Nb8  1  0.75000009  0.82488869  0.82564696  1
  Nb  Nb9  1  0.75000062  0.32488861  0.82564749  1
  Bi  Bi10  1  0.74999998  0.24526055  0.40441198  1
  Bi  Bi11  1  0.75000009  0.74526100  0.40441193  1
  Bi  Bi12  1  0.25000000  0.45126975  0.40179375  1
  Bi  Bi13  1  0.24999996  0.95126996  0.40179390  1
  Bi  Bi14  1  0.24999999  0.75040748  0.59796844  1
  Bi  Bi15  1  0.25000012  0.25040724  0.59796838  1
  Bi  Bi16  1  0.75000041  0.54307134  0.59563074  1
  Bi  Bi17  1  0.75000010  0.04307159  0.59563099  1
  Pb  Pb18  1  0.24999944  0.35561610  0.99999746  1
  Pb  Pb19  1  0.25000008  0.85561670  0.99999791  1
  O  O20  1  0.74999926  0.88634912  0.99995932  1
  O  O21  1  0.74999982  0.38634859  0.99995918  1
  O  O22  1  0.25000059  0.12394585  0.00014546  1
  O  O23  1  0.25000042  0.62394520  0.00014525  1
  O  O24  1  0.50458822  0.54910425  0.17422007  1
  O  O25  1  0.50458746  0.04910425  0.17421969  1
  O  O26  1  0.99541087  0.54910370  0.17422047  1
  O  O27  1  0.99541204  0.04910414  0.17421983  1
  O  O28  1  0.50452956  0.46190527  0.82578776  1
  O  O29  1  0.50452825  0.96190471  0.82578775  1
  O  O30  1  0.99547130  0.46190520  0.82578810  1
  O  O31  1  0.99547146  0.96190508  0.82578821  1
  O  O32  1  0.50047382  0.62332774  0.49374704  1
  O  O33  1  0.50047455  0.12332786  0.49374774  1
  O  O34  1  0.99952690  0.62332801  0.49374812  1
  O  O35  1  0.99952633  0.12332753  0.49374766  1
  O  O36  1  0.50022170  0.37649333  0.50625356  1
  O  O37  1  0.50022215  0.87649295  0.50625338  1
  O  O38  1  0.99977751  0.37649314  0.50625374  1
  O  O39  1  0.99977796  0.87649256  0.50625267  1
  O  O40  1  0.49501736  0.71858174  0.85087721  1
  O  O41  1  0.49501898  0.21858209  0.85087696  1
  O  O42  1  0.00498043  0.71858174  0.85087685  1
  O  O43  1  0.00498113  0.21858215  0.85087653  1
  O  O44  1  0.49504750  0.29330834  0.14917546  1
  O  O45  1  0.49504641  0.79330761  0.14917505  1
  O  O46  1  0.00495186  0.29330849  0.14917561  1
  O  O47  1  0.00495300  0.79330860  0.14917562  1
  O  O48  1  0.75000045  0.42309489  0.32437386  1
  O  O49  1  0.75000033  0.92309350  0.32437318  1
  O  O50  1  0.25000029  0.24029625  0.32326552  1
  O  O51  1  0.25000038  0.74029542  0.32326506  1
  O  O52  1  0.24999972  0.57868128  0.67671901  1
  O  O53  1  0.25000060  0.07868166  0.67672024  1
  O  O54  1  0.75000014  0.76085993  0.67567748  1
  O  O55  1  0.74999978  0.26086051  0.67567817  1
