# generated using pymatgen
data_BaGa2GeSe6
_symmetry_space_group_name_H-M   'P 1'
_cell_length_a   6.67983021
_cell_length_b   6.68090457
_cell_length_c   6.63780260
_cell_angle_alpha   100.65863740
_cell_angle_beta   99.85431611
_cell_angle_gamma   100.30293924
_symmetry_Int_Tables_number   1
_chemical_formula_structural   BaGa2GeSe6
_chemical_formula_sum   'Ba1 Ga2 Ge1 Se6'
_cell_volume   279.96054944
_cell_formula_units_Z   1
loop_
 _symmetry_equiv_pos_site_id
 _symmetry_equiv_pos_as_xyz
  1  'x, y, z'
loop_
 _atom_site_type_symbol
 _atom_site_label
 _atom_site_symmetry_multiplicity
 _atom_site_fract_x
 _atom_site_fract_y
 _atom_site_fract_z
 _atom_site_occupancy
  Ba  Ba0  1  0.99779763  0.99653838  0.99780140  1
  Ga  Ga1  1  0.54026053  0.40075766  0.81685987  1
  Ga  Ga2  1  0.39812677  0.82064616  0.54688703  1
  Ge  Ge3  1  0.82018931  0.54359932  0.39945445  1
  Se  Se4  1  0.12992531  0.58065901  0.25917866  1
  Se  Se5  1  0.58781872  0.26297141  0.13846674  1
  Se  Se6  1  0.26166431  0.13472437  0.58429944  1
  Se  Se7  1  0.88651537  0.45432267  0.73443147  1
  Se  Se8  1  0.45382352  0.73964022  0.88728072  1
  Se  Se9  1  0.73950853  0.88177080  0.45097022  1
