# generated using pymatgen
data_BaLaMnSbO6
_symmetry_space_group_name_H-M   'P 1'
_cell_length_a   5.85720046
_cell_length_b   5.85720046
_cell_length_c   5.85720046
_cell_angle_alpha   59.30067708
_cell_angle_beta   59.30067708
_cell_angle_gamma   88.79294569
_symmetry_Int_Tables_number   1
_chemical_formula_structural   BaLaMnSbO6
_chemical_formula_sum   'Ba1 La1 Mn1 Sb1 O6'
_cell_volume   140.55156910
_cell_formula_units_Z   1
loop_
 _symmetry_equiv_pos_site_id
 _symmetry_equiv_pos_as_xyz
  1  'x, y, z'
loop_
 _atom_site_type_symbol
 _atom_site_label
 _atom_site_symmetry_multiplicity
 _atom_site_fract_x
 _atom_site_fract_y
 _atom_site_fract_z
 _atom_site_occupancy
  Ba  Ba0  1  0.25000000  0.75000000  0.50000000  1
  La  La1  1  0.75000000  0.25000000  0.50000000  1
  Mn  Mn2  1  0.50000000  0.50000000  0.00000000  1
  Sb  Sb3  1  -0.00000000  -0.00000000  0.00000000  1
  O  O4  1  0.24038473  0.24038473  -0.00000000  1
  O  O5  1  0.75961527  0.75961527  0.00000000  1
  O  O6  1  0.79428414  0.68155805  0.47842660  1
  O  O7  1  0.15998465  0.27271074  0.52157340  1
  O  O8  1  0.31844195  0.84001535  0.88727390  1
  O  O9  1  0.72728926  0.20571586  0.11272610  1
