# generated using pymatgen
data_BaFeCuF7
_symmetry_space_group_name_H-M   'P 1'
_cell_length_a   5.75291643
_cell_length_b   7.40455529
_cell_length_c   7.40455529
_cell_angle_alpha   86.17204496
_cell_angle_beta   69.60620036
_cell_angle_gamma   69.60620036
_symmetry_Int_Tables_number   1
_chemical_formula_structural   BaFeCuF7
_chemical_formula_sum   'Ba2 Fe2 Cu2 F14'
_cell_volume   276.57889619
_cell_formula_units_Z   2
loop_
 _symmetry_equiv_pos_site_id
 _symmetry_equiv_pos_as_xyz
  1  'x, y, z'
loop_
 _atom_site_type_symbol
 _atom_site_label
 _atom_site_symmetry_multiplicity
 _atom_site_fract_x
 _atom_site_fract_y
 _atom_site_fract_z
 _atom_site_occupancy
  Ba  Ba0  1  0.75000000  0.68347598  0.31652402  1
  Ba  Ba1  1  0.25000000  0.31711643  0.68288357  1
  Fe  Fe2  1  0.38561967  0.70026073  0.91718153  1
  Fe  Fe3  1  0.11438033  0.08281847  0.29973927  1
  Cu  Cu4  1  0.62139555  0.28588179  0.08268169  1
  Cu  Cu5  1  0.87860445  0.91731831  0.71411821  1
  F  F6  1  0.51631819  0.41112223  0.32410665  1
  F  F7  1  0.98368181  0.67589335  0.58887777  1
  F  F8  1  0.48781696  0.58361920  0.66686200  1
  F  F9  1  0.01218304  0.33313800  0.41638080  1
  F  F10  1  0.71773148  0.54777703  0.96077210  1
  F  F11  1  0.78226852  0.03922790  0.45222297  1
  F  F12  1  0.26896250  0.47771620  0.02894540  1
  F  F13  1  0.23103750  0.97105460  0.52228380  1
  F  F14  1  0.48533650  0.06593092  0.18684634  1
  F  F15  1  0.01466350  0.81315366  0.93406908  1
  F  F16  1  0.48623910  0.92123809  0.81939036  1
  F  F17  1  0.01376090  0.18060964  0.07876191  1
  F  F18  1  0.75000000  0.18279525  0.81720475  1
  F  F19  1  0.25000000  0.80985224  0.19014776  1
