# generated using pymatgen
data_Ba8Ti3Nb4O24
_symmetry_space_group_name_H-M   'P 1'
_cell_length_a   5.85473093
_cell_length_b   5.85471903
_cell_length_c   19.20148532
_cell_angle_alpha   90.00158465
_cell_angle_beta   89.99853762
_cell_angle_gamma   119.99995222
_symmetry_Int_Tables_number   1
_chemical_formula_structural   Ba8Ti3Nb4O24
_chemical_formula_sum   'Ba8 Ti3 Nb4 O24'
_cell_volume   570.00499854
_cell_formula_units_Z   1
loop_
 _symmetry_equiv_pos_site_id
 _symmetry_equiv_pos_as_xyz
  1  'x, y, z'
loop_
 _atom_site_type_symbol
 _atom_site_label
 _atom_site_symmetry_multiplicity
 _atom_site_fract_x
 _atom_site_fract_y
 _atom_site_fract_z
 _atom_site_occupancy
  Ba  Ba0  1  0.66665722  0.33334514  0.24632636  1
  Ba  Ba1  1  0.33333663  0.66666238  0.74660445  1
  Ba  Ba2  1  0.99996929  0.00002570  0.50112184  1
  Ba  Ba3  1  0.00000835  0.99999207  0.01123583  1
  Ba  Ba4  1  0.66663341  0.33336665  0.63374171  1
  Ba  Ba5  1  0.33332696  0.66667533  0.37446789  1
  Ba  Ba6  1  0.33333592  0.66666344  0.14738845  1
  Ba  Ba7  1  0.66667913  0.33331945  0.86146405  1
  Ti  Ti8  1  0.99990913  0.00009120  0.67936777  1
  Ti  Ti9  1  0.00005019  0.99995023  0.82017507  1
  Ti  Ti10  1  0.33323110  0.66676742  0.56381386  1
  Nb  Nb11  1  0.99998443  0.00001867  0.30476012  1
  Nb  Nb12  1  0.66667417  0.33332781  0.06631568  1
  Nb  Nb13  1  0.33335734  0.66664745  0.93841730  1
  Nb  Nb14  1  0.66662545  0.33337580  0.44005672  1
  O  O15  1  0.16887382  0.83112788  0.62225367  1
  O  O16  1  0.66240872  0.83118210  0.62226871  1
  O  O17  1  0.16881655  0.33759008  0.62226799  1
  O  O18  1  0.82994106  0.17006127  0.38230618  1
  O  O19  1  0.34015037  0.17006231  0.38230274  1
  O  O20  1  0.82993605  0.65984876  0.38230182  1
  O  O21  1  0.82526645  0.17473616  0.11592486  1
  O  O22  1  0.34948072  0.17473912  0.11592459  1
  O  O23  1  0.82525543  0.65051605  0.11592415  1
  O  O24  1  0.16625631  0.83374351  0.87081373  1
  O  O25  1  0.66747132  0.83373664  0.87080771  1
  O  O26  1  0.16626323  0.33252950  0.87080730  1
  O  O27  1  0.16486326  0.83513195  0.26061727  1
  O  O28  1  0.67024259  0.83512749  0.26061310  1
  O  O29  1  0.16487659  0.32975831  0.26061275  1
  O  O30  1  0.85242332  0.14758060  0.74693119  1
  O  O31  1  0.29514252  0.14756133  0.74695093  1
  O  O32  1  0.85243842  0.70485615  0.74695142  1
  O  O33  1  0.49864213  0.99723652  0.50331760  1
  O  O34  1  0.49870075  0.50130116  0.50330905  1
  O  O35  1  0.00276243  0.50135563  0.50331845  1
  O  O36  1  0.49815260  0.99629917  0.99023826  1
  O  O37  1  0.49815759  0.50184221  0.99024023  1
  O  O38  1  0.00369902  0.50184737  0.99023920  1
