# generated using pymatgen
data_BaNb2Fe2(PO4)6
_symmetry_space_group_name_H-M   'P 1'
_cell_length_a   8.63633191
_cell_length_b   8.63633191
_cell_length_c   9.30070411
_cell_angle_alpha   62.33611936
_cell_angle_beta   62.33611939
_cell_angle_gamma   59.99999355
_symmetry_Int_Tables_number   1
_chemical_formula_structural   BaNb2Fe2(PO4)6
_chemical_formula_sum   'Ba1 Nb2 Fe2 P6 O24'
_cell_volume   507.13566922
_cell_formula_units_Z   1
loop_
 _symmetry_equiv_pos_site_id
 _symmetry_equiv_pos_as_xyz
  1  'x, y, z'
loop_
 _atom_site_type_symbol
 _atom_site_label
 _atom_site_symmetry_multiplicity
 _atom_site_fract_x
 _atom_site_fract_y
 _atom_site_fract_z
 _atom_site_occupancy
  Ba  Ba0  1  0.50371866  0.50371866  0.48884401  1
  Nb  Nb1  1  0.35051345  0.35051345  0.94845966  1
  Nb  Nb2  1  0.85402492  0.85402492  0.43792523  1
  Fe  Fe3  1  0.65333441  0.65333441  0.03999678  1
  Fe  Fe4  1  0.14689624  0.14689624  0.55931127  1
  P  P5  1  0.46216858  0.02938846  0.75164245  1
  P  P6  1  0.02938846  0.75680051  0.75164245  1
  P  P7  1  0.75680051  0.46216858  0.75164245  1
  P  P8  1  0.96183698  0.25487887  0.25390912  1
  P  P9  1  0.25487887  0.52937503  0.25390912  1
  P  P10  1  0.52937503  0.96183698  0.25390912  1
  O  O11  1  0.48837560  0.86021104  0.90695607  1
  O  O12  1  0.86021104  0.74445728  0.90695607  1
  O  O13  1  0.74445728  0.48837560  0.90695607  1
  O  O14  1  0.98307389  0.25141655  0.40876280  1
  O  O15  1  0.25141655  0.35674675  0.40876280  1
  O  O16  1  0.35674675  0.98307389  0.40876280  1
  O  O17  1  0.50604883  0.13972731  0.09422924  1
  O  O18  1  0.13972731  0.25999462  0.09422924  1
  O  O19  1  0.25999462  0.50604883  0.09422924  1
  O  O20  1  0.01173792  0.75250723  0.59210216  1
  O  O21  1  0.75250723  0.64365269  0.59210216  1
  O  O22  1  0.64365269  0.01173792  0.59210216  1
  O  O23  1  0.57457104  0.78956241  0.21194891  1
  O  O24  1  0.78956241  0.42391764  0.21194891  1
  O  O25  1  0.42391764  0.57457104  0.21194891  1
  O  O26  1  0.07343049  0.92520541  0.70545390  1
  O  O27  1  0.92520541  0.29591021  0.70545390  1
  O  O28  1  0.29591021  0.07343049  0.70545390  1
  O  O29  1  0.43486320  0.20518387  0.78938869  1
  O  O30  1  0.20518387  0.57056424  0.78938869  1
  O  O31  1  0.57056424  0.43486320  0.78938869  1
  O  O32  1  0.93648705  0.06992058  0.29409433  1
  O  O33  1  0.06992058  0.69949803  0.29409433  1
  O  O34  1  0.69949803  0.93648705  0.29409433  1
