# generated using pymatgen
data_BaSrCa2Tl(CuO3)3
_symmetry_space_group_name_H-M   'P 1'
_cell_length_a   3.82763439
_cell_length_b   3.84502399
_cell_length_c   15.79113016
_cell_angle_alpha   90.13949946
_cell_angle_beta   90.00000000
_cell_angle_gamma   90.00000000
_symmetry_Int_Tables_number   1
_chemical_formula_structural   BaSrCa2Tl(CuO3)3
_chemical_formula_sum   'Ba1 Sr1 Ca2 Tl1 Cu3 O9'
_cell_volume   232.40283813
_cell_formula_units_Z   1
loop_
 _symmetry_equiv_pos_site_id
 _symmetry_equiv_pos_as_xyz
  1  'x, y, z'
loop_
 _atom_site_type_symbol
 _atom_site_label
 _atom_site_symmetry_multiplicity
 _atom_site_fract_x
 _atom_site_fract_y
 _atom_site_fract_z
 _atom_site_occupancy
  Ba  Ba0  1  0.50000000  0.51268017  0.83629076  1
  Sr  Sr1  1  0.50000000  0.51210489  0.16880859  1
  Ca  Ca2  1  0.50000000  0.50188473  0.60344744  1
  Ca  Ca3  1  0.50000000  0.50170151  0.39190007  1
  Tl  Tl4  1  0.00000000  0.07910920  0.00624405  1
  Cu  Cu5  1  0.00000000  0.00473159  0.70584269  1
  Cu  Cu6  1  0.00000000  0.00462100  0.28408111  1
  Cu  Cu7  1  -0.00000000  0.00049471  0.49882443  1
  O  O8  1  -0.00000000  0.00724418  0.87308945  1
  O  O9  1  -0.00000000  0.00066560  0.14063960  1
  O  O10  1  0.00000000  0.50437044  0.69640387  1
  O  O11  1  0.50000000  0.00414357  0.69575259  1
  O  O12  1  -0.00000000  0.50431613  0.29652439  1
  O  O13  1  0.50000000  0.00295054  0.29740023  1
  O  O14  1  0.50000000  0.44207627  0.01037255  1
  O  O15  1  -0.00000000  0.50038398  0.49717440  1
  O  O16  1  0.50000000  0.00052149  0.49720378  1
