# generated using pymatgen
data_CuPO4F
_symmetry_space_group_name_H-M   'P 1'
_cell_length_a   5.13504823
_cell_length_b   5.17325414
_cell_length_c   7.17523615
_cell_angle_alpha   108.27008129
_cell_angle_beta   106.71288684
_cell_angle_gamma   96.49066646
_symmetry_Int_Tables_number   1
_chemical_formula_structural   CuPO4F
_chemical_formula_sum   'Cu2 P2 O8 F2'
_cell_volume   168.97285399
_cell_formula_units_Z   2
loop_
 _symmetry_equiv_pos_site_id
 _symmetry_equiv_pos_as_xyz
  1  'x, y, z'
loop_
 _atom_site_type_symbol
 _atom_site_label
 _atom_site_symmetry_multiplicity
 _atom_site_fract_x
 _atom_site_fract_y
 _atom_site_fract_z
 _atom_site_occupancy
  O  O0  1  0.24044865  0.79913966  0.12477895  1
  O  O1  1  0.70378608  0.83987483  0.07300117  1
  O  O2  1  0.66762639  0.18910662  0.40904620  1
  O  O3  1  0.64416962  0.66952304  0.33618481  1
  O  O4  1  0.29621392  0.16012517  0.92699883  1
  O  O5  1  0.33237361  0.81089338  0.59095380  1
  O  O6  1  0.35583038  0.33047696  0.66381519  1
  O  O7  1  0.75955135  0.20086034  0.87522105  1
  F  F8  1  0.15193878  0.31215521  0.26697929  1
  F  F9  1  0.84806122  0.68784479  0.73302071  1
  P  P10  1  0.43894415  0.10673759  0.75902726  1
  P  P11  1  0.56105585  0.89326241  0.24097274  1
  Cu  Cu12  1  0.00000000  0.00000000  0.00000000  1
  Cu  Cu13  1  0.50000000  0.50000000  0.50000000  1
