# generated using pymatgen
data_BaSrEu4O8
_symmetry_space_group_name_H-M   'P 1'
_cell_length_a   3.58732421
_cell_length_b   10.52631458
_cell_length_c   12.46070014
_cell_angle_alpha   90.00000000
_cell_angle_beta   90.00000000
_cell_angle_gamma   90.00000000
_symmetry_Int_Tables_number   1
_chemical_formula_structural   BaSrEu4O8
_chemical_formula_sum   'Ba2 Sr2 Eu8 O16'
_cell_volume   470.53227526
_cell_formula_units_Z   2
loop_
 _symmetry_equiv_pos_site_id
 _symmetry_equiv_pos_as_xyz
  1  'x, y, z'
loop_
 _atom_site_type_symbol
 _atom_site_label
 _atom_site_symmetry_multiplicity
 _atom_site_fract_x
 _atom_site_fract_y
 _atom_site_fract_z
 _atom_site_occupancy
  Ba  Ba0  1  0.75000000  0.74854439  0.14984137  1
  Ba  Ba1  1  0.75000000  0.24854439  0.35015863  1
  Sr  Sr2  1  0.25000000  0.25559848  0.85152659  1
  Sr  Sr3  1  0.25000000  0.75559848  0.64847341  1
  Eu  Eu4  1  0.75000000  0.07553879  0.61333103  1
  Eu  Eu5  1  0.75000000  0.57553879  0.88666897  1
  Eu  Eu6  1  0.25000000  0.92222807  0.39334908  1
  Eu  Eu7  1  0.25000000  0.42222807  0.10665092  1
  Eu  Eu8  1  0.75000000  0.07945538  0.10773160  1
  Eu  Eu9  1  0.75000000  0.57945538  0.39226840  1
  Eu  Eu10  1  0.25000000  0.92547231  0.88468713  1
  Eu  Eu11  1  0.25000000  0.42547231  0.61531287  1
  O  O12  1  0.75000000  0.28567070  0.67718069  1
  O  O13  1  0.75000000  0.78567070  0.82281931  1
  O  O14  1  0.25000000  0.71448303  0.33173288  1
  O  O15  1  0.25000000  0.21448303  0.16826712  1
  O  O16  1  0.75000000  0.37265084  0.97564320  1
  O  O17  1  0.75000000  0.87265084  0.52435680  1
  O  O18  1  0.25000000  0.61869277  0.01547651  1
  O  O19  1  0.25000000  0.11869277  0.48452349  1
  O  O20  1  0.75000000  0.98832475  0.28542494  1
  O  O21  1  0.75000000  0.48832475  0.21457506  1
  O  O22  1  0.25000000  0.00204476  0.71280209  1
  O  O23  1  0.25000000  0.50204476  0.78719791  1
  O  O24  1  0.75000000  0.08229440  0.91707863  1
  O  O25  1  0.75000000  0.58229440  0.58292137  1
  O  O26  1  0.25000000  0.92900132  0.07245193  1
  O  O27  1  0.25000000  0.42900132  0.42754807  1
