# generated using pymatgen
data_BaSr2Y6O12
_symmetry_space_group_name_H-M   'P 1'
_cell_length_a   3.46599443
_cell_length_b   10.41634770
_cell_length_c   10.41635332
_cell_angle_alpha   60.00012135
_cell_angle_beta   90.00000000
_cell_angle_gamma   90.00000000
_symmetry_Int_Tables_number   1
_chemical_formula_structural   BaSr2Y6O12
_chemical_formula_sum   'Ba1 Sr2 Y6 O12'
_cell_volume   325.67932882
_cell_formula_units_Z   1
loop_
 _symmetry_equiv_pos_site_id
 _symmetry_equiv_pos_as_xyz
  1  'x, y, z'
loop_
 _atom_site_type_symbol
 _atom_site_label
 _atom_site_symmetry_multiplicity
 _atom_site_fract_x
 _atom_site_fract_y
 _atom_site_fract_z
 _atom_site_occupancy
  Ba  Ba0  1  0.75000000  0.00000313  0.99999824  1
  Sr  Sr1  1  0.75000000  0.66666212  0.66666849  1
  Sr  Sr2  1  0.25000000  0.33333738  0.33333132  1
  Y  Y3  1  0.25000000  0.34638220  0.65455292  1
  Y  Y4  1  0.25000000  0.99906388  0.34638222  1
  Y  Y5  1  0.25000000  0.65455441  0.99906455  1
  Y  Y6  1  0.75000000  0.65090038  0.34846656  1
  Y  Y7  1  0.75000000  0.00063333  0.65090064  1
  Y  Y8  1  0.75000000  0.34846588  0.00063330  1
  O  O9  1  0.75000000  0.39497808  0.47725625  1
  O  O10  1  0.75000000  0.12776520  0.39497920  1
  O  O11  1  0.75000000  0.47725577  0.12776529  1
  O  O12  1  0.25000000  0.60292048  0.52265308  1
  O  O13  1  0.25000000  0.87442669  0.60292037  1
  O  O14  1  0.25000000  0.52265281  0.87442736  1
  O  O15  1  0.75000000  0.30239562  0.80889901  1
  O  O16  1  0.75000000  0.88870579  0.30239301  1
  O  O17  1  0.75000000  0.80890168  0.88870792  1
  O  O18  1  0.25000000  0.71095214  0.18468568  1
  O  O19  1  0.25000000  0.10436023  0.71095742  1
  O  O20  1  0.25000000  0.18468280  0.10435718  1
