# generated using pymatgen
data_Ba10Fe8Pt2Cl2O25
_symmetry_space_group_name_H-M   'P 1'
_cell_length_a   5.92844445
_cell_length_b   5.93005928
_cell_length_c   25.21871677
_cell_angle_alpha   90.00000000
_cell_angle_beta   90.00000000
_cell_angle_gamma   59.99098320
_symmetry_Int_Tables_number   1
_chemical_formula_structural   Ba10Fe8Pt2Cl2O25
_chemical_formula_sum   'Ba10 Fe8 Pt2 Cl2 O25'
_cell_volume   767.73959366
_cell_formula_units_Z   1
loop_
 _symmetry_equiv_pos_site_id
 _symmetry_equiv_pos_as_xyz
  1  'x, y, z'
loop_
 _atom_site_type_symbol
 _atom_site_label
 _atom_site_symmetry_multiplicity
 _atom_site_fract_x
 _atom_site_fract_y
 _atom_site_fract_z
 _atom_site_occupancy
  Ba  Ba0  1  0.33331886  0.33334057  0.87184849  1
  Ba  Ba1  1  0.66666834  0.66666583  0.12854332  1
  Ba  Ba2  1  0.66666834  0.66666583  0.37145668  1
  Ba  Ba3  1  0.33331886  0.33334057  0.62815151  1
  Ba  Ba4  1  0.99998131  0.00000934  0.75000000  1
  Ba  Ba5  1  0.00029440  0.99985280  0.25000000  1
  Ba  Ba6  1  0.33329633  0.33335184  0.46002426  1
  Ba  Ba7  1  0.66667598  0.66666201  0.53554364  1
  Ba  Ba8  1  0.66667598  0.66666201  0.96445636  1
  Ba  Ba9  1  0.33329633  0.33335184  0.03997574  1
  Fe  Fe10  1  0.33333348  0.33333326  0.32309428  1
  Fe  Fe11  1  0.66669519  0.66665241  0.67534019  1
  Fe  Fe12  1  0.66669519  0.66665241  0.82465981  1
  Fe  Fe13  1  0.33333348  0.33333326  0.17690572  1
  Fe  Fe14  1  0.00007788  0.99996106  0.10739326  1
  Fe  Fe15  1  0.99999037  0.00000482  0.89077618  1
  Fe  Fe16  1  0.99999037  0.00000482  0.60922382  1
  Fe  Fe17  1  0.00007788  0.99996106  0.39260674  1
  Pt  Pt18  1  0.99995879  0.00002061  0.50110083  1
  Pt  Pt19  1  0.99995879  0.00002061  0.99889917  1
  Cl  Cl20  1  0.33334797  0.33332602  0.75000000  1
  Cl  Cl21  1  0.66668940  0.66665530  0.25000000  1
  O  O22  1  0.84057233  0.84063613  0.84378430  1
  O  O23  1  0.84057233  0.31879154  0.84378430  1
  O  O24  1  0.31875439  0.84062281  0.84378591  1
  O  O25  1  0.16257998  0.16228734  0.14946358  1
  O  O26  1  0.16257998  0.67513268  0.14946358  1
  O  O27  1  0.67511592  0.16244204  0.14940928  1
  O  O28  1  0.16257998  0.16228734  0.35053642  1
  O  O29  1  0.16257998  0.67513268  0.35053642  1
  O  O30  1  0.67511592  0.16244204  0.35059072  1
  O  O31  1  0.84057233  0.84063613  0.65621570  1
  O  O32  1  0.84057233  0.31879154  0.65621570  1
  O  O33  1  0.31875439  0.84062281  0.65621409  1
  O  O34  1  0.15246174  0.15240808  0.94713996  1
  O  O35  1  0.15246174  0.69513017  0.94713996  1
  O  O36  1  0.69505482  0.15247259  0.94713063  1
  O  O37  1  0.84689338  0.84701945  0.04996705  1
  O  O38  1  0.84689338  0.30608716  0.04996705  1
  O  O39  1  0.30599870  0.84700065  0.05000052  1
  O  O40  1  0.84689338  0.84701945  0.45003295  1
  O  O41  1  0.84689338  0.30608716  0.45003295  1
  O  O42  1  0.30599870  0.84700065  0.44999948  1
  O  O43  1  0.15246174  0.15240808  0.55286004  1
  O  O44  1  0.15246174  0.69513017  0.55286004  1
  O  O45  1  0.69505482  0.15247259  0.55286937  1
  O  O46  1  0.33317905  0.33341047  0.25000000  1
