# generated using pymatgen
data_Ba6Mn4Si12Cl3O34
_symmetry_space_group_name_H-M   'P 1'
_cell_length_a   6.99621160
_cell_length_b   9.79161098
_cell_length_c   13.36982887
_cell_angle_alpha   89.86117036
_cell_angle_beta   90.00000000
_cell_angle_gamma   90.00000000
_symmetry_Int_Tables_number   1
_chemical_formula_structural   Ba6Mn4Si12Cl3O34
_chemical_formula_sum   'Ba6 Mn4 Si12 Cl3 O34'
_cell_volume   915.88650545
_cell_formula_units_Z   1
loop_
 _symmetry_equiv_pos_site_id
 _symmetry_equiv_pos_as_xyz
  1  'x, y, z'
loop_
 _atom_site_type_symbol
 _atom_site_label
 _atom_site_symmetry_multiplicity
 _atom_site_fract_x
 _atom_site_fract_y
 _atom_site_fract_z
 _atom_site_occupancy
  Ba  Ba0  1  0.50000000  0.49409370  0.24451040  1
  Ba  Ba1  1  0.50000000  0.52473026  0.76070097  1
  Ba  Ba2  1  0.00000000  0.35369517  0.52637756  1
  Ba  Ba3  1  0.00000000  0.64818658  0.02586907  1
  Ba  Ba4  1  0.50000000  0.01512275  0.57305216  1
  Ba  Ba5  1  0.50000000  0.96348050  0.07942198  1
  Mn  Mn6  1  0.00000000  0.62789041  0.70734536  1
  Mn  Mn7  1  0.00000000  0.37070729  0.20924132  1
  Mn  Mn8  1  0.00000000  0.98183308  0.48512808  1
  Mn  Mn9  1  0.00000000  0.01850608  0.98674882  1
  Si  Si10  1  0.73172943  0.15887924  0.32774896  1
  Si  Si11  1  0.26827057  0.15887924  0.32774896  1
  Si  Si12  1  0.26828234  0.84310242  0.82862428  1
  Si  Si13  1  0.73171766  0.84310242  0.82862428  1
  Si  Si14  1  0.26704102  0.69750353  0.51301337  1
  Si  Si15  1  0.73295898  0.69750353  0.51301337  1
  Si  Si16  1  0.73269720  0.30052701  0.01426071  1
  Si  Si17  1  0.26730280  0.30052701  0.01426071  1
  Si  Si18  1  0.00000000  0.67117012  0.33596373  1
  Si  Si19  1  0.00000000  0.32836171  0.83623734  1
  Si  Si20  1  0.00000000  0.95211459  0.22725544  1
  Si  Si21  1  0.00000000  0.04859856  0.72634861  1
  Cl  Cl22  1  0.50000000  0.32352168  0.58455030  1
  Cl  Cl23  1  0.50000000  0.79661984  0.26617556  1
  Cl  Cl24  1  0.50000000  0.64421993  0.02218026  1
  O  O25  1  0.18690408  0.62940394  0.40706834  1
  O  O26  1  0.81309592  0.62940394  0.40706834  1
  O  O27  1  0.80982035  0.36644314  0.90571576  1
  O  O28  1  0.19017965  0.36644314  0.90571576  1
  O  O29  1  0.81215069  0.05247851  0.24202696  1
  O  O30  1  0.18784931  0.05247851  0.24202696  1
  O  O31  1  0.19152444  0.95255568  0.74282854  1
  O  O32  1  0.80847556  0.95255568  0.74282854  1
  O  O33  1  0.80100619  0.31610551  0.30720845  1
  O  O34  1  0.19899381  0.31610551  0.30720845  1
  O  O35  1  0.19989519  0.68674376  0.80726864  1
  O  O36  1  0.80010481  0.68674376  0.80726864  1
  O  O37  1  0.20349367  0.85514695  0.52570043  1
  O  O38  1  0.79650633  0.85514695  0.52570043  1
  O  O39  1  0.79542275  0.14208492  0.02564381  1
  O  O40  1  0.20457725  0.14208492  0.02564381  1
  O  O41  1  0.00000000  0.58530979  0.23439055  1
  O  O42  1  0.00000000  0.41315165  0.73465335  1
  O  O43  1  0.00000000  0.83917342  0.31996971  1
  O  O44  1  0.00000000  0.16075379  0.81913225  1
  O  O45  1  0.00000000  0.11375978  0.61779042  1
  O  O46  1  0.00000000  0.88642526  0.11828858  1
  O  O47  1  0.79213050  0.11011172  0.43924844  1
  O  O48  1  0.20786950  0.11011172  0.43924844  1
  O  O49  1  0.20538101  0.89222780  0.93938493  1
  O  O50  1  0.79461899  0.89222780  0.93938493  1
  O  O51  1  0.50000000  0.69761384  0.50835653  1
  O  O52  1  0.50000000  0.30176638  0.00609552  1
  O  O53  1  0.50000000  0.15842520  0.31137265  1
  O  O54  1  0.50000000  0.84830674  0.80912635  1
  O  O55  1  0.20576460  0.59764160  0.60565945  1
  O  O56  1  0.79423540  0.59764160  0.60565945  1
  O  O57  1  0.79779869  0.39907519  0.10587750  1
  O  O58  1  0.20220131  0.39907519  0.10587750  1
