# generated using pymatgen
data_KSbO3
_symmetry_space_group_name_H-M   'P 1'
_cell_length_a   9.74887071
_cell_length_b   9.74887071
_cell_length_c   9.74887071
_cell_angle_alpha   90.00000000
_cell_angle_beta   90.00000000
_cell_angle_gamma   90.00000000
_symmetry_Int_Tables_number   1
_chemical_formula_structural   KSbO3
_chemical_formula_sum   'K12 Sb12 O36'
_cell_volume   926.53735291
_cell_formula_units_Z   12
loop_
 _symmetry_equiv_pos_site_id
 _symmetry_equiv_pos_as_xyz
  1  'x, y, z'
loop_
 _atom_site_type_symbol
 _atom_site_label
 _atom_site_symmetry_multiplicity
 _atom_site_fract_x
 _atom_site_fract_y
 _atom_site_fract_z
 _atom_site_occupancy
  O  O0  1  0.03958676  0.75330500  0.40651891  1
  O  O1  1  0.03958676  0.74669500  0.09348109  1
  O  O2  1  0.46041324  0.75330500  0.09348109  1
  O  O3  1  0.74669500  0.09348109  0.03958676  1
  O  O4  1  0.09348109  0.46041324  0.75330500  1
  O  O5  1  0.09348109  0.03958676  0.74669500  1
  O  O6  1  0.75330500  0.40651891  0.03958676  1
  O  O7  1  0.40651891  0.03958676  0.75330500  1
  O  O8  1  0.75330500  0.09348109  0.46041324  1
  O  O9  1  0.74669500  0.40651891  0.46041324  1
  O  O10  1  0.40651891  0.46041324  0.74669500  1
  O  O11  1  0.46041324  0.74669500  0.40651891  1
  O  O12  1  0.96041324  0.24669500  0.59348109  1
  O  O13  1  0.96041324  0.25330500  0.90651891  1
  O  O14  1  0.11190258  0.75000000  0.75000000  1
  O  O15  1  0.53958676  0.24669500  0.90651891  1
  O  O16  1  0.90651891  0.53958676  0.24669500  1
  O  O17  1  0.90651891  0.96041324  0.25330500  1
  O  O18  1  0.24669500  0.59348109  0.96041324  1
  O  O19  1  0.59348109  0.96041324  0.24669500  1
  O  O20  1  0.24669500  0.90651891  0.53958676  1
  O  O21  1  0.25330500  0.59348109  0.53958676  1
  O  O22  1  0.59348109  0.53958676  0.25330500  1
  O  O23  1  0.53958676  0.25330500  0.59348109  1
  O  O24  1  0.61190258  0.25000000  0.25000000  1
  O  O25  1  0.25000000  0.61190258  0.25000000  1
  O  O26  1  0.25000000  0.25000000  0.61190258  1
  O  O27  1  0.25000000  0.88809742  0.25000000  1
  O  O28  1  0.25000000  0.25000000  0.88809742  1
  O  O29  1  0.88809742  0.25000000  0.25000000  1
  O  O30  1  0.38809742  0.75000000  0.75000000  1
  O  O31  1  0.75000000  0.38809742  0.75000000  1
  O  O32  1  0.75000000  0.75000000  0.38809742  1
  O  O33  1  0.75000000  0.11190258  0.75000000  1
  O  O34  1  0.75000000  0.75000000  0.11190258  1
  O  O35  1  0.25330500  0.90651891  0.96041324  1
  K  K36  1  0.00000000  0.00000000  0.00000000  1
  K  K37  1  0.50000000  0.50000000  0.00000000  1
  K  K38  1  0.00000000  0.50000000  0.50000000  1
  K  K39  1  0.50000000  0.00000000  0.50000000  1
  K  K40  1  0.40305392  0.40305392  0.40305392  1
  K  K41  1  0.09694608  0.09694608  0.40305392  1
  K  K42  1  0.40305392  0.09694608  0.09694608  1
  K  K43  1  0.09694608  0.40305392  0.09694608  1
  K  K44  1  0.59694608  0.59694608  0.59694608  1
  K  K45  1  0.90305392  0.90305392  0.59694608  1
  K  K46  1  0.59694608  0.90305392  0.90305392  1
  K  K47  1  0.90305392  0.59694608  0.90305392  1
  Sb  Sb48  1  0.59267516  0.75000000  0.25000000  1
  Sb  Sb49  1  0.25000000  0.59267516  0.75000000  1
  Sb  Sb50  1  0.75000000  0.25000000  0.59267516  1
  Sb  Sb51  1  0.25000000  0.90732484  0.75000000  1
  Sb  Sb52  1  0.75000000  0.25000000  0.90732484  1
  Sb  Sb53  1  0.90732484  0.75000000  0.25000000  1
  Sb  Sb54  1  0.40732484  0.25000000  0.75000000  1
  Sb  Sb55  1  0.75000000  0.40732484  0.25000000  1
  Sb  Sb56  1  0.25000000  0.75000000  0.40732484  1
  Sb  Sb57  1  0.75000000  0.09267516  0.25000000  1
  Sb  Sb58  1  0.25000000  0.75000000  0.09267516  1
  Sb  Sb59  1  0.09267516  0.25000000  0.75000000  1
