# generated using pymatgen
data_Zr2Cr30P19
_symmetry_space_group_name_H-M   'P 1'
_cell_length_a   14.86304538
_cell_length_b   14.86304538
_cell_length_c   3.26434068
_cell_angle_alpha   90.00000000
_cell_angle_beta   90.00000000
_cell_angle_gamma   119.99999999
_symmetry_Int_Tables_number   1
_chemical_formula_structural   Zr2Cr30P19
_chemical_formula_sum   'Zr2 Cr30 P19'
_cell_volume   624.51333564
_cell_formula_units_Z   1
loop_
 _symmetry_equiv_pos_site_id
 _symmetry_equiv_pos_as_xyz
  1  'x, y, z'
loop_
 _atom_site_type_symbol
 _atom_site_label
 _atom_site_symmetry_multiplicity
 _atom_site_fract_x
 _atom_site_fract_y
 _atom_site_fract_z
 _atom_site_occupancy
  P  P0  1  0.00000000  0.00000000  0.00000000  1
  P  P1  1  0.27273562  0.08953918  0.50000000  1
  P  P2  1  0.73084610  0.90605299  0.00000000  1
  P  P3  1  0.09394701  0.82479310  0.00000000  1
  P  P4  1  0.17520690  0.26915390  0.00000000  1
  P  P5  1  0.50910772  0.19303263  0.50000000  1
  P  P6  1  0.80696737  0.31607509  0.50000000  1
  P  P7  1  0.68392491  0.49089228  0.50000000  1
  P  P8  1  0.48887455  0.80716405  0.00000000  1
  P  P9  1  0.19283595  0.68171051  0.00000000  1
  P  P10  1  0.31828949  0.51112545  0.00000000  1
  P  P11  1  0.36046062  0.95189308  0.50000000  1
  P  P12  1  0.04810692  0.40856754  0.50000000  1
  P  P13  1  0.59143246  0.63953938  0.50000000  1
  P  P14  1  0.63299917  0.04652078  0.00000000  1
  P  P15  1  0.95347922  0.58647839  0.00000000  1
  P  P16  1  0.41352161  0.36700083  0.00000000  1
  P  P17  1  0.91046082  0.18319644  0.50000000  1
  P  P18  1  0.81680356  0.72726438  0.50000000  1
  Cr  Cr19  1  0.48954956  0.64878470  0.00000000  1
  Cr  Cr20  1  0.39173614  0.19091449  0.00000000  1
  Cr  Cr21  1  0.79917836  0.60826386  0.00000000  1
  Cr  Cr22  1  0.80908551  0.20082164  0.00000000  1
  Cr  Cr23  1  0.60348947  0.81101315  0.50000000  1
  Cr  Cr24  1  0.15923515  0.51045044  0.00000000  1
  Cr  Cr25  1  0.18898685  0.79247632  0.50000000  1
  Cr  Cr26  1  0.17871151  0.11031017  0.00000000  1
  Cr  Cr27  1  0.93159866  0.82128849  0.00000000  1
  Cr  Cr28  1  0.88968983  0.06840134  0.00000000  1
  Cr  Cr29  1  0.85610309  0.91353033  0.50000000  1
  Cr  Cr30  1  0.05742724  0.14389691  0.50000000  1
  Cr  Cr31  1  0.08646967  0.94257276  0.50000000  1
  Cr  Cr32  1  0.84160120  0.48805858  0.50000000  1
  Cr  Cr33  1  0.51194142  0.35354262  0.50000000  1
  Cr  Cr34  1  0.64645738  0.15839880  0.50000000  1
  Cr  Cr35  1  0.06404860  0.58207481  0.50000000  1
  Cr  Cr36  1  0.41792519  0.48197379  0.50000000  1
  Cr  Cr37  1  0.51802621  0.93595140  0.50000000  1
  Cr  Cr38  1  0.93675797  0.41210128  0.00000000  1
  Cr  Cr39  1  0.58789872  0.52465669  0.00000000  1
  Cr  Cr40  1  0.47534331  0.06324203  0.00000000  1
  Cr  Cr41  1  0.02577763  0.28525536  0.00000000  1
  Cr  Cr42  1  0.71474464  0.74052227  0.00000000  1
  Cr  Cr43  1  0.25947773  0.97422237  0.00000000  1
  Cr  Cr44  1  0.97659982  0.71095398  0.50000000  1
  Cr  Cr45  1  0.28904602  0.26564584  0.50000000  1
  Cr  Cr46  1  0.73435416  0.02340018  0.50000000  1
  Cr  Cr47  1  0.20752368  0.39651053  0.50000000  1
  Cr  Cr48  1  0.35121530  0.84076485  0.00000000  1
  Zr  Zr49  1  0.33333333  0.66666667  0.50000000  1
  Zr  Zr50  1  0.66666667  0.33333333  0.00000000  1
