# generated using pymatgen
data_AlGaCu2(AsO5)2
_symmetry_space_group_name_H-M   'P 1'
_cell_length_a   5.76110346
_cell_length_b   7.47153320
_cell_length_c   10.39541064
_cell_angle_alpha   90.00000000
_cell_angle_beta   90.00000000
_cell_angle_gamma   100.54166591
_symmetry_Int_Tables_number   1
_chemical_formula_structural   AlGaCu2(AsO5)2
_chemical_formula_sum   'Al2 Ga2 Cu4 As4 O20'
_cell_volume   439.91069888
_cell_formula_units_Z   2
loop_
 _symmetry_equiv_pos_site_id
 _symmetry_equiv_pos_as_xyz
  1  'x, y, z'
loop_
 _atom_site_type_symbol
 _atom_site_label
 _atom_site_symmetry_multiplicity
 _atom_site_fract_x
 _atom_site_fract_y
 _atom_site_fract_z
 _atom_site_occupancy
  Al  Al0  1  0.43748377  0.14357174  0.32401980  1
  Al  Al1  1  0.06251623  0.85642826  0.82401980  1
  Ga  Ga2  1  0.56167021  0.85503027  0.67718466  1
  Ga  Ga3  1  0.93832979  0.14496973  0.17718466  1
  Cu  Cu4  1  0.91023068  0.46124537  0.35892069  1
  Cu  Cu5  1  0.58976932  0.53875463  0.85892069  1
  Cu  Cu6  1  0.08792633  0.53905005  0.64141750  1
  Cu  Cu7  1  0.41207367  0.46094995  0.14141750  1
  As  As8  1  0.57442562  0.27719222  0.60881335  1
  As  As9  1  0.92557438  0.72280778  0.10881335  1
  As  As10  1  0.42392384  0.72447376  0.38897062  1
  As  As11  1  0.07607616  0.27552624  0.88897062  1
  O  O12  1  0.63132531  0.10462176  0.70461496  1
  O  O13  1  0.86867469  0.89537824  0.20461496  1
  O  O14  1  0.37220599  0.90430299  0.29846333  1
  O  O15  1  0.12779401  0.09569701  0.79846333  1
  O  O16  1  0.84242744  0.38205661  0.53889176  1
  O  O17  1  0.65757256  0.61794339  0.03889176  1
  O  O18  1  0.15774473  0.61880539  0.46040339  1
  O  O19  1  0.34225527  0.38119461  0.96040339  1
  O  O20  1  0.73137302  0.23735460  0.28188111  1
  O  O21  1  0.76862698  0.76264540  0.78188111  1
  O  O22  1  0.25514918  0.76290243  0.72272352  1
  O  O23  1  0.24485082  0.23709757  0.22272352  1
  O  O24  1  0.45275424  0.43383705  0.69530668  1
  O  O25  1  0.04724576  0.56616295  0.19530668  1
  O  O26  1  0.54562084  0.56700556  0.30370938  1
  O  O27  1  0.95437916  0.43299444  0.80370938  1
  O  O28  1  0.38295905  0.19431141  0.48751092  1
  O  O29  1  0.11704095  0.80568859  0.98751092  1
  O  O30  1  0.62415671  0.80436908  0.50716835  1
  O  O31  1  0.87584329  0.19563092  0.00716835  1
