# generated using pymatgen
data_Ca13Nb3(Si2O9)4
_symmetry_space_group_name_H-M   'P 1'
_cell_length_a   7.38322165
_cell_length_b   10.54114167
_cell_length_c   10.99182773
_cell_angle_alpha   89.96330241
_cell_angle_beta   109.39531217
_cell_angle_gamma   90.18910934
_symmetry_Int_Tables_number   1
_chemical_formula_structural   Ca13Nb3(Si2O9)4
_chemical_formula_sum   'Ca13 Nb3 Si8 O36'
_cell_volume   806.91500203
_cell_formula_units_Z   1
loop_
 _symmetry_equiv_pos_site_id
 _symmetry_equiv_pos_as_xyz
  1  'x, y, z'
loop_
 _atom_site_type_symbol
 _atom_site_label
 _atom_site_symmetry_multiplicity
 _atom_site_fract_x
 _atom_site_fract_y
 _atom_site_fract_z
 _atom_site_occupancy
  Ca  Ca0  1  0.03253357  0.90820392  0.06722902  1
  Ca  Ca1  1  0.96196370  0.41991350  0.92495557  1
  Ca  Ca2  1  0.96380121  0.10181837  0.43295679  1
  Ca  Ca3  1  0.03471071  0.59713173  0.57316006  1
  Ca  Ca4  1  0.46192326  0.10324233  0.43471483  1
  Ca  Ca5  1  0.52795346  0.58869784  0.55579799  1
  Ca  Ca6  1  0.34467978  0.62813938  0.18783768  1
  Ca  Ca7  1  0.67572498  0.12549280  0.82997657  1
  Ca  Ca8  1  0.53238745  0.90599944  0.06139719  1
  Ca  Ca9  1  0.47537598  0.40694197  0.94018694  1
  Ca  Ca10  1  0.16777918  0.38593563  0.33303192  1
  Ca  Ca11  1  0.65039451  0.38056965  0.31273502  1
  Ca  Ca12  1  0.32368638  0.88878634  0.67065361  1
  Nb  Nb13  1  0.84230564  0.89194250  0.68599090  1
  Nb  Nb14  1  0.85048777  0.61614140  0.19232868  1
  Nb  Nb15  1  0.15890856  0.12027460  0.81998166  1
  Si  Si16  1  0.22756472  0.81370423  0.38882995  1
  Si  Si17  1  0.77687810  0.31461891  0.62108062  1
  Si  Si18  1  0.65735374  0.83311546  0.37303729  1
  Si  Si19  1  0.34434729  0.31425639  0.62977506  1
  Si  Si20  1  0.77273479  0.19680011  0.11306388  1
  Si  Si21  1  0.22807179  0.69644231  0.88161091  1
  Si  Si22  1  0.33869441  0.18106280  0.12195271  1
  Si  Si23  1  0.65672655  0.68637622  0.87547267  1
  O  O24  1  0.20736100  0.96079331  0.42564633  1
  O  O25  1  0.81173569  0.46538829  0.61176875  1
  O  O26  1  0.61071003  0.52695550  0.12888874  1
  O  O27  1  0.38910595  0.02316105  0.85368928  1
  O  O28  1  0.24795697  0.77364123  0.01379992  1
  O  O29  1  0.76899297  0.28106781  0.98634842  1
  O  O30  1  0.90864190  0.24232374  0.25462998  1
  O  O31  1  0.07246465  0.75466209  0.74869512  1
  O  O32  1  0.25363252  0.72820209  0.51786915  1
  O  O33  1  0.74770689  0.23921087  0.48700513  1
  O  O34  1  0.02563787  0.52339627  0.13256009  1
  O  O35  1  0.95078506  0.99433263  0.85155767  1
  O  O36  1  0.07001537  0.76444097  0.25345544  1
  O  O37  1  0.93181107  0.24907389  0.74975080  1
  O  O38  1  0.33874287  0.24226415  0.25683994  1
  O  O39  1  0.69700850  0.75926291  0.75468371  1
  O  O40  1  0.43068401  0.79442271  0.35540633  1
  O  O41  1  0.57966526  0.28867407  0.66113195  1
  O  O42  1  0.67981030  0.76241113  0.24633913  1
  O  O43  1  0.32493449  0.26437098  0.76673069  1
  O  O44  1  0.78684603  0.77587912  0.51662385  1
  O  O45  1  0.23757355  0.22726528  0.50477160  1
  O  O46  1  0.43758450  0.50412584  0.35949066  1
  O  O47  1  0.61195630  0.98851560  0.64072278  1
  O  O48  1  0.92272376  0.53535615  0.35486867  1
  O  O49  1  0.03826550  0.00699004  0.65084284  1
  O  O50  1  0.77648755  0.74851835  0.01655114  1
  O  O51  1  0.19738296  0.24404091  0.98448633  1
  O  O52  1  0.55226482  0.23062550  0.11720151  1
  O  O53  1  0.42955494  0.73199517  0.84871960  1
  O  O54  1  0.78512630  0.04742918  0.07488604  1
  O  O55  1  0.20913199  0.54481410  0.89939597  1
  O  O56  1  0.68247879  0.98445422  0.36938340  1
  O  O57  1  0.29345422  0.46257913  0.59900530  1
  O  O58  1  0.31235504  0.02861466  0.11552336  1
  O  O59  1  0.67242285  0.53513321  0.86297289  1
