# generated using pymatgen
data_BiRh7Pb2O15
_symmetry_space_group_name_H-M   'P 1'
_cell_length_a   10.60087954
_cell_length_b   10.60064846
_cell_length_c   13.40915186
_cell_angle_alpha   90.00095142
_cell_angle_beta   89.99872503
_cell_angle_gamma   59.90462242
_symmetry_Int_Tables_number   1
_chemical_formula_structural   BiRh7Pb2O15
_chemical_formula_sum   'Bi4 Rh28 Pb8 O60'
_cell_volume   1303.73124771
_cell_formula_units_Z   4
loop_
 _symmetry_equiv_pos_site_id
 _symmetry_equiv_pos_as_xyz
  1  'x, y, z'
loop_
 _atom_site_type_symbol
 _atom_site_label
 _atom_site_symmetry_multiplicity
 _atom_site_fract_x
 _atom_site_fract_y
 _atom_site_fract_z
 _atom_site_occupancy
  Bi  Bi0  1  0.71114586  0.00119137  0.74999150  1
  Bi  Bi1  1  0.99877691  0.28888402  0.74999726  1
  Bi  Bi2  1  0.28881147  0.99881472  0.25000025  1
  Bi  Bi3  1  0.00121698  0.71115785  0.25000001  1
  Rh  Rh4  1  0.00002136  -0.00001844  0.49997032  1
  Rh  Rh5  1  -0.00000288  0.00000881  0.00005282  1
  Rh  Rh6  1  0.83140354  0.83133067  0.50000128  1
  Rh  Rh7  1  0.83060229  0.33762199  0.50079743  1
  Rh  Rh8  1  0.33765078  0.83057474  0.49917956  1
  Rh  Rh9  1  0.66235885  0.16941260  0.50077888  1
  Rh  Rh10  1  0.16941361  0.66237229  0.49916056  1
  Rh  Rh11  1  0.16864689  0.16862030  0.49996882  1
  Rh  Rh12  1  0.16863014  0.16864815  0.00002897  1
  Rh  Rh13  1  0.16944221  0.66233236  0.00086412  1
  Rh  Rh14  1  0.66232446  0.16945130  0.99918116  1
  Rh  Rh15  1  0.33769187  0.83054558  0.00084246  1
  Rh  Rh16  1  0.83056658  0.33765522  0.99916934  1
  Rh  Rh17  1  0.83138360  0.83133694  0.99999548  1
  Rh  Rh18  1  0.49999139  -0.00000301  0.49997398  1
  Rh  Rh19  1  -0.00000040  0.49999567  0.49997633  1
  Rh  Rh20  1  0.49998246  0.50001827  0.49999719  1
  Rh  Rh21  1  0.49999702  0.00000021  0.00000484  1
  Rh  Rh22  1  0.99999723  0.50000945  0.00000736  1
  Rh  Rh23  1  0.49998317  0.50001922  0.99999186  1
  Rh  Rh24  1  0.33296568  0.33361080  0.64604424  1
  Rh  Rh25  1  0.66640111  0.66702785  0.64607279  1
  Rh  Rh26  1  0.66705985  0.66637182  0.35393664  1
  Rh  Rh27  1  0.33360822  0.33294503  0.35391512  1
  Rh  Rh28  1  0.66699511  0.66638075  0.14605525  1
  Rh  Rh29  1  0.33361478  0.33300659  0.14607771  1
  Rh  Rh30  1  0.33302558  0.33362505  0.85396691  1
  Rh  Rh31  1  0.66639144  0.66697094  0.85394611  1
  Pb  Pb32  1  0.26898784  0.73100639  0.74997354  1
  Pb  Pb33  1  0.73106422  0.26894371  0.25002225  1
  Pb  Pb34  1  0.60165791  0.39837314  0.74985896  1
  Pb  Pb35  1  0.38606704  0.99605518  0.74990175  1
  Pb  Pb36  1  0.00394991  0.61392634  0.74989722  1
  Pb  Pb37  1  0.39833399  0.60162954  0.25015277  1
  Pb  Pb38  1  0.61389857  0.00396870  0.25005578  1
  Pb  Pb39  1  0.99603887  0.38609428  0.25006911  1
  O  O40  1  0.16914146  0.99926476  0.57468430  1
  O  O41  1  0.00074206  0.83089064  0.57472808  1
  O  O42  1  0.83147514  0.16852022  0.57605624  1
  O  O43  1  0.83083017  0.00076414  0.42527382  1
  O  O44  1  0.99922470  0.16913825  0.42524485  1
  O  O45  1  0.16849344  0.83151492  0.42385767  1
  O  O46  1  0.83079537  0.00075698  0.07475046  1
  O  O47  1  0.99923551  0.16917580  0.07480104  1
  O  O48  1  0.16850917  0.83149349  0.07613838  1
  O  O49  1  0.16918088  0.99924400  0.92530902  1
  O  O50  1  0.00075804  0.83085452  0.92528124  1
  O  O51  1  0.83147269  0.16852599  0.92391514  1
  O  O52  1  0.33358163  0.15795736  0.58228198  1
  O  O53  1  0.15776883  0.50884891  0.58317327  1
  O  O54  1  0.50674601  0.33497980  0.58318615  1
  O  O55  1  0.49117211  0.84220161  0.58321420  1
  O  O56  1  0.66503945  0.49326042  0.58318670  1
  O  O57  1  0.84203662  0.66635690  0.58232779  1
  O  O58  1  0.66645792  0.84197936  0.41773907  1
  O  O59  1  0.84219881  0.49112843  0.41681738  1
  O  O60  1  0.49329126  0.66499454  0.41679194  1
  O  O61  1  0.50885299  0.15782006  0.41677710  1
  O  O62  1  0.33499327  0.50671037  0.41678657  1
  O  O63  1  0.15800988  0.33359862  0.41768541  1
  O  O64  1  0.66640896  0.84189683  0.08213404  1
  O  O65  1  0.84210136  0.49122274  0.08307887  1
  O  O66  1  0.49342221  0.66499780  0.08295728  1
  O  O67  1  0.50877340  0.15790982  0.08311779  1
  O  O68  1  0.33498937  0.50657480  0.08296145  1
  O  O69  1  0.15811011  0.33364531  0.08218851  1
  O  O70  1  0.33360468  0.15810577  0.91784856  1
  O  O71  1  0.15789065  0.50877504  0.91693873  1
  O  O72  1  0.50655555  0.33500911  0.91708775  1
  O  O73  1  0.49124738  0.84208441  0.91689688  1
  O  O74  1  0.66500897  0.49344865  0.91708636  1
  O  O75  1  0.84187753  0.66635319  0.91780621  1
  O  O76  1  0.66648605  0.99936547  0.57966442  1
  O  O77  1  0.00059889  0.33355894  0.57969347  1
  O  O78  1  0.33293830  0.66703752  0.57576568  1
  O  O79  1  0.33351330  0.00064849  0.42026615  1
  O  O80  1  0.99938808  0.66642726  0.42023888  1
  O  O81  1  0.66709769  0.33293119  0.42417974  1
  O  O82  1  0.33351893  0.00066161  0.07974908  1
  O  O83  1  0.99936381  0.66644562  0.07977751  1
  O  O84  1  0.66705936  0.33296113  0.07579986  1
  O  O85  1  0.66649092  0.99933965  0.92030110  1
  O  O86  1  0.00062430  0.33356553  0.92027923  1
  O  O87  1  0.33292483  0.66704748  0.92423418  1
  O  O88  1  0.34197876  0.47849810  0.74998562  1
  O  O89  1  0.48133485  0.17038251  0.74998299  1
  O  O90  1  0.17075361  0.34665230  0.74998781  1
  O  O91  1  0.82957787  0.51872700  0.74998469  1
  O  O92  1  0.65331147  0.82923873  0.74998961  1
  O  O93  1  0.52151136  0.65805487  0.74998418  1
  O  O94  1  0.65800672  0.52149894  0.25002672  1
  O  O95  1  0.51863187  0.82965384  0.25002368  1
  O  O96  1  0.82923884  0.65335713  0.25001855  1
  O  O97  1  0.17038284  0.48130732  0.25002675  1
  O  O98  1  0.34668106  0.17076152  0.25002341  1
  O  O99  1  0.47849319  0.34195786  0.25002858  1
