# generated using pymatgen
data_Tl3(MoO4)2
_symmetry_space_group_name_H-M   'P 1'
_cell_length_a   6.14558003
_cell_length_b   6.14562719
_cell_length_c   16.16780500
_cell_angle_alpha   90.00067786
_cell_angle_beta   90.00023929
_cell_angle_gamma   119.99957014
_symmetry_Int_Tables_number   1
_chemical_formula_structural   Tl3(MoO4)2
_chemical_formula_sum   'Tl6 Mo4 O16'
_cell_volume   528.82583647
_cell_formula_units_Z   2
loop_
 _symmetry_equiv_pos_site_id
 _symmetry_equiv_pos_as_xyz
  1  'x, y, z'
loop_
 _atom_site_type_symbol
 _atom_site_label
 _atom_site_symmetry_multiplicity
 _atom_site_fract_x
 _atom_site_fract_y
 _atom_site_fract_z
 _atom_site_occupancy
  O  O0  1  0.50730669  0.49476956  0.95047215  1
  O  O1  1  0.82977105  0.16984587  0.13067775  1
  O  O2  1  0.98746446  0.49272614  0.95047265  1
  O  O3  1  0.83018107  0.65996218  0.13067714  1
  O  O4  1  0.17012582  0.83009431  0.63068243  1
  O  O5  1  0.01255562  0.50671360  0.45048107  1
  O  O6  1  0.33332418  0.66667848  0.30422310  1
  O  O7  1  0.33334608  0.66669743  0.77297626  1
  O  O8  1  0.16994107  0.34008876  0.63068184  1
  O  O9  1  0.49411980  0.98749957  0.45047031  1
  O  O10  1  0.49335154  0.50593790  0.45048122  1
  O  O11  1  0.65994884  0.82990458  0.63068127  1
  O  O12  1  0.34006242  0.17026337  0.13067804  1
  O  O13  1  0.66667612  0.33336285  0.27297287  1
  O  O14  1  0.50526802  0.01257374  0.95048107  1
  O  O15  1  0.66666318  0.33332703  0.80421454  1
  Mo  Mo16  1  0.33333731  0.66670908  0.41286552  1
  Mo  Mo17  1  0.66667654  0.33335112  0.91285375  1
  Mo  Mo18  1  0.66667283  0.33335680  0.16553646  1
  Mo  Mo19  1  0.33334052  0.66669708  0.66555588  1
  Tl  Tl20  1  0.33334087  0.66667619  0.04497376  1
  Tl  Tl21  1  0.00000199  0.00000536  0.01783196  1
  Tl  Tl22  1  0.00000935  0.00002250  0.25494092  1
  Tl  Tl23  1  0.00000003  0.00000983  0.51783160  1
  Tl  Tl24  1  0.00000678  0.00003085  0.75494741  1
  Tl  Tl25  1  0.66666783  0.33335580  0.54497903  1
