# generated using pymatgen
data_AlAg4
_symmetry_space_group_name_H-M   'P 1'
_cell_length_a   2.94582142
_cell_length_b   2.94582142
_cell_length_c   11.80523541
_cell_angle_alpha   90.00000000
_cell_angle_beta   97.16733429
_cell_angle_gamma   120.00000000
_symmetry_Int_Tables_number   1
_chemical_formula_structural   AlAg4
_chemical_formula_sum   'Al1 Ag4'
_cell_volume   87.79374768
_cell_formula_units_Z   1
loop_
 _symmetry_equiv_pos_site_id
 _symmetry_equiv_pos_as_xyz
  1  'x, y, z'
loop_
 _atom_site_type_symbol
 _atom_site_label
 _atom_site_symmetry_multiplicity
 _atom_site_fract_x
 _atom_site_fract_y
 _atom_site_fract_z
 _atom_site_occupancy
  Al  Al0  1  -0.00000000  -0.00000000  0.00000000  1
  Ag  Ag1  1  0.79270956  0.39635478  0.18906434  1
  Ag  Ag2  1  0.59761956  0.79880978  0.39642935  1
  Ag  Ag3  1  0.40238044  0.20119022  0.60357065  1
  Ag  Ag4  1  0.20729044  0.60364522  0.81093566  1
