# generated using pymatgen
data_Ho2SiSO4
_symmetry_space_group_name_H-M   'P 1'
_cell_length_a   6.11400181
_cell_length_b   6.92184345
_cell_length_c   10.69514858
_cell_angle_alpha   90.00000000
_cell_angle_beta   90.00000000
_cell_angle_gamma   90.00000000
_symmetry_Int_Tables_number   1
_chemical_formula_structural   Ho2SiSO4
_chemical_formula_sum   'Ho8 Si4 S4 O16'
_cell_volume   452.62043530
_cell_formula_units_Z   4
loop_
 _symmetry_equiv_pos_site_id
 _symmetry_equiv_pos_as_xyz
  1  'x, y, z'
loop_
 _atom_site_type_symbol
 _atom_site_label
 _atom_site_symmetry_multiplicity
 _atom_site_fract_x
 _atom_site_fract_y
 _atom_site_fract_z
 _atom_site_occupancy
  O  O0  1  0.28502784  0.43348630  0.02886506  1
  O  O1  1  0.28502784  0.06651370  0.97113494  1
  O  O2  1  0.71497216  0.93348630  0.47113494  1
  O  O3  1  0.71497216  0.56651370  0.52886506  1
  O  O4  1  0.71497216  0.56651370  0.97113494  1
  O  O5  1  0.71497216  0.93348630  0.02886506  1
  O  O6  1  0.28502784  0.06651370  0.52886506  1
  O  O7  1  0.28502784  0.43348630  0.47113494  1
  O  O8  1  0.03933350  0.73777981  0.12268410  1
  O  O9  1  0.03933350  0.73777981  0.37731590  1
  O  O10  1  0.96066650  0.23777981  0.37731590  1
  O  O11  1  0.96066650  0.26222019  0.62268410  1
  O  O12  1  0.96066650  0.26222019  0.87731590  1
  O  O13  1  0.96066650  0.23777981  0.12268410  1
  O  O14  1  0.03933350  0.76222019  0.62268410  1
  O  O15  1  0.03933350  0.76222019  0.87731590  1
  Si  Si16  1  0.12201728  0.25000000  0.00000000  1
  Si  Si17  1  0.87798272  0.75000000  0.00000000  1
  Si  Si18  1  0.87798272  0.75000000  0.50000000  1
  Si  Si19  1  0.12201728  0.25000000  0.50000000  1
  S  S20  1  0.52332890  0.81321495  0.75000000  1
  S  S21  1  0.52332890  0.68678505  0.25000000  1
  S  S22  1  0.47667110  0.31321495  0.75000000  1
  S  S23  1  0.47667110  0.18678505  0.25000000  1
  Ho  Ho24  1  0.38382604  0.75000000  0.50000000  1
  Ho  Ho25  1  0.38382604  0.75000000  0.00000000  1
  Ho  Ho26  1  0.61617396  0.25000000  0.50000000  1
  Ho  Ho27  1  0.61617396  0.25000000  0.00000000  1
  Ho  Ho28  1  0.84385701  0.52797370  0.75000000  1
  Ho  Ho29  1  0.84385701  0.97202630  0.25000000  1
  Ho  Ho30  1  0.15614299  0.02797370  0.75000000  1
  Ho  Ho31  1  0.15614299  0.47202630  0.25000000  1
