# generated using pymatgen
data_Sn2Sb2S5
_symmetry_space_group_name_H-M   'P 1'
_cell_length_a   3.96887650
_cell_length_b   11.52423801
_cell_length_c   20.60156382
_cell_angle_alpha   90.00000000
_cell_angle_beta   90.00000000
_cell_angle_gamma   90.00000000
_symmetry_Int_Tables_number   1
_chemical_formula_structural   Sn2Sb2S5
_chemical_formula_sum   'Sn8 Sb8 S20'
_cell_volume   942.28004125
_cell_formula_units_Z   4
loop_
 _symmetry_equiv_pos_site_id
 _symmetry_equiv_pos_as_xyz
  1  'x, y, z'
loop_
 _atom_site_type_symbol
 _atom_site_label
 _atom_site_symmetry_multiplicity
 _atom_site_fract_x
 _atom_site_fract_y
 _atom_site_fract_z
 _atom_site_occupancy
  S  S0  1  0.25000000  0.42490738  0.57791467  1
  S  S1  1  0.75000000  0.57509262  0.42208533  1
  S  S2  1  0.75000000  0.92490738  0.92208533  1
  S  S3  1  0.25000000  0.07509262  0.07791467  1
  S  S4  1  0.25000000  0.36910704  0.98046654  1
  S  S5  1  0.75000000  0.63089296  0.01953346  1
  S  S6  1  0.75000000  0.86910704  0.51953346  1
  S  S7  1  0.25000000  0.13089296  0.48046654  1
  S  S8  1  0.25000000  0.74674827  0.67172028  1
  S  S9  1  0.75000000  0.25325173  0.32827972  1
  S  S10  1  0.75000000  0.24674827  0.82827972  1
  S  S11  1  0.25000000  0.75325173  0.17172028  1
  S  S12  1  0.25000000  0.82446132  0.37059934  1
  S  S13  1  0.75000000  0.17553868  0.62940066  1
  S  S14  1  0.75000000  0.32446132  0.12940066  1
  S  S15  1  0.25000000  0.67553868  0.87059934  1
  S  S16  1  0.25000000  0.50334859  0.27287630  1
  S  S17  1  0.75000000  0.49665141  0.72712370  1
  S  S18  1  0.75000000  0.00334859  0.22712370  1
  S  S19  1  0.25000000  0.99665141  0.77287630  1
  Sn  Sn20  1  0.25000000  0.16322140  0.20040586  1
  Sn  Sn21  1  0.75000000  0.83677860  0.79959414  1
  Sn  Sn22  1  0.75000000  0.66322140  0.29959414  1
  Sn  Sn23  1  0.25000000  0.33677860  0.70040586  1
  Sn  Sn24  1  0.25000000  0.49670967  0.08873412  1
  Sn  Sn25  1  0.75000000  0.50329033  0.91126588  1
  Sn  Sn26  1  0.75000000  0.99670967  0.41126588  1
  Sn  Sn27  1  0.25000000  0.00329033  0.58873412  1
  Sb  Sb28  1  0.25000000  0.37563889  0.36824795  1
  Sb  Sb29  1  0.75000000  0.62436111  0.63175205  1
  Sb  Sb30  1  0.75000000  0.87563889  0.13175205  1
  Sb  Sb31  1  0.25000000  0.12436111  0.86824795  1
  Sb  Sb32  1  0.25000000  0.70914485  0.47002558  1
  Sb  Sb33  1  0.75000000  0.29085515  0.52997442  1
  Sb  Sb34  1  0.75000000  0.20914485  0.02997442  1
  Sb  Sb35  1  0.25000000  0.79085515  0.97002558  1
