# generated using pymatgen
data_ZnAg2P2O7
_symmetry_space_group_name_H-M   'P 1'
_cell_length_a   7.90356398
_cell_length_b   7.90356398
_cell_length_c   10.61219276
_cell_angle_alpha   90.00000000
_cell_angle_beta   90.00000000
_cell_angle_gamma   90.00000000
_symmetry_Int_Tables_number   1
_chemical_formula_structural   ZnAg2P2O7
_chemical_formula_sum   'Zn4 Ag8 P8 O28'
_cell_volume   662.90466690
_cell_formula_units_Z   4
loop_
 _symmetry_equiv_pos_site_id
 _symmetry_equiv_pos_as_xyz
  1  'x, y, z'
loop_
 _atom_site_type_symbol
 _atom_site_label
 _atom_site_symmetry_multiplicity
 _atom_site_fract_x
 _atom_site_fract_y
 _atom_site_fract_z
 _atom_site_occupancy
  O  O0  1  0.30498650  0.07983192  0.15022788  1
  O  O1  1  0.69501350  0.92016808  0.15022788  1
  O  O2  1  0.07983192  0.30498650  0.84977212  1
  O  O3  1  0.57983192  0.19501350  0.65022788  1
  O  O4  1  0.42016808  0.80498650  0.65022788  1
  O  O5  1  0.19501350  0.57983192  0.34977212  1
  O  O6  1  0.80498650  0.42016808  0.34977212  1
  O  O7  1  0.92016808  0.69501350  0.84977212  1
  O  O8  1  0.69501350  0.92016808  0.84977212  1
  O  O9  1  0.30498650  0.07983192  0.84977212  1
  O  O10  1  0.92016808  0.69501350  0.15022788  1
  O  O11  1  0.42016808  0.80498650  0.34977212  1
  O  O12  1  0.57983192  0.19501350  0.34977212  1
  O  O13  1  0.80498650  0.42016808  0.65022788  1
  O  O14  1  0.19501350  0.57983192  0.65022788  1
  O  O15  1  0.07983192  0.30498650  0.15022788  1
  O  O16  1  0.86537726  0.86537726  0.64525389  1
  O  O17  1  0.13462274  0.13462274  0.64525389  1
  O  O18  1  0.86537726  0.86537726  0.35474611  1
  O  O19  1  0.36537726  0.63462274  0.14525389  1
  O  O20  1  0.00000000  0.00000000  0.15729738  1
  O  O21  1  0.50000000  0.50000000  0.65729738  1
  O  O22  1  0.50000000  0.50000000  0.34270262  1
  O  O23  1  0.00000000  0.00000000  0.84270262  1
  O  O24  1  0.13462274  0.13462274  0.35474611  1
  O  O25  1  0.36537726  0.63462274  0.85474611  1
  O  O26  1  0.63462274  0.36537726  0.85474611  1
  O  O27  1  0.63462274  0.36537726  0.14525389  1
  P  P28  1  0.86277788  0.86277788  0.78864865  1
  P  P29  1  0.13722212  0.13722212  0.78864865  1
  P  P30  1  0.86277788  0.86277788  0.21135135  1
  P  P31  1  0.36277788  0.63722212  0.28864865  1
  P  P32  1  0.63722212  0.36277788  0.28864865  1
  P  P33  1  0.63722212  0.36277788  0.71135135  1
  P  P34  1  0.36277788  0.63722212  0.71135135  1
  P  P35  1  0.13722212  0.13722212  0.21135135  1
  Zn  Zn36  1  0.00000000  0.50000000  0.75000000  1
  Zn  Zn37  1  0.50000000  0.00000000  0.25000000  1
  Zn  Zn38  1  0.00000000  0.50000000  0.25000000  1
  Zn  Zn39  1  0.50000000  0.00000000  0.75000000  1
  Ag  Ag40  1  0.63949339  0.63949339  0.00000000  1
  Ag  Ag41  1  0.86050661  0.13949339  0.50000000  1
  Ag  Ag42  1  0.13949339  0.86050661  0.50000000  1
  Ag  Ag43  1  0.36050661  0.36050661  0.00000000  1
  Ag  Ag44  1  0.29918502  0.29918502  0.50000000  1
  Ag  Ag45  1  0.79918502  0.20081498  0.00000000  1
  Ag  Ag46  1  0.70081498  0.70081498  0.50000000  1
  Ag  Ag47  1  0.20081498  0.79918502  0.00000000  1
