# generated using pymatgen
data_Na2Sn2Se5
_symmetry_space_group_name_H-M   'P 1'
_cell_length_a   11.87059460
_cell_length_b   12.70977016
_cell_length_c   14.30867369
_cell_angle_alpha   90.00000000
_cell_angle_beta   90.00000000
_cell_angle_gamma   90.00000000
_symmetry_Int_Tables_number   1
_chemical_formula_structural   Na2Sn2Se5
_chemical_formula_sum   'Na16 Sn16 Se40'
_cell_volume   2158.78578665
_cell_formula_units_Z   8
loop_
 _symmetry_equiv_pos_site_id
 _symmetry_equiv_pos_as_xyz
  1  'x, y, z'
loop_
 _atom_site_type_symbol
 _atom_site_label
 _atom_site_symmetry_multiplicity
 _atom_site_fract_x
 _atom_site_fract_y
 _atom_site_fract_z
 _atom_site_occupancy
  Na  Na0  1  0.75016278  0.75436832  0.71280476  1
  Na  Na1  1  0.25016278  0.24563168  0.78719524  1
  Na  Na2  1  0.74983722  0.25436832  0.28719524  1
  Na  Na3  1  0.24983722  0.74563168  0.21280476  1
  Na  Na4  1  0.24983722  0.24563168  0.28719524  1
  Na  Na5  1  0.74983722  0.75436832  0.21280476  1
  Na  Na6  1  0.25016278  0.74563168  0.71280476  1
  Na  Na7  1  0.75016278  0.25436832  0.78719524  1
  Na  Na8  1  0.00533615  0.50120143  0.76140988  1
  Na  Na9  1  0.50533615  0.49879857  0.73859012  1
  Na  Na10  1  0.49466385  0.00120143  0.23859012  1
  Na  Na11  1  0.99466385  0.99879857  0.26140988  1
  Na  Na12  1  0.99466385  0.49879857  0.23859012  1
  Na  Na13  1  0.49466385  0.50120143  0.26140988  1
  Na  Na14  1  0.50533615  0.99879857  0.76140988  1
  Na  Na15  1  0.00533615  0.00120143  0.73859012  1
  Se  Se16  1  0.07072848  0.62065756  0.56453207  1
  Se  Se17  1  0.00216377  0.25192426  0.72062436  1
  Se  Se18  1  0.50216377  0.74807574  0.77937564  1
  Se  Se19  1  0.49783623  0.75192426  0.27937564  1
  Se  Se20  1  0.99783623  0.24807574  0.22062436  1
  Se  Se21  1  0.99783623  0.74807574  0.27937564  1
  Se  Se22  1  0.49783623  0.25192426  0.22062436  1
  Se  Se23  1  0.50216377  0.24807574  0.72062436  1
  Se  Se24  1  0.00216377  0.75192426  0.77937564  1
  Se  Se25  1  0.75921026  0.99903941  0.79960526  1
  Se  Se26  1  0.25921026  0.00096059  0.70039474  1
  Se  Se27  1  0.74078974  0.49903941  0.20039474  1
  Se  Se28  1  0.24078974  0.50096059  0.29960526  1
  Se  Se29  1  0.24078974  0.00096059  0.20039474  1
  Se  Se30  1  0.74078974  0.99903941  0.29960526  1
  Se  Se31  1  0.25921026  0.50096059  0.79960526  1
  Se  Se32  1  0.75704014  0.63788983  0.93016640  1
  Se  Se33  1  0.25704014  0.36211017  0.56983360  1
  Se  Se34  1  0.74295986  0.13788983  0.06983360  1
  Se  Se35  1  0.24295986  0.86211017  0.43016640  1
  Se  Se36  1  0.24295986  0.36211017  0.06983360  1
  Se  Se37  1  0.74295986  0.63788983  0.43016640  1
  Se  Se38  1  0.25704014  0.86211017  0.93016640  1
  Se  Se39  1  0.75704014  0.13788983  0.56983360  1
  Se  Se40  1  0.90620713  0.87882346  0.55414692  1
  Se  Se41  1  0.40620713  0.12117654  0.94585308  1
  Se  Se42  1  0.59379287  0.37882346  0.44585308  1
  Se  Se43  1  0.09379287  0.62117654  0.05414692  1
  Se  Se44  1  0.57072848  0.37934244  0.93546793  1
  Se  Se45  1  0.59379287  0.87882346  0.05414692  1
  Se  Se46  1  0.40620713  0.62117654  0.55414692  1
  Se  Se47  1  0.90620713  0.37882346  0.94585308  1
  Se  Se48  1  0.57072848  0.87934244  0.56453207  1
  Se  Se49  1  0.07072848  0.12065756  0.93546793  1
  Se  Se50  1  0.92927152  0.37934244  0.43546793  1
  Se  Se51  1  0.42927152  0.62065756  0.06453207  1
  Se  Se52  1  0.42927152  0.12065756  0.43546793  1
  Se  Se53  1  0.92927152  0.87934244  0.06453207  1
  Se  Se54  1  0.75921026  0.49903941  0.70039474  1
  Se  Se55  1  0.09379287  0.12117654  0.44585308  1
  Sn  Sn56  1  0.55637291  0.71887030  0.94562723  1
  Sn  Sn57  1  0.76526054  0.46819819  0.52793742  1
  Sn  Sn58  1  0.26526054  0.53180181  0.97206258  1
  Sn  Sn59  1  0.73473946  0.96819819  0.47206258  1
  Sn  Sn60  1  0.23473946  0.03180181  0.02793742  1
  Sn  Sn61  1  0.23473946  0.53180181  0.47206258  1
  Sn  Sn62  1  0.73473946  0.46819819  0.02793742  1
  Sn  Sn63  1  0.26526054  0.03180181  0.52793742  1
  Sn  Sn64  1  0.76526054  0.96819819  0.97206258  1
  Sn  Sn65  1  0.55637291  0.21887030  0.55437277  1
  Sn  Sn66  1  0.05637291  0.78112970  0.94562723  1
  Sn  Sn67  1  0.94362709  0.71887030  0.44562723  1
  Sn  Sn68  1  0.44362709  0.28112970  0.05437277  1
  Sn  Sn69  1  0.44362709  0.78112970  0.44562723  1
  Sn  Sn70  1  0.94362709  0.21887030  0.05437277  1
  Sn  Sn71  1  0.05637291  0.28112970  0.55437277  1
