# generated using pymatgen
data_CsAlPdF6
_symmetry_space_group_name_H-M   'P 1'
_cell_length_a   7.27979256
_cell_length_b   7.62421147
_cell_length_c   10.44765413
_cell_angle_alpha   90.00000000
_cell_angle_beta   90.00000000
_cell_angle_gamma   90.00000000
_symmetry_Int_Tables_number   1
_chemical_formula_structural   CsAlPdF6
_chemical_formula_sum   'Cs4 Al4 Pd4 F24'
_cell_volume   579.87278236
_cell_formula_units_Z   4
loop_
 _symmetry_equiv_pos_site_id
 _symmetry_equiv_pos_as_xyz
  1  'x, y, z'
loop_
 _atom_site_type_symbol
 _atom_site_label
 _atom_site_symmetry_multiplicity
 _atom_site_fract_x
 _atom_site_fract_y
 _atom_site_fract_z
 _atom_site_occupancy
  F  F0  1  0.97826214  0.32406917  0.38253566  1
  F  F1  1  0.47826214  0.67593083  0.61746434  1
  F  F2  1  0.52173786  0.82406917  0.11746434  1
  F  F3  1  0.02173786  0.17593083  0.88253566  1
  F  F4  1  0.02173786  0.67593083  0.61746434  1
  F  F5  1  0.52173786  0.32406917  0.38253566  1
  F  F6  1  0.47826214  0.17593083  0.88253566  1
  F  F7  1  0.97826214  0.82406917  0.11746434  1
  F  F8  1  0.98371372  0.16298452  0.12724905  1
  F  F9  1  0.48371372  0.83701548  0.87275095  1
  F  F10  1  0.51628628  0.66298452  0.37275095  1
  F  F11  1  0.01628628  0.33701548  0.62724905  1
  F  F12  1  0.75000000  0.99276538  0.35125897  1
  F  F13  1  0.25000000  0.00723462  0.64874103  1
  F  F14  1  0.75000000  0.49276538  0.14874103  1
  F  F15  1  0.25000000  0.50723462  0.85125897  1
  F  F16  1  0.75000000  0.00537641  0.97585967  1
  F  F17  1  0.25000000  0.99462359  0.02414033  1
  F  F18  1  0.75000000  0.50537641  0.52414033  1
  F  F19  1  0.25000000  0.49462359  0.47585967  1
  F  F20  1  0.98371372  0.66298452  0.37275095  1
  F  F21  1  0.48371372  0.33701548  0.62724905  1
  F  F22  1  0.51628628  0.16298452  0.12724905  1
  F  F23  1  0.01628628  0.83701548  0.87275095  1
  Al  Al24  1  0.00000000  0.50000000  0.50000000  1
  Al  Al25  1  0.50000000  0.50000000  0.50000000  1
  Al  Al26  1  0.50000000  0.00000000  0.00000000  1
  Al  Al27  1  0.00000000  0.00000000  0.00000000  1
  Pd  Pd28  1  0.25000000  0.75554755  0.74759137  1
  Pd  Pd29  1  0.75000000  0.24445245  0.25240863  1
  Pd  Pd30  1  0.25000000  0.25554755  0.75240863  1
  Pd  Pd31  1  0.75000000  0.74445245  0.24759137  1
  Cs  Cs32  1  0.25000000  0.99550569  0.36026429  1
  Cs  Cs33  1  0.75000000  0.00449431  0.63973571  1
  Cs  Cs34  1  0.25000000  0.49550569  0.13973571  1
  Cs  Cs35  1  0.75000000  0.50449431  0.86026429  1
