# generated using pymatgen
data_Dy2B4O9
_symmetry_space_group_name_H-M   'P 1'
_cell_length_a   6.19908653
_cell_length_b   6.46645287
_cell_length_c   7.50694287
_cell_angle_alpha   102.29036575
_cell_angle_beta   97.15930780
_cell_angle_gamma   102.36626382
_symmetry_Int_Tables_number   1
_chemical_formula_structural   Dy2B4O9
_chemical_formula_sum   'Dy4 B8 O18'
_cell_volume   282.60089074
_cell_formula_units_Z   2
loop_
 _symmetry_equiv_pos_site_id
 _symmetry_equiv_pos_as_xyz
  1  'x, y, z'
loop_
 _atom_site_type_symbol
 _atom_site_label
 _atom_site_symmetry_multiplicity
 _atom_site_fract_x
 _atom_site_fract_y
 _atom_site_fract_z
 _atom_site_occupancy
  B  B0  1  0.99449504  0.14567898  0.19012550  1
  B  B1  1  0.00550496  0.85432102  0.80987450  1
  B  B2  1  0.37330854  0.64355602  0.34882445  1
  B  B3  1  0.62669146  0.35644398  0.65117555  1
  B  B4  1  0.26949557  0.66624099  0.01836118  1
  B  B5  1  0.73050443  0.33375901  0.98163882  1
  B  B6  1  0.33860862  0.31921961  0.07445872  1
  B  B7  1  0.66139138  0.68078039  0.92554128  1
  O  O8  1  0.57845285  0.81674082  0.44485819  1
  O  O9  1  0.76282129  0.26306827  0.78974809  1
  O  O10  1  0.78108966  0.40447130  0.52291700  1
  O  O11  1  0.21891034  0.59552870  0.47708300  1
  O  O12  1  0.23717871  0.73693173  0.21025191  1
  O  O13  1  0.86044850  0.28209496  0.14345836  1
  O  O14  1  0.53978735  0.53688658  0.74715187  1
  O  O15  1  0.46021265  0.46311342  0.25284813  1
  O  O16  1  0.77338864  0.57072674  0.04093645  1
  O  O17  1  0.22661136  0.42927326  0.95906355  1
  O  O18  1  0.81186930  0.86648441  0.87739817  1
  O  O19  1  0.18813070  0.13351559  0.12260183  1
  O  O20  1  0.07020741  0.95745742  0.67620392  1
  O  O21  1  0.92979259  0.04254258  0.32379608  1
  O  O22  1  0.49523903  0.21061046  0.98157612  1
  O  O23  1  0.50476097  0.78938954  0.01842388  1
  O  O24  1  0.13955150  0.71790504  0.85654164  1
  O  O25  1  0.42154715  0.18325918  0.55514181  1
  Dy  Dy26  1  0.45050212  0.90983256  0.71343800  1
  Dy  Dy27  1  0.54949788  0.09016744  0.28656200  1
  Dy  Dy28  1  0.11443244  0.32448499  0.64180237  1
  Dy  Dy29  1  0.88556756  0.67551501  0.35819763  1
