# generated using pymatgen
data_SrIrO3
_symmetry_space_group_name_H-M   'P 1'
_cell_length_a   5.54589272
_cell_length_b   5.54589273
_cell_length_c   14.48567424
_cell_angle_alpha   90.00009894
_cell_angle_beta   90.00009892
_cell_angle_gamma   118.25803654
_symmetry_Int_Tables_number   1
_chemical_formula_structural   SrIrO3
_chemical_formula_sum   'Sr6 Ir6 O18'
_cell_volume   392.43790715
_cell_formula_units_Z   6
loop_
 _symmetry_equiv_pos_site_id
 _symmetry_equiv_pos_as_xyz
  1  'x, y, z'
loop_
 _atom_site_type_symbol
 _atom_site_label
 _atom_site_symmetry_multiplicity
 _atom_site_fract_x
 _atom_site_fract_y
 _atom_site_fract_z
 _atom_site_occupancy
  O  O0  1  0.20026308  0.27889300  0.40155287  1
  O  O1  1  0.72110700  0.79973692  0.09844713  1
  O  O2  1  0.79973692  0.72110700  0.59844713  1
  O  O3  1  0.27889300  0.20026308  0.90155287  1
  O  O4  1  0.20175155  0.79812111  0.04288625  1
  O  O5  1  0.20187889  0.79824845  0.45711375  1
  O  O6  1  0.79824845  0.20187889  0.95711375  1
  O  O7  1  0.79812111  0.20175155  0.54288625  1
  O  O8  1  0.72038211  0.79834431  0.40184113  1
  O  O9  1  0.20165569  0.27961789  0.09815887  1
  O  O10  1  0.27961789  0.20165569  0.59815887  1
  O  O11  1  0.79834431  0.72038211  0.90184113  1
  O  O12  1  0.51284301  0.48715699  0.75000000  1
  O  O13  1  0.48715699  0.51284301  0.25000000  1
  O  O14  1  0.51864525  0.02435775  0.74990312  1
  O  O15  1  0.97564225  0.48135475  0.75009688  1
  O  O16  1  0.48135475  0.97564225  0.25009688  1
  O  O17  1  0.02435775  0.51864525  0.24990312  1
  Sr  Sr18  1  0.99174066  0.00825934  0.75000000  1
  Sr  Sr19  1  0.00825934  0.99174066  0.25000000  1
  Sr  Sr20  1  0.32312231  0.67625807  0.89190659  1
  Sr  Sr21  1  0.32374193  0.67687769  0.60809341  1
  Sr  Sr22  1  0.67687769  0.32374193  0.10809341  1
  Sr  Sr23  1  0.67625807  0.32312231  0.39190659  1
  Ir  Ir24  1  0.00000000  0.00000000  0.00000000  1
  Ir  Ir25  1  0.00000000  0.00000000  0.50000000  1
  Ir  Ir26  1  0.33922428  0.66113414  0.15199709  1
  Ir  Ir27  1  0.33886586  0.66077572  0.34800291  1
  Ir  Ir28  1  0.66077572  0.33886586  0.84800291  1
  Ir  Ir29  1  0.66113414  0.33922428  0.65199709  1
