# generated using pymatgen
data_Sr(ScTe2)2
_symmetry_space_group_name_H-M   'P 1'
_cell_length_a   4.25894532
_cell_length_b   13.30724019
_cell_length_c   15.47403782
_cell_angle_alpha   90.00000000
_cell_angle_beta   90.00000000
_cell_angle_gamma   90.00000000
_symmetry_Int_Tables_number   1
_chemical_formula_structural   Sr(ScTe2)2
_chemical_formula_sum   'Sr4 Sc8 Te16'
_cell_volume   876.98812753
_cell_formula_units_Z   4
loop_
 _symmetry_equiv_pos_site_id
 _symmetry_equiv_pos_as_xyz
  1  'x, y, z'
loop_
 _atom_site_type_symbol
 _atom_site_label
 _atom_site_symmetry_multiplicity
 _atom_site_fract_x
 _atom_site_fract_y
 _atom_site_fract_z
 _atom_site_occupancy
  Sc  Sc0  1  0.25000000  0.05356827  0.88811160  1
  Sc  Sc1  1  0.75000000  0.94643173  0.11188840  1
  Sc  Sc2  1  0.25000000  0.55356827  0.61188840  1
  Sc  Sc3  1  0.75000000  0.44643173  0.38811160  1
  Sc  Sc4  1  0.75000000  0.91584846  0.59387259  1
  Sc  Sc5  1  0.25000000  0.08415154  0.40612741  1
  Sc  Sc6  1  0.75000000  0.41584846  0.90612741  1
  Sc  Sc7  1  0.25000000  0.58415154  0.09387259  1
  Sr  Sr8  1  0.25000000  0.73827840  0.82652358  1
  Sr  Sr9  1  0.75000000  0.26172160  0.17347642  1
  Sr  Sr10  1  0.25000000  0.23827840  0.67347642  1
  Sr  Sr11  1  0.75000000  0.76172160  0.32652358  1
  Te  Te12  1  0.75000000  0.90730813  0.92650566  1
  Te  Te13  1  0.25000000  0.09269187  0.07349434  1
  Te  Te14  1  0.75000000  0.40730813  0.57349434  1
  Te  Te15  1  0.25000000  0.59269187  0.42650566  1
  Te  Te16  1  0.75000000  0.70200417  0.65723102  1
  Te  Te17  1  0.25000000  0.29799583  0.34276898  1
  Te  Te18  1  0.75000000  0.20200417  0.84276898  1
  Te  Te19  1  0.25000000  0.79799583  0.15723102  1
  Te  Te20  1  0.75000000  0.62440338  0.96768582  1
  Te  Te21  1  0.25000000  0.37559662  0.03231418  1
  Te  Te22  1  0.75000000  0.12440338  0.53231418  1
  Te  Te23  1  0.25000000  0.87559662  0.46768582  1
  Te  Te24  1  0.75000000  0.53193720  0.21415647  1
  Te  Te25  1  0.25000000  0.46806280  0.78584353  1
  Te  Te26  1  0.75000000  0.03193720  0.28584353  1
  Te  Te27  1  0.25000000  0.96806280  0.71415647  1
