# generated using pymatgen
data_Sr2SmNb(CuO4)2
_symmetry_space_group_name_H-M   'P 1'
_cell_length_a   5.52082341
_cell_length_b   5.52082342
_cell_length_c   12.45823079
_cell_angle_alpha   102.80145914
_cell_angle_beta   102.80145913
_cell_angle_gamma   90.00000002
_symmetry_Int_Tables_number   1
_chemical_formula_structural   Sr2SmNb(CuO4)2
_chemical_formula_sum   'Sr4 Sm2 Nb2 Cu4 O16'
_cell_volume   360.59668708
_cell_formula_units_Z   2
loop_
 _symmetry_equiv_pos_site_id
 _symmetry_equiv_pos_as_xyz
  1  'x, y, z'
loop_
 _atom_site_type_symbol
 _atom_site_label
 _atom_site_symmetry_multiplicity
 _atom_site_fract_x
 _atom_site_fract_y
 _atom_site_fract_z
 _atom_site_occupancy
  O  O0  1  0.81941361  0.68058639  0.00000000  1
  O  O1  1  0.31941361  0.81941361  0.00000000  1
  O  O2  1  0.68058639  0.18058639  0.00000000  1
  O  O3  1  0.18058639  0.31941361  0.00000000  1
  O  O4  1  0.93150325  0.94056432  0.37206757  1
  O  O5  1  0.06849675  0.05943568  0.62793243  1
  O  O6  1  0.55943568  0.56849675  0.62793243  1
  O  O7  1  0.05943568  0.55943568  0.62793243  1
  O  O8  1  0.56849675  0.06849675  0.62793243  1
  O  O9  1  0.43150325  0.93150325  0.37206757  1
  O  O10  1  0.94056432  0.44056432  0.37206757  1
  O  O11  1  0.44056432  0.43150325  0.37206757  1
  O  O12  1  0.08380517  0.08380517  0.16761034  1
  O  O13  1  0.41619483  0.41619483  0.83238966  1
  O  O14  1  0.91619483  0.91619483  0.83238966  1
  O  O15  1  0.58380517  0.58380517  0.16761034  1
  Cu  Cu16  1  0.67990997  0.67990997  0.35981994  1
  Cu  Cu17  1  0.82009003  0.82009003  0.64018006  1
  Cu  Cu18  1  0.32009003  0.32009003  0.64018006  1
  Cu  Cu19  1  0.17990997  0.17990997  0.35981994  1
  Sr  Sr20  1  0.09973485  0.59973485  0.19946971  1
  Sr  Sr21  1  0.90026515  0.40026515  0.80053029  1
  Sr  Sr22  1  0.59973485  0.09973485  0.19946971  1
  Sr  Sr23  1  0.40026515  0.90026515  0.80053029  1
  Nb  Nb24  1  0.50000000  0.50000000  0.00000000  1
  Nb  Nb25  1  0.00000000  0.00000000  0.00000000  1
  Sm  Sm26  1  0.75000000  0.25000000  0.50000000  1
  Sm  Sm27  1  0.25000000  0.75000000  0.50000000  1
