# generated using pymatgen
data_Si(Hg2Se3)2
_symmetry_space_group_name_H-M   'P 1'
_cell_length_a   7.63242705
_cell_length_b   7.63242705
_cell_length_c   13.12523956
_cell_angle_alpha   90.40459907
_cell_angle_beta   106.43963903
_cell_angle_gamma   120.07821730
_symmetry_Int_Tables_number   1
_chemical_formula_structural   Si(Hg2Se3)2
_chemical_formula_sum   'Si2 Hg8 Se12'
_cell_volume   624.29325191
_cell_formula_units_Z   2
loop_
 _symmetry_equiv_pos_site_id
 _symmetry_equiv_pos_as_xyz
  1  'x, y, z'
loop_
 _atom_site_type_symbol
 _atom_site_label
 _atom_site_symmetry_multiplicity
 _atom_site_fract_x
 _atom_site_fract_y
 _atom_site_fract_z
 _atom_site_occupancy
  Si  Si0  1  0.46291660  0.67771074  0.60296732  1
  Si  Si1  1  0.42525658  0.14005072  0.10296732  1
  Se  Se2  1  0.20132106  0.54279086  0.23203256  1
  Se  Se3  1  0.18924170  0.03071150  0.73203256  1
  Se  Se4  1  0.58187097  0.99208988  0.55324917  1
  Se  Se5  1  0.06115929  0.97137819  0.05324917  1
  Se  Se6  1  0.57352394  0.97035259  0.05461654  1
  Se  Se7  1  0.58426395  0.48109260  0.55461654  1
  Se  Se8  1  0.53571343  0.70780541  0.78661854  1
  Se  Se9  1  0.57881313  0.25090511  0.28661854  1
  Se  Se10  1  0.94358260  0.42332712  0.85220416  1
  Se  Se11  1  0.92887703  0.90862156  0.35220416  1
  Se  Se12  1  0.09430037  0.47921541  0.52343524  1
  Se  Se13  1  0.54421983  0.42913487  0.02343524  1
  Hg  Hg14  1  0.01716013  0.27511000  0.69100193  1
  Hg  Hg15  1  0.91589193  0.67384179  0.19100193  1
  Hg  Hg16  1  0.94759040  0.79566976  0.84521081  1
  Hg  Hg17  1  0.54954105  0.89762041  0.34521081  1
  Hg  Hg18  1  0.26895619  0.54731089  0.04153953  1
  Hg  Hg19  1  0.99422864  0.77258334  0.54153953  1
  Hg  Hg20  1  0.58697021  0.08162326  0.85762421  1
  Hg  Hg21  1  0.27600095  0.27065400  0.35762421  1
