# generated using pymatgen
data_Sm2TiMnO6
_symmetry_space_group_name_H-M   'P 1'
_cell_length_a   5.46903789
_cell_length_b   5.78272037
_cell_length_c   7.89418244
_cell_angle_alpha   90.00000000
_cell_angle_beta   90.29497075
_cell_angle_gamma   90.00000000
_symmetry_Int_Tables_number   1
_chemical_formula_structural   Sm2TiMnO6
_chemical_formula_sum   'Sm4 Ti2 Mn2 O12'
_cell_volume   249.65744849
_cell_formula_units_Z   2
loop_
 _symmetry_equiv_pos_site_id
 _symmetry_equiv_pos_as_xyz
  1  'x, y, z'
loop_
 _atom_site_type_symbol
 _atom_site_label
 _atom_site_symmetry_multiplicity
 _atom_site_fract_x
 _atom_site_fract_y
 _atom_site_fract_z
 _atom_site_occupancy
  O  O0  1  0.88688301  0.54359963  0.76261294  1
  O  O1  1  0.61311699  0.04359963  0.73738706  1
  O  O2  1  0.11311699  0.45640037  0.23738706  1
  O  O3  1  0.38688301  0.95640037  0.26261294  1
  O  O4  1  0.79276768  0.81583387  0.44594532  1
  O  O5  1  0.70723232  0.31583387  0.05405468  1
  O  O6  1  0.20723232  0.18416613  0.55405468  1
  O  O7  1  0.29276768  0.68416613  0.94594532  1
  O  O8  1  0.18061659  0.21085542  0.93678366  1
  O  O9  1  0.31938341  0.71085542  0.56321634  1
  O  O10  1  0.81938341  0.78914458  0.06321634  1
  O  O11  1  0.68061659  0.28914458  0.43678366  1
  Ti  Ti12  1  0.50000000  0.00000000  0.50000000  1
  Ti  Ti13  1  0.00000000  0.50000000  0.00000000  1
  Mn  Mn14  1  0.00000000  0.50000000  0.50000000  1
  Mn  Mn15  1  0.50000000  0.00000000  0.00000000  1
  Sm  Sm16  1  0.01810760  0.93520574  0.74792844  1
  Sm  Sm17  1  0.48189240  0.43520574  0.75207156  1
  Sm  Sm18  1  0.98189240  0.06479426  0.25207156  1
  Sm  Sm19  1  0.51810760  0.56479426  0.24792844  1
