# generated using pymatgen
data_CrPO4
_symmetry_space_group_name_H-M   'P 1'
_cell_length_a   4.74057262
_cell_length_b   4.74057262
_cell_length_c   6.31542447
_cell_angle_alpha   90.00000000
_cell_angle_beta   90.00000000
_cell_angle_gamma   113.14432248
_symmetry_Int_Tables_number   1
_chemical_formula_structural   CrPO4
_chemical_formula_sum   'Cr2 P2 O8'
_cell_volume   130.50413036
_cell_formula_units_Z   2
loop_
 _symmetry_equiv_pos_site_id
 _symmetry_equiv_pos_as_xyz
  1  'x, y, z'
loop_
 _atom_site_type_symbol
 _atom_site_label
 _atom_site_symmetry_multiplicity
 _atom_site_fract_x
 _atom_site_fract_y
 _atom_site_fract_z
 _atom_site_occupancy
  O  O0  1  0.22173408  0.28701548  0.75000000  1
  O  O1  1  0.77826592  0.71298452  0.25000000  1
  O  O2  1  0.28701548  0.22173408  0.25000000  1
  O  O3  1  0.71298452  0.77826592  0.75000000  1
  O  O4  1  0.24556235  0.75443765  0.95320161  1
  O  O5  1  0.75443765  0.24556235  0.45320161  1
  O  O6  1  0.75443765  0.24556235  0.04679839  1
  O  O7  1  0.24556235  0.75443765  0.54679839  1
  P  P8  1  0.65220612  0.34779388  0.25000000  1
  P  P9  1  0.34779388  0.65220612  0.75000000  1
  Cr  Cr10  1  0.00000000  0.00000000  0.50000000  1
  Cr  Cr11  1  0.00000000  0.00000000  0.00000000  1
