# generated using pymatgen
data_VCrO4
_symmetry_space_group_name_H-M   'P 1'
_cell_length_a   6.73165699
_cell_length_b   6.73165700
_cell_length_c   6.95114113
_cell_angle_alpha   77.28526684
_cell_angle_beta   77.28526682
_cell_angle_gamma   84.21328818
_symmetry_Int_Tables_number   1
_chemical_formula_structural   VCrO4
_chemical_formula_sum   'V4 Cr4 O16'
_cell_volume   299.27879711
_cell_formula_units_Z   4
loop_
 _symmetry_equiv_pos_site_id
 _symmetry_equiv_pos_as_xyz
  1  'x, y, z'
loop_
 _atom_site_type_symbol
 _atom_site_label
 _atom_site_symmetry_multiplicity
 _atom_site_fract_x
 _atom_site_fract_y
 _atom_site_fract_z
 _atom_site_occupancy
  O  O0  1  0.20576102  0.52471229  0.52764258  1
  O  O1  1  0.47528643  0.79423931  0.47235776  1
  O  O2  1  0.79423962  0.47528755  0.47235745  1
  O  O3  1  0.52471267  0.20576054  0.52764260  1
  O  O4  1  0.10749972  0.80175205  0.79972176  1
  O  O5  1  0.19824920  0.89249948  0.20027827  1
  O  O6  1  0.89250092  0.19824779  0.20027826  1
  O  O7  1  0.80175144  0.10750036  0.79972176  1
  O  O8  1  0.86087687  0.86087781  0.54112409  1
  O  O9  1  0.13912223  0.13912204  0.45887482  1
  O  O10  1  0.20699361  0.20699282  0.85949346  1
  O  O11  1  0.79300704  0.79300703  0.14050657  1
  O  O12  1  0.79124312  0.49801994  0.88918584  1
  O  O13  1  0.20875752  0.50197991  0.11081418  1
  O  O14  1  0.50197980  0.20875713  0.11081429  1
  O  O15  1  0.49802084  0.79124272  0.88918573  1
  V  V16  1  0.72578103  0.72578145  0.39849912  1
  V  V17  1  0.27421807  0.27421840  0.60150124  1
  V  V18  1  0.74865583  0.25134494  0.00000038  1
  V  V19  1  0.25134401  0.74865579  0.00000058  1
  Cr  Cr20  1  0.20212314  0.20212219  0.14261939  1
  Cr  Cr21  1  0.79787750  0.79787765  0.85738064  1
  Cr  Cr22  1  0.82089702  0.17910219  0.50000024  1
  Cr  Cr23  1  0.17910208  0.82089765  0.50000012  1
