# generated using pymatgen
data_Ba2GdCu3O7
_symmetry_space_group_name_H-M   'P 1'
_cell_length_a   3.86602704
_cell_length_b   3.93001539
_cell_length_c   11.83802024
_cell_angle_alpha   90.00000000
_cell_angle_beta   90.00000000
_cell_angle_gamma   90.00000000
_symmetry_Int_Tables_number   1
_chemical_formula_structural   Ba2GdCu3O7
_chemical_formula_sum   'Ba2 Gd1 Cu3 O7'
_cell_volume   179.86150229
_cell_formula_units_Z   1
loop_
 _symmetry_equiv_pos_site_id
 _symmetry_equiv_pos_as_xyz
  1  'x, y, z'
loop_
 _atom_site_type_symbol
 _atom_site_label
 _atom_site_symmetry_multiplicity
 _atom_site_fract_x
 _atom_site_fract_y
 _atom_site_fract_z
 _atom_site_occupancy
  O  O0  1  0.00000000  0.00000000  0.84104787  1
  O  O1  1  0.00000000  0.00000000  0.15895213  1
  O  O2  1  0.00000000  0.50000000  0.62347663  1
  O  O3  1  0.00000000  0.50000000  0.37652337  1
  O  O4  1  0.50000000  0.00000000  0.62406337  1
  O  O5  1  0.50000000  0.00000000  0.37593663  1
  O  O6  1  0.00000000  0.50000000  0.00000000  1
  Cu  Cu7  1  0.00000000  0.00000000  0.64841411  1
  Cu  Cu8  1  0.00000000  0.00000000  0.35158589  1
  Cu  Cu9  1  0.00000000  0.00000000  0.00000000  1
  Ba  Ba10  1  0.50000000  0.50000000  0.18066699  1
  Ba  Ba11  1  0.50000000  0.50000000  0.81933301  1
  Gd  Gd12  1  0.50000000  0.50000000  0.50000000  1
