# generated using pymatgen
data_Dy3Co6Sn5
_symmetry_space_group_name_H-M   'P 1'
_cell_length_a   4.31702901
_cell_length_b   8.11491671
_cell_length_c   8.11491671
_cell_angle_alpha   72.66944265
_cell_angle_beta   74.57400928
_cell_angle_gamma   74.57400925
_symmetry_Int_Tables_number   1
_chemical_formula_structural   Dy3Co6Sn5
_chemical_formula_sum   'Dy3 Co6 Sn5'
_cell_volume   256.15782564
_cell_formula_units_Z   1
loop_
 _symmetry_equiv_pos_site_id
 _symmetry_equiv_pos_as_xyz
  1  'x, y, z'
loop_
 _atom_site_type_symbol
 _atom_site_label
 _atom_site_symmetry_multiplicity
 _atom_site_fract_x
 _atom_site_fract_y
 _atom_site_fract_z
 _atom_site_occupancy
  Co  Co0  1  0.89262842  0.38024518  0.83449798  1
  Co  Co1  1  0.10737158  0.61975482  0.16550202  1
  Co  Co2  1  0.89262842  0.83449798  0.38024518  1
  Co  Co3  1  0.50000000  0.69546193  0.30453807  1
  Co  Co4  1  0.50000000  0.30453807  0.69546193  1
  Co  Co5  1  0.10737158  0.16550202  0.61975482  1
  Sn  Sn6  1  0.67686609  0.98209675  0.66417107  1
  Sn  Sn7  1  0.32313391  0.33582893  0.01790325  1
  Sn  Sn8  1  0.67686609  0.66417107  0.98209675  1
  Sn  Sn9  1  0.00000000  0.50000000  0.50000000  1
  Sn  Sn10  1  0.32313391  0.01790325  0.33582893  1
  Dy  Dy11  1  0.68218299  0.31781701  0.31781701  1
  Dy  Dy12  1  0.31781701  0.68218299  0.68218299  1
  Dy  Dy13  1  0.00000000  0.00000000  0.00000000  1
