# generated using pymatgen
data_BaGd2PtO5
_symmetry_space_group_name_H-M   'P 1'
_cell_length_a   5.96272120
_cell_length_b   6.68901929
_cell_length_c   6.68901929
_cell_angle_alpha   90.00000000
_cell_angle_beta   90.00000000
_cell_angle_gamma   90.00000000
_symmetry_Int_Tables_number   1
_chemical_formula_structural   BaGd2PtO5
_chemical_formula_sum   'Ba2 Gd4 Pt2 O10'
_cell_volume   266.78990980
_cell_formula_units_Z   2
loop_
 _symmetry_equiv_pos_site_id
 _symmetry_equiv_pos_as_xyz
  1  'x, y, z'
loop_
 _atom_site_type_symbol
 _atom_site_label
 _atom_site_symmetry_multiplicity
 _atom_site_fract_x
 _atom_site_fract_y
 _atom_site_fract_z
 _atom_site_occupancy
  O  O0  1  0.50000000  0.50000000  0.50000000  1
  O  O1  1  0.50000000  0.00000000  0.00000000  1
  O  O2  1  0.25805122  0.63994274  0.13994274  1
  O  O3  1  0.25805122  0.36005726  0.86005726  1
  O  O4  1  0.25805122  0.13994274  0.36005726  1
  O  O5  1  0.25805122  0.86005726  0.63994274  1
  O  O6  1  0.74194878  0.63994274  0.13994274  1
  O  O7  1  0.74194878  0.86005726  0.63994274  1
  O  O8  1  0.74194878  0.36005726  0.86005726  1
  O  O9  1  0.74194878  0.13994274  0.36005726  1
  Ba  Ba10  1  0.00000000  0.00000000  0.00000000  1
  Ba  Ba11  1  0.00000000  0.50000000  0.50000000  1
  Gd  Gd12  1  0.50000000  0.67549746  0.82450254  1
  Gd  Gd13  1  0.50000000  0.17549746  0.67549746  1
  Gd  Gd14  1  0.50000000  0.82450254  0.32450254  1
  Gd  Gd15  1  0.50000000  0.32450254  0.17549746  1
  Pt  Pt16  1  0.00000000  0.00000000  0.50000000  1
  Pt  Pt17  1  0.00000000  0.50000000  0.00000000  1
