# generated using pymatgen
data_BaMnV2(AgO4)2
_symmetry_space_group_name_H-M   'P 1'
_cell_length_a   5.63470046
_cell_length_b   5.63470046
_cell_length_c   7.47257944
_cell_angle_alpha   90.00000000
_cell_angle_beta   90.00000000
_cell_angle_gamma   120.00000004
_symmetry_Int_Tables_number   1
_chemical_formula_structural   BaMnV2(AgO4)2
_chemical_formula_sum   'Ba1 Mn1 V2 Ag2 O8'
_cell_volume   205.46735948
_cell_formula_units_Z   1
loop_
 _symmetry_equiv_pos_site_id
 _symmetry_equiv_pos_as_xyz
  1  'x, y, z'
loop_
 _atom_site_type_symbol
 _atom_site_label
 _atom_site_symmetry_multiplicity
 _atom_site_fract_x
 _atom_site_fract_y
 _atom_site_fract_z
 _atom_site_occupancy
  O  O0  1  0.66666667  0.33333333  0.01949256  1
  O  O1  1  0.33333333  0.66666667  0.98050744  1
  O  O2  1  0.74718308  0.66530178  0.31829224  1
  O  O3  1  0.91811870  0.25281692  0.31829224  1
  O  O4  1  0.33469822  0.08188130  0.31829224  1
  O  O5  1  0.25281692  0.33469822  0.68170776  1
  O  O6  1  0.66530178  0.91811870  0.68170776  1
  O  O7  1  0.08188130  0.74718308  0.68170776  1
  V  V8  1  0.66666667  0.33333333  0.24821610  1
  V  V9  1  0.33333333  0.66666667  0.75178390  1
  Mn  Mn10  1  0.00000000  0.00000000  0.50000000  1
  Ag  Ag11  1  0.33333333  0.66666667  0.30900097  1
  Ag  Ag12  1  0.66666667  0.33333333  0.69099903  1
  Ba  Ba13  1  0.00000000  0.00000000  0.00000000  1
