# generated using pymatgen
data_Sr2CaTlCu2O7
_symmetry_space_group_name_H-M   'P 1'
_cell_length_a   3.78195810
_cell_length_b   3.78195810
_cell_length_c   12.29058513
_cell_angle_alpha   90.00000000
_cell_angle_beta   90.00000000
_cell_angle_gamma   90.00000000
_symmetry_Int_Tables_number   1
_chemical_formula_structural   Sr2CaTlCu2O7
_chemical_formula_sum   'Sr2 Ca1 Tl1 Cu2 O7'
_cell_volume   175.79478413
_cell_formula_units_Z   1
loop_
 _symmetry_equiv_pos_site_id
 _symmetry_equiv_pos_as_xyz
  1  'x, y, z'
loop_
 _atom_site_type_symbol
 _atom_site_label
 _atom_site_symmetry_multiplicity
 _atom_site_fract_x
 _atom_site_fract_y
 _atom_site_fract_z
 _atom_site_occupancy
  O  O0  1  0.50000000  0.00000000  0.62813623  1
  O  O1  1  0.00000000  0.50000000  0.62813623  1
  O  O2  1  0.50000000  0.00000000  0.37186377  1
  O  O3  1  0.00000000  0.50000000  0.37186377  1
  O  O4  1  0.00000000  0.00000000  0.82790274  1
  O  O5  1  0.00000000  0.00000000  0.17209726  1
  O  O6  1  0.50000000  0.50000000  0.00000000  1
  Ca  Ca7  1  0.50000000  0.50000000  0.50000000  1
  Cu  Cu8  1  0.00000000  0.00000000  0.35682306  1
  Cu  Cu9  1  0.00000000  0.00000000  0.64317694  1
  Sr  Sr10  1  0.50000000  0.50000000  0.20906548  1
  Sr  Sr11  1  0.50000000  0.50000000  0.79093452  1
  Tl  Tl12  1  0.00000000  0.00000000  0.00000000  1
