# generated using pymatgen
data_DyGe3
_symmetry_space_group_name_H-M   'P 1'
_cell_length_a   3.94546460
_cell_length_b   4.03010717
_cell_length_c   10.69278496
_cell_angle_alpha   100.86233515
_cell_angle_beta   90.00000000
_cell_angle_gamma   90.00000000
_symmetry_Int_Tables_number   1
_chemical_formula_structural   DyGe3
_chemical_formula_sum   'Dy2 Ge6'
_cell_volume   166.97585926
_cell_formula_units_Z   2
loop_
 _symmetry_equiv_pos_site_id
 _symmetry_equiv_pos_as_xyz
  1  'x, y, z'
loop_
 _atom_site_type_symbol
 _atom_site_label
 _atom_site_symmetry_multiplicity
 _atom_site_fract_x
 _atom_site_fract_y
 _atom_site_fract_z
 _atom_site_occupancy
  Dy  Dy0  1  0.75000000  0.41730635  0.83461270  1
  Dy  Dy1  1  0.25000000  0.58269365  0.16538730  1
  Ge  Ge2  1  0.75000000  0.69136260  0.38272521  1
  Ge  Ge3  1  0.25000000  0.96105687  0.92211374  1
  Ge  Ge4  1  0.75000000  0.81047911  0.62095823  1
  Ge  Ge5  1  0.75000000  0.03894313  0.07788626  1
  Ge  Ge6  1  0.25000000  0.30863740  0.61727479  1
  Ge  Ge7  1  0.25000000  0.18952089  0.37904177  1
