# generated using pymatgen
data_Bi2CO5
_symmetry_space_group_name_H-M   'P 1'
_cell_length_a   4.55734241
_cell_length_b   3.59749581
_cell_length_c   7.52268339
_cell_angle_alpha   103.83173527
_cell_angle_beta   107.63227033
_cell_angle_gamma   90.00000003
_symmetry_Int_Tables_number   1
_chemical_formula_structural   Bi2CO5
_chemical_formula_sum   'Bi2 C1 O5'
_cell_volume   113.78188017
_cell_formula_units_Z   1
loop_
 _symmetry_equiv_pos_site_id
 _symmetry_equiv_pos_as_xyz
  1  'x, y, z'
loop_
 _atom_site_type_symbol
 _atom_site_label
 _atom_site_symmetry_multiplicity
 _atom_site_fract_x
 _atom_site_fract_y
 _atom_site_fract_z
 _atom_site_occupancy
  C  C0  1  0.34105128  0.34115464  0.68210256  1
  O  O1  1  0.43409023  0.43423796  0.86818045  1
  O  O2  1  0.53699027  0.29359017  0.58715889  1
  O  O3  1  0.58942246  0.08940704  0.17884492  1
  O  O4  1  0.11449606  0.61445223  0.22899212  1
  O  O5  1  0.05016862  0.29359017  0.58715889  1
  Bi  Bi6  1  0.69535887  0.69514347  0.39071774  1
  Bi  Bi7  1  0.01975221  0.01975432  0.03950442  1
