# generated using pymatgen
data_SmSnPt
_symmetry_space_group_name_H-M   'P 1'
_cell_length_a   4.61687648
_cell_length_b   7.38493653
_cell_length_c   8.10256358
_cell_angle_alpha   90.00000000
_cell_angle_beta   90.00000000
_cell_angle_gamma   90.00000000
_symmetry_Int_Tables_number   1
_chemical_formula_structural   SmSnPt
_chemical_formula_sum   'Sm4 Sn4 Pt4'
_cell_volume   276.25965828
_cell_formula_units_Z   4
loop_
 _symmetry_equiv_pos_site_id
 _symmetry_equiv_pos_as_xyz
  1  'x, y, z'
loop_
 _atom_site_type_symbol
 _atom_site_label
 _atom_site_symmetry_multiplicity
 _atom_site_fract_x
 _atom_site_fract_y
 _atom_site_fract_z
 _atom_site_occupancy
  Sn  Sn0  1  0.25000000  0.67849920  0.41599591  1
  Sn  Sn1  1  0.25000000  0.17849920  0.08400409  1
  Sn  Sn2  1  0.75000000  0.32150080  0.58400409  1
  Sn  Sn3  1  0.75000000  0.82150080  0.91599591  1
  Sm  Sm4  1  0.75000000  0.48878455  0.19650900  1
  Sm  Sm5  1  0.25000000  0.01121545  0.69650900  1
  Sm  Sm6  1  0.75000000  0.98878455  0.30349100  1
  Sm  Sm7  1  0.25000000  0.51121545  0.80349100  1
  Pt  Pt8  1  0.25000000  0.78707730  0.09069567  1
  Pt  Pt9  1  0.25000000  0.28707730  0.40930433  1
  Pt  Pt10  1  0.75000000  0.71292270  0.59069567  1
  Pt  Pt11  1  0.75000000  0.21292270  0.90930433  1
