# generated using pymatgen
data_InCu(PSe3)2
_symmetry_space_group_name_H-M   'P 1'
_cell_length_a   6.45003391
_cell_length_b   6.45003391
_cell_length_c   13.98890993
_cell_angle_alpha   90.00000000
_cell_angle_beta   90.00000000
_cell_angle_gamma   120.00000004
_symmetry_Int_Tables_number   1
_chemical_formula_structural   InCu(PSe3)2
_chemical_formula_sum   'In2 Cu2 P4 Se12'
_cell_volume   504.00924326
_cell_formula_units_Z   2
loop_
 _symmetry_equiv_pos_site_id
 _symmetry_equiv_pos_as_xyz
  1  'x, y, z'
loop_
 _atom_site_type_symbol
 _atom_site_label
 _atom_site_symmetry_multiplicity
 _atom_site_fract_x
 _atom_site_fract_y
 _atom_site_fract_z
 _atom_site_occupancy
  P  P0  1  0.33333333  0.66666667  0.33105606  1
  P  P1  1  0.33333333  0.66666667  0.16894394  1
  P  P2  1  0.66666667  0.33333333  0.66894394  1
  P  P3  1  0.66666667  0.33333333  0.83105606  1
  Cu  Cu4  1  0.33333333  0.66666667  0.75000000  1
  Cu  Cu5  1  0.66666667  0.33333333  0.25000000  1
  Se  Se6  1  0.35010201  0.34314495  0.12732269  1
  Se  Se7  1  0.64989799  0.99304293  0.62732269  1
  Se  Se8  1  0.99304293  0.64989799  0.12732269  1
  Se  Se9  1  0.65685505  0.00695707  0.12732269  1
  Se  Se10  1  0.35010201  0.00695707  0.37267731  1
  Se  Se11  1  0.65685505  0.64989799  0.37267731  1
  Se  Se12  1  0.99304293  0.34314495  0.37267731  1
  Se  Se13  1  0.34314495  0.35010201  0.62732269  1
  Se  Se14  1  0.64989799  0.65685505  0.87267731  1
  Se  Se15  1  0.34314495  0.99304293  0.87267731  1
  Se  Se16  1  0.00695707  0.35010201  0.87267731  1
  Se  Se17  1  0.00695707  0.65685505  0.62732269  1
  In  In18  1  0.00000000  0.00000000  0.75000000  1
  In  In19  1  0.00000000  0.00000000  0.25000000  1
