# generated using pymatgen
data_AlH18Ru(NF)6
_symmetry_space_group_name_H-M   'P 1'
_cell_length_a   10.07421491
_cell_length_b   10.07421491
_cell_length_c   10.07421491
_cell_angle_alpha   90.00000000
_cell_angle_beta   90.00000000
_cell_angle_gamma   90.00000000
_symmetry_Int_Tables_number   1
_chemical_formula_structural   AlH18Ru(NF)6
_chemical_formula_sum   'Al4 H72 Ru4 N24 F24'
_cell_volume   1022.43011735
_cell_formula_units_Z   4
loop_
 _symmetry_equiv_pos_site_id
 _symmetry_equiv_pos_as_xyz
  1  'x, y, z'
loop_
 _atom_site_type_symbol
 _atom_site_label
 _atom_site_symmetry_multiplicity
 _atom_site_fract_x
 _atom_site_fract_y
 _atom_site_fract_z
 _atom_site_occupancy
  H  H0  1  0.89605226  0.24237685  0.44810870  1
  H  H1  1  0.39605226  0.25762315  0.55189130  1
  H  H2  1  0.10394774  0.74237685  0.05189130  1
  H  H3  1  0.25762315  0.55189130  0.39605226  1
  H  H4  1  0.05189130  0.10394774  0.74237685  1
  H  H5  1  0.55189130  0.39605226  0.25762315  1
  H  H6  1  0.24237685  0.44810870  0.89605226  1
  H  H7  1  0.44810870  0.89605226  0.24237685  1
  H  H8  1  0.74237685  0.05189130  0.10394774  1
  H  H9  1  0.75762315  0.94810870  0.60394774  1
  H  H10  1  0.94810870  0.60394774  0.75762315  1
  H  H11  1  0.60394774  0.75762315  0.94810870  1
  H  H12  1  0.10394774  0.75762315  0.55189130  1
  H  H13  1  0.60394774  0.74237685  0.44810870  1
  H  H14  1  0.89605226  0.25762315  0.94810870  1
  H  H15  1  0.74237685  0.44810870  0.60394774  1
  H  H16  1  0.94810870  0.89605226  0.25762315  1
  H  H17  1  0.44810870  0.60394774  0.74237685  1
  H  H18  1  0.75762315  0.55189130  0.10394774  1
  H  H19  1  0.55189130  0.10394774  0.75762315  1
  H  H20  1  0.25762315  0.94810870  0.89605226  1
  H  H21  1  0.24237685  0.05189130  0.39605226  1
  H  H22  1  0.05189130  0.39605226  0.24237685  1
  H  H23  1  0.39605226  0.24237685  0.05189130  1
  H  H24  1  0.77379994  0.13293632  0.45726379  1
  H  H25  1  0.27379994  0.36706368  0.54273621  1
  H  H26  1  0.22620006  0.63293632  0.04273621  1
  H  H27  1  0.36706368  0.54273621  0.27379994  1
  H  H28  1  0.04273621  0.22620006  0.63293632  1
  H  H29  1  0.54273621  0.27379994  0.36706368  1
  H  H30  1  0.13293632  0.45726379  0.77379994  1
  H  H31  1  0.64242049  0.17863991  0.12945122  1
  H  H32  1  0.45726379  0.77379994  0.13293632  1
  H  H33  1  0.86706368  0.95726379  0.72620006  1
  H  H34  1  0.95726379  0.72620006  0.86706368  1
  H  H35  1  0.72620006  0.86706368  0.95726379  1
  H  H36  1  0.22620006  0.86706368  0.54273621  1
  H  H37  1  0.72620006  0.63293632  0.45726379  1
  H  H38  1  0.77379994  0.36706368  0.95726379  1
  H  H39  1  0.63293632  0.45726379  0.72620006  1
  H  H40  1  0.95726379  0.77379994  0.36706368  1
  H  H41  1  0.45726379  0.72620006  0.63293632  1
  H  H42  1  0.86706368  0.54273621  0.22620006  1
  H  H43  1  0.54273621  0.22620006  0.86706368  1
  H  H44  1  0.36706368  0.95726379  0.77379994  1
  H  H45  1  0.13293632  0.04273621  0.27379994  1
  H  H46  1  0.04273621  0.27379994  0.13293632  1
  H  H47  1  0.27379994  0.13293632  0.04273621  1
  H  H48  1  0.87054878  0.14242049  0.32136009  1
  H  H49  1  0.37054878  0.35757951  0.67863991  1
  H  H50  1  0.12945122  0.64242049  0.17863991  1
  H  H51  1  0.35757951  0.67863991  0.37054878  1
  H  H52  1  0.17863991  0.12945122  0.64242049  1
  H  H53  1  0.67863991  0.37054878  0.35757951  1
  H  H54  1  0.14242049  0.32136009  0.87054878  1
  H  H55  1  0.32136009  0.87054878  0.14242049  1
  H  H56  1  0.37054878  0.14242049  0.17863991  1
  H  H57  1  0.17863991  0.37054878  0.14242049  1
  H  H58  1  0.14242049  0.17863991  0.37054878  1
  H  H59  1  0.35757951  0.82136009  0.87054878  1
  H  H60  1  0.67863991  0.12945122  0.85757951  1
  H  H61  1  0.85757951  0.67863991  0.12945122  1
  H  H62  1  0.32136009  0.62945122  0.64242049  1
  H  H63  1  0.82136009  0.87054878  0.35757951  1
  H  H64  1  0.64242049  0.32136009  0.62945122  1
  H  H65  1  0.87054878  0.35757951  0.82136009  1
  H  H66  1  0.62945122  0.64242049  0.32136009  1
  H  H67  1  0.12945122  0.85757951  0.67863991  1
  H  H68  1  0.62945122  0.85757951  0.82136009  1
  H  H69  1  0.82136009  0.62945122  0.85757951  1
  H  H70  1  0.85757951  0.82136009  0.62945122  1
  H  H71  1  0.63293632  0.04273621  0.22620006  1
  N  N72  1  0.86965526  0.14681986  0.42344668  1
  N  N73  1  0.36965526  0.35318014  0.57655332  1
  N  N74  1  0.13034474  0.64681986  0.07655332  1
  N  N75  1  0.35318014  0.57655332  0.36965526  1
  N  N76  1  0.07655332  0.13034474  0.64681986  1
  N  N77  1  0.57655332  0.36965526  0.35318014  1
  N  N78  1  0.14681986  0.42344668  0.86965526  1
  N  N79  1  0.42344668  0.86965526  0.14681986  1
  N  N80  1  0.64681986  0.07655332  0.13034474  1
  N  N81  1  0.85318014  0.92344668  0.63034474  1
  N  N82  1  0.92344668  0.63034474  0.85318014  1
  N  N83  1  0.63034474  0.85318014  0.92344668  1
  N  N84  1  0.13034474  0.85318014  0.57655332  1
  N  N85  1  0.63034474  0.64681986  0.42344668  1
  N  N86  1  0.86965526  0.35318014  0.92344668  1
  N  N87  1  0.64681986  0.42344668  0.63034474  1
  N  N88  1  0.92344668  0.86965526  0.35318014  1
  N  N89  1  0.42344668  0.63034474  0.64681986  1
  N  N90  1  0.85318014  0.57655332  0.13034474  1
  N  N91  1  0.57655332  0.13034474  0.85318014  1
  N  N92  1  0.35318014  0.92344668  0.86965526  1
  N  N93  1  0.14681986  0.07655332  0.36965526  1
  N  N94  1  0.07655332  0.36965526  0.14681986  1
  N  N95  1  0.36965526  0.14681986  0.07655332  1
  F  F96  1  0.61388019  0.13017945  0.56009693  1
  F  F97  1  0.11388019  0.36982055  0.43990307  1
  F  F98  1  0.38611981  0.63017945  0.93990307  1
  F  F99  1  0.36982055  0.43990307  0.11388019  1
  F  F100  1  0.93990307  0.38611981  0.63017945  1
  F  F101  1  0.43990307  0.11388019  0.36982055  1
  F  F102  1  0.13017945  0.56009693  0.61388019  1
  F  F103  1  0.56009693  0.61388019  0.13017945  1
  F  F104  1  0.63017945  0.93990307  0.38611981  1
  F  F105  1  0.86982055  0.06009693  0.88611981  1
  F  F106  1  0.06009693  0.88611981  0.86982055  1
  F  F107  1  0.88611981  0.86982055  0.06009693  1
  F  F108  1  0.38611981  0.86982055  0.43990307  1
  F  F109  1  0.88611981  0.63017945  0.56009693  1
  F  F110  1  0.61388019  0.36982055  0.06009693  1
  F  F111  1  0.63017945  0.56009693  0.88611981  1
  F  F112  1  0.06009693  0.61388019  0.36982055  1
  F  F113  1  0.56009693  0.88611981  0.63017945  1
  F  F114  1  0.86982055  0.43990307  0.38611981  1
  F  F115  1  0.43990307  0.38611981  0.86982055  1
  F  F116  1  0.36982055  0.06009693  0.61388019  1
  F  F117  1  0.13017945  0.93990307  0.11388019  1
  F  F118  1  0.93990307  0.11388019  0.13017945  1
  F  F119  1  0.11388019  0.13017945  0.93990307  1
  Al  Al120  1  0.00000000  0.50000000  0.50000000  1
  Al  Al121  1  0.50000000  0.50000000  0.00000000  1
  Al  Al122  1  0.50000000  0.00000000  0.50000000  1
  Al  Al123  1  0.00000000  0.00000000  0.00000000  1
  Ru  Ru124  1  0.50000000  0.00000000  0.00000000  1
  Ru  Ru125  1  0.00000000  0.00000000  0.50000000  1
  Ru  Ru126  1  0.00000000  0.50000000  0.00000000  1
  Ru  Ru127  1  0.50000000  0.50000000  0.50000000  1
