# generated using pymatgen
data_Ba7(ClF6)2
_symmetry_space_group_name_H-M   'P 1'
_cell_length_a   4.23552361
_cell_length_b   10.79948945
_cell_length_c   10.79946452
_cell_angle_alpha   120.00016271
_cell_angle_beta   90.00000000
_cell_angle_gamma   90.00000000
_symmetry_Int_Tables_number   1
_chemical_formula_structural   Ba7(ClF6)2
_chemical_formula_sum   'Ba7 Cl2 F12'
_cell_volume   427.80166720
_cell_formula_units_Z   1
loop_
 _symmetry_equiv_pos_site_id
 _symmetry_equiv_pos_as_xyz
  1  'x, y, z'
loop_
 _atom_site_type_symbol
 _atom_site_label
 _atom_site_symmetry_multiplicity
 _atom_site_fract_x
 _atom_site_fract_y
 _atom_site_fract_z
 _atom_site_occupancy
  Ba  Ba0  1  0.50000000  0.88768919  0.60013900  1
  Ba  Ba1  1  0.50000000  0.39986009  0.28755269  1
  Ba  Ba2  1  0.50000000  0.71244411  0.11230510  1
  Ba  Ba3  1  0.00000000  0.30228629  0.89139706  1
  Ba  Ba4  1  0.00000000  0.10860826  0.41088994  1
  Ba  Ba5  1  0.00000000  0.58911242  0.69771728  1
  Ba  Ba6  1  0.00000000  1.00000000  0.99999984  1
  Cl  Cl7  1  0.50000000  0.33339164  0.66669636  1
  Cl  Cl8  1  0.00000000  0.66660806  0.33330414  1
  F  F9  1  0.50000000  0.61145974  0.56314552  1
  F  F10  1  0.50000000  0.43685311  0.04831107  1
  F  F11  1  0.50000000  0.95168729  0.38854238  1
  F  F12  1  0.50000000  0.09573003  0.88094511  1
  F  F13  1  0.50000000  0.11905312  0.21478490  1
  F  F14  1  0.50000000  0.78521679  0.90427019  1
  F  F15  1  0.00000000  0.06379334  0.63361973  1
  F  F16  1  0.00000000  0.36637781  0.43017222  1
  F  F17  1  0.00000000  0.56982843  0.93620832  1
  F  F18  1  0.00000000  0.84471237  0.72360245  1
  F  F19  1  0.00000000  0.27639522  0.12110640  1
  F  F20  1  0.00000000  0.87889270  0.15529029  1
