# generated using pymatgen
data_Cu8O
_symmetry_space_group_name_H-M   'P 1'
_cell_length_a   4.41785263
_cell_length_b   4.41785216
_cell_length_c   5.43657640
_cell_angle_alpha   90.00000000
_cell_angle_beta   90.00000000
_cell_angle_gamma   91.31703164
_symmetry_Int_Tables_number   1
_chemical_formula_structural   Cu8O
_chemical_formula_sum   'Cu8 O1'
_cell_volume   106.07991223
_cell_formula_units_Z   1
loop_
 _symmetry_equiv_pos_site_id
 _symmetry_equiv_pos_as_xyz
  1  'x, y, z'
loop_
 _atom_site_type_symbol
 _atom_site_label
 _atom_site_symmetry_multiplicity
 _atom_site_fract_x
 _atom_site_fract_y
 _atom_site_fract_z
 _atom_site_occupancy
  Cu  Cu0  1  0.39897937  0.17683984  0.50000000  1
  Cu  Cu1  1  0.82316016  0.60102063  0.50000000  1
  Cu  Cu2  1  0.42366907  0.19993271  0.00000000  1
  Cu  Cu3  1  0.80006729  0.57633093  0.00000000  1
  Cu  Cu4  1  0.88530097  0.11469903  0.27283692  1
  Cu  Cu5  1  0.88530097  0.11469903  0.72716308  1
  Cu  Cu6  1  0.33702986  0.66297014  0.72829879  1
  Cu  Cu7  1  0.33702986  0.66297014  0.27170121  1
  O  O8  1  0.10946346  0.89053654  0.00000000  1
