# generated using pymatgen
data_UCr2O6
_symmetry_space_group_name_H-M   'P 1'
_cell_length_a   5.10293115
_cell_length_b   5.10293115
_cell_length_c   4.63295824
_cell_angle_alpha   90.00000000
_cell_angle_beta   90.00000000
_cell_angle_gamma   119.99999995
_symmetry_Int_Tables_number   1
_chemical_formula_structural   UCr2O6
_chemical_formula_sum   'U1 Cr2 O6'
_cell_volume   104.47886232
_cell_formula_units_Z   1
loop_
 _symmetry_equiv_pos_site_id
 _symmetry_equiv_pos_as_xyz
  1  'x, y, z'
loop_
 _atom_site_type_symbol
 _atom_site_label
 _atom_site_symmetry_multiplicity
 _atom_site_fract_x
 _atom_site_fract_y
 _atom_site_fract_z
 _atom_site_occupancy
  O  O0  1  0.33768571  0.33768432  0.73612604  1
  O  O1  1  0.66231379  0.00000000  0.73612604  1
  O  O2  1  0.99999946  0.66231470  0.73612604  1
  O  O3  1  0.33768511  0.00000000  0.26387422  1
  O  O4  1  0.66231524  0.66231470  0.26387422  1
  O  O5  1  0.99999861  0.33768432  0.26387422  1
  Cr  Cr6  1  0.66666595  0.33333301  0.50000013  1
  Cr  Cr7  1  0.33333301  0.66666601  0.50000013  1
  U  U8  1  0.00000000  0.00000000  0.00000000  1
