# generated using pymatgen
data_Mg3P2(HO)16
_symmetry_space_group_name_H-M   'P 1'
_cell_length_a   4.69417531
_cell_length_b   8.42353577
_cell_length_c   8.42353577
_cell_angle_alpha   105.76791012
_cell_angle_beta   99.21234854
_cell_angle_gamma   99.21234847
_symmetry_Int_Tables_number   1
_chemical_formula_structural   Mg3P2(HO)16
_chemical_formula_sum   'Mg3 P2 H16 O16'
_cell_volume   309.05901498
_cell_formula_units_Z   1
loop_
 _symmetry_equiv_pos_site_id
 _symmetry_equiv_pos_as_xyz
  1  'x, y, z'
loop_
 _atom_site_type_symbol
 _atom_site_label
 _atom_site_symmetry_multiplicity
 _atom_site_fract_x
 _atom_site_fract_y
 _atom_site_fract_z
 _atom_site_occupancy
  H  H0  1  0.71221704  0.17928759  0.74102758  1
  H  H1  1  0.28778296  0.25897242  0.82071241  1
  H  H2  1  0.28778296  0.82071241  0.25897242  1
  H  H3  1  0.71221704  0.74102758  0.17928759  1
  H  H4  1  0.51101365  0.17934460  0.56723583  1
  H  H5  1  0.51101365  0.56723583  0.17934460  1
  H  H6  1  0.96083570  0.06558551  0.31347802  1
  H  H7  1  0.03916430  0.68652198  0.93441449  1
  H  H8  1  0.03916430  0.93441449  0.68652198  1
  H  H9  1  0.96083570  0.31347802  0.06558551  1
  H  H10  1  0.64037106  0.04410952  0.20594342  1
  H  H11  1  0.35962894  0.79405658  0.95589048  1
  H  H12  1  0.35962894  0.95589048  0.79405658  1
  H  H13  1  0.64037106  0.20594342  0.04410952  1
  H  H14  1  0.48898635  0.43276417  0.82065540  1
  H  H15  1  0.48898635  0.82065540  0.43276417  1
  O  O16  1  0.81123592  0.98660768  0.21253290  1
  O  O17  1  0.71439283  0.62469932  0.18061169  1
  O  O18  1  0.28560717  0.81938831  0.37530068  1
  O  O19  1  0.28560717  0.37530068  0.81938831  1
  O  O20  1  0.71439283  0.18061169  0.62469932  1
  O  O21  1  0.81123592  0.21253290  0.98660768  1
  O  O22  1  0.77174909  0.75458545  0.56146012  1
  O  O23  1  0.22825091  0.43853988  0.24541455  1
  O  O24  1  0.22825091  0.24541455  0.43853988  1
  O  O25  1  0.77174909  0.56146012  0.75458545  1
  O  O26  1  0.71407963  0.39758701  0.39758701  1
  O  O27  1  0.28592037  0.60241299  0.60241299  1
  O  O28  1  0.38102768  0.15791500  0.15791500  1
  O  O29  1  0.61897232  0.84208500  0.84208500  1
  O  O30  1  0.18876408  0.78746710  0.01339232  1
  O  O31  1  0.18876408  0.01339232  0.78746710  1
  Mg  Mg32  1  0.00000000  0.00000000  0.00000000  1
  Mg  Mg33  1  0.00000000  0.61049625  0.38950375  1
  Mg  Mg34  1  0.00000000  0.38950375  0.61049625  1
  P  P35  1  0.61391910  0.68649992  0.68649992  1
  P  P36  1  0.38608090  0.31350008  0.31350008  1
