# generated using pymatgen
data_MgH8SO8
_symmetry_space_group_name_H-M   'P 1'
_cell_length_a   6.00944464
_cell_length_b   7.93372595
_cell_length_c   13.64622590
_cell_angle_alpha   90.00000000
_cell_angle_beta   90.00000000
_cell_angle_gamma   90.70092617
_symmetry_Int_Tables_number   1
_chemical_formula_structural   MgH8SO8
_chemical_formula_sum   'Mg4 H32 S4 O32'
_cell_volume   650.56634302
_cell_formula_units_Z   4
loop_
 _symmetry_equiv_pos_site_id
 _symmetry_equiv_pos_as_xyz
  1  'x, y, z'
loop_
 _atom_site_type_symbol
 _atom_site_label
 _atom_site_symmetry_multiplicity
 _atom_site_fract_x
 _atom_site_fract_y
 _atom_site_fract_z
 _atom_site_occupancy
  H  H0  1  0.91964925  0.77372550  0.69186955  1
  H  H1  1  0.58035075  0.72627450  0.19186955  1
  H  H2  1  0.08035075  0.22627450  0.30813045  1
  H  H3  1  0.41964925  0.27372550  0.80813045  1
  H  H4  1  0.18055596  0.22326988  0.76525439  1
  H  H5  1  0.31944404  0.27673012  0.26525439  1
  H  H6  1  0.81944404  0.77673012  0.23474561  1
  H  H7  1  0.68055596  0.72326988  0.73474561  1
  H  H8  1  0.42257560  0.05557522  0.40137956  1
  H  H9  1  0.07742440  0.44442478  0.90137956  1
  H  H10  1  0.70083493  0.04265574  0.68541632  1
  H  H11  1  0.79916507  0.45734426  0.18541632  1
  H  H12  1  0.29916507  0.95734426  0.31458368  1
  H  H13  1  0.20083493  0.54265574  0.81458368  1
  H  H14  1  0.82222689  0.45800033  0.59313959  1
  H  H15  1  0.67777311  0.04199967  0.09313959  1
  H  H16  1  0.17777311  0.54199967  0.40686041  1
  H  H17  1  0.32222689  0.95800033  0.90686041  1
  H  H18  1  0.81330130  0.34943625  0.69088682  1
  H  H19  1  0.68669870  0.15056375  0.19088682  1
  H  H20  1  0.18669870  0.65056375  0.30911318  1
  H  H21  1  0.31330130  0.84943625  0.80911318  1
  H  H22  1  0.04100880  0.17247745  0.51974147  1
  H  H23  1  0.45899120  0.32752255  0.01974147  1
  H  H24  1  0.95899120  0.82752255  0.48025853  1
  H  H25  1  0.54100880  0.67247745  0.98025853  1
  H  H26  1  0.12875987  0.01900147  0.58418977  1
  H  H27  1  0.37124013  0.48099853  0.08418977  1
  H  H28  1  0.87124013  0.98099853  0.41581023  1
  H  H29  1  0.62875987  0.51900147  0.91581023  1
  H  H30  1  0.57742440  0.94442478  0.59862044  1
  H  H31  1  0.92257560  0.55557522  0.09862044  1
  O  O32  1  0.10638049  0.55685548  0.87251671  1
  O  O33  1  0.39361951  0.94314452  0.37251671  1
  O  O34  1  0.89361951  0.44314452  0.12748329  1
  O  O35  1  0.60638049  0.05685548  0.62748329  1
  O  O36  1  0.77762623  0.08941338  0.14270453  1
  O  O37  1  0.67843150  0.71756569  0.25007853  1
  O  O38  1  0.17843150  0.21756569  0.24992147  1
  O  O39  1  0.32156850  0.28243431  0.74992147  1
  O  O40  1  0.27762623  0.58941338  0.35729547  1
  O  O41  1  0.22237377  0.91058662  0.85729547  1
  O  O42  1  0.13951836  0.14207783  0.57488282  1
  O  O43  1  0.36048164  0.35792217  0.07488282  1
  O  O44  1  0.86048164  0.85792217  0.42511718  1
  O  O45  1  0.63951836  0.64207783  0.92511718  1
  O  O46  1  0.37057638  0.68628831  0.71239303  1
  O  O47  1  0.12942362  0.81371169  0.21239303  1
  O  O48  1  0.62942362  0.31371169  0.28760697  1
  O  O49  1  0.87057638  0.18628831  0.78760697  1
  O  O50  1  0.10169874  0.78419088  0.59211249  1
  O  O51  1  0.39830126  0.71580912  0.09211249  1
  O  O52  1  0.89830126  0.21580912  0.40788751  1
  O  O53  1  0.60169874  0.28419088  0.90788751  1
  O  O54  1  0.25137611  0.50233060  0.57660101  1
  O  O55  1  0.24862389  0.99766940  0.07660101  1
  O  O56  1  0.74862389  0.49766940  0.42339899  1
  O  O57  1  0.75137611  0.00233060  0.92339899  1
  O  O58  1  0.49185450  0.74685615  0.54640350  1
  O  O59  1  0.00814550  0.75314385  0.04640350  1
  O  O60  1  0.50814550  0.25314385  0.45359650  1
  O  O61  1  0.99185450  0.24685615  0.95359650  1
  O  O62  1  0.72237377  0.41058662  0.64270453  1
  O  O63  1  0.82156850  0.78243431  0.75007853  1
  Mg  Mg64  1  0.92830238  0.77745395  0.89575686  1
  Mg  Mg65  1  0.57169762  0.72254605  0.39575686  1
  Mg  Mg66  1  0.07169762  0.22254605  0.10424314  1
  Mg  Mg67  1  0.42830238  0.27745395  0.60424314  1
  S  S68  1  0.80481672  0.17815479  0.89226731  1
  S  S69  1  0.69518328  0.32184521  0.39226731  1
  S  S70  1  0.19518328  0.82184521  0.10773269  1
  S  S71  1  0.30481672  0.67815479  0.60773269  1
