# generated using pymatgen
data_Na2MoO4
_symmetry_space_group_name_H-M   'P 1'
_cell_length_a   6.24871944
_cell_length_b   6.24871806
_cell_length_c   7.21046989
_cell_angle_alpha   103.58847238
_cell_angle_beta   103.58851947
_cell_angle_gamma   117.24681963
_symmetry_Int_Tables_number   1
_chemical_formula_structural   Na2MoO4
_chemical_formula_sum   'Na4 Mo2 O8'
_cell_volume   223.37113381
_cell_formula_units_Z   2
loop_
 _symmetry_equiv_pos_site_id
 _symmetry_equiv_pos_as_xyz
  1  'x, y, z'
loop_
 _atom_site_type_symbol
 _atom_site_label
 _atom_site_symmetry_multiplicity
 _atom_site_fract_x
 _atom_site_fract_y
 _atom_site_fract_z
 _atom_site_occupancy
  O  O0  1  0.25829744  0.21239594  0.90549646  1
  O  O1  1  0.30687224  0.85277814  0.59450583  1
  O  O2  1  0.78760452  0.74170373  0.59450352  1
  O  O3  1  0.14722124  0.69312809  0.90549391  1
  O  O4  1  0.74170323  0.78760380  0.09450398  1
  O  O5  1  0.69312884  0.14722248  0.40549445  1
  O  O6  1  0.85277796  0.30687081  0.09450505  1
  O  O7  1  0.21239678  0.25829709  0.40549616  1
  Na  Na8  1  0.55611522  0.44388509  0.24999975  1
  Na  Na9  1  0.19388522  0.80611651  0.24999994  1
  Na  Na10  1  0.80611533  0.19388448  0.74999973  1
  Na  Na11  1  0.44388444  0.55611647  0.75000026  1
  Mo  Mo12  1  0.87498541  0.12501451  0.24999948  1
  Mo  Mo13  1  0.12501524  0.87498562  0.75000030  1
