# generated using pymatgen
data_CaCrH2O5
_symmetry_space_group_name_H-M   'P 1'
_cell_length_a   8.03782926
_cell_length_b   8.28130497
_cell_length_c   12.82124175
_cell_angle_alpha   90.00000000
_cell_angle_beta   90.00000000
_cell_angle_gamma   90.00000000
_symmetry_Int_Tables_number   1
_chemical_formula_structural   CaCrH2O5
_chemical_formula_sum   'Ca8 Cr8 H16 O40'
_cell_volume   853.42948691
_cell_formula_units_Z   8
loop_
 _symmetry_equiv_pos_site_id
 _symmetry_equiv_pos_as_xyz
  1  'x, y, z'
loop_
 _atom_site_type_symbol
 _atom_site_label
 _atom_site_symmetry_multiplicity
 _atom_site_fract_x
 _atom_site_fract_y
 _atom_site_fract_z
 _atom_site_occupancy
  H  H0  1  0.56743789  0.33947574  0.03477130  1
  H  H1  1  0.06743818  0.16052498  0.96522832  1
  H  H2  1  0.43256153  0.83947524  0.46522812  1
  H  H3  1  0.93256248  0.66052448  0.53477150  1
  H  H4  1  0.43256153  0.66052448  0.96522832  1
  H  H5  1  0.93256248  0.83947524  0.03477130  1
  H  H6  1  0.56743789  0.16052498  0.53477150  1
  H  H7  1  0.06743818  0.33947574  0.46522812  1
  H  H8  1  0.47936318  0.33608529  0.14440475  1
  H  H9  1  0.97936289  0.16391542  0.85559487  1
  H  H10  1  0.52063749  0.83608480  0.35559467  1
  H  H11  1  0.02063653  0.66391492  0.64440495  1
  H  H12  1  0.52063749  0.66391492  0.85559487  1
  H  H13  1  0.02063653  0.83608480  0.14440475  1
  H  H14  1  0.47936318  0.16391542  0.64440495  1
  H  H15  1  0.97936289  0.33608529  0.35559467  1
  O  O16  1  0.49442184  0.77702637  0.59963758  1
  O  O17  1  0.70730345  0.05451514  0.98723044  1
  O  O18  1  0.79269693  0.94548508  0.48723102  1
  O  O19  1  0.29269722  0.55451464  0.51276938  1
  O  O20  1  0.79269693  0.55451464  0.98723044  1
  O  O21  1  0.29269722  0.94548508  0.01276918  1
  O  O22  1  0.20730374  0.05451514  0.51276938  1
  O  O23  1  0.70730345  0.44548557  0.48723102  1
  O  O24  1  0.00557787  0.22297385  0.09963738  1
  O  O25  1  0.50557883  0.27702686  0.90036224  1
  O  O26  1  0.99442155  0.72297335  0.40036282  1
  O  O27  1  0.20730374  0.44548557  0.01276918  1
  O  O28  1  0.99442155  0.77702637  0.90036224  1
  O  O29  1  0.49442184  0.72297335  0.09963738  1
  O  O30  1  0.00557787  0.27702686  0.59963758  1
  O  O31  1  0.50557883  0.22297385  0.40036282  1
  O  O32  1  0.28383875  0.32630449  0.20423534  1
  O  O33  1  0.78383846  0.17369622  0.79576506  1
  O  O34  1  0.71616066  0.82630399  0.29576486  1
  O  O35  1  0.21616096  0.67369573  0.70423475  1
  O  O36  1  0.71616066  0.67369573  0.79576506  1
  O  O37  1  0.21616096  0.82630399  0.20423534  1
  O  O38  1  0.28383875  0.17369622  0.70423475  1
  O  O39  1  0.78383846  0.32630449  0.29576486  1
  O  O40  1  0.02585727  0.52707621  0.18573053  1
  O  O41  1  0.52585698  0.97292352  0.81426909  1
  O  O42  1  0.97414339  0.02707670  0.31426967  1
  O  O43  1  0.47414368  0.47292401  0.68573073  1
  O  O44  1  0.97414339  0.47292401  0.81426909  1
  O  O45  1  0.47414368  0.02707670  0.18573053  1
  O  O46  1  0.02585727  0.97292352  0.68573073  1
  O  O47  1  0.52585698  0.52707621  0.31426967  1
  O  O48  1  0.09068556  0.34705443  0.38948299  1
  O  O49  1  0.59068527  0.15294628  0.61051741  1
  O  O50  1  0.90931386  0.84705394  0.11051721  1
  O  O51  1  0.40931415  0.65294578  0.88948241  1
  O  O52  1  0.90931386  0.65294578  0.61051741  1
  O  O53  1  0.40931415  0.84705394  0.38948299  1
  O  O54  1  0.59068527  0.34705443  0.11051721  1
  O  O55  1  0.09068556  0.15294628  0.88948241  1
  Ca  Ca56  1  0.26498668  0.09718525  0.33073615  1
  Ca  Ca57  1  0.76498639  0.40281426  0.66926347  1
  Ca  Ca58  1  0.73501274  0.59718596  0.16926327  1
  Ca  Ca59  1  0.23501303  0.90281376  0.83073635  1
  Ca  Ca60  1  0.73501274  0.90281376  0.66926347  1
  Ca  Ca61  1  0.23501303  0.59718596  0.33073615  1
  Ca  Ca62  1  0.26498668  0.40281426  0.83073635  1
  Ca  Ca63  1  0.76498639  0.09718525  0.16926327  1
  Cr  Cr64  1  0.12881135  0.38035969  0.12324628  1
  Cr  Cr65  1  0.62881106  0.11963982  0.87675412  1
  Cr  Cr66  1  0.87118806  0.88036040  0.37675392  1
  Cr  Cr67  1  0.37118835  0.61963932  0.62324648  1
  Cr  Cr68  1  0.87118806  0.61963932  0.87675412  1
  Cr  Cr69  1  0.37118835  0.88036040  0.12324628  1
  Cr  Cr70  1  0.12881135  0.11963982  0.62324648  1
  Cr  Cr71  1  0.62881106  0.38035969  0.37675392  1
