# generated using pymatgen
data_Cr3BO6
_symmetry_space_group_name_H-M   'P 1'
_cell_length_a   4.47988551
_cell_length_b   8.57687751
_cell_length_c   10.10055695
_cell_angle_alpha   90.00000000
_cell_angle_beta   90.00000000
_cell_angle_gamma   90.00000000
_symmetry_Int_Tables_number   1
_chemical_formula_structural   Cr3BO6
_chemical_formula_sum   'Cr12 B4 O24'
_cell_volume   388.09803564
_cell_formula_units_Z   4
loop_
 _symmetry_equiv_pos_site_id
 _symmetry_equiv_pos_as_xyz
  1  'x, y, z'
loop_
 _atom_site_type_symbol
 _atom_site_label
 _atom_site_symmetry_multiplicity
 _atom_site_fract_x
 _atom_site_fract_y
 _atom_site_fract_z
 _atom_site_occupancy
  B  B0  1  0.08134160  0.25000000  0.72283911  1
  B  B1  1  0.91865840  0.75000000  0.27716089  1
  B  B2  1  0.41865840  0.25000000  0.22283911  1
  B  B3  1  0.58134160  0.75000000  0.77716089  1
  O  O4  1  0.78278305  0.75000000  0.41541815  1
  O  O5  1  0.28278305  0.25000000  0.08458185  1
  O  O6  1  0.21721695  0.25000000  0.58458185  1
  O  O7  1  0.71721695  0.75000000  0.91541815  1
  O  O8  1  0.76503097  0.42138443  0.96925604  1
  O  O9  1  0.26503097  0.57861557  0.53074396  1
  O  O10  1  0.23496903  0.92138443  0.03074396  1
  O  O11  1  0.73496903  0.07861557  0.46925604  1
  O  O12  1  0.25587491  0.75000000  0.77533691  1
  O  O13  1  0.24412509  0.75000000  0.27533691  1
  O  O14  1  0.75587491  0.25000000  0.72466309  1
  O  O15  1  0.74412509  0.25000000  0.22466309  1
  O  O16  1  0.72843895  0.88854516  0.71024875  1
  O  O17  1  0.22843895  0.11145484  0.78975125  1
  O  O18  1  0.27156105  0.38854516  0.28975125  1
  O  O19  1  0.77156105  0.61145484  0.21024875  1
  O  O20  1  0.27156105  0.11145484  0.28975125  1
  O  O21  1  0.77156105  0.88854516  0.21024875  1
  O  O22  1  0.72843895  0.61145484  0.71024875  1
  O  O23  1  0.22843895  0.38854516  0.78975125  1
  O  O24  1  0.26503097  0.92138443  0.53074396  1
  O  O25  1  0.76503097  0.07861557  0.96925604  1
  O  O26  1  0.73496903  0.42138443  0.46925604  1
  O  O27  1  0.23496903  0.57861557  0.03074396  1
  Cr  Cr28  1  0.47393837  0.75000000  0.09314979  1
  Cr  Cr29  1  0.97393837  0.25000000  0.40685021  1
  Cr  Cr30  1  0.52606163  0.25000000  0.90685021  1
  Cr  Cr31  1  0.02606163  0.75000000  0.59314979  1
  Cr  Cr32  1  0.50250326  0.43073715  0.63022109  1
  Cr  Cr33  1  0.00250326  0.56926285  0.86977891  1
  Cr  Cr34  1  0.49749674  0.93073715  0.36977891  1
  Cr  Cr35  1  0.99749674  0.06926285  0.13022109  1
  Cr  Cr36  1  0.49749674  0.56926285  0.36977891  1
  Cr  Cr37  1  0.99749674  0.43073715  0.13022109  1
  Cr  Cr38  1  0.50250326  0.06926285  0.63022109  1
  Cr  Cr39  1  0.00250326  0.93073715  0.86977891  1
