# generated using pymatgen
data_MnH8SO8
_symmetry_space_group_name_H-M   'P 1'
_cell_length_a   6.08631467
_cell_length_b   8.08074197
_cell_length_c   13.89501780
_cell_angle_alpha   90.00000000
_cell_angle_beta   90.00000000
_cell_angle_gamma   90.18583247
_symmetry_Int_Tables_number   1
_chemical_formula_structural   MnH8SO8
_chemical_formula_sum   'Mn4 H32 S4 O32'
_cell_volume   683.38031484
_cell_formula_units_Z   4
loop_
 _symmetry_equiv_pos_site_id
 _symmetry_equiv_pos_as_xyz
  1  'x, y, z'
loop_
 _atom_site_type_symbol
 _atom_site_label
 _atom_site_symmetry_multiplicity
 _atom_site_fract_x
 _atom_site_fract_y
 _atom_site_fract_z
 _atom_site_occupancy
  H  H0  1  0.41372303  0.27719644  0.80885472  1
  H  H1  1  0.08627623  0.22280446  0.30885453  1
  H  H2  1  0.58627711  0.72280412  0.19114494  1
  H  H3  1  0.91372390  0.77719610  0.69114513  1
  H  H4  1  0.18026091  0.21988327  0.76782839  1
  H  H5  1  0.31973998  0.28011763  0.26782820  1
  H  H6  1  0.81973922  0.78011729  0.23217199  1
  H  H7  1  0.68026015  0.71988293  0.73217145  1
  H  H8  1  0.57939000  0.94572237  0.60172918  1
  H  H9  1  0.92061101  0.55427784  0.10172899  1
  H  H10  1  0.42061013  0.05427819  0.39827119  1
  H  H11  1  0.07938911  0.44572147  0.89827066  1
  H  H12  1  0.70202529  0.04381866  0.68599022  1
  H  H13  1  0.79797493  0.45618100  0.18599075  1
  H  H14  1  0.29797483  0.95618066  0.31400944  1
  H  H15  1  0.20202519  0.54381832  0.81400962  1
  H  H16  1  0.84397341  0.44778309  0.59796261  1
  H  H17  1  0.65602680  0.05221657  0.09796314  1
  H  H18  1  0.15602671  0.55221623  0.40203705  1
  H  H19  1  0.34397333  0.94778399  0.90203723  1
  H  H20  1  0.81436440  0.34701070  0.69486462  1
  H  H21  1  0.68563582  0.15298895  0.19486444  1
  H  H22  1  0.18563573  0.65298986  0.30513575  1
  H  H23  1  0.31436430  0.84701036  0.80513522  1
  H  H24  1  0.03820292  0.16902819  0.51552600  1
  H  H25  1  0.46179631  0.33097147  0.01552581  1
  H  H26  1  0.96179721  0.83097237  0.48447437  1
  H  H27  1  0.53820380  0.66902785  0.98447456  1
  H  H28  1  0.12347378  0.02397629  0.58384526  1
  H  H29  1  0.37652712  0.47602461  0.08384507  1
  H  H30  1  0.87652635  0.97602427  0.41615439  1
  H  H31  1  0.62347301  0.52397595  0.91615458  1
  O  O32  1  0.31307646  0.28482485  0.75280192  1
  O  O33  1  0.18692278  0.21517481  0.25280173  1
  O  O34  1  0.68692366  0.71517447  0.24719846  1
  O  O35  1  0.81307734  0.78482450  0.74719865  1
  O  O36  1  0.61697969  0.05699176  0.62653256  1
  O  O37  1  0.88302052  0.44300790  0.12653309  1
  O  O38  1  0.38302043  0.94300756  0.37346710  1
  O  O39  1  0.11697959  0.55699142  0.87346729  1
  O  O40  1  0.73661198  0.41569386  0.64688926  1
  O  O41  1  0.76338659  0.08430581  0.14688980  1
  O  O42  1  0.26338815  0.58430670  0.35311039  1
  O  O43  1  0.23661188  0.91569352  0.85311058  1
  O  O44  1  0.12881767  0.14459998  0.57293263  1
  O  O45  1  0.37118321  0.35539967  0.07293317  1
  O  O46  1  0.87118244  0.85539933  0.42706702  1
  O  O47  1  0.62881692  0.64460089  0.92706721  1
  O  O48  1  0.36269406  0.68507524  0.71316950  1
  O  O49  1  0.13730598  0.81492498  0.21317003  1
  O  O50  1  0.63730608  0.31492532  0.28683016  1
  O  O51  1  0.86269414  0.18507434  0.78683035  1
  O  O52  1  0.10233220  0.79484624  0.59595282  1
  O  O53  1  0.39766784  0.70515398  0.09595263  1
  O  O54  1  0.89766628  0.20515308  0.40404755  1
  O  O55  1  0.60233229  0.29484658  0.90404774  1
  O  O56  1  0.24372805  0.51598760  0.57528024  1
  O  O57  1  0.25627198  0.98401262  0.07528077  1
  O  O58  1  0.75627208  0.48401296  0.42471941  1
  O  O59  1  0.74372813  0.01598669  0.92471960  1
  O  O60  1  0.48825875  0.75288958  0.55211616  1
  O  O61  1  0.01174129  0.74711064  0.05211597  1
  O  O62  1  0.51174139  0.24711098  0.44788422  1
  O  O63  1  0.98825884  0.25288992  0.94788368  1
  S  S64  1  0.29984892  0.68572185  0.60996693  1
  S  S65  1  0.20015111  0.81427837  0.10996674  1
  S  S66  1  0.70014957  0.31427871  0.39003273  1
  S  S67  1  0.79984902  0.18572219  0.89003291  1
  Mn  Mn68  1  0.42896233  0.28416083  0.60235701  1
  Mn  Mn69  1  0.07103692  0.21584007  0.10235754  1
  Mn  Mn70  1  0.57103780  0.71583973  0.39764264  1
  Mn  Mn71  1  0.92896157  0.78416049  0.89764283  1
