# generated using pymatgen
data_NiH12(ClO3)2
_symmetry_space_group_name_H-M   'P 1'
_cell_length_a   6.25196602
_cell_length_b   6.25196602
_cell_length_c   6.66276118
_cell_angle_alpha   63.80929714
_cell_angle_beta   63.80929711
_cell_angle_gamma   68.77048165
_symmetry_Int_Tables_number   1
_chemical_formula_structural   NiH12(ClO3)2
_chemical_formula_sum   'Ni1 H12 Cl2 O6'
_cell_volume   205.12023533
_cell_formula_units_Z   1
loop_
 _symmetry_equiv_pos_site_id
 _symmetry_equiv_pos_as_xyz
  1  'x, y, z'
loop_
 _atom_site_type_symbol
 _atom_site_label
 _atom_site_symmetry_multiplicity
 _atom_site_fract_x
 _atom_site_fract_y
 _atom_site_fract_z
 _atom_site_occupancy
  H  H0  1  0.73526180  0.73526208  0.83265819  1
  H  H1  1  0.26473872  0.26473784  0.16734125  1
  H  H2  1  0.81604134  0.81604178  0.55096763  1
  H  H3  1  0.18395880  0.18395997  0.44903122  1
  H  H4  1  0.21119370  0.67295935  0.77660148  1
  H  H5  1  0.32704083  0.78880551  0.22339840  1
  H  H6  1  0.78880503  0.32704057  0.22339871  1
  H  H7  1  0.67295969  0.21119441  0.77660104  1
  H  H8  1  0.80097116  0.41472004  0.72465730  1
  H  H9  1  0.41471914  0.80097085  0.72465780  1
  H  H10  1  0.58527959  0.19902908  0.27534238  1
  H  H11  1  0.19902936  0.58527988  0.27534215  1
  O  O12  1  0.71588499  0.71588445  0.70163374  1
  O  O13  1  0.28411553  0.28411547  0.29836721  1
  O  O14  1  0.83205323  0.23809051  0.74711499  1
  O  O15  1  0.76190975  0.16794698  0.25288444  1
  O  O16  1  0.23809077  0.83205294  0.74711500  1
  O  O17  1  0.16794729  0.76190941  0.25288445  1
  Cl  Cl18  1  0.72531246  0.72531241  0.15814567  1
  Cl  Cl19  1  0.27468807  0.27468751  0.84185528  1
  Ni  Ni20  1  0.00000000  0.00000000  0.00000000  1
