# generated using pymatgen
data_Li(FeO2)2
_symmetry_space_group_name_H-M   'P 1'
_cell_length_a   5.97529579
_cell_length_b   5.97529592
_cell_length_c   5.97529533
_cell_angle_alpha   59.99999719
_cell_angle_beta   59.99999642
_cell_angle_gamma   60.00000189
_symmetry_Int_Tables_number   1
_chemical_formula_structural   Li(FeO2)2
_chemical_formula_sum   'Li2 Fe4 O8'
_cell_volume   150.85620884
_cell_formula_units_Z   2
loop_
 _symmetry_equiv_pos_site_id
 _symmetry_equiv_pos_as_xyz
  1  'x, y, z'
loop_
 _atom_site_type_symbol
 _atom_site_label
 _atom_site_symmetry_multiplicity
 _atom_site_fract_x
 _atom_site_fract_y
 _atom_site_fract_z
 _atom_site_occupancy
  Li  Li0  1  0.12500024  0.12499961  0.12500122  1
  Li  Li1  1  0.87499898  0.87499938  0.87500186  1
  O  O2  1  0.26181931  0.26181785  0.71454376  1
  O  O3  1  0.73818193  0.73818114  0.73818131  1
  O  O4  1  0.73818193  0.73818114  0.28545657  1
  O  O5  1  0.26181907  0.71454387  0.26181846  1
  O  O6  1  0.26181931  0.26181785  0.26181901  1
  O  O7  1  0.28545672  0.73818114  0.73818333  1
  O  O8  1  0.73818217  0.28545512  0.73818187  1
  O  O9  1  0.71454453  0.26181785  0.26181874  1
  Fe  Fe10  1  0.49999824  0.50000056  0.49999994  1
  Fe  Fe11  1  0.50000031  0.00000000  0.49999981  1
  Fe  Fe12  1  0.00000197  0.50000056  0.50000045  1
  Fe  Fe13  1  0.49999824  0.50000056  0.00000110  1
