# generated using pymatgen
data_NiP
_symmetry_space_group_name_H-M   'P 1'
_cell_length_a   4.87648390
_cell_length_b   6.02612186
_cell_length_c   6.91629896
_cell_angle_alpha   90.00000000
_cell_angle_beta   90.00000000
_cell_angle_gamma   90.00000000
_symmetry_Int_Tables_number   1
_chemical_formula_structural   NiP
_chemical_formula_sum   'Ni8 P8'
_cell_volume   203.24434089
_cell_formula_units_Z   8
loop_
 _symmetry_equiv_pos_site_id
 _symmetry_equiv_pos_as_xyz
  1  'x, y, z'
loop_
 _atom_site_type_symbol
 _atom_site_label
 _atom_site_symmetry_multiplicity
 _atom_site_fract_x
 _atom_site_fract_y
 _atom_site_fract_z
 _atom_site_occupancy
  Ni  Ni0  1  0.98485493  0.80736706  0.60021121  1
  Ni  Ni1  1  0.48485493  0.19263294  0.89978879  1
  Ni  Ni2  1  0.51514507  0.30736706  0.39978879  1
  Ni  Ni3  1  0.01514507  0.69263294  0.10021121  1
  Ni  Ni4  1  0.01514507  0.19263294  0.39978879  1
  Ni  Ni5  1  0.51514507  0.80736706  0.10021121  1
  Ni  Ni6  1  0.48485493  0.69263294  0.60021121  1
  Ni  Ni7  1  0.98485493  0.30736706  0.89978879  1
  P  P8  1  0.82655983  0.94331697  0.88542812  1
  P  P9  1  0.32655983  0.05668303  0.61457188  1
  P  P10  1  0.67344017  0.44331697  0.11457188  1
  P  P11  1  0.17344017  0.55668303  0.38542812  1
  P  P12  1  0.17344017  0.05668303  0.11457188  1
  P  P13  1  0.67344017  0.94331697  0.38542812  1
  P  P14  1  0.32655983  0.55668303  0.88542812  1
  P  P15  1  0.82655983  0.44331697  0.61457188  1
