# generated using pymatgen
data_Nb5Te4
_symmetry_space_group_name_H-M   'P 1'
_cell_length_a   3.68959884
_cell_length_b   7.60670216
_cell_length_c   7.60670217
_cell_angle_alpha   86.62806770
_cell_angle_beta   75.96450835
_cell_angle_gamma   75.96450840
_symmetry_Int_Tables_number   1
_chemical_formula_structural   Nb5Te4
_chemical_formula_sum   'Nb5 Te4'
_cell_volume   200.93050869
_cell_formula_units_Z   1
loop_
 _symmetry_equiv_pos_site_id
 _symmetry_equiv_pos_as_xyz
  1  'x, y, z'
loop_
 _atom_site_type_symbol
 _atom_site_label
 _atom_site_symmetry_multiplicity
 _atom_site_fract_x
 _atom_site_fract_y
 _atom_site_fract_z
 _atom_site_occupancy
  Nb  Nb0  1  0.00000000  0.00000000  0.00000000  1
  Nb  Nb1  1  0.31118944  0.06890281  0.30871830  1
  Nb  Nb2  1  0.61990775  0.69128170  0.06890281  1
  Nb  Nb3  1  0.38009225  0.30871830  0.93109719  1
  Nb  Nb4  1  0.68881056  0.93109719  0.69128170  1
  Te  Te5  1  0.06049122  0.22452209  0.65449548  1
  Te  Te6  1  0.71498670  0.34550452  0.22452209  1
  Te  Te7  1  0.28501330  0.65449548  0.77547791  1
  Te  Te8  1  0.93950878  0.77547791  0.34550452  1
