# generated using pymatgen
data_Nd4PdO7
_symmetry_space_group_name_H-M   'P 1'
_cell_length_a   6.97319858
_cell_length_b   7.31779215
_cell_length_c   8.01542007
_cell_angle_alpha   70.10876525
_cell_angle_beta   71.98514161
_cell_angle_gamma   83.71402565
_symmetry_Int_Tables_number   1
_chemical_formula_structural   Nd4PdO7
_chemical_formula_sum   'Nd8 Pd2 O14'
_cell_volume   365.75321812
_cell_formula_units_Z   2
loop_
 _symmetry_equiv_pos_site_id
 _symmetry_equiv_pos_as_xyz
  1  'x, y, z'
loop_
 _atom_site_type_symbol
 _atom_site_label
 _atom_site_symmetry_multiplicity
 _atom_site_fract_x
 _atom_site_fract_y
 _atom_site_fract_z
 _atom_site_occupancy
  O  O0  1  0.94590730  0.06685776  0.74351781  1
  O  O1  1  0.05409270  0.93314224  0.25648219  1
  O  O2  1  0.70493861  0.08388924  0.50870211  1
  O  O3  1  0.29506139  0.91611076  0.49129789  1
  O  O4  1  0.73255704  0.13969173  0.08296288  1
  O  O5  1  0.26744296  0.86030827  0.91703712  1
  O  O6  1  0.43042272  0.33000794  0.30304198  1
  O  O7  1  0.56957728  0.66999206  0.69695802  1
  O  O8  1  0.46826982  0.24607179  0.82292588  1
  O  O9  1  0.53173018  0.75392821  0.17707412  1
  O  O10  1  0.14615370  0.41745548  0.10200435  1
  O  O11  1  0.85384630  0.58254452  0.89799565  1
  O  O12  1  0.15579012  0.45681174  0.59866235  1
  O  O13  1  0.84420988  0.54318826  0.40133765  1
  Pd  Pd14  1  0.00000000  0.00000000  0.50000000  1
  Pd  Pd15  1  0.00000000  0.00000000  0.00000000  1
  Nd  Nd16  1  0.66813220  0.83401248  0.37680773  1
  Nd  Nd17  1  0.33186780  0.16598752  0.62319227  1
  Nd  Nd18  1  0.64515920  0.85365827  0.85701580  1
  Nd  Nd19  1  0.35484080  0.14634173  0.14298420  1
  Nd  Nd20  1  0.78999231  0.39786204  0.72606488  1
  Nd  Nd21  1  0.21000769  0.60213796  0.27393512  1
  Nd  Nd22  1  0.77818702  0.39052945  0.21137283  1
  Nd  Nd23  1  0.22181298  0.60947055  0.78862717  1
