# generated using pymatgen
data_TlV5S8
_symmetry_space_group_name_H-M   'P 1'
_cell_length_a   3.26209404
_cell_length_b   8.55172468
_cell_length_c   8.93709224
_cell_angle_alpha   104.45289945
_cell_angle_beta   100.51559226
_cell_angle_gamma   89.99999997
_symmetry_Int_Tables_number   1
_chemical_formula_structural   TlV5S8
_chemical_formula_sum   'Tl1 V5 S8'
_cell_volume   237.09740798
_cell_formula_units_Z   1
loop_
 _symmetry_equiv_pos_site_id
 _symmetry_equiv_pos_as_xyz
  1  'x, y, z'
loop_
 _atom_site_type_symbol
 _atom_site_label
 _atom_site_symmetry_multiplicity
 _atom_site_fract_x
 _atom_site_fract_y
 _atom_site_fract_z
 _atom_site_occupancy
  S  S0  1  0.96266120  0.32062584  0.85147761  1
  S  S1  1  0.11118360  0.67937416  0.14852239  1
  S  S2  1  0.62108539  0.32003617  0.16978223  1
  S  S3  1  0.45130315  0.67996383  0.83021777  1
  S  S4  1  0.29566577  0.33996123  0.51777800  1
  S  S5  1  0.77788777  0.66003877  0.48222200  1
  S  S6  1  0.37591607  0.99981501  0.67851833  1
  S  S7  1  0.69739774  0.00018499  0.32148167  1
  V  V8  1  0.18464803  0.49682333  0.29644386  1
  V  V9  1  0.88820417  0.50317667  0.70355614  1
  V  V10  1  0.53673782  0.50000000  0.00000000  1
  V  V11  1  0.82599031  0.14139507  0.57820223  1
  V  V12  1  0.24778809  0.85860493  0.42179777  1
  Tl  Tl13  1  0.01453090  0.00000000  0.00000000  1
