# generated using pymatgen
data_Cd2P3I
_symmetry_space_group_name_H-M   'P 1'
_cell_length_a   6.30839862
_cell_length_b   6.30839862
_cell_length_c   7.64209475
_cell_angle_alpha   96.28774865
_cell_angle_beta   96.28774869
_cell_angle_gamma   96.65475212
_symmetry_Int_Tables_number   1
_chemical_formula_structural   Cd2P3I
_chemical_formula_sum   'Cd4 P6 I2'
_cell_volume   297.94842259
_cell_formula_units_Z   2
loop_
 _symmetry_equiv_pos_site_id
 _symmetry_equiv_pos_as_xyz
  1  'x, y, z'
loop_
 _atom_site_type_symbol
 _atom_site_label
 _atom_site_symmetry_multiplicity
 _atom_site_fract_x
 _atom_site_fract_y
 _atom_site_fract_z
 _atom_site_occupancy
  P  P0  1  0.94105867  0.55324050  0.95750232  1
  P  P1  1  0.68193415  0.59265211  0.74699559  1
  P  P2  1  0.59265211  0.68193415  0.24699559  1
  P  P3  1  0.55324050  0.94105867  0.45750232  1
  P  P4  1  0.90288949  0.81212452  0.16869388  1
  P  P5  1  0.81212452  0.90288949  0.66869388  1
  Cd  Cd6  1  0.14150889  0.85347417  0.48680119  1
  Cd  Cd7  1  0.64052012  0.35334359  0.43051583  1
  Cd  Cd8  1  0.35334359  0.64052012  0.93051583  1
  Cd  Cd9  1  0.85347417  0.14150889  0.98680119  1
  I  I10  1  0.36613929  0.12711450  0.95549120  1
  I  I11  1  0.12711450  0.36613929  0.45549120  1
