# generated using pymatgen
data_Ba4Ni3Ge20
_symmetry_space_group_name_H-M   'P 1'
_cell_length_a   10.75324394
_cell_length_b   10.75324394
_cell_length_c   10.75324394
_cell_angle_alpha   90.00000000
_cell_angle_beta   90.00000000
_cell_angle_gamma   90.00000000
_symmetry_Int_Tables_number   1
_chemical_formula_structural   Ba4Ni3Ge20
_chemical_formula_sum   'Ba8 Ni6 Ge40'
_cell_volume   1243.42184785
_cell_formula_units_Z   2
loop_
 _symmetry_equiv_pos_site_id
 _symmetry_equiv_pos_as_xyz
  1  'x, y, z'
loop_
 _atom_site_type_symbol
 _atom_site_label
 _atom_site_symmetry_multiplicity
 _atom_site_fract_x
 _atom_site_fract_y
 _atom_site_fract_z
 _atom_site_occupancy
  Ni  Ni0  1  0.25000000  0.00000000  0.50000000  1
  Ni  Ni1  1  0.75000000  0.00000000  0.50000000  1
  Ni  Ni2  1  0.00000000  0.50000000  0.25000000  1
  Ni  Ni3  1  0.00000000  0.50000000  0.75000000  1
  Ni  Ni4  1  0.50000000  0.75000000  0.00000000  1
  Ni  Ni5  1  0.50000000  0.25000000  0.00000000  1
  Ge  Ge6  1  0.18300833  0.18300833  0.18300833  1
  Ge  Ge7  1  0.68300833  0.31699167  0.68300833  1
  Ge  Ge8  1  0.68300833  0.68300833  0.31699167  1
  Ge  Ge9  1  0.31699167  0.68300833  0.68300833  1
  Ge  Ge10  1  0.81699167  0.81699167  0.18300833  1
  Ge  Ge11  1  0.18300833  0.81699167  0.81699167  1
  Ge  Ge12  1  0.81699167  0.18300833  0.81699167  1
  Ge  Ge13  1  0.31699167  0.31699167  0.31699167  1
  Ge  Ge14  1  0.81699167  0.81699167  0.81699167  1
  Ge  Ge15  1  0.31699167  0.68300833  0.31699167  1
  Ge  Ge16  1  0.31699167  0.31699167  0.68300833  1
  Ge  Ge17  1  0.68300833  0.31699167  0.31699167  1
  Ge  Ge18  1  0.18300833  0.18300833  0.81699167  1
  Ge  Ge19  1  0.81699167  0.18300833  0.18300833  1
  Ge  Ge20  1  0.18300833  0.81699167  0.18300833  1
  Ge  Ge21  1  0.68300833  0.68300833  0.68300833  1
  Ge  Ge22  1  0.00000000  0.32289928  0.12430573  1
  Ge  Ge23  1  0.50000000  0.37569427  0.82289928  1
  Ge  Ge24  1  0.50000000  0.62430573  0.17710072  1
  Ge  Ge25  1  0.62430573  0.82289928  0.50000000  1
  Ge  Ge26  1  0.37569427  0.82289928  0.50000000  1
  Ge  Ge27  1  0.17710072  0.50000000  0.62430573  1
  Ge  Ge28  1  0.82289928  0.50000000  0.62430573  1
  Ge  Ge29  1  0.12430573  0.00000000  0.32289928  1
  Ge  Ge30  1  0.32289928  0.12430573  0.00000000  1
  Ge  Ge31  1  0.67710072  0.87569427  0.00000000  1
  Ge  Ge32  1  0.12430573  0.00000000  0.67710072  1
  Ge  Ge33  1  0.67710072  0.12430573  0.00000000  1
  Ge  Ge34  1  0.87569427  0.00000000  0.32289928  1
  Ge  Ge35  1  0.87569427  0.00000000  0.67710072  1
  Ge  Ge36  1  0.32289928  0.87569427  0.00000000  1
  Ge  Ge37  1  0.00000000  0.67710072  0.87569427  1
  Ge  Ge38  1  0.00000000  0.32289928  0.87569427  1
  Ge  Ge39  1  0.00000000  0.67710072  0.12430573  1
  Ge  Ge40  1  0.82289928  0.50000000  0.37569427  1
  Ge  Ge41  1  0.17710072  0.50000000  0.37569427  1
  Ge  Ge42  1  0.62430573  0.17710072  0.50000000  1
  Ge  Ge43  1  0.37569427  0.17710072  0.50000000  1
  Ge  Ge44  1  0.50000000  0.62430573  0.82289928  1
  Ge  Ge45  1  0.50000000  0.37569427  0.17710072  1
  Ba  Ba46  1  0.00000000  0.00000000  0.00000000  1
  Ba  Ba47  1  0.50000000  0.50000000  0.50000000  1
  Ba  Ba48  1  0.25000000  0.50000000  0.00000000  1
  Ba  Ba49  1  0.75000000  0.50000000  0.00000000  1
  Ba  Ba50  1  0.50000000  0.00000000  0.25000000  1
  Ba  Ba51  1  0.50000000  0.00000000  0.75000000  1
  Ba  Ba52  1  0.00000000  0.75000000  0.50000000  1
  Ba  Ba53  1  0.00000000  0.25000000  0.50000000  1
