# generated using pymatgen
data_RbTe6
_symmetry_space_group_name_H-M   'P 1'
_cell_length_a   7.15635090
_cell_length_b   7.15635090
_cell_length_c   12.38181241
_cell_angle_alpha   93.41102921
_cell_angle_beta   104.44383870
_cell_angle_gamma   117.74225332
_symmetry_Int_Tables_number   1
_chemical_formula_structural   RbTe6
_chemical_formula_sum   'Rb2 Te12'
_cell_volume   531.95418922
_cell_formula_units_Z   2
loop_
 _symmetry_equiv_pos_site_id
 _symmetry_equiv_pos_as_xyz
  1  'x, y, z'
loop_
 _atom_site_type_symbol
 _atom_site_label
 _atom_site_symmetry_multiplicity
 _atom_site_fract_x
 _atom_site_fract_y
 _atom_site_fract_z
 _atom_site_occupancy
  Rb  Rb0  1  0.87629814  0.62629814  0.25000000  1
  Rb  Rb1  1  0.12370186  0.37370186  0.75000000  1
  Te  Te2  1  0.15344480  0.23574842  0.35398620  1
  Te  Te3  1  0.38176221  0.79945860  0.14601380  1
  Te  Te4  1  0.53867724  0.76328520  0.40838530  1
  Te  Te5  1  0.85489990  0.13029194  0.09161470  1
  Te  Te6  1  0.46132276  0.23671480  0.59161470  1
  Te  Te7  1  0.14510010  0.86970806  0.90838530  1
  Te  Te8  1  0.81921824  0.22027372  0.44258265  1
  Te  Te9  1  0.27769107  0.37663559  0.05741735  1
  Te  Te10  1  0.18078176  0.77972628  0.55741735  1
  Te  Te11  1  0.72230893  0.62336441  0.94258265  1
  Te  Te12  1  0.61823779  0.20054140  0.85398620  1
  Te  Te13  1  0.84655520  0.76425158  0.64601380  1
