# generated using pymatgen
data_Sr4Zn3F14
_symmetry_space_group_name_H-M   'P 1'
_cell_length_a   6.90338383
_cell_length_b   6.90480594
_cell_length_c   7.22080010
_cell_angle_alpha   90.00315434
_cell_angle_beta   90.00631007
_cell_angle_gamma   60.00680835
_symmetry_Int_Tables_number   1
_chemical_formula_structural   Sr4Zn3F14
_chemical_formula_sum   'Sr4 Zn3 F14'
_cell_volume   298.09812231
_cell_formula_units_Z   1
loop_
 _symmetry_equiv_pos_site_id
 _symmetry_equiv_pos_as_xyz
  1  'x, y, z'
loop_
 _atom_site_type_symbol
 _atom_site_label
 _atom_site_symmetry_multiplicity
 _atom_site_fract_x
 _atom_site_fract_y
 _atom_site_fract_z
 _atom_site_occupancy
  Sr  Sr0  1  0.67224264  0.66659786  0.22978537  1
  Sr  Sr1  1  0.33884050  0.33340214  0.22978537  1
  Sr  Sr2  1  0.00567114  -0.00000000  0.99153375  1
  Sr  Sr3  1  0.00529331  0.00000000  0.46981013  1
  Zn  Zn4  1  0.54037440  1.00000000  0.73187904  1
  Zn  Zn5  1  0.00550351  0.46480927  0.73184447  1
  Zn  Zn6  1  0.47031278  0.53519073  0.73184447  1
  F  F7  1  0.24411276  -0.00000000  0.73017138  1
  F  F8  1  0.39798832  0.60738432  0.46445286  1
  F  F9  1  0.00537264  0.39261568  0.46445286  1
  F  F10  1  0.33888609  0.33327626  0.73730538  1
  F  F11  1  0.67216235  0.66672374  0.73730538  1
  F  F12  1  0.61339538  1.00000000  0.46474388  1
  F  F13  1  0.00603120  0.76096333  0.73041759  1
  F  F14  1  0.00537346  0.73442485  0.23075401  1
  F  F15  1  0.73979832  0.26557515  0.23075401  1
  F  F16  1  0.27158022  1.00000000  0.23120236  1
  F  F17  1  0.61513768  1.00000000  0.99937841  1
  F  F18  1  0.39587959  0.60977059  0.99947985  1
  F  F19  1  0.00565018  0.39022941  0.99947985  1
  F  F20  1  0.76699453  0.23903667  0.73041759  1
