# generated using pymatgen
data_Mg4Ti3
_symmetry_space_group_name_H-M   'P 1'
_cell_length_a   8.19409866
_cell_length_b   8.19409770
_cell_length_c   4.88414174
_cell_angle_alpha   90.00000000
_cell_angle_beta   90.00000000
_cell_angle_gamma   119.99999944
_symmetry_Int_Tables_number   1
_chemical_formula_structural   Mg4Ti3
_chemical_formula_sum   'Mg8 Ti6'
_cell_volume   284.00188305
_cell_formula_units_Z   2
loop_
 _symmetry_equiv_pos_site_id
 _symmetry_equiv_pos_as_xyz
  1  'x, y, z'
loop_
 _atom_site_type_symbol
 _atom_site_label
 _atom_site_symmetry_multiplicity
 _atom_site_fract_x
 _atom_site_fract_y
 _atom_site_fract_z
 _atom_site_occupancy
  Mg  Mg0  1  0.62583087  0.53668016  0.75000000  1
  Mg  Mg1  1  0.37416913  0.46331984  0.25000000  1
  Mg  Mg2  1  0.33333300  0.66666700  0.75000000  1
  Mg  Mg3  1  0.53668016  0.91084830  0.25000000  1
  Mg  Mg4  1  0.91084830  0.37416913  0.75000000  1
  Mg  Mg5  1  0.08915170  0.62583087  0.25000000  1
  Mg  Mg6  1  0.46331984  0.08915170  0.75000000  1
  Mg  Mg7  1  0.66666700  0.33333300  0.25000000  1
  Ti  Ti8  1  0.82913416  0.78770628  0.25000000  1
  Ti  Ti9  1  0.17086584  0.21229372  0.75000000  1
  Ti  Ti10  1  0.78770628  0.95857212  0.75000000  1
  Ti  Ti11  1  0.95857212  0.17086584  0.25000000  1
  Ti  Ti12  1  0.04142788  0.82913416  0.75000000  1
  Ti  Ti13  1  0.21229372  0.04142788  0.25000000  1
