# generated using pymatgen
data_Zn3(PO4)2
_symmetry_space_group_name_H-M   'P 1'
_cell_length_a   5.08014525
_cell_length_b   7.71561513
_cell_length_c   8.59756110
_cell_angle_alpha   90.00000000
_cell_angle_beta   90.00000000
_cell_angle_gamma   95.91835140
_symmetry_Int_Tables_number   1
_chemical_formula_structural   Zn3(PO4)2
_chemical_formula_sum   'Zn6 P4 O16'
_cell_volume   335.19760539
_cell_formula_units_Z   2
loop_
 _symmetry_equiv_pos_site_id
 _symmetry_equiv_pos_as_xyz
  1  'x, y, z'
loop_
 _atom_site_type_symbol
 _atom_site_label
 _atom_site_symmetry_multiplicity
 _atom_site_fract_x
 _atom_site_fract_y
 _atom_site_fract_z
 _atom_site_occupancy
  O  O0  1  0.56803626  0.74620206  0.64618741  1
  O  O1  1  0.93196374  0.75379794  0.14618741  1
  O  O2  1  0.43196374  0.25379794  0.35381259  1
  O  O3  1  0.06803626  0.24620206  0.85381259  1
  O  O4  1  0.44611025  0.63898813  0.92043137  1
  O  O5  1  0.05388975  0.86101187  0.42043137  1
  O  O6  1  0.55388975  0.36101187  0.07956863  1
  O  O7  1  0.94611025  0.13898813  0.57956863  1
  O  O8  1  0.19382273  0.87037258  0.80237570  1
  O  O9  1  0.30617727  0.62962742  0.30237570  1
  O  O10  1  0.17663179  0.44468214  0.62904000  1
  O  O11  1  0.32336821  0.05531786  0.12904000  1
  O  O12  1  0.82336821  0.55531786  0.37096000  1
  O  O13  1  0.67663179  0.94468214  0.87096000  1
  O  O14  1  0.69382273  0.37037258  0.69762430  1
  O  O15  1  0.80617727  0.12962742  0.19762430  1
  P  P16  1  0.46973706  0.80091019  0.81024428  1
  P  P17  1  0.03026294  0.69908981  0.31024428  1
  P  P18  1  0.53026294  0.19908981  0.18975572  1
  P  P19  1  0.96973706  0.30091019  0.68975572  1
  Zn  Zn20  1  0.57278645  0.61845893  0.13852073  1
  Zn  Zn21  1  0.92721355  0.88154107  0.63852073  1
  Zn  Zn22  1  0.42721355  0.38154107  0.86147927  1
  Zn  Zn23  1  0.07278645  0.11845893  0.36147927  1
  Zn  Zn24  1  0.50000000  0.50000000  0.50000000  1
  Zn  Zn25  1  0.00000000  0.00000000  0.00000000  1
