# generated using pymatgen
data_TbScO3
_symmetry_space_group_name_H-M   'P 1'
_cell_length_a   5.47333836
_cell_length_b   5.76330385
_cell_length_c   7.99952716
_cell_angle_alpha   90.00000000
_cell_angle_beta   90.00000000
_cell_angle_gamma   90.00000000
_symmetry_Int_Tables_number   1
_chemical_formula_structural   TbScO3
_chemical_formula_sum   'Tb4 Sc4 O12'
_cell_volume   252.34118083
_cell_formula_units_Z   4
loop_
 _symmetry_equiv_pos_site_id
 _symmetry_equiv_pos_as_xyz
  1  'x, y, z'
loop_
 _atom_site_type_symbol
 _atom_site_label
 _atom_site_symmetry_multiplicity
 _atom_site_fract_x
 _atom_site_fract_y
 _atom_site_fract_z
 _atom_site_occupancy
  O  O0  1  0.69201132  0.30558481  0.56727528  1
  O  O1  1  0.19201132  0.19441519  0.43272472  1
  O  O2  1  0.80798868  0.80558481  0.93272472  1
  O  O3  1  0.30798868  0.69441519  0.06727528  1
  O  O4  1  0.30798868  0.69441519  0.43272472  1
  O  O5  1  0.80798868  0.80558481  0.56727528  1
  O  O6  1  0.19201132  0.19441519  0.06727528  1
  O  O7  1  0.69201132  0.30558481  0.93272472  1
  O  O8  1  0.87169171  0.55510946  0.25000000  1
  O  O9  1  0.37169171  0.94489054  0.75000000  1
  O  O10  1  0.62830829  0.05510946  0.25000000  1
  O  O11  1  0.12830829  0.44489054  0.75000000  1
  Sc  Sc12  1  0.00000000  0.50000000  0.50000000  1
  Sc  Sc13  1  0.50000000  0.00000000  0.50000000  1
  Sc  Sc14  1  0.50000000  0.00000000  0.00000000  1
  Sc  Sc15  1  0.00000000  0.50000000  0.00000000  1
  Tb  Tb16  1  0.98013309  0.06200777  0.75000000  1
  Tb  Tb17  1  0.48013309  0.43799223  0.25000000  1
  Tb  Tb18  1  0.51986691  0.56200777  0.75000000  1
  Tb  Tb19  1  0.01986691  0.93799223  0.25000000  1
