# generated using pymatgen
data_NbI5
_symmetry_space_group_name_H-M   'P 1'
_cell_length_a   6.59140429
_cell_length_b   11.06023678
_cell_length_c   15.28047981
_cell_angle_alpha   109.66452462
_cell_angle_beta   90.00000000
_cell_angle_gamma   90.00000000
_symmetry_Int_Tables_number   1
_chemical_formula_structural   NbI5
_chemical_formula_sum   'Nb4 I20'
_cell_volume   1049.01642741
_cell_formula_units_Z   4
loop_
 _symmetry_equiv_pos_site_id
 _symmetry_equiv_pos_as_xyz
  1  'x, y, z'
loop_
 _atom_site_type_symbol
 _atom_site_label
 _atom_site_symmetry_multiplicity
 _atom_site_fract_x
 _atom_site_fract_y
 _atom_site_fract_z
 _atom_site_occupancy
  Nb  Nb0  1  0.49961329  0.78760830  0.69695314  1
  Nb  Nb1  1  -0.00038671  0.21239170  0.80304686  1
  Nb  Nb2  1  0.50038671  0.21239170  0.30304686  1
  Nb  Nb3  1  1.00038671  0.78760830  0.19695314  1
  I  I4  1  0.74905372  0.00045672  0.67154494  1
  I  I5  1  0.24905372  0.99954328  0.82845506  1
  I  I6  1  0.25094628  0.99954328  0.32845506  1
  I  I7  1  0.75094628  0.00045672  0.17154494  1
  I  I8  1  0.72839148  0.81334431  0.84964892  1
  I  I9  1  0.22839148  0.18665569  0.65035108  1
  I  I10  1  0.27160852  0.18665569  0.15035108  1
  I  I11  1  0.77160852  0.81334431  0.34964892  1
  I  I12  1  0.75055121  0.61805386  0.58044828  1
  I  I13  1  0.25055121  0.38194614  0.91955172  1
  I  I14  1  0.24944879  0.38194614  0.41955172  1
  I  I15  1  0.74944879  0.61805386  0.08044828  1
  I  I16  1  0.74653212  0.38224818  0.77036282  1
  I  I17  1  0.24653212  0.61775182  0.72963718  1
  I  I18  1  0.25346788  0.61775182  0.22963718  1
  I  I19  1  0.75346788  0.38224818  0.27036282  1
  I  I20  1  0.77002771  0.18372924  0.94206976  1
  I  I21  1  0.27002771  0.81627076  0.55793024  1
  I  I22  1  0.22997229  0.81627076  0.05793024  1
  I  I23  1  0.72997229  0.18372924  0.44206976  1
