# generated using pymatgen
data_Th2Ni17
_symmetry_space_group_name_H-M   'P 1'
_cell_length_a   8.32838409
_cell_length_b   8.32838408
_cell_length_c   8.07390301
_cell_angle_alpha   90.00000000
_cell_angle_beta   90.00000000
_cell_angle_gamma   119.99999999
_symmetry_Int_Tables_number   1
_chemical_formula_structural   Th2Ni17
_chemical_formula_sum   'Th4 Ni34'
_cell_volume   484.99320184
_cell_formula_units_Z   2
loop_
 _symmetry_equiv_pos_site_id
 _symmetry_equiv_pos_as_xyz
  1  'x, y, z'
loop_
 _atom_site_type_symbol
 _atom_site_label
 _atom_site_symmetry_multiplicity
 _atom_site_fract_x
 _atom_site_fract_y
 _atom_site_fract_z
 _atom_site_occupancy
  Ni  Ni0  1  0.33333333  0.66666667  0.10186279  1
  Ni  Ni1  1  0.66666667  0.33333333  0.60186279  1
  Ni  Ni2  1  0.66666667  0.33333333  0.89813721  1
  Ni  Ni3  1  0.33333333  0.66666667  0.39813721  1
  Ni  Ni4  1  0.50000000  0.00000000  0.00000000  1
  Ni  Ni5  1  0.50000000  0.50000000  0.50000000  1
  Ni  Ni6  1  0.00000000  0.50000000  0.50000000  1
  Ni  Ni7  1  0.00000000  0.50000000  0.00000000  1
  Ni  Ni8  1  0.50000000  0.50000000  0.00000000  1
  Ni  Ni9  1  0.50000000  0.00000000  0.50000000  1
  Ni  Ni10  1  0.32831662  0.95563629  0.25000000  1
  Ni  Ni11  1  0.37268033  0.32831662  0.75000000  1
  Ni  Ni12  1  0.95563629  0.62731967  0.75000000  1
  Ni  Ni13  1  0.04436371  0.37268033  0.25000000  1
  Ni  Ni14  1  0.62731967  0.67168338  0.25000000  1
  Ni  Ni15  1  0.37268033  0.04436371  0.75000000  1
  Ni  Ni16  1  0.67168338  0.62731967  0.75000000  1
  Ni  Ni17  1  0.67168338  0.04436371  0.75000000  1
  Ni  Ni18  1  0.95563629  0.32831662  0.75000000  1
  Ni  Ni19  1  0.04436371  0.67168338  0.25000000  1
  Ni  Ni20  1  0.62731967  0.95563629  0.25000000  1
  Ni  Ni21  1  0.32831662  0.37268033  0.25000000  1
  Ni  Ni22  1  0.16555764  0.33111527  0.97997728  1
  Ni  Ni23  1  0.83444236  0.16555764  0.47997728  1
  Ni  Ni24  1  0.33111527  0.16555764  0.47997728  1
  Ni  Ni25  1  0.66888473  0.83444236  0.97997728  1
  Ni  Ni26  1  0.16555764  0.83444236  0.97997728  1
  Ni  Ni27  1  0.83444236  0.66888473  0.02002272  1
  Ni  Ni28  1  0.83444236  0.16555764  0.02002272  1
  Ni  Ni29  1  0.83444236  0.66888473  0.47997728  1
  Ni  Ni30  1  0.33111527  0.16555764  0.02002272  1
  Ni  Ni31  1  0.66888473  0.83444236  0.52002272  1
  Ni  Ni32  1  0.16555764  0.33111527  0.52002272  1
  Ni  Ni33  1  0.16555764  0.83444236  0.52002272  1
  Th  Th34  1  0.00000000  0.00000000  0.25000000  1
  Th  Th35  1  0.00000000  0.00000000  0.75000000  1
  Th  Th36  1  0.33333333  0.66666667  0.75000000  1
  Th  Th37  1  0.66666667  0.33333333  0.25000000  1
