# generated using pymatgen
data_Mn5(P3O11)2
_symmetry_space_group_name_H-M   'P 1'
_cell_length_a   12.52509545
_cell_length_b   7.03534029
_cell_length_c   10.76934798
_cell_angle_alpha   90.00000000
_cell_angle_beta   106.71190775
_cell_angle_gamma   90.00000000
_symmetry_Int_Tables_number   1
_chemical_formula_structural   Mn5(P3O11)2
_chemical_formula_sum   'Mn10 P12 O44'
_cell_volume   908.89456373
_cell_formula_units_Z   2
loop_
 _symmetry_equiv_pos_site_id
 _symmetry_equiv_pos_as_xyz
  1  'x, y, z'
loop_
 _atom_site_type_symbol
 _atom_site_label
 _atom_site_symmetry_multiplicity
 _atom_site_fract_x
 _atom_site_fract_y
 _atom_site_fract_z
 _atom_site_occupancy
  O  O0  1  0.84525658  0.57401374  0.17125603  1
  O  O1  1  1.00050070  0.22127554  0.13687196  1
  O  O2  1  0.00195029  0.30798098  0.34801129  1
  O  O3  1  1.00050079  0.27872449  0.63687197  1
  O  O4  1  0.00195038  0.19201905  0.84801129  1
  O  O5  1  0.83294718  0.92306436  0.22889227  1
  O  O6  1  0.83575514  0.51281311  0.43788258  1
  O  O7  1  0.73712545  0.22816776  0.04220603  1
  O  O8  1  0.84525667  0.92598634  0.67125604  1
  O  O9  1  0.83294727  0.57693573  0.72889227  1
  O  O10  1  -0.00050062  0.77872452  0.86312807  1
  O  O11  1  0.99804979  0.69201908  0.65198875  1
  O  O12  1  -0.00050071  0.72127557  0.36312807  1
  O  O13  1  0.99804970  0.80798101  0.15198874  1
  O  O14  1  0.15474350  0.42598632  0.82874400  1
  O  O15  1  0.16705290  0.07693570  0.77110777  1
  O  O16  1  0.16424410  0.48718694  0.56211718  1
  O  O17  1  0.26287463  0.77183230  0.95779400  1
  O  O18  1  0.15474341  0.07401371  0.32874400  1
  O  O19  1  0.16705281  0.42306433  0.27110776  1
  O  O20  1  0.24569892  0.77869046  0.68865158  1
  O  O21  1  0.16424485  0.01281309  0.06211745  1
  O  O22  1  0.26287454  0.72816779  0.45779400  1
  O  O23  1  0.37908787  0.17519112  0.94918690  1
  O  O24  1  0.24569883  0.72130962  0.18865158  1
  O  O25  1  0.36908934  0.16487267  0.65540337  1
  O  O26  1  0.37248127  0.52843900  0.64448560  1
  O  O27  1  0.75430116  0.22130959  0.31134845  1
  O  O28  1  0.37908778  0.32480891  0.44918690  1
  O  O29  1  0.36908925  0.33512736  0.15540337  1
  O  O30  1  0.37248117  0.97156103  0.14448560  1
  O  O31  1  0.45643516  0.65601744  0.34332329  1
  O  O32  1  0.54356408  0.34398262  0.65667646  1
  O  O33  1  0.62751807  0.02843903  0.85551416  1
  O  O34  1  0.63090999  0.66487270  0.84459639  1
  O  O35  1  0.62091230  0.67519115  0.55081314  1
  O  O36  1  0.54356483  0.15601741  0.15667674  1
  O  O37  1  0.62751881  0.47156106  0.35551443  1
  O  O38  1  0.63091074  0.83512738  0.34459666  1
  O  O39  1  0.75430125  0.27869044  0.81134846  1
  O  O40  1  0.62091221  0.82480894  0.05081313  1
  O  O41  1  0.73712554  0.27183227  0.54220603  1
  O  O42  1  0.83575523  0.98718697  0.93788258  1
  O  O43  1  0.45643525  0.84398265  0.84332330  1
  P  P44  1  0.25714722  0.63386933  0.58425027  1
  P  P45  1  0.25714713  0.86612933  0.08425027  1
  P  P46  1  0.41685820  0.32864536  0.59856401  1
  P  P47  1  0.58314198  0.82864539  0.90143603  1
  P  P48  1  0.41685810  0.17135467  0.09856400  1
  P  P49  1  0.09122797  0.25116587  0.27425628  1
  P  P50  1  0.58314188  0.67135470  0.40143603  1
  P  P51  1  0.74285295  0.13386930  0.91574976  1
  P  P52  1  0.74285286  0.36613073  0.41574976  1
  P  P53  1  0.90877211  0.74883276  0.72574376  1
  P  P54  1  0.09122806  0.24883273  0.77425628  1
  P  P55  1  0.90877202  0.75116590  0.22574375  1
  Mn  Mn56  1  0.86300045  0.28513929  0.19828384  1
  Mn  Mn57  1  0.86300054  0.21486074  0.69828385  1
  Mn  Mn58  1  0.67005622  0.99080820  0.19935562  1
  Mn  Mn59  1  0.67005632  0.50919188  0.69935563  1
  Mn  Mn60  1  0.32994376  0.49080817  0.30064441  1
  Mn  Mn61  1  0.32994386  0.00919186  0.80064441  1
  Mn  Mn62  1  0.13699954  0.78513932  0.30171619  1
  Mn  Mn63  1  0.00000000  0.00000000  0.00000000  1
  Mn  Mn64  1  0.13699879  0.71486077  0.80171592  1
  Mn  Mn65  1  0.00000009  0.50000003  0.50000000  1
