# generated using pymatgen
data_MoP2O7
_symmetry_space_group_name_H-M   'P 1'
_cell_length_a   7.23405209
_cell_length_b   8.29308667
_cell_length_c   9.05587817
_cell_angle_alpha   90.00000000
_cell_angle_beta   111.21913562
_cell_angle_gamma   90.00000000
_symmetry_Int_Tables_number   1
_chemical_formula_structural   MoP2O7
_chemical_formula_sum   'Mo4 P8 O28'
_cell_volume   506.45270046
_cell_formula_units_Z   4
loop_
 _symmetry_equiv_pos_site_id
 _symmetry_equiv_pos_as_xyz
  1  'x, y, z'
loop_
 _atom_site_type_symbol
 _atom_site_label
 _atom_site_symmetry_multiplicity
 _atom_site_fract_x
 _atom_site_fract_y
 _atom_site_fract_z
 _atom_site_occupancy
  Mo  Mo0  1  0.62337903  0.91032478  0.38568802  1
  Mo  Mo1  1  0.12337903  0.58967522  0.88568802  1
  Mo  Mo2  1  0.37662097  0.08967522  0.61431198  1
  Mo  Mo3  1  0.87662097  0.41032478  0.11431198  1
  P  P4  1  0.58258905  0.76533059  0.03091886  1
  P  P5  1  0.82313365  0.26484924  0.75482388  1
  P  P6  1  0.17686635  0.73515076  0.24517612  1
  P  P7  1  0.41741095  0.23466941  0.96908114  1
  P  P8  1  0.32313365  0.23515076  0.25482388  1
  P  P9  1  0.67686635  0.76484924  0.74517612  1
  P  P10  1  0.91741095  0.26533059  0.46908114  1
  P  P11  1  0.08258905  0.73466941  0.53091886  1
  O  O12  1  0.86116293  0.34810028  0.60638223  1
  O  O13  1  0.36116293  0.15189972  0.10638223  1
  O  O14  1  0.36468063  0.10737777  0.84007274  1
  O  O15  1  0.63531937  0.89262223  0.15992726  1
  O  O16  1  0.69395029  0.60554233  0.07652766  1
  O  O17  1  0.80604971  0.10554233  0.42347234  1
  O  O18  1  0.86468063  0.39262223  0.34007274  1
  O  O19  1  0.56520720  0.61502789  0.68667945  1
  O  O20  1  0.09357435  0.25031548  0.19794679  1
  O  O21  1  0.13531937  0.60737777  0.65992726  1
  O  O22  1  0.40642565  0.75031548  0.30205321  1
  O  O23  1  0.85664691  0.76488390  0.46393056  1
  O  O24  1  0.89163707  0.41364178  0.87642542  1
  O  O25  1  0.63883707  0.84810028  0.89361777  1
  O  O26  1  0.30604971  0.39445767  0.92347234  1
  O  O27  1  0.10836293  0.58635822  0.12357458  1
  O  O28  1  0.13883707  0.65189972  0.39361777  1
  O  O29  1  0.90642565  0.74968452  0.80205321  1
  O  O30  1  0.43479280  0.38497211  0.31332055  1
  O  O31  1  0.39163707  0.08635822  0.37642542  1
  O  O32  1  0.19395029  0.89445767  0.57652766  1
  O  O33  1  0.59357435  0.24968452  0.69794679  1
  O  O34  1  0.64335309  0.26488390  0.03606944  1
  O  O35  1  0.06520720  0.88497211  0.18667945  1
  O  O36  1  0.93479280  0.11502789  0.81332055  1
  O  O37  1  0.14335309  0.23511610  0.53606944  1
  O  O38  1  0.35664691  0.73511610  0.96393056  1
  O  O39  1  0.60836293  0.91364178  0.62357458  1
