# generated using pymatgen
data_LiMn2(PO4)3
_symmetry_space_group_name_H-M   'P 1'
_cell_length_a   8.45280582
_cell_length_b   8.44933877
_cell_length_c   8.45280582
_cell_angle_alpha   119.88539119
_cell_angle_beta   60.04390318
_cell_angle_gamma   89.85088788
_symmetry_Int_Tables_number   1
_chemical_formula_structural   LiMn2(PO4)3
_chemical_formula_sum   'Li2 Mn4 P6 O24'
_cell_volume   427.34946532
_cell_formula_units_Z   2
loop_
 _symmetry_equiv_pos_site_id
 _symmetry_equiv_pos_as_xyz
  1  'x, y, z'
loop_
 _atom_site_type_symbol
 _atom_site_label
 _atom_site_symmetry_multiplicity
 _atom_site_fract_x
 _atom_site_fract_y
 _atom_site_fract_z
 _atom_site_occupancy
  Li  Li0  1  0.99999969  0.49999952  0.99999975  1
  Li  Li1  1  0.50000032  0.00000048  0.99999997  1
  O  O2  1  0.44713942  0.73439331  0.81684139  1
  O  O3  1  0.69431175  0.00098206  0.37456646  1
  O  O4  1  0.80549331  0.12333871  0.63763104  1
  O  O5  1  0.42042550  0.05210100  0.31634943  1
  O  O6  1  0.12895106  0.79836738  0.80792410  1
  O  O7  1  0.30568805  0.99901744  0.62543370  1
  O  O8  1  0.19450649  0.87666079  0.36236913  1
  O  O9  1  0.57957430  0.94789850  0.68365074  1
  O  O10  1  0.05415081  0.42039000  0.18705391  1
  O  O11  1  0.26424828  0.55210100  0.97252693  1
  O  O12  1  0.87105011  0.20163213  0.19207539  1
  O  O13  1  0.00955632  0.29836738  0.42731838  1
  O  O14  1  0.76666337  0.92039096  0.97454143  1
  O  O15  1  0.08244772  0.23439331  0.68153242  1
  O  O16  1  0.37358355  0.50098255  0.19529458  1
  O  O17  1  0.51429147  0.62333920  0.42883291  1
  O  O18  1  0.94584899  0.57960951  0.81294626  1
  O  O19  1  0.62641576  0.49901841  0.80470655  1
  O  O20  1  0.91755208  0.76560619  0.31846655  1
  O  O21  1  0.23333594  0.07961000  0.02545970  1
  O  O22  1  0.99044348  0.70163213  0.57268178  1
  O  O23  1  0.55286038  0.26560619  0.18315877  1
  O  O24  1  0.73575289  0.44789851  0.02747256  1
  O  O25  1  0.48570784  0.37666176  0.57116822  1
  P  P26  1  0.25071629  0.03637568  0.49695722  1
  P  P27  1  0.96249874  0.75000023  0.78750128  1
  P  P28  1  0.53941813  0.46362383  0.21290801  1
  P  P29  1  0.46058167  0.53637567  0.78709216  1
  P  P30  1  0.74928351  0.96362383  0.50304175  1
  P  P31  1  0.03750058  0.25000073  0.21249985  1
  Mn  Mn32  1  0.36113248  0.85761362  0.71859468  1
  Mn  Mn33  1  0.13901918  0.64238638  0.28125367  1
  Mn  Mn34  1  0.86098062  0.35761313  0.71874650  1
  Mn  Mn35  1  0.63886732  0.14238589  0.28140549  1
