# generated using pymatgen
data_Dy2Ti2O7
_symmetry_space_group_name_H-M   'P 1'
_cell_length_a   7.19136666
_cell_length_b   7.19136640
_cell_length_c   7.19136645
_cell_angle_alpha   60.00000214
_cell_angle_beta   59.99999904
_cell_angle_gamma   59.99999882
_symmetry_Int_Tables_number   1
_chemical_formula_structural   Dy2Ti2O7
_chemical_formula_sum   'Dy4 Ti4 O14'
_cell_volume   262.97791096
_cell_formula_units_Z   2
loop_
 _symmetry_equiv_pos_site_id
 _symmetry_equiv_pos_as_xyz
  1  'x, y, z'
loop_
 _atom_site_type_symbol
 _atom_site_label
 _atom_site_symmetry_multiplicity
 _atom_site_fract_x
 _atom_site_fract_y
 _atom_site_fract_z
 _atom_site_occupancy
  Dy  Dy0  1  0.00000000  0.50000000  0.50000000  1
  Dy  Dy1  1  0.50000000  0.50000000  0.00000000  1
  Dy  Dy2  1  0.50000000  0.00000000  0.50000000  1
  Dy  Dy3  1  0.50000000  0.50000000  0.50000000  1
  O  O4  1  0.91981144  0.33018856  0.91981144  1
  O  O5  1  0.66981144  0.08018856  0.66981144  1
  O  O6  1  0.91981144  0.91981144  0.33018856  1
  O  O7  1  0.66981144  0.66981144  0.08018856  1
  O  O8  1  0.33018856  0.91981144  0.91981144  1
  O  O9  1  0.66981144  0.08018856  0.08018856  1
  O  O10  1  0.91981144  0.33018856  0.33018856  1
  O  O11  1  0.62500000  0.62500000  0.62500000  1
  O  O12  1  0.33018856  0.91981144  0.33018856  1
  O  O13  1  0.33018856  0.33018856  0.91981144  1
  O  O14  1  0.08018856  0.66981144  0.66981144  1
  O  O15  1  0.37500000  0.37500000  0.37500000  1
  O  O16  1  0.08018856  0.66981144  0.08018856  1
  O  O17  1  0.08018856  0.08018856  0.66981144  1
  Ti  Ti18  1  0.00000000  0.00000000  0.00000000  1
  Ti  Ti19  1  0.00000000  0.00000000  0.50000000  1
  Ti  Ti20  1  0.00000000  0.50000000  0.00000000  1
  Ti  Ti21  1  0.50000000  0.00000000  0.00000000  1
