# generated using pymatgen
data_La5AgSe8
_symmetry_space_group_name_H-M   'P 1'
_cell_length_a   7.86342972
_cell_length_b   7.86343007
_cell_length_c   7.86343042
_cell_angle_alpha   109.83466266
_cell_angle_beta   109.83466089
_cell_angle_gamma   108.74675558
_symmetry_Int_Tables_number   1
_chemical_formula_structural   La5AgSe8
_chemical_formula_sum   'La5 Ag1 Se8'
_cell_volume   374.25034639
_cell_formula_units_Z   1
loop_
 _symmetry_equiv_pos_site_id
 _symmetry_equiv_pos_as_xyz
  1  'x, y, z'
loop_
 _atom_site_type_symbol
 _atom_site_label
 _atom_site_symmetry_multiplicity
 _atom_site_fract_x
 _atom_site_fract_y
 _atom_site_fract_z
 _atom_site_occupancy
  Ag  Ag0  1  0.87500000  0.12500000  0.75000000  1
  La  La1  1  0.11253630  0.74546715  0.86961294  1
  La  La2  1  0.25453285  0.62414578  0.36706915  1
  La  La3  1  0.37585422  0.24292337  0.63038706  1
  La  La4  1  0.62500000  0.37500000  0.25000000  1
  La  La5  1  0.75707663  0.88746370  0.13293085  1
  Se  Se6  1  0.48383387  0.99255389  0.85420263  1
  Se  Se7  1  0.14775231  0.14769763  0.13730590  1
  Se  Se8  1  0.37036876  0.51616613  0.00872003  1
  Se  Se9  1  0.63835127  0.62963124  0.64579737  1
  Se  Se10  1  0.51039173  0.01044641  0.36269410  1
  Se  Se11  1  0.98955359  0.85224769  0.49994532  1
  Se  Se12  1  0.85230237  0.48960827  1.00005468  1
  Se  Se13  1  0.00744611  0.36164873  0.49127997  1
