# generated using pymatgen
data_Nd5AgSe8
_symmetry_space_group_name_H-M   'P 1'
_cell_length_a   7.74477528
_cell_length_b   7.74477547
_cell_length_c   7.74477512
_cell_angle_alpha   109.81549472
_cell_angle_beta   109.81549214
_cell_angle_gamma   108.78484238
_symmetry_Int_Tables_number   1
_chemical_formula_structural   Nd5AgSe8
_chemical_formula_sum   'Nd5 Ag1 Se8'
_cell_volume   357.56740532
_cell_formula_units_Z   1
loop_
 _symmetry_equiv_pos_site_id
 _symmetry_equiv_pos_as_xyz
  1  'x, y, z'
loop_
 _atom_site_type_symbol
 _atom_site_label
 _atom_site_symmetry_multiplicity
 _atom_site_fract_x
 _atom_site_fract_y
 _atom_site_fract_z
 _atom_site_occupancy
  Ag  Ag0  1  0.87500000  0.12500000  0.75000000  1
  Nd  Nd1  1  0.11498546  0.74728421  0.87180920  1
  Nd  Nd2  1  0.25271579  0.62452499  0.36770125  1
  Nd  Nd3  1  0.37547501  0.24317626  0.62819080  1
  Nd  Nd4  1  0.62500000  0.37500000  0.25000000  1
  Nd  Nd5  1  0.75682374  0.88501454  0.13229875  1
  Se  Se6  1  0.99251385  0.85092122  0.50063593  1
  Se  Se7  1  0.00676773  0.36111899  0.49304585  1
  Se  Se8  1  0.48627812  0.99323227  0.85435127  1
  Se  Se9  1  0.14907878  0.14971471  0.14159263  1
  Se  Se10  1  0.36807315  0.51372188  0.00695415  1
  Se  Se11  1  0.63888101  0.63192685  0.64564873  1
  Se  Se12  1  0.50812208  0.00748615  0.35840737  1
  Se  Se13  1  0.85028529  0.49187792  0.99936407  1
