# generated using pymatgen
data_LiErSe2
_symmetry_space_group_name_H-M   'P 1'
_cell_length_a   7.98968682
_cell_length_b   10.63244277
_cell_length_c   7.01530869
_cell_angle_alpha   29.10451827
_cell_angle_beta   55.27897793
_cell_angle_gamma   41.27300152
_symmetry_Int_Tables_number   1
_chemical_formula_structural   LiErSe2
_chemical_formula_sum   'Li2 Er2 Se4'
_cell_volume   184.03422301
_cell_formula_units_Z   2
loop_
 _symmetry_equiv_pos_site_id
 _symmetry_equiv_pos_as_xyz
  1  'x, y, z'
loop_
 _atom_site_type_symbol
 _atom_site_label
 _atom_site_symmetry_multiplicity
 _atom_site_fract_x
 _atom_site_fract_y
 _atom_site_fract_z
 _atom_site_occupancy
  Er  Er0  1  0.25016669  0.49991092  0.99996791  1
  Er  Er1  1  0.49983331  0.00008908  0.00003209  1
  Li  Li2  1  0.00000645  1.00000038  0.99999360  1
  Li  Li3  1  0.74999355  0.49999962  0.00000640  1
  Se  Se4  1  0.25422857  0.00015385  0.49128671  1
  Se  Se5  1  0.00428718  0.50014412  0.49118574  1
  Se  Se6  1  0.74571282  0.99985588  0.50881426  1
  Se  Se7  1  0.49577143  0.49984615  0.50871329  1
