# generated using pymatgen
data_Ca(PrTe2)2
_symmetry_space_group_name_H-M   'P 1'
_cell_length_a   8.32624610
_cell_length_b   8.32624572
_cell_length_c   8.32624638
_cell_angle_alpha   109.73736593
_cell_angle_beta   109.73735943
_cell_angle_gamma   108.94023646
_symmetry_Int_Tables_number   1
_chemical_formula_structural   Ca(PrTe2)2
_chemical_formula_sum   'Ca2 Pr4 Te8'
_cell_volume   444.32208088
_cell_formula_units_Z   2
loop_
 _symmetry_equiv_pos_site_id
 _symmetry_equiv_pos_as_xyz
  1  'x, y, z'
loop_
 _atom_site_type_symbol
 _atom_site_label
 _atom_site_symmetry_multiplicity
 _atom_site_fract_x
 _atom_site_fract_y
 _atom_site_fract_z
 _atom_site_occupancy
  Ca  Ca0  1  0.62500000  0.37500000  0.25000000  1
  Ca  Ca1  1  0.87500000  0.12500000  0.75000000  1
  Pr  Pr2  1  0.12426648  0.75000000  0.87426648  1
  Pr  Pr3  1  0.25000000  0.62426648  0.37426648  1
  Pr  Pr4  1  0.37573352  0.25000000  0.62573352  1
  Pr  Pr5  1  0.75000000  0.87573352  0.12573352  1
  Te  Te6  1  0.00208248  0.85338201  0.50219853  1
  Te  Te7  1  -0.00011604  0.35118348  0.49780147  1
  Te  Te8  1  0.14661799  0.14881652  0.14870048  1
  Te  Te9  1  0.35338201  0.50208248  0.00219853  1
  Te  Te10  1  0.49791752  1.00011604  0.85129952  1
  Te  Te11  1  0.64881652  0.64661799  0.64870048  1
  Te  Te12  1  0.50011604  0.99791752  0.35129952  1
  Te  Te13  1  0.85118348  0.49988396  0.99780147  1
