# generated using pymatgen
data_LiYSe2
_symmetry_space_group_name_H-M   'P 1'
_cell_length_a   8.05995487
_cell_length_b   10.71440543
_cell_length_c   7.05953750
_cell_angle_alpha   29.12596406
_cell_angle_beta   55.18381524
_cell_angle_gamma   41.20373876
_symmetry_Int_Tables_number   1
_chemical_formula_structural   LiYSe2
_chemical_formula_sum   'Li2 Y2 Se4'
_cell_volume   188.25763419
_cell_formula_units_Z   2
loop_
 _symmetry_equiv_pos_site_id
 _symmetry_equiv_pos_as_xyz
  1  'x, y, z'
loop_
 _atom_site_type_symbol
 _atom_site_label
 _atom_site_symmetry_multiplicity
 _atom_site_fract_x
 _atom_site_fract_y
 _atom_site_fract_z
 _atom_site_occupancy
  Li  Li0  1  0.24998611  0.50000443  0.00000989  1
  Li  Li1  1  0.50001389  0.99999557  0.99999011  1
  Se  Se2  1  0.24681728  1.00009237  0.50631489  1
  Se  Se3  1  0.50318272  0.49990763  0.49368511  1
  Se  Se4  1  0.99683670  0.50003633  0.50630460  1
  Se  Se5  1  0.75316330  -0.00003633  0.49369540  1
  Y  Y6  1  -0.00001823  1.00003184  0.99998185  1
  Y  Y7  1  0.75001823  0.49996816  0.00001815  1
