# generated using pymatgen
data_BaMnO3
_symmetry_space_group_name_H-M   'P 1'
_cell_length_a   5.74633193
_cell_length_b   5.74633192
_cell_length_c   9.42749756
_cell_angle_alpha   90.00000000
_cell_angle_beta   90.00000000
_cell_angle_gamma   120.00000009
_symmetry_Int_Tables_number   1
_chemical_formula_structural   BaMnO3
_chemical_formula_sum   'Ba4 Mn4 O12'
_cell_volume   269.59291666
_cell_formula_units_Z   4
loop_
 _symmetry_equiv_pos_site_id
 _symmetry_equiv_pos_as_xyz
  1  'x, y, z'
loop_
 _atom_site_type_symbol
 _atom_site_label
 _atom_site_symmetry_multiplicity
 _atom_site_fract_x
 _atom_site_fract_y
 _atom_site_fract_z
 _atom_site_occupancy
  Ba  Ba0  1  0.00000000  0.00000000  0.00000000  1
  Ba  Ba1  1  0.66666700  0.33333300  0.75000000  1
  Ba  Ba2  1  0.33333300  0.66666700  0.25000000  1
  Ba  Ba3  1  0.00000000  0.00000000  0.50000000  1
  Mn  Mn4  1  0.33333300  0.66666700  0.88793205  1
  Mn  Mn5  1  0.33333300  0.66666700  0.61206795  1
  Mn  Mn6  1  0.66666700  0.33333300  0.38793205  1
  Mn  Mn7  1  0.66666700  0.33333300  0.11206795  1
  O  O8  1  0.81246197  0.62492394  0.25000000  1
  O  O9  1  0.37507606  0.18753803  0.25000000  1
  O  O10  1  0.00000000  0.50000000  0.00000000  1
  O  O11  1  0.18753803  0.37507606  0.75000000  1
  O  O12  1  0.50000000  0.50000000  0.00000000  1
  O  O13  1  0.50000000  0.50000000  0.50000000  1
  O  O14  1  0.18753803  0.81246197  0.75000000  1
  O  O15  1  0.62492394  0.81246197  0.75000000  1
  O  O16  1  0.81246197  0.18753803  0.25000000  1
  O  O17  1  0.50000000  0.00000000  0.50000000  1
  O  O18  1  0.50000000  0.00000000  0.00000000  1
  O  O19  1  0.00000000  0.50000000  0.50000000  1
