# generated using pymatgen
data_Pr5AgSe8
_symmetry_space_group_name_H-M   'P 1'
_cell_length_a   7.79649368
_cell_length_b   7.79649415
_cell_length_c   7.79649385
_cell_angle_alpha   109.88589801
_cell_angle_beta   109.88590467
_cell_angle_gamma   108.64500429
_symmetry_Int_Tables_number   1
_chemical_formula_structural   Pr5AgSe8
_chemical_formula_sum   'Pr5 Ag1 Se8'
_cell_volume   364.76110608
_cell_formula_units_Z   1
loop_
 _symmetry_equiv_pos_site_id
 _symmetry_equiv_pos_as_xyz
  1  'x, y, z'
loop_
 _atom_site_type_symbol
 _atom_site_label
 _atom_site_symmetry_multiplicity
 _atom_site_fract_x
 _atom_site_fract_y
 _atom_site_fract_z
 _atom_site_occupancy
  Ag  Ag0  1  0.87500000  0.12500000  0.75000000  1
  Pr  Pr1  1  0.11343118  0.74682606  0.87097941  1
  Pr  Pr2  1  0.25317394  0.62415335  0.36660511  1
  Pr  Pr3  1  0.37584665  0.24245176  0.62902059  1
  Pr  Pr4  1  0.75754824  0.88656882  0.13339489  1
  Pr  Pr5  1  0.62500000  0.37500000  0.25000000  1
  Se  Se6  1  0.99143713  0.85294547  0.50180560  1
  Se  Se7  1  0.14705453  0.14886013  0.13849166  1
  Se  Se8  1  0.37028348  0.51532019  0.00770616  1
  Se  Se9  1  0.63742268  0.62971652  0.64503671  1
  Se  Se10  1  0.48467981  0.99238596  0.85496329  1
  Se  Se11  1  0.51036847  0.00856287  0.36150834  1
  Se  Se12  1  0.85113987  0.48963153  0.99819440  1
  Se  Se13  1  0.00761404  0.36257732  0.49229384  1
