# generated using pymatgen
data_LiV(PO4)2
_symmetry_space_group_name_H-M   'P 1'
_cell_length_a   5.77359908
_cell_length_b   4.89331752
_cell_length_c   9.78810403
_cell_angle_alpha   90.00000000
_cell_angle_beta   89.98880197
_cell_angle_gamma   90.00000000
_symmetry_Int_Tables_number   1
_chemical_formula_structural   LiV(PO4)2
_chemical_formula_sum   'Li2 V2 P4 O16'
_cell_volume   276.53403401
_cell_formula_units_Z   2
loop_
 _symmetry_equiv_pos_site_id
 _symmetry_equiv_pos_as_xyz
  1  'x, y, z'
loop_
 _atom_site_type_symbol
 _atom_site_label
 _atom_site_symmetry_multiplicity
 _atom_site_fract_x
 _atom_site_fract_y
 _atom_site_fract_z
 _atom_site_occupancy
  Li  Li0  1  0.74511231  0.06940563  0.71641921  1
  Li  Li1  1  0.74511216  0.43059415  0.21641857  1
  O  O2  1  0.44653909  0.29516020  0.66476450  1
  O  O3  1  0.04390559  0.20491681  0.16484664  1
  O  O4  1  0.24515981  0.33886929  0.93763812  1
  O  O5  1  0.24515966  0.16113050  0.43763748  1
  O  O6  1  0.24527835  0.82796198  0.63314581  1
  O  O7  1  0.24527820  0.67203942  0.13314517  1
  O  O8  1  0.04390574  0.29508297  0.66484627  1
  O  O9  1  0.44653894  0.20483958  0.16476386  1
  O  O10  1  0.52327439  0.69792877  0.83189214  1
  O  O11  1  0.52327424  0.80207059  0.33189252  1
  O  O12  1  0.96703144  0.80209413  0.33187289  1
  O  O13  1  0.74511623  0.24215458  0.38496128  1
  O  O14  1  0.74513636  0.84103680  0.55418602  1
  O  O15  1  0.74513621  0.65896255  0.05418640  1
  O  O16  1  0.96703159  0.69790522  0.83187251  1
  O  O17  1  0.74511637  0.25784520  0.88496090  1
  P  P18  1  0.24523859  0.13446767  0.59353244  1
  P  P19  1  0.24523845  0.36553211  0.09353282  1
  P  P20  1  0.74513430  0.55858422  0.90962265  1
  P  P21  1  0.74513415  0.94141718  0.40962201  1
  V  V22  1  0.24517983  0.55570423  0.76831895  1
  V  V23  1  0.24517969  0.94429716  0.26831933  1
