# generated using pymatgen
data_Tl9BiTe6
_symmetry_space_group_name_H-M   'P 1'
_cell_length_a   8.98328794
_cell_length_b   8.98321969
_cell_length_c   9.26613101
_cell_angle_alpha   118.99179377
_cell_angle_beta   118.98809620
_cell_angle_gamma   90.00495962
_symmetry_Int_Tables_number   1
_chemical_formula_structural   Tl9BiTe6
_chemical_formula_sum   'Tl9 Bi1 Te6'
_cell_volume   544.47243259
_cell_formula_units_Z   1
loop_
 _symmetry_equiv_pos_site_id
 _symmetry_equiv_pos_as_xyz
  1  'x, y, z'
loop_
 _atom_site_type_symbol
 _atom_site_label
 _atom_site_symmetry_multiplicity
 _atom_site_fract_x
 _atom_site_fract_y
 _atom_site_fract_z
 _atom_site_occupancy
  Tl  Tl0  1  0.01131393  0.51123182  0.31591934  1
  Tl  Tl1  1  0.19518447  0.98867001  0.68391143  1
  Tl  Tl2  1  0.00000000  0.00000000  0.00000000  1
  Tl  Tl3  1  0.30452457  0.80466207  0.31587098  1
  Tl  Tl4  1  0.48879336  0.69533591  0.68390148  1
  Tl  Tl5  1  0.51120664  0.30466409  0.31609852  1
  Tl  Tl6  1  0.69547543  0.19533793  0.68412902  1
  Tl  Tl7  1  0.80481553  0.01132999  0.31608857  1
  Tl  Tl8  1  0.98868607  0.48876818  0.68408066  1
  Bi  Bi9  1  0.50000000  0.50000000  0.00000000  1
  Te  Te10  1  0.26119326  0.26103223  0.52224229  1
  Te  Te11  1  0.17365164  0.34803345  0.00000950  1
  Te  Te12  1  0.34808239  0.82636917  0.99998505  1
  Te  Te13  1  0.73880674  0.73896777  0.47775771  1
  Te  Te14  1  0.65191761  0.17363083  0.00001495  1
  Te  Te15  1  0.82634836  0.65196655  0.99999050  1
