# generated using pymatgen
data_Ag6Mo10O33
_symmetry_space_group_name_H-M   'P 1'
_cell_length_a   7.68842477
_cell_length_b   8.48130692
_cell_length_c   11.55226619
_cell_angle_alpha   86.85006872
_cell_angle_beta   78.11979683
_cell_angle_gamma   76.36305130
_symmetry_Int_Tables_number   1
_chemical_formula_structural   Ag6Mo10O33
_chemical_formula_sum   'Ag6 Mo10 O33'
_cell_volume   716.36583585
_cell_formula_units_Z   1
loop_
 _symmetry_equiv_pos_site_id
 _symmetry_equiv_pos_as_xyz
  1  'x, y, z'
loop_
 _atom_site_type_symbol
 _atom_site_label
 _atom_site_symmetry_multiplicity
 _atom_site_fract_x
 _atom_site_fract_y
 _atom_site_fract_z
 _atom_site_occupancy
  O  O0  1  0.80651669  0.82779982  0.47551491  1
  O  O1  1  0.19348351  0.17220051  0.52448420  1
  O  O2  1  0.71088367  0.17064780  0.47935380  1
  O  O3  1  0.28911621  0.82935179  0.52064576  1
  O  O4  1  0.60553390  0.62616219  0.39283434  1
  O  O5  1  0.39446542  0.37383771  0.60716539  1
  O  O6  1  0.15836905  0.64953818  0.37706300  1
  O  O7  1  0.84163082  0.35046113  0.62293718  1
  O  O8  1  0.55365829  0.98706083  0.37856155  1
  O  O9  1  0.44634190  0.01293920  0.62143736  1
  O  O10  1  0.02852816  0.00333030  0.38071129  1
  O  O11  1  0.97147235  0.99666954  0.61928764  1
  O  O12  1  0.96807989  0.35584982  0.37898712  1
  O  O13  1  0.03191965  0.64415009  0.62101308  1
  O  O14  1  0.41689425  0.32589762  0.36938123  1
  O  O15  1  0.58310622  0.67410334  0.63061852  1
  O  O16  1  -0.00000106  0.00000077  0.00000021  1
  O  O17  1  0.90018088  0.31915592  0.00374202  1
  O  O18  1  0.09981939  0.68084447  0.99625800  1
  O  O19  1  0.34691159  0.00433857  0.92328423  1
  O  O20  1  0.65308761  0.99566143  0.07671579  1
  O  O21  1  0.47886137  0.65854431  0.90894064  1
  O  O22  1  0.52114046  0.34145536  0.09105923  1
  O  O23  1  0.24869106  0.34743122  0.90556338  1
  O  O24  1  0.89234480  0.83750933  0.21994432  1
  O  O25  1  0.80816984  0.80023727  0.87428112  1
  O  O26  1  0.19183076  0.19976254  0.12571920  1
  O  O27  1  0.68518267  0.19815338  0.87460977  1
  O  O28  1  0.31481742  0.80184744  0.12538970  1
  O  O29  1  0.21448711  0.82881780  0.77489522  1
  O  O30  1  0.78551301  0.17118223  0.22510459  1
  O  O31  1  0.10765549  0.16249078  0.78005498  1
  O  O32  1  0.75130892  0.65256937  0.09443691  1
  Mo  Mo33  1  0.81217852  0.99940645  0.31934283  1
  Mo  Mo34  1  0.18782159  0.00059344  0.68065650  1
  Mo  Mo35  1  0.71307439  0.19948922  0.02149912  1
  Mo  Mo36  1  0.28692595  0.80051064  0.97850099  1
  Mo  Mo37  1  0.84783080  0.80690826  0.01871922  1
  Mo  Mo38  1  0.15216900  0.19309165  0.98128137  1
  Mo  Mo39  1  0.94011542  0.22471374  0.50135063  1
  Mo  Mo40  1  0.05988496  0.77528576  0.49864843  1
  Mo  Mo41  1  0.55847657  0.77655950  0.49836028  1
  Mo  Mo42  1  0.44152337  0.22344131  0.50163775  1
  Ag  Ag43  1  0.82254815  0.47409002  0.23459468  1
  Ag  Ag44  1  0.17745077  0.52590924  0.76540554  1
  Ag  Ag45  1  0.26651066  0.47142853  0.22172667  1
  Ag  Ag46  1  0.73349072  0.52857119  0.77827345  1
  Ag  Ag47  1  0.35075166  0.99843905  0.24679835  1
  Ag  Ag48  1  0.64924918  0.00156195  0.75320151  1
