# generated using pymatgen
data_MnCu(Te2O5)2
_symmetry_space_group_name_H-M   'P 1'
_cell_length_a   8.96855261
_cell_length_b   8.96855261
_cell_length_c   12.88854714
_cell_angle_alpha   90.00000000
_cell_angle_beta   90.00000000
_cell_angle_gamma   90.00000000
_symmetry_Int_Tables_number   1
_chemical_formula_structural   MnCu(Te2O5)2
_chemical_formula_sum   'Mn4 Cu4 Te16 O40'
_cell_volume   1036.68946329
_cell_formula_units_Z   4
loop_
 _symmetry_equiv_pos_site_id
 _symmetry_equiv_pos_as_xyz
  1  'x, y, z'
loop_
 _atom_site_type_symbol
 _atom_site_label
 _atom_site_symmetry_multiplicity
 _atom_site_fract_x
 _atom_site_fract_y
 _atom_site_fract_z
 _atom_site_occupancy
  O  O0  1  0.04396437  0.04396437  0.75000000  1
  O  O1  1  0.45603563  0.04396437  0.25000000  1
  O  O2  1  0.04396437  0.45603563  0.25000000  1
  O  O3  1  0.45603563  0.45603563  0.75000000  1
  O  O4  1  0.95603563  0.95603563  0.25000000  1
  O  O5  1  0.54396437  0.95603563  0.75000000  1
  O  O6  1  0.95603563  0.54396437  0.75000000  1
  O  O7  1  0.54396437  0.54396437  0.25000000  1
  O  O8  1  0.87848380  0.51675909  0.95085702  1
  O  O9  1  0.62151520  0.98324091  0.95085702  1
  O  O10  1  0.51675909  0.87848380  0.54914298  1
  O  O11  1  0.51675909  0.62151520  0.45085602  1
  O  O12  1  0.98324091  0.87848380  0.45085602  1
  O  O13  1  0.62151520  0.51675909  0.04914298  1
  O  O14  1  0.87848380  0.98324091  0.04914298  1
  O  O15  1  0.61694351  0.67324431  0.86363979  1
  O  O16  1  0.12151620  0.48324091  0.04914298  1
  O  O17  1  0.37848480  0.01675909  0.04914298  1
  O  O18  1  0.48324091  0.12151620  0.45085602  1
  O  O19  1  0.48324091  0.37848480  0.54914298  1
  O  O20  1  0.01675909  0.12151620  0.54914298  1
  O  O21  1  0.37848480  0.48324091  0.95085702  1
  O  O22  1  0.12151620  0.01675909  0.95085702  1
  O  O23  1  0.01675909  0.37848480  0.45085602  1
  O  O24  1  0.17324331  0.11694451  0.36363879  1
  O  O25  1  0.38305649  0.17324331  0.86363979  1
  O  O26  1  0.11694451  0.32675569  0.86363979  1
  O  O27  1  0.17324331  0.38305649  0.63636021  1
  O  O28  1  0.32675569  0.11694451  0.63636021  1
  O  O29  1  0.32675569  0.38305649  0.36363879  1
  O  O30  1  0.11694451  0.17324331  0.13636121  1
  O  O31  1  0.38305649  0.32675569  0.13636121  1
  O  O32  1  0.82675669  0.88305549  0.63636021  1
  O  O33  1  0.61694351  0.82675669  0.13636121  1
  O  O34  1  0.88305549  0.67324431  0.13636121  1
  O  O35  1  0.82675669  0.61694351  0.36363879  1
  O  O36  1  0.67324431  0.88305549  0.36363879  1
  O  O37  1  0.67324431  0.61694351  0.63636021  1
  O  O38  1  0.88305549  0.82675669  0.86363979  1
  O  O39  1  0.98324091  0.62151520  0.54914298  1
  Mn  Mn40  1  0.25000000  0.25000000  0.00000000  1
  Mn  Mn41  1  0.25000000  0.25000000  0.50000000  1
  Mn  Mn42  1  0.75000000  0.75000000  0.00000000  1
  Mn  Mn43  1  0.75000000  0.75000000  0.50000000  1
  Cu  Cu44  1  0.25000000  0.25000000  0.25000000  1
  Cu  Cu45  1  0.25000000  0.25000000  0.75000000  1
  Cu  Cu46  1  0.75000000  0.75000000  0.75000000  1
  Cu  Cu47  1  0.75000000  0.75000000  0.25000000  1
  Te  Te48  1  0.03424149  0.92971528  0.61673911  1
  Te  Te49  1  0.57028472  0.03424149  0.11673811  1
  Te  Te50  1  0.46575951  0.92971528  0.38326089  1
  Te  Te51  1  0.46575951  0.57028472  0.61673911  1
  Te  Te52  1  0.92971528  0.46575951  0.11673811  1
  Te  Te53  1  0.57028472  0.46575951  0.88326189  1
  Te  Te54  1  0.92971528  0.03424149  0.88326189  1
  Te  Te55  1  0.03424149  0.57028472  0.38326089  1
  Te  Te56  1  0.96575851  0.42971528  0.61673911  1
  Te  Te57  1  0.07028472  0.96575851  0.11673811  1
  Te  Te58  1  0.42971528  0.53424049  0.11673811  1
  Te  Te59  1  0.96575851  0.07028472  0.38326089  1
  Te  Te60  1  0.53424049  0.42971528  0.38326089  1
  Te  Te61  1  0.53424049  0.07028472  0.61673911  1
  Te  Te62  1  0.42971528  0.96575851  0.88326189  1
  Te  Te63  1  0.07028472  0.53424049  0.88326189  1
