# generated using pymatgen
data_K2Cr3O10
_symmetry_space_group_name_H-M   'P 1'
_cell_length_a   7.65577365
_cell_length_b   7.66365438
_cell_length_c   18.24806062
_cell_angle_alpha   90.00000000
_cell_angle_beta   90.00000000
_cell_angle_gamma   100.08349897
_symmetry_Int_Tables_number   1
_chemical_formula_structural   K2Cr3O10
_chemical_formula_sum   'K8 Cr12 O40'
_cell_volume   1054.09825491
_cell_formula_units_Z   4
loop_
 _symmetry_equiv_pos_site_id
 _symmetry_equiv_pos_as_xyz
  1  'x, y, z'
loop_
 _atom_site_type_symbol
 _atom_site_label
 _atom_site_symmetry_multiplicity
 _atom_site_fract_x
 _atom_site_fract_y
 _atom_site_fract_z
 _atom_site_occupancy
  O  O0  1  0.29329085  0.88969287  0.30989203  1
  O  O1  1  0.20670915  0.61030713  0.80989203  1
  O  O2  1  0.70670915  0.11030713  0.69010797  1
  O  O3  1  0.79329085  0.38969287  0.19010797  1
  O  O4  1  0.78561661  0.42142628  0.43123995  1
  O  O5  1  0.71438339  0.07857372  0.93123995  1
  O  O6  1  0.21438339  0.57857372  0.56876005  1
  O  O7  1  0.28561661  0.92142628  0.06876005  1
  O  O8  1  0.37713439  0.18991780  0.23564695  1
  O  O9  1  0.12286561  0.31008220  0.73564695  1
  O  O10  1  0.62286561  0.81008220  0.76435305  1
  O  O11  1  0.87713439  0.68991780  0.26435305  1
  O  O12  1  0.73846661  0.45188102  0.02474940  1
  O  O13  1  0.76153339  0.04811898  0.52474940  1
  O  O14  1  0.37840890  0.25291571  0.93698080  1
  O  O15  1  0.26153339  0.54811898  0.97525060  1
  O  O16  1  0.41425126  0.05486106  0.77393684  1
  O  O17  1  0.08574874  0.44513894  0.27393684  1
  O  O18  1  0.58574874  0.94513894  0.22606316  1
  O  O19  1  0.91425126  0.55486106  0.72606316  1
  O  O20  1  0.99325443  0.96789049  0.13747360  1
  O  O21  1  0.50674557  0.53210951  0.63747360  1
  O  O22  1  0.00674557  0.03210951  0.86252640  1
  O  O23  1  0.49325443  0.46789049  0.36252640  1
  O  O24  1  0.96856482  0.77606473  0.01033653  1
  O  O25  1  0.53143518  0.72393527  0.51033653  1
  O  O26  1  0.03143518  0.22393527  0.98966347  1
  O  O27  1  0.46856482  0.27606473  0.48966347  1
  O  O28  1  0.09315039  0.64469183  0.14520096  1
  O  O29  1  0.40684961  0.85530817  0.64520096  1
  O  O30  1  0.90684961  0.35530817  0.85479904  1
  O  O31  1  0.59315039  0.14469183  0.35479904  1
  O  O32  1  0.66218574  0.67102648  0.92074648  1
  O  O33  1  0.83781426  0.82897352  0.42074648  1
  O  O34  1  0.33781426  0.32897352  0.07925352  1
  O  O35  1  0.16218574  0.17102648  0.57925352  1
  O  O36  1  0.87840890  0.75291571  0.56301920  1
  O  O37  1  0.62159110  0.74708429  0.06301920  1
  O  O38  1  0.12159110  0.24708429  0.43698080  1
  O  O39  1  0.23846661  0.95188102  0.47525060  1
  K  K40  1  0.52619127  0.43614023  0.80365709  1
  K  K41  1  0.97380873  0.06385977  0.30365709  1
  K  K42  1  0.47380873  0.56385977  0.19634291  1
  K  K43  1  0.02619127  0.93614023  0.69634291  1
  K  K44  1  0.86640585  0.37164229  0.59071093  1
  K  K45  1  0.63359415  0.12835771  0.09071093  1
  K  K46  1  0.13359415  0.62835771  0.40928907  1
  K  K47  1  0.36640585  0.87164229  0.90928907  1
  Cr  Cr48  1  0.45680963  0.03758412  0.27952306  1
  Cr  Cr49  1  0.04319037  0.46241588  0.77952306  1
  Cr  Cr50  1  0.54319037  0.96241588  0.72047694  1
  Cr  Cr51  1  0.95680963  0.53758412  0.22047694  1
  Cr  Cr52  1  0.58629031  0.33155913  0.40920401  1
  Cr  Cr53  1  0.91370969  0.16844087  0.90920401  1
  Cr  Cr54  1  0.41370969  0.66844087  0.59079599  1
  Cr  Cr55  1  0.08629031  0.83155913  0.09079599  1
  Cr  Cr56  1  0.23801473  0.15686741  0.49653406  1
  Cr  Cr57  1  0.26198527  0.34313259  0.99653406  1
  Cr  Cr58  1  0.76198527  0.84313259  0.50346594  1
  Cr  Cr59  1  0.73801473  0.65686741  0.00346594  1
