# generated using pymatgen
data_Nd7Al7Co6
_symmetry_space_group_name_H-M   'P 1'
_cell_length_a   4.17515436
_cell_length_b   13.85095856
_cell_length_c   13.85095856
_cell_angle_alpha   90.00000000
_cell_angle_beta   90.00000000
_cell_angle_gamma   90.00000000
_symmetry_Int_Tables_number   1
_chemical_formula_structural   Nd7Al7Co6
_chemical_formula_sum   'Nd14 Al14 Co12'
_cell_volume   800.99941022
_cell_formula_units_Z   2
loop_
 _symmetry_equiv_pos_site_id
 _symmetry_equiv_pos_as_xyz
  1  'x, y, z'
loop_
 _atom_site_type_symbol
 _atom_site_label
 _atom_site_symmetry_multiplicity
 _atom_site_fract_x
 _atom_site_fract_y
 _atom_site_fract_z
 _atom_site_occupancy
  Al  Al0  1  0.00000000  0.00000000  0.50000000  1
  Al  Al1  1  0.00000000  0.50000000  0.00000000  1
  Al  Al2  1  0.50000000  0.21443494  0.71443494  1
  Al  Al3  1  0.50000000  0.28556506  0.21443494  1
  Al  Al4  1  0.50000000  0.71443494  0.78556506  1
  Al  Al5  1  0.50000000  0.78556506  0.28556506  1
  Al  Al6  1  0.50000000  0.09812874  0.13892940  1
  Al  Al7  1  0.50000000  0.86107060  0.09812874  1
  Al  Al8  1  0.50000000  0.13892940  0.90187126  1
  Al  Al9  1  0.50000000  0.90187126  0.86107060  1
  Al  Al10  1  0.50000000  0.59812874  0.36107060  1
  Al  Al11  1  0.50000000  0.40187126  0.63892940  1
  Al  Al12  1  0.50000000  0.63892940  0.59812874  1
  Al  Al13  1  0.50000000  0.36107060  0.40187126  1
  Co  Co14  1  0.50000000  0.07343248  0.57343248  1
  Co  Co15  1  0.50000000  0.42656752  0.07343248  1
  Co  Co16  1  0.50000000  0.57343248  0.92656752  1
  Co  Co17  1  0.50000000  0.92656752  0.42656752  1
  Co  Co18  1  0.00000000  0.28848311  0.33534285  1
  Co  Co19  1  0.00000000  0.66465715  0.28848311  1
  Co  Co20  1  0.00000000  0.33534285  0.71151689  1
  Co  Co21  1  0.00000000  0.71151689  0.66465715  1
  Co  Co22  1  0.00000000  0.78848311  0.16465715  1
  Co  Co23  1  0.00000000  0.21151689  0.83534285  1
  Co  Co24  1  0.00000000  0.83534285  0.78848311  1
  Co  Co25  1  0.00000000  0.16465715  0.21151689  1
  Nd  Nd26  1  0.00000000  0.00000000  0.00000000  1
  Nd  Nd27  1  0.00000000  0.50000000  0.50000000  1
  Nd  Nd28  1  0.50000000  0.36849288  0.86849288  1
  Nd  Nd29  1  0.50000000  0.13150712  0.36849288  1
  Nd  Nd30  1  0.50000000  0.86849288  0.63150712  1
  Nd  Nd31  1  0.50000000  0.63150712  0.13150712  1
  Nd  Nd32  1  0.00000000  0.26147628  0.04768645  1
  Nd  Nd33  1  0.00000000  0.95231355  0.26147628  1
  Nd  Nd34  1  0.00000000  0.04768645  0.73852372  1
  Nd  Nd35  1  0.00000000  0.73852372  0.95231355  1
  Nd  Nd36  1  0.00000000  0.76147628  0.45231355  1
  Nd  Nd37  1  0.00000000  0.23852372  0.54768645  1
  Nd  Nd38  1  0.00000000  0.54768645  0.76147628  1
  Nd  Nd39  1  0.00000000  0.45231355  0.23852372  1
