# generated using pymatgen
data_In2Ag2GeSe6
_symmetry_space_group_name_H-M   'P 1'
_cell_length_a   7.55430275
_cell_length_b   7.55430281
_cell_length_c   12.94660102
_cell_angle_alpha   73.37205040
_cell_angle_beta   73.37205024
_cell_angle_gamma   61.14517832
_symmetry_Int_Tables_number   1
_chemical_formula_structural   In2Ag2GeSe6
_chemical_formula_sum   'In4 Ag4 Ge2 Se12'
_cell_volume   610.31517898
_cell_formula_units_Z   2
loop_
 _symmetry_equiv_pos_site_id
 _symmetry_equiv_pos_as_xyz
  1  'x, y, z'
loop_
 _atom_site_type_symbol
 _atom_site_label
 _atom_site_symmetry_multiplicity
 _atom_site_fract_x
 _atom_site_fract_y
 _atom_site_fract_z
 _atom_site_occupancy
  Ag  Ag0  1  0.98292722  0.79886846  0.74454612  1
  Ag  Ag1  1  0.79886846  0.98292722  0.24454612  1
  Ag  Ag2  1  0.80199488  0.38502812  0.58120098  1
  Ag  Ag3  1  0.38502812  0.80199488  0.08120098  1
  In  In4  1  0.50159071  0.31697021  0.93567436  1
  In  In5  1  0.31697021  0.50159071  0.43567436  1
  In  In6  1  0.29480028  0.16626712  0.73787809  1
  In  In7  1  0.16626712  0.29480028  0.23787809  1
  Ge  Ge8  1  0.92937108  0.39704778  0.99474042  1
  Ge  Ge9  1  0.39704778  0.92937108  0.49474042  1
  Se  Se10  1  0.10990515  0.60078172  0.94646377  1
  Se  Se11  1  0.60078172  0.10990515  0.44646377  1
  Se  Se12  1  0.64322888  0.16218396  0.75177498  1
  Se  Se13  1  0.16218396  0.64322888  0.25177498  1
  Se  Se14  1  0.09981936  0.07471606  0.93803542  1
  Se  Se15  1  0.07471606  0.09981936  0.43803542  1
  Se  Se16  1  0.34878327  0.82558020  0.68747949  1
  Se  Se17  1  0.82558020  0.34878327  0.18747949  1
  Se  Se18  1  0.51307647  0.05268463  0.12428266  1
  Se  Se19  1  0.05268463  0.51307647  0.62428266  1
  Se  Se20  1  0.62965110  0.60052333  0.91302372  1
  Se  Se21  1  0.60052333  0.62965110  0.41302372  1
