# generated using pymatgen
data_V3(PO4)4
_symmetry_space_group_name_H-M   'P 1'
_cell_length_a   7.80610246
_cell_length_b   7.64520068
_cell_length_c   10.27869303
_cell_angle_alpha   90.00000000
_cell_angle_beta   94.37982016
_cell_angle_gamma   90.00000000
_symmetry_Int_Tables_number   1
_chemical_formula_structural   V3(PO4)4
_chemical_formula_sum   'V6 P8 O32'
_cell_volume   611.63300474
_cell_formula_units_Z   2
loop_
 _symmetry_equiv_pos_site_id
 _symmetry_equiv_pos_as_xyz
  1  'x, y, z'
loop_
 _atom_site_type_symbol
 _atom_site_label
 _atom_site_symmetry_multiplicity
 _atom_site_fract_x
 _atom_site_fract_y
 _atom_site_fract_z
 _atom_site_occupancy
  O  O0  1  0.06368261  0.13552768  0.89638697  1
  O  O1  1  0.05046763  0.15825238  0.41154840  1
  O  O2  1  0.10354017  0.20323829  0.65486040  1
  O  O3  1  0.09148672  0.18087423  0.14202858  1
  O  O4  1  0.17898931  0.54620154  0.71641215  1
  O  O5  1  0.15375948  0.54835255  0.21449286  1
  O  O6  1  0.24146178  0.36522348  0.96448534  1
  O  O7  1  0.21197117  0.86933159  0.75169707  1
  O  O8  1  0.28802958  0.36933250  0.49830221  1
  O  O9  1  0.25853897  0.86522388  0.28551491  1
  O  O10  1  0.32101015  0.04620113  0.53358803  1
  O  O11  1  0.39646058  0.70323869  0.59513986  1
  O  O12  1  0.34624115  0.04835345  0.03550670  1
  O  O13  1  0.44953311  0.65825279  0.83845186  1
  O  O14  1  0.40851263  0.68087464  0.10797090  1
  O  O15  1  0.43631686  0.63552678  0.35361321  1
  O  O16  1  0.59211999  0.36212460  0.65259805  1
  O  O17  1  0.59687704  0.33201766  0.89117070  1
  O  O18  1  0.56129741  0.36612452  0.14269946  1
  O  O19  1  0.65588578  0.96100466  0.97705512  1
  O  O20  1  0.59706676  0.31422624  0.37953467  1
  O  O21  1  0.63178041  0.92384588  0.45386523  1
  O  O22  1  0.73400952  0.61485162  0.50067200  1
  O  O23  1  0.93870185  0.86612362  0.10730116  1
  O  O24  1  0.73498968  0.63283541  0.01784805  1
  O  O25  1  0.76501086  0.13283501  0.23215166  1
  O  O26  1  0.86821897  0.42384678  0.79613413  1
  O  O27  1  0.90293261  0.81422664  0.87046567  1
  O  O28  1  0.84411488  0.46100425  0.27294530  1
  O  O29  1  0.90312362  0.83201807  0.35882874  1
  O  O30  1  0.90787939  0.86212370  0.59740229  1
  O  O31  1  0.76599114  0.11485122  0.74932842  1
  P  P32  1  0.19055188  0.19970277  0.51800233  1
  P  P33  1  0.20215638  0.17030724  0.02212622  1
  P  P34  1  0.30944758  0.69970187  0.73199785  1
  P  P35  1  0.29784425  0.67030764  0.22787432  1
  P  P36  1  0.70165281  0.30019030  0.77394296  1
  P  P37  1  0.70903928  0.32864681  0.24997788  1
  P  P38  1  0.79096009  0.82864722  1.00002245  1
  P  P39  1  0.79834657  0.80018940  0.47605639  1
  V  V40  1  0.09044925  0.35814824  0.80415797  1
  V  V41  1  0.40955149  0.85814864  0.44584229  1
  V  V42  1  0.52293426  0.46538083  0.49135536  1
  V  V43  1  0.51942103  0.52207899  0.00000171  1
  V  V44  1  0.97706640  0.96538124  0.75864505  1
  V  V45  1  0.98057823  0.02207990  0.24999891  1
