# generated using pymatgen
data_Pr6Fe13Au
_symmetry_space_group_name_H-M   'P 1'
_cell_length_a   8.06016104
_cell_length_b   8.06016104
_cell_length_c   12.96985062
_cell_angle_alpha   108.10304010
_cell_angle_beta   108.10304010
_cell_angle_gamma   90.00000000
_symmetry_Int_Tables_number   1
_chemical_formula_structural   Pr6Fe13Au
_chemical_formula_sum   'Pr12 Fe26 Au2'
_cell_volume   756.88802258
_cell_formula_units_Z   2
loop_
 _symmetry_equiv_pos_site_id
 _symmetry_equiv_pos_as_xyz
  1  'x, y, z'
loop_
 _atom_site_type_symbol
 _atom_site_label
 _atom_site_symmetry_multiplicity
 _atom_site_fract_x
 _atom_site_fract_y
 _atom_site_fract_z
 _atom_site_occupancy
  Pr  Pr0  1  0.97666520  0.47666520  0.62683185  1
  Pr  Pr1  1  0.65016664  0.15016664  0.62683185  1
  Pr  Pr2  1  0.15016664  0.97666520  0.62683185  1
  Pr  Pr3  1  0.47666520  0.65016664  0.62683185  1
  Pr  Pr4  1  0.02333480  0.52333480  0.37316815  1
  Pr  Pr5  1  0.34983336  0.84983336  0.37316815  1
  Pr  Pr6  1  0.84983336  0.02333480  0.37316815  1
  Pr  Pr7  1  0.52333480  0.34983336  0.37316815  1
  Pr  Pr8  1  0.60722223  0.60722223  0.21444446  1
  Pr  Pr9  1  0.10722223  0.10722223  0.21444446  1
  Pr  Pr10  1  0.39277777  0.39277777  0.78555554  1
  Pr  Pr11  1  0.89277777  0.89277777  0.78555554  1
  Fe  Fe12  1  0.11932043  0.61932043  0.88240630  1
  Fe  Fe13  1  0.76308587  0.26308587  0.88240630  1
  Fe  Fe14  1  0.26308587  0.11932043  0.88240630  1
  Fe  Fe15  1  0.61932043  0.76308587  0.88240630  1
  Fe  Fe16  1  0.88067957  0.38067957  0.11759370  1
  Fe  Fe17  1  0.23691413  0.73691413  0.11759370  1
  Fe  Fe18  1  0.73691413  0.88067957  0.11759370  1
  Fe  Fe19  1  0.38067957  0.23691413  0.11759370  1
  Fe  Fe20  1  0.70946553  0.56663578  0.00000000  1
  Fe  Fe21  1  0.29053447  0.43336422  1.00000000  1
  Fe  Fe22  1  0.79053447  0.06663578  1.00000000  1
  Fe  Fe23  1  0.20946553  0.93336422  0.00000000  1
  Fe  Fe24  1  0.56663578  0.29053447  1.00000000  1
  Fe  Fe25  1  0.43336422  0.70946553  0.00000000  1
  Fe  Fe26  1  0.06663578  0.20946553  0.00000000  1
  Fe  Fe27  1  0.93336422  0.79053447  1.00000000  1
  Fe  Fe28  1  0.29177749  0.79177749  0.81165675  1
  Fe  Fe29  1  0.51987926  0.01987926  0.81165675  1
  Fe  Fe30  1  0.01987926  0.29177749  0.81165675  1
  Fe  Fe31  1  0.79177749  0.51987926  0.81165675  1
  Fe  Fe32  1  0.70822251  0.20822251  0.18834325  1
  Fe  Fe33  1  0.48012074  0.98012074  0.18834325  1
  Fe  Fe34  1  0.98012074  0.70822251  0.18834325  1
  Fe  Fe35  1  0.20822251  0.48012074  0.18834325  1
  Fe  Fe36  1  0.00000000  0.50000000  -0.00000000  1
  Fe  Fe37  1  0.50000000  0.00000000  -0.00000000  1
  Au  Au38  1  0.25000000  0.25000000  0.50000000  1
  Au  Au39  1  0.75000000  0.75000000  0.50000000  1
