# generated using pymatgen
data_Ba2Y2CuPtO8
_symmetry_space_group_name_H-M   'P 1'
_cell_length_a   5.74998982
_cell_length_b   10.44863253
_cell_length_c   13.38104295
_cell_angle_alpha   90.00000000
_cell_angle_beta   90.00000000
_cell_angle_gamma   90.00000000
_symmetry_Int_Tables_number   1
_chemical_formula_structural   Ba2Y2CuPtO8
_chemical_formula_sum   'Ba8 Y8 Cu4 Pt4 O32'
_cell_volume   803.92678045
_cell_formula_units_Z   4
loop_
 _symmetry_equiv_pos_site_id
 _symmetry_equiv_pos_as_xyz
  1  'x, y, z'
loop_
 _atom_site_type_symbol
 _atom_site_label
 _atom_site_symmetry_multiplicity
 _atom_site_fract_x
 _atom_site_fract_y
 _atom_site_fract_z
 _atom_site_occupancy
  Ba  Ba0  1  0.75000000  0.18629705  0.29305482  1
  Ba  Ba1  1  0.75000000  0.59132773  0.57718503  1
  Ba  Ba2  1  0.25000000  0.40867227  0.42281497  1
  Ba  Ba3  1  0.75000000  0.31370295  0.79305482  1
  Ba  Ba4  1  0.25000000  0.68629705  0.20694518  1
  Ba  Ba5  1  0.75000000  0.90867227  0.07718503  1
  Ba  Ba6  1  0.25000000  0.81370295  0.70694518  1
  Ba  Ba7  1  0.25000000  0.09132773  0.92281497  1
  Y  Y8  1  0.25000000  0.31183599  0.14218441  1
  Y  Y9  1  0.25000000  0.01406640  0.41675926  1
  Y  Y10  1  0.75000000  0.81183599  0.35781559  1
  Y  Y11  1  0.75000000  0.68816401  0.85781559  1
  Y  Y12  1  0.25000000  0.18816401  0.64218441  1
  Y  Y13  1  0.25000000  0.48593360  0.91675926  1
  Y  Y14  1  0.75000000  0.51406640  0.08324074  1
  Y  Y15  1  0.75000000  0.98593360  0.58324074  1
  Cu  Cu16  1  0.75000000  0.23204070  0.03896861  1
  Cu  Cu17  1  0.75000000  0.26795930  0.53896861  1
  Cu  Cu18  1  0.25000000  0.76795930  0.96103139  1
  Cu  Cu19  1  0.25000000  0.73204070  0.46103139  1
  Pt  Pt20  1  0.75000000  0.53228617  0.30653786  1
  Pt  Pt21  1  0.75000000  0.96771383  0.80653786  1
  Pt  Pt22  1  0.25000000  0.03228617  0.19346214  1
  Pt  Pt23  1  0.25000000  0.46771383  0.69346214  1
  O  O24  1  0.00712979  0.63695706  0.99284481  1
  O  O25  1  0.49349019  0.36194630  0.61415178  1
  O  O26  1  0.75000000  0.81417558  0.70406325  1
  O  O27  1  0.99287021  0.13695706  0.50715519  1
  O  O28  1  0.50650981  0.86194630  0.88584822  1
  O  O29  1  0.75000000  0.39118491  0.41139355  1
  O  O30  1  0.00650981  0.13805370  0.11415178  1
  O  O31  1  0.75000000  0.68582442  0.20406325  1
  O  O32  1  0.50923717  0.44343370  0.21716744  1
  O  O33  1  0.49076283  0.94343370  0.28283256  1
  O  O34  1  0.99287021  0.36304294  0.00715519  1
  O  O35  1  0.49349019  0.13805370  0.11415178  1
  O  O36  1  0.25000000  0.31417558  0.79593675  1
  O  O37  1  0.00923717  0.55656630  0.78283256  1
  O  O38  1  0.50712979  0.36304294  0.00715519  1
  O  O39  1  0.99076283  0.44343370  0.21716744  1
  O  O40  1  0.25000000  0.60881509  0.58860645  1
  O  O41  1  0.50923717  0.05656630  0.71716744  1
  O  O42  1  0.00650981  0.36194630  0.61415178  1
  O  O43  1  0.49287021  0.86304294  0.49284481  1
  O  O44  1  0.00923717  0.94343370  0.28283256  1
  O  O45  1  0.99076283  0.05656630  0.71716744  1
  O  O46  1  0.99349019  0.63805370  0.38584822  1
  O  O47  1  0.99349019  0.86194630  0.88584822  1
  O  O48  1  0.50712979  0.13695706  0.50715519  1
  O  O49  1  0.50650981  0.63805370  0.38584822  1
  O  O50  1  0.49076283  0.55656630  0.78283256  1
  O  O51  1  0.00712979  0.86304294  0.49284481  1
  O  O52  1  0.75000000  0.10881509  0.91139355  1
  O  O53  1  0.49287021  0.63695706  0.99284481  1
  O  O54  1  0.25000000  0.18582442  0.29593675  1
  O  O55  1  0.25000000  0.89118491  0.08860645  1
