# generated using pymatgen
data_Dy5Si4
_symmetry_space_group_name_H-M   'P 1'
_cell_length_a   7.43154134
_cell_length_b   7.70121205
_cell_length_c   14.57446834
_cell_angle_alpha   90.00000000
_cell_angle_beta   90.00000000
_cell_angle_gamma   90.00000000
_symmetry_Int_Tables_number   1
_chemical_formula_structural   Dy5Si4
_chemical_formula_sum   'Dy20 Si16'
_cell_volume   834.12416069
_cell_formula_units_Z   4
loop_
 _symmetry_equiv_pos_site_id
 _symmetry_equiv_pos_as_xyz
  1  'x, y, z'
loop_
 _atom_site_type_symbol
 _atom_site_label
 _atom_site_symmetry_multiplicity
 _atom_site_fract_x
 _atom_site_fract_y
 _atom_site_fract_z
 _atom_site_occupancy
  Dy  Dy0  1  0.65040152  0.98725769  0.75000000  1
  Dy  Dy1  1  0.15040152  0.51274231  0.75000000  1
  Dy  Dy2  1  0.84959848  0.48725769  0.25000000  1
  Dy  Dy3  1  0.34959848  0.01274231  0.25000000  1
  Dy  Dy4  1  0.97277613  0.81680031  0.90170029  1
  Dy  Dy5  1  0.47277613  0.68319969  0.59829971  1
  Dy  Dy6  1  0.52722387  0.31680031  0.09829971  1
  Dy  Dy7  1  0.02722387  0.18319969  0.40170029  1
  Dy  Dy8  1  0.02722387  0.18319969  0.09829971  1
  Dy  Dy9  1  0.52722387  0.31680031  0.40170029  1
  Dy  Dy10  1  0.47277613  0.68319969  0.90170029  1
  Dy  Dy11  1  0.97277613  0.81680031  0.59829971  1
  Dy  Dy12  1  0.68104462  0.82006854  0.12305609  1
  Dy  Dy13  1  0.18104462  0.67993146  0.37694391  1
  Dy  Dy14  1  0.81895538  0.32006854  0.87694391  1
  Dy  Dy15  1  0.31895538  0.17993146  0.62305609  1
  Dy  Dy16  1  0.31895538  0.17993146  0.87694391  1
  Dy  Dy17  1  0.81895538  0.32006854  0.62305609  1
  Dy  Dy18  1  0.18104462  0.67993146  0.12305609  1
  Dy  Dy19  1  0.68104462  0.82006854  0.37694391  1
  Si  Si20  1  0.76779132  0.62718049  0.75000000  1
  Si  Si21  1  0.26779132  0.87281951  0.75000000  1
  Si  Si22  1  0.73220868  0.12718049  0.25000000  1
  Si  Si23  1  0.23220868  0.37281951  0.25000000  1
  Si  Si24  1  0.02302136  0.10256038  0.75000000  1
  Si  Si25  1  0.52302136  0.39743962  0.75000000  1
  Si  Si26  1  0.47697864  0.60256038  0.25000000  1
  Si  Si27  1  0.97697864  0.89743962  0.25000000  1
  Si  Si28  1  0.85334080  0.52846929  0.03982219  1
  Si  Si29  1  0.35334080  0.97153071  0.46017781  1
  Si  Si30  1  0.64665920  0.02846929  0.96017781  1
  Si  Si31  1  0.14665920  0.47153071  0.53982219  1
  Si  Si32  1  0.14665920  0.47153071  0.96017781  1
  Si  Si33  1  0.64665920  0.02846929  0.53982219  1
  Si  Si34  1  0.35334080  0.97153071  0.03982219  1
  Si  Si35  1  0.85334080  0.52846929  0.46017781  1
