# generated using pymatgen
data_Sc11Nb3O24
_symmetry_space_group_name_H-M   'P 1'
_cell_length_a   6.13825393
_cell_length_b   6.16848238
_cell_length_c   24.51398625
_cell_angle_alpha   99.25172421
_cell_angle_beta   99.25600660
_cell_angle_gamma   99.26060560
_symmetry_Int_Tables_number   1
_chemical_formula_structural   Sc11Nb3O24
_chemical_formula_sum   'Sc22 Nb6 O48'
_cell_volume   887.41077999
_cell_formula_units_Z   2
loop_
 _symmetry_equiv_pos_site_id
 _symmetry_equiv_pos_as_xyz
  1  'x, y, z'
loop_
 _atom_site_type_symbol
 _atom_site_label
 _atom_site_symmetry_multiplicity
 _atom_site_fract_x
 _atom_site_fract_y
 _atom_site_fract_z
 _atom_site_occupancy
  Nb  Nb0  1  0.99644338  0.00168726  0.75215183  1
  Nb  Nb1  1  0.38996908  0.86217790  0.92315230  1
  Nb  Nb2  1  0.00442903  0.01340132  0.49922078  1
  Nb  Nb3  1  0.99550554  0.00162482  0.25246314  1
  Nb  Nb4  1  0.85930793  0.68127216  0.59674404  1
  Nb  Nb5  1  0.85526634  0.68555760  0.09688277  1
  O  O6  1  0.07698516  0.90372634  0.92009316  1
  O  O7  1  0.08536529  0.32894074  0.98460195  1
  O  O8  1  0.03424626  0.88693814  0.67010388  1
  O  O9  1  0.18459105  0.58860646  0.85602223  1
  O  O10  1  0.09638833  0.30897436  0.73562616  1
  O  O11  1  0.04004832  0.88793568  0.42419650  1
  O  O12  1  0.31641341  0.94962931  0.77088431  1
  O  O13  1  0.17598653  0.59278853  0.60465665  1
  O  O14  1  0.43392971  0.58783873  0.95251879  1
  O  O15  1  0.10684017  0.31525452  0.49015775  1
  O  O16  1  0.03464386  0.88577624  0.16953926  1
  O  O17  1  0.41837090  0.17360485  0.89607873  1
  O  O18  1  0.31217347  0.95207944  0.52783260  1
  O  O19  1  0.17678928  0.58382771  0.35366307  1
  O  O20  1  0.41882560  0.58126533  0.70442724  1
  O  O21  1  0.09087953  0.30789586  0.23437502  1
  O  O22  1  0.57639829  0.82390349  0.85855830  1
  O  O23  1  0.42237765  0.17791760  0.64595224  1
  O  O24  1  0.31340351  0.94810285  0.26957532  1
  O  O25  1  0.58028920  0.42165616  0.79405344  1
  O  O26  1  0.17366796  0.58749992  0.10402948  1
  O  O27  1  0.41787283  0.58460511  0.45572462  1
  O  O28  1  0.67974892  0.04345855  0.97216621  1
  O  O29  1  0.59429385  0.81756436  0.60669318  1
  O  O30  1  0.41323493  0.17611796  0.39567697  1
  O  O31  1  0.33215750  0.93255210  0.01777114  1
  O  O32  1  0.58923334  0.42807283  0.54687127  1
  O  O33  1  0.81987644  0.42071592  0.89365242  1
  O  O34  1  0.41744886  0.57722022  0.20397502  1
  O  O35  1  0.68846863  0.05108019  0.72609853  1
  O  O36  1  0.57960370  0.82197031  0.35297817  1
  O  O37  1  0.41598166  0.17256984  0.14370858  1
  O  O38  1  0.90676076  0.68608447  0.76267129  1
  O  O39  1  0.58137928  0.41600480  0.29394559  1
  O  O40  1  0.82392526  0.43550394  0.64277946  1
  O  O41  1  0.68584391  0.05145062  0.47810819  1
  O  O42  1  0.58641384  0.81086623  0.10670983  1
  O  O43  1  0.94943049  0.09509215  0.82913680  1
  O  O44  1  0.90269849  0.68195497  0.51784422  1
  O  O45  1  0.58354379  0.42010987  0.04435481  1
  O  O46  1  0.82036643  0.41347640  0.39614086  1
  O  O47  1  0.68621945  0.04941712  0.22552868  1
  O  O48  1  0.94639986  0.08275055  0.58092265  1
  O  O49  1  0.89960253  0.68630499  0.26139218  1
  O  O50  1  0.81784668  0.43813950  0.14235253  1
  O  O51  1  0.95608061  0.09792775  0.32922027  1
  O  O52  1  0.90371468  0.68301786  0.01942266  1
  O  O53  1  0.93538168  0.08076652  0.08231174  1
  Sc  Sc54  1  0.14154940  0.32435127  0.90273295  1
  Sc  Sc55  1  0.14994689  0.32620741  0.65242315  1
  Sc  Sc56  1  0.32050496  0.60834936  0.78437145  1
  Sc  Sc57  1  0.38639697  0.86607250  0.67419677  1
  Sc  Sc58  1  0.14504461  0.33654116  0.40149306  1
  Sc  Sc59  1  0.32521837  0.61779409  0.53515045  1
  Sc  Sc60  1  0.39126859  0.85560528  0.41678019  1
  Sc  Sc61  1  0.14288390  0.32368061  0.15127862  1
  Sc  Sc62  1  0.00987002  0.00970804  0.00246942  1
  Sc  Sc63  1  0.70266953  0.38386582  0.96537924  1
  Sc  Sc64  1  0.32311904  0.60672794  0.28380038  1
  Sc  Sc65  1  0.60719255  0.14696180  0.83070403  1
  Sc  Sc66  1  0.38498615  0.86205196  0.17361283  1
  Sc  Sc67  1  0.67714828  0.39336597  0.71508795  1
  Sc  Sc68  1  0.31604556  0.60472073  0.03354859  1
  Sc  Sc69  1  0.85816910  0.67708518  0.84775756  1
  Sc  Sc70  1  0.61013565  0.14059334  0.58010277  1
  Sc  Sc71  1  0.66632025  0.38542220  0.46269275  1
  Sc  Sc72  1  0.60663517  0.14062178  0.33045070  1
  Sc  Sc73  1  0.67550448  0.39127793  0.21414505  1
  Sc  Sc74  1  0.85121408  0.66841171  0.34670393  1
  Sc  Sc75  1  0.60511328  0.13590547  0.07939929  1
