# generated using pymatgen
data_LiInSe2
_symmetry_space_group_name_H-M   'P 1'
_cell_length_a   8.01244021
_cell_length_b   10.56967079
_cell_length_c   6.89483900
_cell_angle_alpha   29.26525803
_cell_angle_beta   54.52232047
_cell_angle_gamma   40.74193881
_symmetry_Int_Tables_number   1
_chemical_formula_structural   LiInSe2
_chemical_formula_sum   'Li2 In2 Se4'
_cell_volume   180.26163688
_cell_formula_units_Z   2
loop_
 _symmetry_equiv_pos_site_id
 _symmetry_equiv_pos_as_xyz
  1  'x, y, z'
loop_
 _atom_site_type_symbol
 _atom_site_label
 _atom_site_symmetry_multiplicity
 _atom_site_fract_x
 _atom_site_fract_y
 _atom_site_fract_z
 _atom_site_occupancy
  In  In0  1  0.50007202  0.99988395  0.00009393  1
  In  In1  1  0.24992798  0.50011605  0.99990607  1
  Li  Li2  1  0.99999586  0.00001542  0.99997836  1
  Li  Li3  1  0.75000414  0.49998458  0.00002164  1
  Se  Se4  1  0.48905409  0.50022058  0.52120931  1
  Se  Se5  1  0.26094591  0.99977942  0.47879069  1
  Se  Se6  1  0.01080779  0.49996970  0.47864633  1
  Se  Se7  1  0.73919221  1.00003030  0.52135367  1
