# generated using pymatgen
data_VBiPbO5
_symmetry_space_group_name_H-M   'P 1'
_cell_length_a   5.65569015
_cell_length_b   7.28370892
_cell_length_c   7.28330591
_cell_angle_alpha   109.69917177
_cell_angle_beta   112.84651999
_cell_angle_gamma   89.99999997
_symmetry_Int_Tables_number   1
_chemical_formula_structural   VBiPbO5
_chemical_formula_sum   'V2 Bi2 Pb2 O10'
_cell_volume   257.33306493
_cell_formula_units_Z   2
loop_
 _symmetry_equiv_pos_site_id
 _symmetry_equiv_pos_as_xyz
  1  'x, y, z'
loop_
 _atom_site_type_symbol
 _atom_site_label
 _atom_site_symmetry_multiplicity
 _atom_site_fract_x
 _atom_site_fract_y
 _atom_site_fract_z
 _atom_site_occupancy
  O  O0  1  0.26312912  0.00000000  0.00000000  1
  O  O1  1  0.73687088  0.00000000  0.00000000  1
  O  O2  1  0.69557187  0.28586031  0.39114373  1
  O  O3  1  0.30442813  0.71413969  0.60885627  1
  O  O4  1  0.61622325  0.24062470  0.73115933  1
  O  O5  1  0.88506392  0.75937530  0.26884067  1
  O  O6  1  0.89982387  0.60675794  0.79964775  1
  O  O7  1  0.10017613  0.39324206  0.20035225  1
  O  O8  1  0.11493608  0.24062470  0.73115933  1
  O  O9  1  0.38377675  0.75937530  0.26884067  1
  V  V10  1  0.16569436  0.64797124  0.33138872  1
  V  V11  1  0.83430564  0.35202876  0.66861128  1
  Pb  Pb12  1  0.15767578  0.11247608  0.31535155  1
  Pb  Pb13  1  0.84232422  0.88752392  0.68464845  1
  Bi  Bi14  1  0.51291843  0.25030674  0.02583686  1
  Bi  Bi15  1  0.48708157  0.74969326  0.97416314  1
