# generated using pymatgen
data_Ca20Er10F69
_symmetry_space_group_name_H-M   'P 1'
_cell_length_a   8.78343487
_cell_length_b   8.78423478
_cell_length_c   20.72974051
_cell_angle_alpha   114.81847223
_cell_angle_beta   114.88777505
_cell_angle_gamma   90.00728975
_symmetry_Int_Tables_number   1
_chemical_formula_structural   Ca20Er10F69
_chemical_formula_sum   'Ca20 Er10 F69'
_cell_volume   1286.17653129
_cell_formula_units_Z   1
loop_
 _symmetry_equiv_pos_site_id
 _symmetry_equiv_pos_as_xyz
  1  'x, y, z'
loop_
 _atom_site_type_symbol
 _atom_site_label
 _atom_site_symmetry_multiplicity
 _atom_site_fract_x
 _atom_site_fract_y
 _atom_site_fract_z
 _atom_site_occupancy
  Ca  Ca0  1  0.02934278  0.45619550  0.83678823  1
  Ca  Ca1  1  0.21582510  0.02928585  0.83820217  1
  Ca  Ca2  1  0.45577376  0.64219715  0.83618875  1
  Ca  Ca3  1  0.02555286  0.43770265  0.33137916  1
  Ca  Ca4  1  0.36217250  0.77647493  0.66772086  1
  Ca  Ca5  1  0.64501574  0.21502880  0.83750309  1
  Ca  Ca6  1  0.22422826  0.02588102  0.33267026  1
  Ca  Ca7  1  0.56222346  0.36432597  0.66889638  1
  Ca  Ca8  1  0.17785161  0.17678451  0.17811086  1
  Ca  Ca9  1  0.50000000  0.50000000  0.50000000  1
  Ca  Ca10  1  0.82214839  0.82321549  0.82188914  1
  Ca  Ca11  1  0.43777654  0.63567403  0.33110362  1
  Ca  Ca12  1  0.77577174  0.97411898  0.66732974  1
  Ca  Ca13  1  0.35498426  0.78497120  0.16249691  1
  Ca  Ca14  1  0.63782750  0.22352507  0.33227914  1
  Ca  Ca15  1  0.97444714  0.56229735  0.66862084  1
  Ca  Ca16  1  0.54422624  0.35780285  0.16381125  1
  Ca  Ca17  1  0.50000000  0.50000000  0.00000000  1
  Ca  Ca18  1  0.78417490  0.97071415  0.16179783  1
  Ca  Ca19  1  0.97065722  0.54380450  0.16321177  1
  Er  Er20  1  0.17956907  0.17835610  0.67974054  1
  Er  Er21  1  0.10647545  0.31058038  0.49969910  1
  Er  Er22  1  0.31052216  0.89296205  0.49970560  1
  Er  Er23  1  0.10786574  0.31449367  0.99979938  1
  Er  Er24  1  0.68947784  0.10703795  0.50029440  1
  Er  Er25  1  0.31438487  0.89161954  -0.00029656  1
  Er  Er26  1  0.89352455  0.68941962  0.50030090  1
  Er  Er27  1  0.82043093  0.82164390  0.32025946  1
  Er  Er28  1  0.68561513  0.10838046  1.00029656  1
  Er  Er29  1  0.89213426  0.68550633  0.00020062  1
  F  F30  1  0.10101229  0.79735180  0.87709461  1
  F  F31  1  0.06149506  0.16517230  0.75818990  1
  F  F32  1  0.21408448  0.34036941  0.91960684  1
  F  F33  1  0.16479604  0.45330960  0.75727412  1
  F  F34  1  0.04645279  0.90637662  0.62276650  1
  F  F35  1  0.33767636  0.62456099  0.91902610  1
  F  F36  1  0.08124617  0.58010869  0.58120761  1
  F  F37  1  0.25103324  0.75047718  0.75106460  1
  F  F38  1  0.42181808  0.91717044  0.91891378  1
  F  F39  1  0.19847949  0.33423156  0.62150908  1
  F  F40  1  0.35048808  0.06078192  0.75812162  1
  F  F41  1  0.14537813  0.70983847  0.50067307  1
  F  F42  1  0.49951671  0.21455056  0.91977392  1
  F  F43  1  0.09308763  0.80315210  0.37750737  1
  F  F44  1  0.45384747  0.34905842  0.75729679  1
  F  F45  1  0.33545826  0.04304504  0.62184659  1
  F  F46  1  0.05618492  0.15897576  0.26073661  1
  F  F47  1  0.62446649  0.50104217  0.91924187  1
  F  F48  1  0.21337315  0.33766077  0.42036006  1
  F  F49  1  0.28789551  0.14184593  0.49708639  1
  F  F50  1  0.37300745  0.49434719  0.57986620  1
  F  F51  1  0.65742579  0.96462860  0.87788684  1
  F  F52  1  0.53545601  0.63983951  0.73978724  1
  F  F53  1  0.15891324  0.46366154  0.25993509  1
  F  F54  1  0.04035357  0.89890523  0.12304800  1
  F  F55  1  0.33507223  0.62706000  0.41994403  1
  F  F56  1  0.49595995  0.78630688  0.57945896  1
  F  F57  1  0.08140818  0.58027352  0.08111761  1
  F  F58  1  0.63827881  0.94408696  0.73894780  1
  F  F59  1  0.24863485  0.74860044  0.24900727  1
  F  F60  1  0.79452315  0.65785515  0.87808289  1
  F  F61  1  0.42129910  0.91717931  0.41883178  1
  F  F62  1  0.57870090  0.08282069  0.58116822  1
  F  F63  1  0.20547685  0.34214485  0.12191711  1
  F  F64  1  0.75136515  0.25139956  0.75099273  1
  F  F65  1  0.36172119  0.05591304  0.26105220  1
  F  F66  1  0.91859182  0.41972648  0.91888239  1
  F  F67  1  0.14701248  0.70598927  0.00007572  1
  F  F68  1  0.50404005  0.21369312  0.42054104  1
  F  F69  1  0.66492777  0.37294000  0.58005597  1
  F  F70  1  0.95964643  0.10109477  0.87695200  1
  F  F71  1  0.84108676  0.53633846  0.74006491  1
  F  F72  1  0.46454399  0.36016049  0.26021276  1
  F  F73  1  0.34257421  0.03537140  0.12211316  1
  F  F74  1  0.62699255  0.50565281  0.42013380  1
  F  F75  1  0.71210449  0.85815407  0.50291361  1
  F  F76  1  0.78662685  0.66233923  0.57963994  1
  F  F77  1  0.29114349  0.14399698  0.99700617  1
  F  F78  1  0.37553351  0.49895783  0.08075813  1
  F  F79  1  0.94381508  0.84102424  0.73926339  1
  F  F80  1  0.66454174  0.95695496  0.37815341  1
  F  F81  1  0.54615253  0.65094158  0.24270321  1
  F  F82  1  0.90691237  0.19684790  0.62249263  1
  F  F83  1  0.50048329  0.78544944  0.08022608  1
  F  F84  1  0.85462187  0.29016153  0.49932693  1
  F  F85  1  0.64951192  0.93921808  0.24187838  1
  F  F86  1  0.80152051  0.66576844  0.37849092  1
  F  F87  1  0.57818192  0.08282956  0.08108622  1
  F  F88  1  0.74896676  0.24952282  0.24893540  1
  F  F89  1  0.91875383  0.41989131  0.41879239  1
  F  F90  1  0.00000000  0.00000000  0.50000000  1
  F  F91  1  0.66232364  0.37543901  0.08097390  1
  F  F92  1  0.95354721  0.09362338  0.37723350  1
  F  F93  1  0.83520396  0.54669040  0.24272588  1
  F  F94  1  0.70885651  0.85600302  0.00299383  1
  F  F95  1  0.78591552  0.65963059  0.08039316  1
  F  F96  1  0.93850494  0.83482770  0.24181010  1
  F  F97  1  0.89898771  0.20264820  0.12290539  1
  F  F98  1  0.85298752  0.29401073  0.99992428  1
