# generated using pymatgen
data_V(PO3)4
_symmetry_space_group_name_H-M   'P 1'
_cell_length_a   5.24330710
_cell_length_b   10.52211960
_cell_length_c   10.52211489
_cell_angle_alpha   73.14206110
_cell_angle_beta   98.76406301
_cell_angle_gamma   98.76407475
_symmetry_Int_Tables_number   1
_chemical_formula_structural   V(PO3)4
_chemical_formula_sum   'V2 P8 O24'
_cell_volume   545.47613116
_cell_formula_units_Z   2
loop_
 _symmetry_equiv_pos_site_id
 _symmetry_equiv_pos_as_xyz
  1  'x, y, z'
loop_
 _atom_site_type_symbol
 _atom_site_label
 _atom_site_symmetry_multiplicity
 _atom_site_fract_x
 _atom_site_fract_y
 _atom_site_fract_z
 _atom_site_occupancy
  O  O0  1  0.00251424  0.42580762  0.85958006  1
  O  O1  1  0.00251331  0.85958081  0.42580889  1
  O  O2  1  0.00000008  0.22677506  0.77322454  1
  O  O3  1  1.00000133  0.77322392  0.22677483  1
  O  O4  1  0.24593225  0.65824103  0.91525780  1
  O  O5  1  0.24593059  0.91525842  0.65824172  1
  O  O6  1  0.31428668  0.44285374  0.68374615  1
  O  O7  1  0.31428929  0.68374326  0.44285533  1
  O  O8  1  0.37101465  0.28294536  0.92356385  1
  O  O9  1  0.37101275  0.92356457  0.28294556  1
  O  O10  1  0.60526228  0.84087368  0.84087407  1
  O  O11  1  0.30112019  0.40160581  0.09290247  1
  O  O12  1  0.30111601  0.09290278  0.40160630  1
  O  O13  1  0.69888031  0.90709811  0.59839408  1
  O  O14  1  0.69888133  0.59839390  0.90709778  1
  O  O15  1  0.39473695  0.15912555  0.15912603  1
  O  O16  1  0.62898570  0.07643619  0.71705531  1
  O  O17  1  0.99748642  0.57419164  0.14041927  1
  O  O18  1  0.68571437  0.31625419  0.55714589  1
  O  O19  1  0.68571659  0.55714498  0.31625531  1
  O  O20  1  0.75406761  0.08474122  0.34175856  1
  O  O21  1  0.75406840  0.34175728  0.08474154  1
  O  O22  1  0.99748587  0.14041875  0.57419195  1
  O  O23  1  0.62898639  0.71705389  0.07643606  1
  P  P24  1  0.17742663  0.36012444  0.79504614  1
  P  P25  1  0.17742363  0.79504889  0.36012120  1
  P  P26  1  0.53657861  0.69313972  0.93371278  1
  P  P27  1  0.53657837  0.93371296  0.69314129  1
  P  P28  1  0.46341937  0.06628690  0.30685923  1
  P  P29  1  0.82257656  0.63987738  0.20495230  1
  P  P30  1  0.82257246  0.20495392  0.63987694  1
  P  P31  1  0.46342171  0.30685946  0.06628753  1
  V  V32  1  1.00000329  0.00000234  0.49999931  1
  V  V33  1  -0.00000223  0.50000224  0.00000191  1
