# generated using pymatgen
data_CoH2SeO4
_symmetry_space_group_name_H-M   'P 1'
_cell_length_a   4.83274289
_cell_length_b   5.75124990
_cell_length_c   13.55308273
_cell_angle_alpha   90.00000000
_cell_angle_beta   90.00000000
_cell_angle_gamma   92.32963350
_symmetry_Int_Tables_number   1
_chemical_formula_structural   CoH2SeO4
_chemical_formula_sum   'Co4 H8 Se4 O16'
_cell_volume   376.38727106
_cell_formula_units_Z   4
loop_
 _symmetry_equiv_pos_site_id
 _symmetry_equiv_pos_as_xyz
  1  'x, y, z'
loop_
 _atom_site_type_symbol
 _atom_site_label
 _atom_site_symmetry_multiplicity
 _atom_site_fract_x
 _atom_site_fract_y
 _atom_site_fract_z
 _atom_site_occupancy
  Co  Co0  1  0.31304645  0.61875217  0.73707177  1
  Co  Co1  1  0.18695355  0.88124783  0.23707177  1
  Co  Co2  1  0.68695355  0.38124783  0.26292823  1
  Co  Co3  1  0.81304645  0.11875217  0.76292823  1
  Se  Se4  1  0.23581744  0.11274558  0.60401159  1
  Se  Se5  1  0.26418256  0.38725442  0.10401159  1
  Se  Se6  1  0.76418256  0.88725442  0.39598841  1
  Se  Se7  1  0.73581744  0.61274558  0.89598841  1
  O  O8  1  0.10609157  0.32653000  0.68314350  1
  O  O9  1  0.39390843  0.17347000  0.18314350  1
  O  O10  1  0.89390843  0.67347000  0.31685650  1
  O  O11  1  0.60609157  0.82653000  0.81685650  1
  O  O12  1  0.59067798  0.37982824  0.82653679  1
  O  O13  1  0.90932202  0.12017176  0.32653679  1
  O  O14  1  0.40932202  0.62017176  0.17346321  1
  O  O15  1  0.09067798  0.87982824  0.67346321  1
  O  O16  1  0.08101155  0.62591991  0.86991136  1
  O  O17  1  0.41898845  0.87408009  0.36991136  1
  O  O18  1  0.91898845  0.37408009  0.13008864  1
  O  O19  1  0.58101155  0.12591991  0.63008864  1
  O  O20  1  0.59829597  0.61557112  0.61235907  1
  O  O21  1  0.90170403  0.88442888  0.11235907  1
  O  O22  1  0.40170403  0.38442888  0.38764093  1
  O  O23  1  0.09829597  0.11557112  0.88764093  1
  H  H24  1  0.76714672  0.71143348  0.62814254  1
  H  H25  1  0.73285328  0.78856652  0.12814254  1
  H  H26  1  0.23285328  0.28856652  0.37185746  1
  H  H27  1  0.26714672  0.21143348  0.87185746  1
  H  H28  1  0.65652838  0.45325494  0.60804620  1
  H  H29  1  0.84347162  0.04674506  0.10804620  1
  H  H30  1  0.34347162  0.54674506  0.39195380  1
  H  H31  1  0.15652838  0.95325494  0.89195380  1
