# generated using pymatgen
data_Ca3SiH30CSO25
_symmetry_space_group_name_H-M   'P 1'
_cell_length_a   11.07655709
_cell_length_b   11.07655690
_cell_length_c   10.48753731
_cell_angle_alpha   90.00000000
_cell_angle_beta   90.00000000
_cell_angle_gamma   120.00000052
_symmetry_Int_Tables_number   1
_chemical_formula_structural   Ca3SiH30CSO25
_chemical_formula_sum   'Ca6 Si2 H60 C2 S2 O50'
_cell_volume   1114.32974018
_cell_formula_units_Z   2
loop_
 _symmetry_equiv_pos_site_id
 _symmetry_equiv_pos_as_xyz
  1  'x, y, z'
loop_
 _atom_site_type_symbol
 _atom_site_label
 _atom_site_symmetry_multiplicity
 _atom_site_fract_x
 _atom_site_fract_y
 _atom_site_fract_z
 _atom_site_occupancy
  Ca  Ca0  1  0.19413914  0.98696241  0.25262606  1
  Ca  Ca1  1  0.20717674  0.19413914  0.75262606  1
  Ca  Ca2  1  0.98696241  0.79282326  0.75262606  1
  Ca  Ca3  1  0.01303759  0.20717674  0.25262606  1
  Ca  Ca4  1  0.79282326  0.80586086  0.25262606  1
  Ca  Ca5  1  0.80586086  0.01303759  0.75262606  1
  Si  Si6  1  0.00000000  0.00000000  0.00256748  1
  Si  Si7  1  0.00000000  0.00000000  0.50256748  1
  C  C8  1  0.33333300  0.66666700  0.45889944  1
  C  C9  1  0.66666700  0.33333300  0.95889944  1
  S  S10  1  0.33333300  0.66666700  0.98283508  1
  S  S11  1  0.66666700  0.33333300  0.48283508  1
  O  O12  1  0.39148010  0.22860745  0.24551064  1
  O  O13  1  0.16287266  0.39148010  0.74551064  1
  O  O14  1  0.22860745  0.83712734  0.74551064  1
  O  O15  1  0.77139255  0.16287266  0.24551064  1
  O  O16  1  0.83712734  0.60851990  0.24551064  1
  O  O17  1  0.60851990  0.77139255  0.74551064  1
  O  O18  1  0.27112316  0.40442108  0.25361612  1
  O  O19  1  0.86670208  0.27112316  0.75361612  1
  O  O20  1  0.40442108  0.13329792  0.75361612  1
  O  O21  1  0.59557892  0.86670208  0.25361612  1
  O  O22  1  0.13329792  0.72887684  0.25361612  1
  O  O23  1  0.72887684  0.59557892  0.75361612  1
  O  O24  1  0.00662009  0.34162750  0.06867273  1
  O  O25  1  0.66499260  0.00662009  0.56867273  1
  O  O26  1  0.34162750  0.33500740  0.56867273  1
  O  O27  1  0.65837250  0.66499260  0.06867273  1
  O  O28  1  0.33500740  0.99337991  0.06867273  1
  O  O29  1  0.99337991  0.65837250  0.56867273  1
  O  O30  1  0.02529965  0.34830244  0.43488428  1
  O  O31  1  0.67699721  0.02529965  0.93488428  1
  O  O32  1  0.34830244  0.32300279  0.93488428  1
  O  O33  1  0.65169756  0.67699721  0.43488428  1
  O  O34  1  0.32300279  0.97470035  0.43488428  1
  O  O35  1  0.97470035  0.65169756  0.93488428  1
  O  O36  1  0.19989206  0.62106917  0.45695590  1
  O  O37  1  0.57882289  0.19989206  0.95695590  1
  O  O38  1  0.62106917  0.42117711  0.95695590  1
  O  O39  1  0.37893083  0.57882289  0.45695590  1
  O  O40  1  0.42117711  0.80010794  0.45695590  1
  O  O41  1  0.80010794  0.37893083  0.95695590  1
  O  O42  1  0.19034978  0.62250399  0.03184050  1
  O  O43  1  0.56784579  0.19034978  0.53184050  1
  O  O44  1  0.62250399  0.43215421  0.53184050  1
  O  O45  1  0.37749601  0.56784579  0.03184050  1
  O  O46  1  0.43215421  0.80965022  0.03184050  1
  O  O47  1  0.80965022  0.37749601  0.53184050  1
  O  O48  1  0.13268980  0.12577814  0.10682875  1
  O  O49  1  0.00691166  0.13268980  0.60682875  1
  O  O50  1  0.12577814  0.99308834  0.60682875  1
  O  O51  1  0.87422186  0.00691166  0.10682875  1
  O  O52  1  0.99308834  0.86731020  0.10682875  1
  O  O53  1  0.86731020  0.87422186  0.60682875  1
  O  O54  1  0.13275148  0.12505178  0.39773047  1
  O  O55  1  0.00769970  0.13275148  0.89773047  1
  O  O56  1  0.12505178  0.99230030  0.89773047  1
  O  O57  1  0.87494822  0.00769970  0.39773047  1
  O  O58  1  0.99230030  0.86724852  0.39773047  1
  O  O59  1  0.86724852  0.87494822  0.89773047  1
  O  O60  1  0.33333300  0.66666700  0.84082124  1
  O  O61  1  0.66666700  0.33333300  0.34082124  1
  H  H62  1  0.21566504  0.19400917  0.05916897  1
  H  H63  1  0.02165586  0.21566504  0.55916897  1
  H  H64  1  0.19400917  0.97834414  0.55916897  1
  H  H65  1  0.80599083  0.02165586  0.05916897  1
  H  H66  1  0.97834414  0.78433496  0.05916897  1
  H  H67  1  0.78433496  0.80599083  0.55916897  1
  H  H68  1  0.21319174  0.19709517  0.44515539  1
  H  H69  1  0.01609657  0.21319174  0.94515539  1
  H  H70  1  0.19709517  0.98390343  0.94515539  1
  H  H71  1  0.80290483  0.01609657  0.44515539  1
  H  H72  1  0.98390343  0.78680826  0.44515539  1
  H  H73  1  0.78680826  0.80290483  0.94515539  1
  H  H74  1  0.36208201  0.29937862  0.24939426  1
  H  H75  1  0.06270339  0.36208201  0.74939426  1
  H  H76  1  0.29937862  0.93729661  0.74939426  1
  H  H77  1  0.70062138  0.06270339  0.24939426  1
  H  H78  1  0.93729661  0.63791799  0.24939426  1
  H  H79  1  0.63791799  0.70062138  0.74939426  1
  H  H80  1  0.49003484  0.27367036  0.27047104  1
  H  H81  1  0.21636448  0.49003484  0.77047104  1
  H  H82  1  0.27367036  0.78363552  0.77047104  1
  H  H83  1  0.72632964  0.21636448  0.27047104  1
  H  H84  1  0.78363552  0.50996516  0.27047104  1
  H  H85  1  0.50996516  0.72632964  0.77047104  1
  H  H86  1  0.30742128  0.46730674  0.32987369  1
  H  H87  1  0.84011454  0.30742128  0.82987369  1
  H  H88  1  0.46730674  0.15988546  0.82987369  1
  H  H89  1  0.53269326  0.84011454  0.32987369  1
  H  H90  1  0.15988546  0.69257872  0.32987369  1
  H  H91  1  0.69257872  0.53269326  0.82987369  1
  H  H92  1  0.30710614  0.46687480  0.17898095  1
  H  H93  1  0.84023134  0.30710614  0.67898095  1
  H  H94  1  0.46687480  0.15976866  0.67898095  1
  H  H95  1  0.53312520  0.84023134  0.17898095  1
  H  H96  1  0.15976866  0.69289386  0.17898095  1
  H  H97  1  0.69289386  0.53312520  0.67898095  1
  H  H98  1  0.41941212  0.08254763  0.04540480  1
  H  H99  1  0.33686449  0.41941212  0.54540480  1
  H  H100  1  0.08254763  0.66313551  0.54540480  1
  H  H101  1  0.91745237  0.33686449  0.04540480  1
  H  H102  1  0.66313551  0.58058788  0.04540480  1
  H  H103  1  0.58058788  0.91745237  0.54540480  1
  H  H104  1  0.07815844  0.44037322  0.05436552  1
  H  H105  1  0.63778522  0.07815844  0.55436552  1
  H  H106  1  0.44037322  0.36221478  0.55436552  1
  H  H107  1  0.55962678  0.63778522  0.05436552  1
  H  H108  1  0.36221478  0.92184156  0.05436552  1
  H  H109  1  0.92184156  0.55962678  0.55436552  1
  H  H110  1  0.09974216  0.44958395  0.44616201  1
  H  H111  1  0.65015820  0.09974216  0.94616201  1
  H  H112  1  0.44958395  0.34984180  0.94616201  1
  H  H113  1  0.55041605  0.65015820  0.44616201  1
  H  H114  1  0.34984180  0.90025784  0.44616201  1
  H  H115  1  0.90025784  0.55041605  0.94616201  1
  H  H116  1  0.40893610  0.06178816  0.45721351  1
  H  H117  1  0.34714794  0.40893610  0.95721351  1
  H  H118  1  0.06178816  0.65285206  0.95721351  1
  H  H119  1  0.93821184  0.34714794  0.45721351  1
  H  H120  1  0.65285206  0.59106390  0.45721351  1
  H  H121  1  0.59106390  0.93821184  0.95721351  1
