# generated using pymatgen
data_Hg2TeO5
_symmetry_space_group_name_H-M   'P 1'
_cell_length_a   6.05981326
_cell_length_b   7.51811499
_cell_length_c   10.13288997
_cell_angle_alpha   90.00000000
_cell_angle_beta   90.00000000
_cell_angle_gamma   90.00000000
_symmetry_Int_Tables_number   1
_chemical_formula_structural   Hg2TeO5
_chemical_formula_sum   'Hg8 Te4 O20'
_cell_volume   461.63797987
_cell_formula_units_Z   4
loop_
 _symmetry_equiv_pos_site_id
 _symmetry_equiv_pos_as_xyz
  1  'x, y, z'
loop_
 _atom_site_type_symbol
 _atom_site_label
 _atom_site_symmetry_multiplicity
 _atom_site_fract_x
 _atom_site_fract_y
 _atom_site_fract_z
 _atom_site_occupancy
  O  O0  1  0.15427549  0.83814775  0.31389553  1
  O  O1  1  0.84572451  0.16185225  0.81389553  1
  O  O2  1  0.34572451  0.33814775  0.31389553  1
  O  O3  1  0.65427549  0.66185225  0.81389553  1
  O  O4  1  0.45544618  0.71117106  0.05641428  1
  O  O5  1  0.54455382  0.28882894  0.55641428  1
  O  O6  1  0.04455382  0.21117106  0.05641428  1
  O  O7  1  0.95544618  0.78882894  0.55641428  1
  O  O8  1  0.36778675  0.61853525  0.49771546  1
  O  O9  1  0.63221325  0.38146475  0.99771546  1
  O  O10  1  0.13221325  0.11853525  0.49771546  1
  O  O11  1  0.86778675  0.88146475  0.99771546  1
  O  O12  1  0.54249237  0.94197935  0.44893123  1
  O  O13  1  0.45750763  0.05802065  0.94893123  1
  O  O14  1  0.95750763  0.44197935  0.44893123  1
  O  O15  1  0.04249237  0.55802065  0.94893123  1
  O  O16  1  0.33927439  0.90881778  0.68216728  1
  O  O17  1  0.66072561  0.09118222  0.18216728  1
  O  O18  1  0.16072561  0.40881778  0.68216728  1
  O  O19  1  0.83927439  0.59118222  0.18216728  1
  Te  Te20  1  0.24107761  0.86628680  0.49754377  1
  Te  Te21  1  0.75892239  0.13371320  0.99754377  1
  Te  Te22  1  0.25892239  0.36628680  0.49754377  1
  Te  Te23  1  0.74107761  0.63371320  0.99754377  1
  Hg  Hg24  1  0.22788305  0.73065138  0.82759488  1
  Hg  Hg25  1  0.77211695  0.26934862  0.32759488  1
  Hg  Hg26  1  0.27211695  0.23065138  0.82759488  1
  Hg  Hg27  1  0.72788305  0.76934862  0.32759488  1
  Hg  Hg28  1  0.22515604  0.52459152  0.16458757  1
  Hg  Hg29  1  0.77484396  0.47540848  0.66458757  1
  Hg  Hg30  1  0.27484396  0.02459152  0.16458757  1
  Hg  Hg31  1  0.72515604  0.97540848  0.66458757  1
