# generated using pymatgen
data_KTa3CuO9
_symmetry_space_group_name_H-M   'P 1'
_cell_length_a   7.71477431
_cell_length_b   8.96008564
_cell_length_c   10.24384931
_cell_angle_alpha   90.00000000
_cell_angle_beta   90.00000000
_cell_angle_gamma   90.00000000
_symmetry_Int_Tables_number   1
_chemical_formula_structural   KTa3CuO9
_chemical_formula_sum   'K4 Ta12 Cu4 O36'
_cell_volume   708.10647805
_cell_formula_units_Z   4
loop_
 _symmetry_equiv_pos_site_id
 _symmetry_equiv_pos_as_xyz
  1  'x, y, z'
loop_
 _atom_site_type_symbol
 _atom_site_label
 _atom_site_symmetry_multiplicity
 _atom_site_fract_x
 _atom_site_fract_y
 _atom_site_fract_z
 _atom_site_occupancy
  Ta  Ta0  1  -0.00057124  0.43023678  0.24986894  1
  Ta  Ta1  1  -0.00057124  0.56976322  0.75013106  1
  Ta  Ta2  1  0.49942876  0.56976322  0.74986894  1
  Ta  Ta3  1  0.49942876  0.43023678  0.25013106  1
  Ta  Ta4  1  0.00181244  0.79890498  0.43776734  1
  Ta  Ta5  1  0.00181244  0.20109502  0.56223266  1
  Ta  Ta6  1  0.50181244  0.20109502  0.93776734  1
  Ta  Ta7  1  0.50181244  0.79890498  0.06223266  1
  Ta  Ta8  1  0.99281276  0.79927073  0.06214066  1
  Ta  Ta9  1  0.99281276  0.20072927  0.93785934  1
  Ta  Ta10  1  0.49281276  0.20072927  0.56214066  1
  Ta  Ta11  1  0.49281276  0.79927073  0.43785934  1
  Cu  Cu12  1  0.24891864  0.50000000  0.00000000  1
  Cu  Cu13  1  0.74891864  0.50000000  0.50000000  1
  Cu  Cu14  1  0.74855215  0.50000000  0.00000000  1
  Cu  Cu15  1  0.24855215  0.50000000  0.50000000  1
  K  K16  1  0.24783079  0.08359359  0.24448844  1
  K  K17  1  0.24783079  0.91640641  0.75551156  1
  K  K18  1  0.74783079  0.91640641  0.74448844  1
  K  K19  1  0.74783079  0.08359359  0.25551156  1
  O  O20  1  0.05748691  0.00000000  0.00000000  1
  O  O21  1  0.55748691  0.00000000  0.50000000  1
  O  O22  1  0.43893538  0.00000000  0.00000000  1
  O  O23  1  0.93893538  0.00000000  0.50000000  1
  O  O24  1  0.96228374  0.27518219  0.12059678  1
  O  O25  1  0.96228374  0.72481781  0.87940322  1
  O  O26  1  0.46228374  0.72481781  0.62059678  1
  O  O27  1  0.46228374  0.27518219  0.37940322  1
  O  O28  1  0.03463994  0.27537811  0.37950594  1
  O  O29  1  0.03463994  0.72462189  0.62049406  1
  O  O30  1  0.53463994  0.72462189  0.87950594  1
  O  O31  1  0.53463994  0.27537811  0.12049406  1
  O  O32  1  0.06622528  0.58427221  0.38529358  1
  O  O33  1  0.06622528  0.41572779  0.61470642  1
  O  O34  1  0.56622528  0.41572779  0.88529358  1
  O  O35  1  0.56622528  0.58427221  0.11470642  1
  O  O36  1  0.43069780  0.58419885  0.38515798  1
  O  O37  1  0.43069780  0.41580115  0.61484202  1
  O  O38  1  0.93069780  0.41580115  0.88515798  1
  O  O39  1  0.93069780  0.58419885  0.11484202  1
  O  O40  1  0.99825535  0.85158228  0.25005549  1
  O  O41  1  0.99825535  0.14841772  0.74994451  1
  O  O42  1  0.49825535  0.14841772  0.75005549  1
  O  O43  1  0.49825535  0.85158228  0.24994451  1
  O  O44  1  0.24875775  0.44273921  0.18664811  1
  O  O45  1  0.24875775  0.55726079  0.81335189  1
  O  O46  1  0.74875775  0.55726079  0.68664811  1
  O  O47  1  0.74875775  0.44273921  0.31335189  1
  O  O48  1  0.24805593  0.15042769  0.55889256  1
  O  O49  1  0.24805593  0.84957231  0.44110744  1
  O  O50  1  0.74805593  0.84957231  0.05889256  1
  O  O51  1  0.74805593  0.15042769  0.94110744  1
  O  O52  1  0.74835294  0.27279731  0.55279218  1
  O  O53  1  0.74835294  0.72720269  0.44720782  1
  O  O54  1  0.24835294  0.72720269  0.05279218  1
  O  O55  1  0.24835294  0.27279731  0.94720782  1
