# generated using pymatgen
data_BaIrO3
_symmetry_space_group_name_H-M   'P 1'
_cell_length_a   5.82307159
_cell_length_b   5.87308499
_cell_length_c   15.19920752
_cell_angle_alpha   79.03864447
_cell_angle_beta   78.95509646
_cell_angle_gamma   60.28262685
_symmetry_Int_Tables_number   1
_chemical_formula_structural   BaIrO3
_chemical_formula_sum   'Ba6 Ir6 O18'
_cell_volume   440.30715292
_cell_formula_units_Z   6
loop_
 _symmetry_equiv_pos_site_id
 _symmetry_equiv_pos_as_xyz
  1  'x, y, z'
loop_
 _atom_site_type_symbol
 _atom_site_label
 _atom_site_symmetry_multiplicity
 _atom_site_fract_x
 _atom_site_fract_y
 _atom_site_fract_z
 _atom_site_occupancy
  Ba  Ba0  1  0.22001150  0.30949469  0.25048603  1
  Ba  Ba1  1  0.77998850  0.69050531  0.74951397  1
  Ba  Ba2  1  0.62875882  0.66809820  0.07435146  1
  Ba  Ba3  1  0.37124118  0.33190180  0.92564854  1
  Ba  Ba4  1  0.84946590  0.87874226  0.42235172  1
  Ba  Ba5  1  0.15053410  0.12125774  0.57764828  1
  Ir  Ir6  1  0.91285972  0.99800274  0.17629832  1
  Ir  Ir7  1  0.08714028  0.00199726  0.82370168  1
  Ir  Ir8  1  0.00000000  0.00000000  0.00000000  1
  Ir  Ir9  1  0.52966253  0.61577164  0.32492357  1
  Ir  Ir10  1  0.47033747  0.38422836  0.67507643  1
  Ir  Ir11  1  0.50000000  0.50000000  0.50000000  1
  O  O12  1  0.70442518  0.36309706  0.22799654  1
  O  O13  1  0.29557482  0.63690294  0.77200346  1
  O  O14  1  0.68892889  0.85838208  0.26363101  1
  O  O15  1  0.81087888  0.14159991  0.73637812  1
  O  O16  1  0.31107111  0.14161792  0.73636899  1
  O  O17  1  0.18912112  0.85840009  0.26362188  1
  O  O18  1  0.10419025  0.69090024  0.10075591  1
  O  O19  1  0.89580975  0.30909976  0.89924409  1
  O  O20  1  0.64628676  0.15285977  0.08253516  1
  O  O21  1  0.88167790  0.84712344  0.91746557  1
  O  O22  1  0.35371324  0.84714023  0.91746484  1
  O  O23  1  0.11832210  0.15287656  0.08253443  1
  O  O24  1  0.36591076  0.40135046  0.40506377  1
  O  O25  1  0.17233526  0.59869464  0.59493602  1
  O  O26  1  0.63408924  0.59864954  0.59493623  1
  O  O27  1  0.82766474  0.40130536  0.40506398  1
  O  O28  1  0.35567017  0.86303038  0.42569963  1
  O  O29  1  0.64432983  0.13696962  0.57430037  1
