# generated using pymatgen
data_ScTa(PbO3)2
_symmetry_space_group_name_H-M   'P 1'
_cell_length_a   5.80572877
_cell_length_b   5.80568111
_cell_length_c   5.80571516
_cell_angle_alpha   60.00039035
_cell_angle_beta   59.99953702
_cell_angle_gamma   60.00011517
_symmetry_Int_Tables_number   1
_chemical_formula_structural   ScTa(PbO3)2
_chemical_formula_sum   'Sc1 Ta1 Pb2 O6'
_cell_volume   138.37281830
_cell_formula_units_Z   1
loop_
 _symmetry_equiv_pos_site_id
 _symmetry_equiv_pos_as_xyz
  1  'x, y, z'
loop_
 _atom_site_type_symbol
 _atom_site_label
 _atom_site_symmetry_multiplicity
 _atom_site_fract_x
 _atom_site_fract_y
 _atom_site_fract_z
 _atom_site_occupancy
  O  O0  1  0.24381900  0.75618095  0.75617849  1
  O  O1  1  0.75617843  0.24382151  0.24381905  1
  O  O2  1  0.75617774  0.24382377  0.75617623  1
  Ta  Ta3  1  0.99999872  0.00000151  0.99999849  1
  O  O4  1  0.24381914  0.75618127  0.24381873  1
  O  O5  1  0.24381245  0.24382807  0.75617193  1
  O  O6  1  0.75617175  0.75618871  0.24381129  1
  Sc  Sc7  1  0.49999916  0.50000050  0.49999950  1
  Pb  Pb8  1  0.25001120  0.24998745  0.25001374  1
  Pb  Pb9  1  0.75001240  0.74998626  0.75001255  1
