# generated using pymatgen
data_SrCaSiO4
_symmetry_space_group_name_H-M   'P 1'
_cell_length_a   5.65959477
_cell_length_b   9.47045555
_cell_length_c   21.07963843
_cell_angle_alpha   90.00000000
_cell_angle_beta   90.00000000
_cell_angle_gamma   90.00000000
_symmetry_Int_Tables_number   1
_chemical_formula_structural   SrCaSiO4
_chemical_formula_sum   'Sr12 Ca12 Si12 O48'
_cell_volume   1129.84629019
_cell_formula_units_Z   12
loop_
 _symmetry_equiv_pos_site_id
 _symmetry_equiv_pos_as_xyz
  1  'x, y, z'
loop_
 _atom_site_type_symbol
 _atom_site_label
 _atom_site_symmetry_multiplicity
 _atom_site_fract_x
 _atom_site_fract_y
 _atom_site_fract_z
 _atom_site_occupancy
  Sr  Sr0  1  0.73756914  0.42141913  0.61015036  1
  Sr  Sr1  1  0.21315896  0.57508902  0.05635625  1
  Sr  Sr2  1  0.73756914  0.07858087  0.11015036  1
  Sr  Sr3  1  0.23756914  0.57858087  0.38984964  1
  Sr  Sr4  1  0.25317180  0.92465150  0.22209646  1
  Sr  Sr5  1  0.25317180  0.57534850  0.72209646  1
  Sr  Sr6  1  0.71315896  0.07508902  0.44364375  1
  Sr  Sr7  1  0.71315896  0.42491098  0.94364375  1
  Sr  Sr8  1  0.75317180  0.42465150  0.27790354  1
  Sr  Sr9  1  0.75317180  0.07534850  0.77790354  1
  Sr  Sr10  1  0.21315896  0.92491098  0.55635625  1
  Sr  Sr11  1  0.23756914  0.92141913  0.88984964  1
  Ca  Ca12  1  0.75317361  0.79550542  0.66484709  1
  Ca  Ca13  1  0.25317361  0.29550542  0.83515291  1
  Ca  Ca14  1  0.74727229  0.70244829  0.83157132  1
  Ca  Ca15  1  0.71038197  0.79925579  0.99721791  1
  Ca  Ca16  1  0.24727229  0.20244829  0.66842868  1
  Ca  Ca17  1  0.74727229  0.79755171  0.33157132  1
  Ca  Ca18  1  0.25317361  0.20449458  0.33515291  1
  Ca  Ca19  1  0.75317361  0.70449458  0.16484709  1
  Ca  Ca20  1  0.24727229  0.29755171  0.16842868  1
  Ca  Ca21  1  0.71038197  0.70074421  0.49721791  1
  Ca  Ca22  1  0.21038197  0.29925579  0.50278209  1
  Ca  Ca23  1  0.21038197  0.20074421  0.00278209  1
  Si  Si24  1  0.74207657  0.41381639  0.42646467  1
  Si  Si25  1  0.24479483  0.91585000  0.74153751  1
  Si  Si26  1  0.21329246  0.58416572  0.90631031  1
  Si  Si27  1  0.24207657  0.58618361  0.57353533  1
  Si  Si28  1  0.24207657  0.91381639  0.07353533  1
  Si  Si29  1  0.74479483  0.08415000  0.25846249  1
  Si  Si30  1  0.21329246  0.91583428  0.40631031  1
  Si  Si31  1  0.71329246  0.41583428  0.09368969  1
  Si  Si32  1  0.71329246  0.08416572  0.59368969  1
  Si  Si33  1  0.24479483  0.58415000  0.24153751  1
  Si  Si34  1  0.74479483  0.41585000  0.75846249  1
  Si  Si35  1  0.74207657  0.08618361  0.92646467  1
  O  O36  1  0.97466008  0.16786538  0.89566598  1
  O  O37  1  0.21081929  0.43676114  0.94918599  1
  O  O38  1  0.79408250  0.93427567  0.21953367  1
  O  O39  1  0.97159078  0.30867223  0.74741715  1
  O  O40  1  0.67765470  0.05088281  0.33206388  1
  O  O41  1  0.17765470  0.94911719  0.66793612  1
  O  O42  1  0.50636721  0.34281637  0.72675369  1
  O  O43  1  0.47466008  0.66786538  0.60433402  1
  O  O44  1  0.21081929  0.06323886  0.44918599  1
  O  O45  1  0.00636721  0.65718363  0.27324631  1
  O  O46  1  0.81329062  0.44900054  0.49971634  1
  O  O47  1  0.31329062  0.94900054  1.00028366  1
  O  O48  1  0.17765470  0.55088281  0.16793612  1
  O  O49  1  0.71081929  0.93676114  0.55081401  1
  O  O50  1  0.50617939  0.18656316  0.91728704  1
  O  O51  1  0.48926376  0.18473601  0.57115634  1
  O  O52  1  0.00617939  0.81343684  0.08271296  1
  O  O53  1  0.70092146  0.56327088  0.38711223  1
  O  O54  1  0.17686338  0.95626140  0.33209919  1
  O  O55  1  0.31329062  0.55099946  0.50028366  1
  O  O56  1  0.00617939  0.68656316  0.58271296  1
  O  O57  1  0.48926376  0.31526399  0.07115634  1
  O  O58  1  0.46141519  0.66965874  0.92121674  1
  O  O59  1  0.47159078  0.69132777  0.25258285  1
  O  O60  1  0.29408250  0.06572433  0.78046633  1
  O  O61  1  0.20092146  0.43672912  0.61288777  1
  O  O62  1  0.96141519  0.33034126  0.07878326  1
  O  O63  1  0.97466008  0.33213462  0.39566598  1
  O  O64  1  0.71081929  0.56323886  0.05081401  1
  O  O65  1  0.81329062  0.05099946  -0.00028366  1
  O  O66  1  0.97159078  0.19132777  0.24741715  1
  O  O67  1  0.47466008  0.83213462  0.10433402  1
  O  O68  1  0.98926376  0.81526399  0.42884366  1
  O  O69  1  0.98926376  0.68473601  0.92884366  1
  O  O70  1  0.46141519  0.83034126  0.42121674  1
  O  O71  1  0.70092146  0.93672912  0.88711223  1
  O  O72  1  0.47159078  0.80867223  0.75258285  1
  O  O73  1  0.67765470  0.44911719  0.83206388  1
  O  O74  1  0.79408250  0.56572433  0.71953367  1
  O  O75  1  0.50617939  0.31343684  0.41728704  1
  O  O76  1  0.67686338  0.45626140  0.16790081  1
  O  O77  1  0.67686338  0.04373860  0.66790081  1
  O  O78  1  0.00636721  0.84281637  0.77324631  1
  O  O79  1  0.17686338  0.54373860  0.83209919  1
  O  O80  1  0.96141519  0.16965874  0.57878326  1
  O  O81  1  0.29408250  0.43427567  0.28046633  1
  O  O82  1  0.50636721  0.15718363  0.22675369  1
  O  O83  1  0.20092146  0.06327088  0.11288777  1
