# generated using pymatgen
data_Tb2SnS5
_symmetry_space_group_name_H-M   'P 1'
_cell_length_a   3.83127263
_cell_length_b   7.76756204
_cell_length_c   11.37605679
_cell_angle_alpha   90.00000000
_cell_angle_beta   90.00000000
_cell_angle_gamma   90.00000000
_symmetry_Int_Tables_number   1
_chemical_formula_structural   Tb2SnS5
_chemical_formula_sum   'Tb4 Sn2 S10'
_cell_volume   338.54744394
_cell_formula_units_Z   2
loop_
 _symmetry_equiv_pos_site_id
 _symmetry_equiv_pos_as_xyz
  1  'x, y, z'
loop_
 _atom_site_type_symbol
 _atom_site_label
 _atom_site_symmetry_multiplicity
 _atom_site_fract_x
 _atom_site_fract_y
 _atom_site_fract_z
 _atom_site_occupancy
  Tb  Tb0  1  0.50000000  0.96815902  0.32733455  1
  Tb  Tb1  1  0.50000000  0.46815902  0.17266545  1
  Tb  Tb2  1  0.50000000  0.53184098  0.82733455  1
  Tb  Tb3  1  0.50000000  0.03184098  0.67266545  1
  Sn  Sn4  1  0.00000000  0.50000000  0.50000000  1
  Sn  Sn5  1  0.00000000  0.00000000  0.00000000  1
  S  S6  1  0.50000000  0.67163128  0.59636677  1
  S  S7  1  0.00000000  0.17489041  0.19608742  1
  S  S8  1  0.50000000  0.17163128  0.90363323  1
  S  S9  1  0.00000000  0.00000000  0.50000000  1
  S  S10  1  0.50000000  0.82836872  0.09636677  1
  S  S11  1  0.00000000  0.67489041  0.30391258  1
  S  S12  1  0.00000000  0.32510959  0.69608742  1
  S  S13  1  0.00000000  0.82510959  0.80391258  1
  S  S14  1  0.50000000  0.32836872  0.40363323  1
  S  S15  1  0.00000000  0.50000000  0.00000000  1
