# generated using pymatgen
data_SiO2
_symmetry_space_group_name_H-M   'P 1'
_cell_length_a   12.77384709
_cell_length_b   12.77384709
_cell_length_c   13.35444955
_cell_angle_alpha   90.00000000
_cell_angle_beta   90.00000000
_cell_angle_gamma   90.00000000
_symmetry_Int_Tables_number   1
_chemical_formula_structural   SiO2
_chemical_formula_sum   'Si32 O64'
_cell_volume   2179.06115082
_cell_formula_units_Z   32
loop_
 _symmetry_equiv_pos_site_id
 _symmetry_equiv_pos_as_xyz
  1  'x, y, z'
loop_
 _atom_site_type_symbol
 _atom_site_label
 _atom_site_symmetry_multiplicity
 _atom_site_fract_x
 _atom_site_fract_y
 _atom_site_fract_z
 _atom_site_occupancy
  Si  Si0  1  0.62225869  0.12461598  0.11460790  1
  Si  Si1  1  0.87538402  0.37774131  0.38539210  1
  Si  Si2  1  0.12461598  0.37774131  0.61460790  1
  Si  Si3  1  0.19415269  0.80584731  0.75000000  1
  Si  Si4  1  0.37774131  0.87538402  0.11460790  1
  Si  Si5  1  0.87538402  0.62225869  0.38539210  1
  Si  Si6  1  0.87348275  0.00000000  0.61813860  1
  Si  Si7  1  0.87348275  0.00000000  0.38186140  1
  Si  Si8  1  0.19415269  0.80584731  0.25000000  1
  Si  Si9  1  0.12461598  0.62225869  0.61460790  1
  Si  Si10  1  0.37774131  0.12461598  0.11460790  1
  Si  Si11  1  0.62225869  0.87538402  0.11460790  1
  Si  Si12  1  0.80584731  0.19415269  0.75000000  1
  Si  Si13  1  0.87538402  0.37774131  0.61460790  1
  Si  Si14  1  0.00000000  0.12651725  0.11813860  1
  Si  Si15  1  0.80584731  0.80584731  0.75000000  1
  Si  Si16  1  0.00000000  0.87348275  0.11813860  1
  Si  Si17  1  0.00000000  0.12651725  0.88186140  1
  Si  Si18  1  0.12461598  0.37774131  0.38539210  1
  Si  Si19  1  0.80584731  0.19415269  0.25000000  1
  Si  Si20  1  0.00000000  0.87348275  0.88186140  1
  Si  Si21  1  0.80584731  0.80584731  0.25000000  1
  Si  Si22  1  0.12651725  0.00000000  0.61813860  1
  Si  Si23  1  0.87538402  0.62225869  0.61460790  1
  Si  Si24  1  0.19415269  0.19415269  0.25000000  1
  Si  Si25  1  0.19415269  0.19415269  0.75000000  1
  Si  Si26  1  0.62225869  0.87538402  0.88539210  1
  Si  Si27  1  0.12651725  0.00000000  0.38186140  1
  Si  Si28  1  0.37774131  0.12461598  0.88539210  1
  Si  Si29  1  0.62225869  0.12461598  0.88539210  1
  Si  Si30  1  0.37774131  0.87538402  0.88539210  1
  Si  Si31  1  0.12461598  0.62225869  0.38539210  1
  O  O32  1  0.16034843  0.34980406  0.50000000  1
  O  O33  1  0.35378377  0.00000000  0.87296526  1
  O  O34  1  0.10309140  0.18045613  0.83374379  1
  O  O35  1  0.18854819  0.30713865  0.69453190  1
  O  O36  1  0.18854819  0.69286135  0.69453190  1
  O  O37  1  0.50000000  0.85090442  0.13881580  1
  O  O38  1  0.81954387  0.89690860  0.33374379  1
  O  O39  1  0.89690860  0.18045613  0.16625621  1
  O  O40  1  0.81145181  0.69286135  0.69453190  1
  O  O41  1  0.18045613  0.10309140  0.33374379  1
  O  O42  1  0.50000000  0.14909558  0.86118420  1
  O  O43  1  0.18045613  0.89690860  0.66625621  1
  O  O44  1  0.10309140  0.81954387  0.16625621  1
  O  O45  1  0.81954387  0.89690860  0.66625621  1
  O  O46  1  0.81145181  0.30713865  0.30546810  1
  O  O47  1  0.81954387  0.10309140  0.66625621  1
  O  O48  1  0.18045613  0.10309140  0.66625621  1
  O  O49  1  0.83965157  0.65019594  0.50000000  1
  O  O50  1  0.81954387  0.10309140  0.33374379  1
  O  O51  1  0.69286135  0.18854819  0.80546810  1
  O  O52  1  0.64621623  0.00000000  0.87296526  1
  O  O53  1  0.15210510  0.00000000  0.50000000  1
  O  O54  1  0.00000000  0.35378377  0.62703474  1
  O  O55  1  0.18045613  0.89690860  0.33374379  1
  O  O56  1  0.30713865  0.81145181  0.80546810  1
  O  O57  1  0.18854819  0.69286135  0.30546810  1
  O  O58  1  0.30713865  0.18854819  0.80546810  1
  O  O59  1  0.35378377  0.00000000  0.12703474  1
  O  O60  1  0.00000000  0.35378377  0.37296526  1
  O  O61  1  0.00000000  0.84789490  0.00000000  1
  O  O62  1  0.69286135  0.18854819  0.19453190  1
  O  O63  1  0.83965157  0.34980406  0.50000000  1
  O  O64  1  0.89690860  0.81954387  0.83374379  1
  O  O65  1  0.85090442  0.50000000  0.36118420  1
  O  O66  1  0.00000000  0.64621623  0.62703474  1
  O  O67  1  0.50000000  0.85090442  0.86118420  1
  O  O68  1  0.30713865  0.81145181  0.19453190  1
  O  O69  1  0.00000000  0.15210510  0.00000000  1
  O  O70  1  0.89690860  0.18045613  0.83374379  1
  O  O71  1  0.00000000  0.00000000  0.36362198  1
  O  O72  1  0.89690860  0.81954387  0.16625621  1
  O  O73  1  0.18854819  0.30713865  0.30546810  1
  O  O74  1  0.14909558  0.50000000  0.36118420  1
  O  O75  1  0.00000000  0.00000000  0.86362198  1
  O  O76  1  0.84789490  0.00000000  0.50000000  1
  O  O77  1  0.10309140  0.18045613  0.16625621  1
  O  O78  1  0.64621623  0.00000000  0.12703474  1
  O  O79  1  0.81145181  0.69286135  0.30546810  1
  O  O80  1  0.00000000  0.00000000  0.63637802  1
  O  O81  1  0.34980406  0.16034843  0.00000000  1
  O  O82  1  0.00000000  0.64621623  0.37296526  1
  O  O83  1  0.14909558  0.50000000  0.63881580  1
  O  O84  1  0.50000000  0.14909558  0.13881580  1
  O  O85  1  0.30713865  0.18854819  0.19453190  1
  O  O86  1  0.81145181  0.30713865  0.69453190  1
  O  O87  1  0.69286135  0.81145181  0.19453190  1
  O  O88  1  0.00000000  0.00000000  0.13637802  1
  O  O89  1  0.16034843  0.65019594  0.50000000  1
  O  O90  1  0.69286135  0.81145181  0.80546810  1
  O  O91  1  0.85090442  0.50000000  0.63881580  1
  O  O92  1  0.65019594  0.83965157  0.00000000  1
  O  O93  1  0.10309140  0.81954387  0.83374379  1
  O  O94  1  0.34980406  0.83965157  0.00000000  1
  O  O95  1  0.65019594  0.16034843  0.00000000  1
