# generated using pymatgen
data_Ba3BPO7
_symmetry_space_group_name_H-M   'P 1'
_cell_length_a   5.60005332
_cell_length_b   5.60005308
_cell_length_c   14.90046591
_cell_angle_alpha   90.00000000
_cell_angle_beta   90.00000000
_cell_angle_gamma   120.00000142
_symmetry_Int_Tables_number   1
_chemical_formula_structural   Ba3BPO7
_chemical_formula_sum   'Ba6 B2 P2 O14'
_cell_volume   404.68283076
_cell_formula_units_Z   2
loop_
 _symmetry_equiv_pos_site_id
 _symmetry_equiv_pos_as_xyz
  1  'x, y, z'
loop_
 _atom_site_type_symbol
 _atom_site_label
 _atom_site_symmetry_multiplicity
 _atom_site_fract_x
 _atom_site_fract_y
 _atom_site_fract_z
 _atom_site_occupancy
  Ba  Ba0  1  0.00000000  0.00000000  0.72044171  1
  Ba  Ba1  1  0.33333300  0.66666700  0.38255385  1
  Ba  Ba2  1  0.00000000  0.00000000  0.22044171  1
  Ba  Ba3  1  0.66666700  0.33333300  0.88255385  1
  Ba  Ba4  1  0.66666700  0.33333300  0.59849829  1
  Ba  Ba5  1  0.33333300  0.66666700  0.09849829  1
  B  B6  1  0.33333300  0.66666700  0.74171502  1
  B  B7  1  0.66666700  0.33333300  0.24171502  1
  P  P8  1  0.00000000  0.00000000  0.99567430  1
  P  P9  1  0.00000000  0.00000000  0.49567430  1
  O  O10  1  0.52222597  0.04445195  0.24228242  1
  O  O11  1  0.00000000  0.00000000  0.39156388  1
  O  O12  1  0.47777403  0.95554805  0.74228242  1
  O  O13  1  0.84954000  0.69908000  0.03200189  1
  O  O14  1  0.15046000  0.84954000  0.53200189  1
  O  O15  1  0.69908000  0.84954000  0.53200189  1
  O  O16  1  0.30092000  0.15046000  0.03200189  1
  O  O17  1  0.95554805  0.47777403  0.24228242  1
  O  O18  1  0.04445195  0.52222597  0.74228242  1
  O  O19  1  0.84954000  0.15046000  0.03200189  1
  O  O20  1  0.52222597  0.47777403  0.24228242  1
  O  O21  1  0.00000000  0.00000000  0.89156388  1
  O  O22  1  0.15046000  0.30092000  0.53200189  1
  O  O23  1  0.47777403  0.52222597  0.74228242  1
