# generated using pymatgen
data_CoO2
_symmetry_space_group_name_H-M   'P 1'
_cell_length_a   2.82730173
_cell_length_b   2.82730169
_cell_length_c   20.28293234
_cell_angle_alpha   90.32851842
_cell_angle_beta   86.31778564
_cell_angle_gamma   60.12316528
_symmetry_Int_Tables_number   1
_chemical_formula_structural   CoO2
_chemical_formula_sum   'Co2 O4'
_cell_volume   140.16278932
_cell_formula_units_Z   2
loop_
 _symmetry_equiv_pos_site_id
 _symmetry_equiv_pos_as_xyz
  1  'x, y, z'
loop_
 _atom_site_type_symbol
 _atom_site_label
 _atom_site_symmetry_multiplicity
 _atom_site_fract_x
 _atom_site_fract_y
 _atom_site_fract_z
 _atom_site_occupancy
  Co  Co0  1  0.99964409  0.00301046  0.00336638  1
  Co  Co1  1  0.99964538  0.50301407  0.50336869  1
  O  O2  1  0.36275246  0.81937635  0.45662389  1
  O  O3  1  0.36265711  0.31925193  0.95659482  1
  O  O4  1  0.63669385  0.68673696  0.05004311  1
  O  O5  1  0.63660712  0.18661023  0.55000311  1
