# generated using pymatgen
data_Te3I(OF5)3
_symmetry_space_group_name_H-M   'P 1'
_cell_length_a   10.01522236
_cell_length_b   10.68153416
_cell_length_c   14.90210833
_cell_angle_alpha   91.85885735
_cell_angle_beta   90.00000000
_cell_angle_gamma   90.00000000
_symmetry_Int_Tables_number   1
_chemical_formula_structural   Te3I(OF5)3
_chemical_formula_sum   'Te12 I4 O12 F60'
_cell_volume   1593.35792730
_cell_formula_units_Z   4
loop_
 _symmetry_equiv_pos_site_id
 _symmetry_equiv_pos_as_xyz
  1  'x, y, z'
loop_
 _atom_site_type_symbol
 _atom_site_label
 _atom_site_symmetry_multiplicity
 _atom_site_fract_x
 _atom_site_fract_y
 _atom_site_fract_z
 _atom_site_occupancy
  Te  Te0  1  0.71995019  0.68474017  0.55422652  1
  Te  Te1  1  0.21995019  0.81525983  0.44577348  1
  Te  Te2  1  0.84206786  0.39758967  0.21005810  1
  Te  Te3  1  0.35810325  0.37421264  0.11362647  1
  Te  Te4  1  0.28004981  0.31525983  0.44577348  1
  Te  Te5  1  0.15793214  0.60241033  0.78994190  1
  Te  Te6  1  0.34206786  0.10241033  0.78994190  1
  Te  Te7  1  0.85810325  0.12578736  0.88637353  1
  Te  Te8  1  0.64189675  0.62578736  0.88637353  1
  Te  Te9  1  0.78004981  0.18474017  0.55422652  1
  Te  Te10  1  0.14189675  0.87421264  0.11362647  1
  Te  Te11  1  0.65793214  0.89758967  0.21005810  1
  I  I12  1  0.52586482  0.46400243  0.30848065  1
  I  I13  1  0.97413518  0.96400243  0.30848065  1
  I  I14  1  0.02586482  0.03599757  0.69151935  1
  I  I15  1  0.47413518  0.53599757  0.69151935  1
  O  O16  1  0.81200094  0.00108860  0.22861251  1
  O  O17  1  0.46559774  0.33672935  0.22048874  1
  O  O18  1  0.34231037  0.44811480  0.37565848  1
  O  O19  1  0.03440226  0.83672935  0.22048874  1
  O  O20  1  0.53440226  0.66327065  0.77951126  1
  O  O21  1  0.84231037  0.05188520  0.62434152  1
  O  O22  1  0.15768963  0.94811480  0.37565848  1
  O  O23  1  0.96559774  0.16327065  0.77951126  1
  O  O24  1  0.31200094  0.49891140  0.77138749  1
  O  O25  1  0.65768963  0.55188520  0.62434152  1
  O  O26  1  0.68799906  0.50108860  0.22861251  1
  O  O27  1  0.18799906  0.99891140  0.77138749  1
  F  F28  1  0.92586501  0.46182419  0.31459929  1
  F  F29  1  0.14377224  0.41759948  0.49292883  1
  F  F30  1  0.89109462  0.13406721  0.45483144  1
  F  F31  1  0.91516533  0.29609034  0.59375265  1
  F  F32  1  0.16486014  0.25260153  0.35548893  1
  F  F33  1  0.54730895  0.47648567  0.90346201  1
  F  F34  1  0.99120867  0.29473869  0.19042007  1
  F  F35  1  0.07649963  0.47774003  0.85638391  1
  F  F36  1  0.23406737  0.46448243  0.18453146  1
  F  F37  1  0.01835644  0.78485170  0.04283680  1
  F  F38  1  0.76911359  0.32591536  0.10435493  1
  F  F39  1  0.76521833  0.27450578  0.86835136  1
  F  F40  1  0.50879133  0.79473869  0.19042007  1
  F  F41  1  0.10890538  0.86593279  0.54516856  1
  F  F42  1  0.42586501  0.03817581  0.68540071  1
  F  F43  1  0.26911359  0.17408464  0.89564507  1
  F  F44  1  0.95269105  0.97648567  0.90346201  1
  F  F45  1  0.49120867  0.20526131  0.80957993  1
  F  F46  1  0.21716429  0.18778889  0.51861469  1
  F  F47  1  0.48164356  0.28485170  0.04283680  1
  F  F48  1  0.64377224  0.08240052  0.50707117  1
  F  F49  1  0.33513986  0.75260153  0.35548893  1
  F  F50  1  0.75545609  0.09542272  0.98741718  1
  F  F51  1  0.26521833  0.22549422  0.13164864  1
  F  F52  1  0.35622776  0.91759948  0.49292883  1
  F  F53  1  0.41516533  0.20390966  0.40624735  1
  F  F54  1  0.23478167  0.72549422  0.13164864  1
  F  F55  1  0.25545609  0.40457728  0.01258282  1
  F  F56  1  0.66486014  0.24739847  0.64451107  1
  F  F57  1  0.76829094  0.26732025  0.27739904  1
  F  F58  1  0.83513986  0.74739847  0.64451107  1
  F  F59  1  0.73406737  0.03551757  0.81546854  1
  F  F60  1  0.60890538  0.63406721  0.45483144  1
  F  F61  1  0.57413499  0.96182419  0.31459929  1
  F  F62  1  0.74454391  0.59542272  0.98741718  1
  F  F63  1  0.45269105  0.52351433  0.09653799  1
  F  F64  1  0.00879133  0.70526131  0.80957993  1
  F  F65  1  0.85622776  0.58240052  0.50707117  1
  F  F66  1  0.26593263  0.96448243  0.18453146  1
  F  F67  1  0.98164356  0.21514830  0.95716320  1
  F  F68  1  0.08483467  0.70390966  0.40624735  1
  F  F69  1  0.78283571  0.81221111  0.48138531  1
  F  F70  1  0.92350037  0.52225997  0.14361609  1
  F  F71  1  0.71716429  0.31221111  0.48138531  1
  F  F72  1  0.57649963  0.02225997  0.14361609  1
  F  F73  1  0.23170906  0.73267975  0.72260096  1
  F  F74  1  0.28283571  0.68778889  0.51861469  1
  F  F75  1  0.76593263  0.53551757  0.81546854  1
  F  F76  1  0.23088641  0.67408464  0.89564507  1
  F  F77  1  0.04730895  0.02351433  0.09653799  1
  F  F78  1  0.58483467  0.79609034  0.59375265  1
  F  F79  1  0.26829094  0.23267975  0.72260096  1
  F  F80  1  0.73478167  0.77450578  0.86835136  1
  F  F81  1  0.73088641  0.82591536  0.10435493  1
  F  F82  1  0.07413499  0.53817581  0.68540071  1
  F  F83  1  0.51835644  0.71514830  0.95716320  1
  F  F84  1  0.24454391  0.90457728  0.01258282  1
  F  F85  1  0.42350037  0.97774003  0.85638391  1
  F  F86  1  0.73170906  0.76732025  0.27739904  1
  F  F87  1  0.39109462  0.36593279  0.54516856  1
