# generated using pymatgen
data_Ho(Mo3S4)2
_symmetry_space_group_name_H-M   'P 1'
_cell_length_a   6.48975287
_cell_length_b   6.48975229
_cell_length_c   6.48975235
_cell_angle_alpha   89.36886110
_cell_angle_beta   89.36886114
_cell_angle_gamma   89.36886604
_symmetry_Int_Tables_number   1
_chemical_formula_structural   Ho(Mo3S4)2
_chemical_formula_sum   'Ho1 Mo6 S8'
_cell_volume   273.27879120
_cell_formula_units_Z   1
loop_
 _symmetry_equiv_pos_site_id
 _symmetry_equiv_pos_as_xyz
  1  'x, y, z'
loop_
 _atom_site_type_symbol
 _atom_site_label
 _atom_site_symmetry_multiplicity
 _atom_site_fract_x
 _atom_site_fract_y
 _atom_site_fract_z
 _atom_site_occupancy
  Ho  Ho0  1  0.00000000  0.00000000  0.00000000  1
  Mo  Mo1  1  0.58000535  0.77735689  0.43956150  1
  Mo  Mo2  1  0.77735689  0.43956150  0.58000535  1
  Mo  Mo3  1  0.41999465  0.22264311  0.56043850  1
  Mo  Mo4  1  0.43956150  0.58000535  0.77735689  1
  Mo  Mo5  1  0.22264311  0.56043850  0.41999465  1
  Mo  Mo6  1  0.56043850  0.41999465  0.22264311  1
  S  S7  1  0.75343018  0.12800079  0.36843844  1
  S  S8  1  0.63156156  0.24656982  0.87199921  1
  S  S9  1  0.24656982  0.87199921  0.63156156  1
  S  S10  1  0.23785500  0.23785500  0.23785500  1
  S  S11  1  0.12800079  0.36843844  0.75343018  1
  S  S12  1  0.36843844  0.75343018  0.12800079  1
  S  S13  1  0.76214500  0.76214500  0.76214500  1
  S  S14  1  0.87199921  0.63156156  0.24656982  1
