# generated using pymatgen
data_Nd4(SBr2)3
_symmetry_space_group_name_H-M   'P 1'
_cell_length_a   6.93048485
_cell_length_b   7.20698531
_cell_length_c   15.27670445
_cell_angle_alpha   94.53838051
_cell_angle_beta   103.11061971
_cell_angle_gamma   89.99999668
_symmetry_Int_Tables_number   1
_chemical_formula_structural   Nd4(SBr2)3
_chemical_formula_sum   'Nd8 S6 Br12'
_cell_volume   740.69320632
_cell_formula_units_Z   2
loop_
 _symmetry_equiv_pos_site_id
 _symmetry_equiv_pos_as_xyz
  1  'x, y, z'
loop_
 _atom_site_type_symbol
 _atom_site_label
 _atom_site_symmetry_multiplicity
 _atom_site_fract_x
 _atom_site_fract_y
 _atom_site_fract_z
 _atom_site_occupancy
  Nd  Nd0  1  0.63330380  0.01492638  0.88598415  1
  Nd  Nd1  1  0.86418672  0.09384526  0.34211126  1
  Nd  Nd2  1  0.13581328  0.90615474  0.65788874  1
  Nd  Nd3  1  0.36669620  0.98507362  0.11401585  1
  Nd  Nd4  1  0.52207546  0.40615474  0.65788874  1
  Nd  Nd5  1  0.25268035  0.51492638  0.88598415  1
  Nd  Nd6  1  0.47792454  0.59384526  0.34211126  1
  Nd  Nd7  1  0.74731965  0.48507362  0.11401585  1
  S  S8  1  0.33241147  0.20924396  0.76709543  1
  S  S9  1  0.44960547  0.25000000  0.00000000  1
  S  S10  1  0.56531604  0.29075604  0.23290457  1
  S  S11  1  0.66758853  0.79075604  0.23290457  1
  S  S12  1  0.43468396  0.70924396  0.76709543  1
  S  S13  1  0.55039453  0.75000000  1.00000000  1
  Br  Br14  1  0.05519001  0.88998013  0.89647526  1
  Br  Br15  1  0.94480999  0.11001987  0.10352474  1
  Br  Br16  1  0.93826796  0.55442002  0.68802597  1
  Br  Br17  1  0.65205647  0.31478812  0.46980533  1
  Br  Br18  1  0.25024199  0.94557998  0.31197403  1
  Br  Br19  1  0.06173204  0.44557998  0.31197403  1
  Br  Br20  1  0.15871475  0.61001987  0.10352474  1
  Br  Br21  1  0.84128525  0.38998013  0.89647526  1
  Br  Br22  1  0.74975801  0.05442002  0.68802597  1
  Br  Br23  1  0.18225114  0.18521188  0.53019467  1
  Br  Br24  1  0.81774886  0.81478812  0.46980533  1
  Br  Br25  1  0.34794353  0.68521188  0.53019467  1
