# generated using pymatgen
data_HIO3
_symmetry_space_group_name_H-M   'P 1'
_cell_length_a   5.68986264
_cell_length_b   6.28102437
_cell_length_c   15.26468555
_cell_angle_alpha   90.00000000
_cell_angle_beta   90.00000000
_cell_angle_gamma   90.00000000
_symmetry_Int_Tables_number   1
_chemical_formula_structural   HIO3
_chemical_formula_sum   'H8 I8 O24'
_cell_volume   545.53186466
_cell_formula_units_Z   8
loop_
 _symmetry_equiv_pos_site_id
 _symmetry_equiv_pos_as_xyz
  1  'x, y, z'
loop_
 _atom_site_type_symbol
 _atom_site_label
 _atom_site_symmetry_multiplicity
 _atom_site_fract_x
 _atom_site_fract_y
 _atom_site_fract_z
 _atom_site_occupancy
  H  H0  1  0.14121133  0.34506583  0.00170278  1
  H  H1  1  0.85878867  0.65493417  0.99829722  1
  H  H2  1  0.35878867  0.84506583  0.00170278  1
  H  H3  1  0.85878867  0.84506583  0.49829722  1
  H  H4  1  0.14121133  0.15493417  0.50170278  1
  H  H5  1  0.64121133  0.15493417  0.99829722  1
  H  H6  1  0.35878867  0.65493417  0.50170278  1
  H  H7  1  0.64121133  0.34506583  0.49829722  1
  I  I8  1  0.00491073  0.15890927  0.65561062  1
  I  I9  1  0.49508927  0.84109073  0.15561062  1
  I  I10  1  0.50491073  0.34109073  0.34438938  1
  I  I11  1  0.99508927  0.84109073  0.34438938  1
  I  I12  1  0.00491073  0.34109073  0.15561062  1
  I  I13  1  0.99508927  0.65890927  0.84438938  1
  I  I14  1  0.50491073  0.15890927  0.84438938  1
  I  I15  1  0.49508927  0.65890927  0.65561062  1
  O  O16  1  0.74683009  0.48525756  0.29054584  1
  O  O17  1  0.24683009  0.48525756  0.20945416  1
  O  O18  1  0.16391600  0.24458752  0.05268307  1
  O  O19  1  0.84605358  0.94321563  0.60290331  1
  O  O20  1  0.75316991  0.98525756  0.29054584  1
  O  O21  1  0.34605358  0.94321563  0.89709669  1
  O  O22  1  0.83608400  0.74458752  0.44731693  1
  O  O23  1  0.15394642  0.05678437  0.39709669  1
  O  O24  1  0.15394642  0.44321563  0.89709669  1
  O  O25  1  0.25316991  0.51474244  0.70945416  1
  O  O26  1  0.65394642  0.44321563  0.60290331  1
  O  O27  1  0.33608400  0.75541248  0.55268307  1
  O  O28  1  0.74683009  0.01474244  0.79054584  1
  O  O29  1  0.83608400  0.75541248  0.94731693  1
  O  O30  1  0.16391600  0.25541248  0.55268307  1
  O  O31  1  0.24683009  0.01474244  0.70945416  1
  O  O32  1  0.33608400  0.74458752  0.05268307  1
  O  O33  1  0.75316991  0.51474244  0.79054584  1
  O  O34  1  0.34605358  0.55678437  0.39709669  1
  O  O35  1  0.66391600  0.24458752  0.44731693  1
  O  O36  1  0.84605358  0.55678437  0.10290331  1
  O  O37  1  0.65394642  0.05678437  0.10290331  1
  O  O38  1  0.66391600  0.25541248  0.94731693  1
  O  O39  1  0.25316991  0.98525756  0.20945416  1
