# generated using pymatgen
data_Na4Cu(AsO4)2
_symmetry_space_group_name_H-M   'P 1'
_cell_length_a   4.94748776
_cell_length_b   5.97841588
_cell_length_c   7.05717390
_cell_angle_alpha   98.39967268
_cell_angle_beta   90.91169399
_cell_angle_gamma   105.97274647
_symmetry_Int_Tables_number   1
_chemical_formula_structural   Na4Cu(AsO4)2
_chemical_formula_sum   'Na4 Cu1 As2 O8'
_cell_volume   198.18082847
_cell_formula_units_Z   1
loop_
 _symmetry_equiv_pos_site_id
 _symmetry_equiv_pos_as_xyz
  1  'x, y, z'
loop_
 _atom_site_type_symbol
 _atom_site_label
 _atom_site_symmetry_multiplicity
 _atom_site_fract_x
 _atom_site_fract_y
 _atom_site_fract_z
 _atom_site_occupancy
  Na  Na0  1  0.28823727  0.57449304  0.16822429  1
  Na  Na1  1  0.71176273  0.42550696  0.83177571  1
  Na  Na2  1  0.16144777  0.26117623  0.57494162  1
  Na  Na3  1  0.83855223  0.73882377  0.42505838  1
  Cu  Cu4  1  0.00000000  0.00000000  0.00000000  1
  As  As5  1  0.39810156  0.80384704  0.73516047  1
  As  As6  1  0.60189844  0.19615296  0.26483953  1
  O  O7  1  0.68715871  0.27582205  0.50571361  1
  O  O8  1  0.23600140  0.14479548  0.23873124  1
  O  O9  1  0.23475042  0.56868648  0.84528378  1
  O  O10  1  0.76399860  0.85520452  0.76126876  1
  O  O11  1  0.76524958  0.43131352  0.15471622  1
  O  O12  1  0.68363231  0.93842824  0.16888376  1
  O  O13  1  0.31636769  0.06157176  0.83111624  1
  O  O14  1  0.31284129  0.72417795  0.49428639  1
