# generated using pymatgen
data_Mn3(AgO2)4
_symmetry_space_group_name_H-M   'P 1'
_cell_length_a   9.07518870
_cell_length_b   9.07518826
_cell_length_c   9.07518896
_cell_angle_alpha   90.53133654
_cell_angle_beta   90.53133649
_cell_angle_gamma   90.53133735
_symmetry_Int_Tables_number   1
_chemical_formula_structural   Mn3(AgO2)4
_chemical_formula_sum   'Mn12 Ag16 O32'
_cell_volume   747.32688819
_cell_formula_units_Z   4
loop_
 _symmetry_equiv_pos_site_id
 _symmetry_equiv_pos_as_xyz
  1  'x, y, z'
loop_
 _atom_site_type_symbol
 _atom_site_label
 _atom_site_symmetry_multiplicity
 _atom_site_fract_x
 _atom_site_fract_y
 _atom_site_fract_z
 _atom_site_occupancy
  Mn  Mn0  1  0.03896384  0.50000000  0.96103616  1
  Mn  Mn1  1  0.50000000  0.96103616  0.03896384  1
  Mn  Mn2  1  0.96103616  0.03896384  0.50000000  1
  Mn  Mn3  1  0.70805831  0.00000000  0.29194169  1
  Mn  Mn4  1  1.00000000  0.29194169  0.70805831  1
  Mn  Mn5  1  0.29194169  0.70805831  0.00000000  1
  Mn  Mn6  1  0.25058020  0.45985161  0.20993784  1
  Mn  Mn7  1  0.45985161  0.20993784  0.25058020  1
  Mn  Mn8  1  0.20993784  0.25058020  0.45985161  1
  Mn  Mn9  1  0.79006216  0.54014839  0.74941980  1
  Mn  Mn10  1  0.54014839  0.74941980  0.79006216  1
  Mn  Mn11  1  0.74941980  0.79006216  0.54014839  1
  Ag  Ag12  1  0.50000000  0.50000000  0.50000000  1
  Ag  Ag13  1  0.21386392  0.13535172  0.94372038  1
  Ag  Ag14  1  0.13535172  0.94372038  0.21386392  1
  Ag  Ag15  1  0.94372038  0.21386392  0.13535172  1
  Ag  Ag16  1  0.05627962  0.86464828  0.78613608  1
  Ag  Ag17  1  0.86464828  0.78613608  0.05627962  1
  Ag  Ag18  1  0.78613608  0.05627962  0.86464828  1
  Ag  Ag19  1  0.78808211  0.39448264  0.38457745  1
  Ag  Ag20  1  0.39448264  0.38457745  0.78808211  1
  Ag  Ag21  1  0.38457745  0.78808211  0.39448264  1
  Ag  Ag22  1  0.61542255  0.60551736  0.21191789  1
  Ag  Ag23  1  0.60551736  0.21191789  0.61542255  1
  Ag  Ag24  1  0.21191789  0.61542255  0.60551736  1
  Ag  Ag25  1  0.33558545  0.00000000  0.66441455  1
  Ag  Ag26  1  0.00000000  0.66441455  0.33558545  1
  Ag  Ag27  1  0.66441455  0.33558545  0.00000000  1
  O  O28  1  0.47464358  0.17170358  0.04113535  1
  O  O29  1  0.17170358  0.04113535  0.47464358  1
  O  O30  1  0.04113535  0.47464358  0.17170358  1
  O  O31  1  0.95886465  0.82829642  0.52535642  1
  O  O32  1  0.82829642  0.52535642  0.95886465  1
  O  O33  1  0.52535642  0.95886465  0.82829642  1
  O  O34  1  0.41941777  0.22258723  0.45813634  1
  O  O35  1  0.22258723  0.45813634  0.41941777  1
  O  O36  1  0.45813634  0.41941777  0.22258723  1
  O  O37  1  0.54186366  0.77741277  0.58058223  1
  O  O38  1  0.77741277  0.58058223  0.54186366  1
  O  O39  1  0.58058223  0.54186366  0.77741277  1
  O  O40  1  0.24035978  0.24035978  0.24035978  1
  O  O41  1  0.75964022  0.75964022  0.75964022  1
  O  O42  1  0.27595772  0.67113712  0.20836302  1
  O  O43  1  0.70701889  0.97066398  0.08111436  1
  O  O44  1  0.08111436  0.70701889  0.97066398  1
  O  O45  1  0.91888564  0.02933602  0.29298111  1
  O  O46  1  0.02933602  0.29298111  0.91888564  1
  O  O47  1  0.29298111  0.91888564  0.02933602  1
  O  O48  1  0.99006253  0.25810382  0.49104592  1
  O  O49  1  0.25810382  0.49104592  0.99006253  1
  O  O50  1  0.49104592  0.99006253  0.25810382  1
  O  O51  1  0.50895408  0.74189618  0.00993747  1
  O  O52  1  0.74189618  0.00993747  0.50895408  1
  O  O53  1  0.00993747  0.50895408  0.74189618  1
  O  O54  1  0.67113712  0.20836302  0.27595772  1
  O  O55  1  0.20836302  0.27595772  0.67113712  1
  O  O56  1  0.32886288  0.72404228  0.79163698  1
  O  O57  1  0.79163698  0.32886288  0.72404228  1
  O  O58  1  0.72404228  0.79163698  0.32886288  1
  O  O59  1  0.97066398  0.08111436  0.70701889  1
