# generated using pymatgen
data_Ti(Ag4S3)2
_symmetry_space_group_name_H-M   'P 1'
_cell_length_a   7.57201747
_cell_length_b   10.73846478
_cell_length_c   15.34961032
_cell_angle_alpha   90.00000000
_cell_angle_beta   90.00000000
_cell_angle_gamma   90.00000000
_symmetry_Int_Tables_number   1
_chemical_formula_structural   Ti(Ag4S3)2
_chemical_formula_sum   'Ti4 Ag32 S24'
_cell_volume   1248.10510315
_cell_formula_units_Z   4
loop_
 _symmetry_equiv_pos_site_id
 _symmetry_equiv_pos_as_xyz
  1  'x, y, z'
loop_
 _atom_site_type_symbol
 _atom_site_label
 _atom_site_symmetry_multiplicity
 _atom_site_fract_x
 _atom_site_fract_y
 _atom_site_fract_z
 _atom_site_occupancy
  Ti  Ti0  1  0.74329460  0.51507933  0.62737206  1
  Ti  Ti1  1  0.24329460  0.01507933  0.87262794  1
  Ti  Ti2  1  0.25670540  0.01507933  0.37262794  1
  Ti  Ti3  1  0.75670540  0.51507933  0.12737206  1
  Ag  Ag4  1  0.39543764  0.69284671  0.41747024  1
  Ag  Ag5  1  0.99701689  0.25827253  0.48090369  1
  Ag  Ag6  1  0.93865315  0.84519540  0.08002116  1
  Ag  Ag7  1  0.12248713  0.68959458  0.27323754  1
  Ag  Ag8  1  0.00613637  0.79904875  0.72885420  1
  Ag  Ag9  1  0.49386363  0.79904875  0.22885420  1
  Ag  Ag10  1  0.50298311  0.25827253  0.98090369  1
  Ag  Ag11  1  0.37751287  0.68959458  0.77323754  1
  Ag  Ag12  1  0.50613637  0.29904875  0.77114580  1
  Ag  Ag13  1  0.77293222  0.49348178  0.37736141  1
  Ag  Ag14  1  0.27916556  0.52593474  0.05073608  1
  Ag  Ag15  1  0.54909472  0.01620880  0.73537522  1
  Ag  Ag16  1  0.43865315  0.34519540  0.41997884  1
  Ag  Ag17  1  0.72706778  0.49348178  0.87736141  1
  Ag  Ag18  1  0.22706778  0.99348178  0.62263859  1
  Ag  Ag19  1  0.00298311  0.75827253  0.51909631  1
  Ag  Ag20  1  0.60456236  0.19284671  0.58252976  1
  Ag  Ag21  1  0.10456236  0.69284671  0.91747024  1
  Ag  Ag22  1  0.56134685  0.84519540  0.58002116  1
  Ag  Ag23  1  0.04909472  0.51620880  0.76462478  1
  Ag  Ag24  1  0.77916556  0.02593474  0.44926392  1
  Ag  Ag25  1  0.72083444  0.02593474  0.94926392  1
  Ag  Ag26  1  0.62248713  0.18959458  0.22676246  1
  Ag  Ag27  1  0.27293222  0.99348178  0.12263859  1
  Ag  Ag28  1  0.06134685  0.34519540  0.91997884  1
  Ag  Ag29  1  0.49701689  0.75827253  0.01909631  1
  Ag  Ag30  1  0.95090528  0.01620880  0.23537522  1
  Ag  Ag31  1  0.87751287  0.18959458  0.72676246  1
  Ag  Ag32  1  0.89543764  0.19284671  0.08252976  1
  Ag  Ag33  1  0.22083444  0.52593474  0.55073608  1
  Ag  Ag34  1  0.45090528  0.51620880  0.26462478  1
  Ag  Ag35  1  0.99386363  0.29904875  0.27114580  1
  S  S36  1  0.70680220  0.00529410  0.12073833  1
  S  S37  1  0.48601741  0.88551395  0.87194145  1
  S  S38  1  0.77809150  0.64050046  0.00647506  1
  S  S39  1  0.20680220  0.50529410  0.37926167  1
  S  S40  1  0.29319780  0.50529410  0.87926167  1
  S  S41  1  0.23876528  0.75620969  0.12138924  1
  S  S42  1  0.98601741  0.38551395  0.62805855  1
  S  S43  1  0.01398259  0.88551395  0.37194145  1
  S  S44  1  0.26277868  0.14402808  0.25322678  1
  S  S45  1  0.79319780  0.00529410  0.62073833  1
  S  S46  1  0.01391941  0.40379109  0.12216058  1
  S  S47  1  0.72190850  0.64050046  0.50647506  1
  S  S48  1  0.26123472  0.75620969  0.62138924  1
  S  S49  1  0.76123472  0.25620969  0.87861076  1
  S  S50  1  0.27809150  0.14050046  0.49352494  1
  S  S51  1  0.73876528  0.25620969  0.37861076  1
  S  S52  1  0.48608059  0.40379109  0.62216058  1
  S  S53  1  0.98608059  0.90379109  0.87783942  1
  S  S54  1  0.23722132  0.14402808  0.75322678  1
  S  S55  1  0.22190850  0.14050046  0.99352494  1
  S  S56  1  0.51398259  0.38551395  0.12805855  1
  S  S57  1  0.51391941  0.90379109  0.37783942  1
  S  S58  1  0.73722132  0.64402808  0.74677322  1
  S  S59  1  0.76277868  0.64402808  0.24677322  1
