# generated using pymatgen
data_SrCuH6O5
_symmetry_space_group_name_H-M   'P 1'
_cell_length_a   5.46737822
_cell_length_b   6.29672524
_cell_length_c   7.97729554
_cell_angle_alpha   90.00000000
_cell_angle_beta   107.79437910
_cell_angle_gamma   90.00000000
_symmetry_Int_Tables_number   1
_chemical_formula_structural   SrCuH6O5
_chemical_formula_sum   'Sr2 Cu2 H12 O10'
_cell_volume   261.49247301
_cell_formula_units_Z   2
loop_
 _symmetry_equiv_pos_site_id
 _symmetry_equiv_pos_as_xyz
  1  'x, y, z'
loop_
 _atom_site_type_symbol
 _atom_site_label
 _atom_site_symmetry_multiplicity
 _atom_site_fract_x
 _atom_site_fract_y
 _atom_site_fract_z
 _atom_site_occupancy
  Sr  Sr0  1  0.00000000  0.55059571  0.25000000  1
  Sr  Sr1  1  0.00000000  0.44940429  0.75000000  1
  Cu  Cu2  1  0.00000000  0.00000000  0.00000000  1
  Cu  Cu3  1  0.00000000  0.00000000  0.50000000  1
  H  H4  1  0.63289671  0.94665510  0.10588170  1
  H  H5  1  0.43247823  0.29414799  0.14570585  1
  H  H6  1  0.56752177  0.29414799  0.35429415  1
  H  H7  1  0.33702099  0.26362649  0.52426615  1
  H  H8  1  0.43247823  0.70585201  0.64570585  1
  H  H9  1  0.66297901  0.73637351  0.47573385  1
  H  H10  1  0.56752177  0.70585201  0.85429415  1
  H  H11  1  0.66297901  0.26362649  0.97573385  1
  H  H12  1  0.63289671  0.05334490  0.60588170  1
  H  H13  1  0.33702099  0.73637351  0.02426615  1
  H  H14  1  0.36710329  0.05334490  0.89411830  1
  H  H15  1  0.36710329  0.94665510  0.39411830  1
  O  O16  1  0.28287109  0.15756779  0.94819866  1
  O  O17  1  0.50000000  0.61091769  0.75000000  1
  O  O18  1  0.15139957  0.72177438  1.00020775  1
  O  O19  1  0.15139957  0.27822562  0.50020775  1
  O  O20  1  0.84860043  0.27822562  -0.00020775  1
  O  O21  1  0.71712891  0.15756779  0.55180134  1
  O  O22  1  0.50000000  0.38908231  0.25000000  1
  O  O23  1  0.71712891  0.84243221  0.05180134  1
  O  O24  1  0.84860043  0.72177438  0.49979225  1
  O  O25  1  0.28287109  0.84243221  0.44819866  1
