# generated using pymatgen
data_Ba3Mg(SiO4)2
_symmetry_space_group_name_H-M   'P 1'
_cell_length_a   7.37326243
_cell_length_b   9.84983509
_cell_length_c   9.84981809
_cell_angle_alpha   120.00029217
_cell_angle_beta   90.00009206
_cell_angle_gamma   90.00027549
_symmetry_Int_Tables_number   1
_chemical_formula_structural   Ba3Mg(SiO4)2
_chemical_formula_sum   'Ba9 Mg3 Si6 O24'
_cell_volume   619.50699412
_cell_formula_units_Z   3
loop_
 _symmetry_equiv_pos_site_id
 _symmetry_equiv_pos_as_xyz
  1  'x, y, z'
loop_
 _atom_site_type_symbol
 _atom_site_label
 _atom_site_symmetry_multiplicity
 _atom_site_fract_x
 _atom_site_fract_y
 _atom_site_fract_z
 _atom_site_occupancy
  Ba  Ba0  1  0.17801052  0.00238636  0.33466562  1
  Ba  Ba1  1  0.17800343  0.66534463  0.66772716  1
  Ba  Ba2  1  0.17800405  0.33226839  0.99760863  1
  Ba  Ba3  1  0.82198948  0.99761364  0.66533438  1
  Ba  Ba4  1  0.82199657  0.33465537  0.33227284  1
  Ba  Ba5  1  0.82199595  0.66773161  0.00239137  1
  Ba  Ba6  1  0.50407531  0.33336171  0.66668134  1
  Ba  Ba7  1  0.49592469  0.66663829  0.33331866  1
  Ba  Ba8  1  0.50000000  -0.00000000  -0.00000000  1
  Mg  Mg9  1  0.01144632  0.33332710  0.66666308  1
  Mg  Mg10  1  0.98855368  0.66667290  0.33333692  1
  Mg  Mg11  1  0.00000000  -0.00000000  -0.00000000  1
  Si  Si12  1  0.25890241  0.67132517  0.00835722  1
  Si  Si13  1  0.25890673  0.99164007  0.66296778  1
  Si  Si14  1  0.25890425  0.33703221  0.32867362  1
  Si  Si15  1  0.74109759  0.32867483  0.99164278  1
  Si  Si16  1  0.74109327  0.00835993  0.33703222  1
  Si  Si17  1  0.74109575  0.66296779  0.67132638  1
  O  O18  1  0.17709699  0.17457634  0.17489194  1
  O  O19  1  0.17709684  0.82510958  0.99968972  1
  O  O20  1  0.17709793  0.00031344  0.82542243  1
  O  O21  1  0.82290301  0.82542366  0.82510806  1
  O  O22  1  0.82290316  0.17489042  0.00031028  1
  O  O23  1  0.82290207  0.99968656  0.17457757  1
  O  O24  1  0.19588579  0.33373446  0.48937879  1
  O  O25  1  0.19588204  0.51062235  0.84435099  1
  O  O26  1  0.19588844  0.15564411  0.66626807  1
  O  O27  1  0.80411421  0.66626554  0.51062121  1
  O  O28  1  0.80411796  0.48937765  0.15564901  1
  O  O29  1  0.80411156  0.84435589  0.33373193  1
  O  O30  1  0.47530000  0.68797204  0.04251872  1
  O  O31  1  0.47530320  0.95746811  0.64545572  1
  O  O32  1  0.47530174  0.35454901  0.31202149  1
  O  O33  1  0.52470000  0.31202796  0.95748128  1
  O  O34  1  0.52469680  0.04253189  0.35454428  1
  O  O35  1  0.52469826  0.64545099  0.68797851  1
  O  O36  1  0.15495355  0.66710345  0.15719654  1
  O  O37  1  0.15495255  0.84280304  0.50990757  1
  O  O38  1  0.15495417  0.49009007  0.33289286  1
  O  O39  1  0.84504645  0.33289655  0.84280346  1
  O  O40  1  0.84504745  0.15719696  0.49009243  1
  O  O41  1  0.84504583  0.50990993  0.66710714  1
