# generated using pymatgen
data_Dy2Cu(BO2)8
_symmetry_space_group_name_H-M   'P 1'
_cell_length_a   6.26346206
_cell_length_b   8.49037212
_cell_length_c   10.26876030
_cell_angle_alpha   90.00000000
_cell_angle_beta   90.30953721
_cell_angle_gamma   90.00000000
_symmetry_Int_Tables_number   1
_chemical_formula_structural   Dy2Cu(BO2)8
_chemical_formula_sum   'Dy4 Cu2 B16 O32'
_cell_volume   546.07570457
_cell_formula_units_Z   2
loop_
 _symmetry_equiv_pos_site_id
 _symmetry_equiv_pos_as_xyz
  1  'x, y, z'
loop_
 _atom_site_type_symbol
 _atom_site_label
 _atom_site_symmetry_multiplicity
 _atom_site_fract_x
 _atom_site_fract_y
 _atom_site_fract_z
 _atom_site_occupancy
  Dy  Dy0  1  0.50460792  0.00626832  0.81788044  1
  Dy  Dy1  1  0.99539208  0.50626832  0.18211956  1
  Dy  Dy2  1  0.00460792  0.49373168  0.81788044  1
  Dy  Dy3  1  0.49539208  0.99373168  0.18211956  1
  Cu  Cu4  1  0.00000000  0.50000000  0.50000000  1
  Cu  Cu5  1  0.50000000  0.00000000  0.50000000  1
  B  B6  1  0.11583157  0.80922463  0.38153066  1
  B  B7  1  0.88416843  0.19077537  0.61846934  1
  B  B8  1  0.38416843  0.30922463  0.61846934  1
  B  B9  1  0.11266280  0.18225712  0.00010128  1
  B  B10  1  0.62053945  0.69331072  0.62667991  1
  B  B11  1  0.37946055  0.30668928  0.37332009  1
  B  B12  1  0.50560067  0.49637354  0.80630199  1
  B  B13  1  0.88733720  0.81774288  0.99989872  1
  B  B14  1  0.61266280  0.31774288  0.00010128  1
  B  B15  1  0.49439933  0.50362646  0.19369801  1
  B  B16  1  0.12053945  0.80668928  0.62667991  1
  B  B17  1  0.99439933  0.99637354  0.19369801  1
  B  B18  1  0.00560067  0.00362646  0.80630199  1
  B  B19  1  0.38733720  0.68225712  0.99989872  1
  B  B20  1  0.61583157  0.69077537  0.38153066  1
  B  B21  1  0.87946055  0.19331072  0.37332009  1
  O  O22  1  0.93945433  0.66344094  0.99297248  1
  O  O23  1  0.35180015  0.40916757  0.72467172  1
  O  O24  1  0.64992647  0.62580785  0.50441714  1
  O  O25  1  0.65184169  0.38888832  0.87873795  1
  O  O26  1  0.64819985  0.59083243  0.27532828  1
  O  O27  1  0.94099850  0.34256262  0.63745203  1
  O  O28  1  0.35007353  0.37419215  0.49558286  1
  O  O29  1  0.85007353  0.12580785  0.49558286  1
  O  O30  1  0.14819985  0.90916757  0.27532828  1
  O  O31  1  0.06278497  0.65493559  0.64324435  1
  O  O32  1  0.64184169  0.41288796  0.10985110  1
  O  O33  1  0.06054567  0.33655906  0.00702752  1
  O  O34  1  0.14184169  0.08711204  0.10985110  1
  O  O35  1  0.85815831  0.91288796  0.89014890  1
  O  O36  1  0.15184169  0.11111168  0.87873795  1
  O  O37  1  0.34815831  0.61111168  0.12126205  1
  O  O38  1  0.84308167  0.09532312  0.26565428  1
  O  O39  1  0.93721503  0.34506441  0.35675565  1
  O  O40  1  0.56054567  0.16344094  0.00702752  1
  O  O41  1  0.44099850  0.15743738  0.63745203  1
  O  O42  1  0.56278497  0.84506441  0.64324435  1
  O  O43  1  0.14992647  0.87419215  0.50441714  1
  O  O44  1  0.43945433  0.83655906  0.99297248  1
  O  O45  1  0.65691833  0.59532312  0.73434572  1
  O  O46  1  0.35815831  0.58711204  0.89014890  1
  O  O47  1  0.05900150  0.65743738  0.36254797  1
  O  O48  1  0.84815831  0.88888832  0.12126205  1
  O  O49  1  0.43721503  0.15493559  0.35675565  1
  O  O50  1  0.15691833  0.90467688  0.73434572  1
  O  O51  1  0.85180015  0.09083243  0.72467172  1
  O  O52  1  0.55900150  0.84256262  0.36254797  1
  O  O53  1  0.34308167  0.40467688  0.26565428  1
