# generated using pymatgen
data_Na4C2O5
_symmetry_space_group_name_H-M   'P 1'
_cell_length_a   5.06462607
_cell_length_b   5.06462616
_cell_length_c   6.20346224
_cell_angle_alpha   81.19336502
_cell_angle_beta   81.19336605
_cell_angle_gamma   63.78432241
_symmetry_Int_Tables_number   1
_chemical_formula_structural   Na4C2O5
_chemical_formula_sum   'Na4 C2 O5'
_cell_volume   140.41384682
_cell_formula_units_Z   1
loop_
 _symmetry_equiv_pos_site_id
 _symmetry_equiv_pos_as_xyz
  1  'x, y, z'
loop_
 _atom_site_type_symbol
 _atom_site_label
 _atom_site_symmetry_multiplicity
 _atom_site_fract_x
 _atom_site_fract_y
 _atom_site_fract_z
 _atom_site_occupancy
  C  C0  1  0.31655815  0.31655815  0.24839873  1
  C  C1  1  0.66155381  0.66155381  0.76120689  1
  Na  Na2  1  0.00449132  0.00449132  0.00880940  1
  Na  Na3  1  0.33464810  0.33464810  0.73509489  1
  Na  Na4  1  0.66802802  0.66802802  0.26846443  1
  Na  Na5  1  0.99898340  0.99898340  0.50396654  1
  O  O6  1  0.18332540  0.59761734  0.28238463  1
  O  O7  1  0.59761734  0.18332540  0.28238463  1
  O  O8  1  0.38700992  0.80810931  0.71806130  1
  O  O9  1  0.80810931  0.38700992  0.71806130  1
  O  O10  1  0.78867525  0.78867525  0.84516726  1
