# generated using pymatgen
data_CaH8(NO5)2
_symmetry_space_group_name_H-M   'P 1'
_cell_length_a   6.31041513
_cell_length_b   9.30410342
_cell_length_c   14.51958484
_cell_angle_alpha   90.00000000
_cell_angle_beta   97.53757216
_cell_angle_gamma   90.00000000
_symmetry_Int_Tables_number   1
_chemical_formula_structural   CaH8(NO5)2
_chemical_formula_sum   'Ca4 H32 N8 O40'
_cell_volume   845.11855281
_cell_formula_units_Z   4
loop_
 _symmetry_equiv_pos_site_id
 _symmetry_equiv_pos_as_xyz
  1  'x, y, z'
loop_
 _atom_site_type_symbol
 _atom_site_label
 _atom_site_symmetry_multiplicity
 _atom_site_fract_x
 _atom_site_fract_y
 _atom_site_fract_z
 _atom_site_occupancy
  Ca  Ca0  1  0.54884491  0.40509442  0.36485943  1
  Ca  Ca1  1  0.04884491  0.09490558  0.86485943  1
  Ca  Ca2  1  0.45115509  0.59490558  0.63514057  1
  Ca  Ca3  1  0.95115509  0.90509442  0.13514057  1
  H  H4  1  0.64496590  0.28702521  0.88804228  1
  H  H5  1  0.31659668  0.36668189  0.84969216  1
  H  H6  1  0.15168951  0.62794190  0.06896284  1
  H  H7  1  0.86046026  0.61360498  0.76521461  1
  H  H8  1  0.63953974  0.11360498  0.73478539  1
  H  H9  1  0.89199021  0.58337051  0.47964974  1
  H  H10  1  0.68651276  0.67699887  0.04643673  1
  H  H11  1  0.08923059  0.38408030  0.62510838  1
  H  H12  1  0.84831049  0.37205810  0.93103716  1
  H  H13  1  0.41076941  0.88408030  0.87489162  1
  H  H14  1  0.34831049  0.12794190  0.43103716  1
  H  H15  1  0.79781914  0.44984933  0.76339660  1
  H  H16  1  0.31348724  0.32300113  0.95356327  1
  H  H17  1  0.14496590  0.21297479  0.38804228  1
  H  H18  1  0.18340332  0.86668189  0.65030784  1
  H  H19  1  0.58923059  0.11591970  0.12510838  1
  H  H20  1  0.85503410  0.78702521  0.61195772  1
  H  H21  1  0.65168951  0.87205810  0.56896284  1
  H  H22  1  0.35503410  0.71297479  0.11195772  1
  H  H23  1  0.39199021  0.91662949  0.97964974  1
  H  H24  1  0.36046026  0.88639502  0.26521461  1
  H  H25  1  0.18651276  0.82300113  0.54643673  1
  H  H26  1  0.68340332  0.63331811  0.15030784  1
  H  H27  1  0.20218086  0.55015067  0.23660340  1
  H  H28  1  0.70218086  0.94984933  0.73660340  1
  H  H29  1  0.60800979  0.08337051  0.02035026  1
  H  H30  1  0.10800979  0.41662949  0.52035026  1
  H  H31  1  0.29781914  0.05015067  0.26339660  1
  H  H32  1  0.91076941  0.61591970  0.37489162  1
  H  H33  1  0.81348724  0.17699887  0.45356327  1
  H  H34  1  0.81659668  0.13331811  0.34969216  1
  H  H35  1  0.13953974  0.38639502  0.23478539  1
  N  N36  1  0.61813053  0.37483176  0.16436505  1
  N  N37  1  0.88186947  0.87483176  0.33563495  1
  N  N38  1  0.38186947  0.62516824  0.83563495  1
  N  N39  1  0.41295918  0.73529307  0.41139161  1
  N  N40  1  0.91295918  0.76470693  0.91139161  1
  N  N41  1  0.58704082  0.26470693  0.58860839  1
  N  N42  1  0.11813053  0.12516824  0.66436505  1
  N  N43  1  0.08704082  0.23529307  0.08860839  1
  O  O44  1  0.86754106  0.64699049  0.94666939  1
  O  O45  1  0.21493642  0.46236134  0.27399855  1
  O  O46  1  0.62912309  0.38087457  0.07973590  1
  O  O47  1  0.36359148  0.95731333  0.91742140  1
  O  O48  1  0.45647303  0.72709967  0.32927004  1
  O  O49  1  0.66467042  0.71746465  0.10724265  1
  O  O50  1  0.13245894  0.35300951  0.05333061  1
  O  O51  1  0.29897321  0.19916552  0.38348772  1
  O  O52  1  0.05293168  0.23710713  0.70300365  1
  O  O53  1  0.78506358  0.53763866  0.72600145  1
  O  O54  1  0.16467042  0.78253535  0.60724265  1
  O  O55  1  0.86359148  0.54268667  0.41742140  1
  O  O56  1  0.08313466  0.11894638  0.04053197  1
  O  O57  1  0.36754106  0.85300951  0.44666939  1
  O  O58  1  0.12912309  0.11912543  0.57973590  1
  O  O59  1  0.63640852  0.04268667  0.08257860  1
  O  O60  1  0.17165929  0.01682596  0.71777611  1
  O  O61  1  0.55293168  0.26289287  0.20300365  1
  O  O62  1  0.58313466  0.38105362  0.54053197  1
  O  O63  1  0.63245894  0.14699049  0.55333061  1
  O  O64  1  0.71493642  0.03763866  0.77399855  1
  O  O65  1  0.37087691  0.61912543  0.92026410  1
  O  O66  1  0.94706832  0.76289287  0.29699635  1
  O  O67  1  0.28506358  0.96236134  0.22600145  1
  O  O68  1  0.20102679  0.69916552  0.11651228  1
  O  O69  1  0.87087691  0.88087457  0.42026410  1
  O  O70  1  0.79897321  0.30083448  0.88348772  1
  O  O71  1  0.91686534  0.88105362  0.95946803  1
  O  O72  1  0.95647303  0.77290033  0.82927004  1
  O  O73  1  0.33532958  0.28253535  0.89275735  1
  O  O74  1  0.13640852  0.45731333  0.58257860  1
  O  O75  1  0.32834071  0.51682596  0.78222389  1
  O  O76  1  0.67165929  0.48317404  0.21777611  1
  O  O77  1  0.83532958  0.21746465  0.39275735  1
  O  O78  1  0.04352697  0.22709967  0.17072996  1
  O  O79  1  0.82834071  0.98317404  0.28222389  1
  O  O80  1  0.44706832  0.73710713  0.79699635  1
  O  O81  1  0.54352697  0.27290033  0.67072996  1
  O  O82  1  0.41686534  0.61894638  0.45946803  1
  O  O83  1  0.70102679  0.80083448  0.61651228  1
