# generated using pymatgen
data_Hg2Te2O7
_symmetry_space_group_name_H-M   'P 1'
_cell_length_a   7.57796397
_cell_length_b   13.97090794
_cell_length_c   13.93557472
_cell_angle_alpha   120.08390666
_cell_angle_beta   90.00000000
_cell_angle_gamma   90.00000000
_symmetry_Int_Tables_number   1
_chemical_formula_structural   Hg2Te2O7
_chemical_formula_sum   'Hg16 Te16 O56'
_cell_volume   1276.62947135
_cell_formula_units_Z   8
loop_
 _symmetry_equiv_pos_site_id
 _symmetry_equiv_pos_as_xyz
  1  'x, y, z'
loop_
 _atom_site_type_symbol
 _atom_site_label
 _atom_site_symmetry_multiplicity
 _atom_site_fract_x
 _atom_site_fract_y
 _atom_site_fract_z
 _atom_site_occupancy
  Hg  Hg0  1  0.52025512  0.23582731  0.50892684  1
  Hg  Hg1  1  0.95357607  0.49493574  0.74067295  1
  Hg  Hg2  1  0.04642393  0.75426279  0.25932705  1
  Hg  Hg3  1  0.47974488  0.72690047  0.49107316  1
  Hg  Hg4  1  0.95167640  0.25184420  0.24017164  1
  Hg  Hg5  1  0.00000000  0.28361491  1.00000000  1
  Hg  Hg6  1  0.50000000  0.29170399  1.00000000  1
  Hg  Hg7  1  0.00000000  0.79170399  1.00000000  1
  Hg  Hg8  1  0.97974488  0.73582731  0.50892684  1
  Hg  Hg9  1  0.45357607  0.25426279  0.25932705  1
  Hg  Hg10  1  0.54642393  0.99493574  0.74067295  1
  Hg  Hg11  1  0.04832360  0.01167257  0.75982836  1
  Hg  Hg12  1  0.45167640  0.51167257  0.75982836  1
  Hg  Hg13  1  0.50000000  0.78361491  1.00000000  1
  Hg  Hg14  1  0.54832360  0.75184420  0.24017164  1
  Hg  Hg15  1  0.02025512  0.22690047  0.49107316  1
  Te  Te16  1  0.73952966  0.46470130  0.49715490  1
  Te  Te17  1  0.25002770  0.04250467  0.00147640  1
  Te  Te18  1  0.26047034  0.96754640  0.50284510  1
  Te  Te19  1  0.75002770  0.54102827  0.99852360  1
  Te  Te20  1  0.24966021  0.75543254  0.72435984  1
  Te  Te21  1  0.76047034  0.96470130  0.49715490  1
  Te  Te22  1  0.75685679  0.24994095  0.77020069  1
  Te  Te23  1  0.75033979  0.03107270  0.27564016  1
  Te  Te24  1  0.74314321  0.74994095  0.77020069  1
  Te  Te25  1  0.25685679  0.97974026  0.22979931  1
  Te  Te26  1  0.25033979  0.25543254  0.72435984  1
  Te  Te27  1  0.24314321  0.47974026  0.22979931  1
  Te  Te28  1  0.74966021  0.53107270  0.27564016  1
  Te  Te29  1  0.24997230  0.54250467  0.00147640  1
  Te  Te30  1  0.74997230  0.04102827  0.99852360  1
  Te  Te31  1  0.23952966  0.46754640  0.50284510  1
  O  O32  1  0.70960782  0.06485211  0.14691887  1
  O  O33  1  0.79039218  0.56485211  0.14691887  1
  O  O34  1  0.69484868  0.69575927  0.06442624  1
  O  O35  1  0.19014576  0.95069967  0.36004591  1
  O  O36  1  0.44106525  0.37710451  0.16766574  1
  O  O37  1  0.80515132  0.19575927  0.06442624  1
  O  O38  1  0.27329313  0.66291564  0.15549725  1
  O  O39  1  0.69014576  0.09065376  0.63995409  1
  O  O40  1  0.73306944  0.86735593  0.55663927  1
  O  O41  1  0.94512599  0.13603756  0.31575639  1
  O  O42  1  0.55893475  0.20943877  0.83233426  1
  O  O43  1  0.05893475  0.87710451  0.16766574  1
  O  O44  1  0.78244795  0.07168792  0.44359759  1
  O  O45  1  0.04417359  0.38317455  0.19258158  1
  O  O46  1  0.72670687  0.50741839  0.84450275  1
  O  O47  1  0.00000000  0.58712470  0.00000000  1
  O  O48  1  0.19586170  0.44343765  0.06171661  1
  O  O49  1  0.94106525  0.70943877  0.83233426  1
  O  O50  1  0.99227677  0.44031863  0.44714279  1
  O  O51  1  0.19520205  0.50003536  0.65458309  1
  O  O52  1  0.80985424  0.59065376  0.63995409  1
  O  O53  1  0.44512599  0.32028117  0.68424361  1
  O  O54  1  0.71755205  0.57168792  0.44359759  1
  O  O55  1  0.50000000  0.49527464  1.00000000  1
  O  O56  1  0.54417359  0.69059297  0.80741842  1
  O  O57  1  0.30413830  0.94343765  0.06171661  1
  O  O58  1  0.80479795  0.84545227  0.34541691  1
  O  O59  1  0.45493346  0.79307418  0.66832304  1
  O  O60  1  0.69520205  0.34545227  0.34541691  1
  O  O61  1  0.49227677  0.49317585  0.55285721  1
  O  O62  1  0.00772323  0.99317585  0.55285721  1
  O  O63  1  0.05487401  0.82028117  0.68424361  1
  O  O64  1  0.54506654  0.12475114  0.33167696  1
  O  O65  1  0.30515132  0.63133303  0.93557376  1
  O  O66  1  0.04506654  0.29307418  0.66832304  1
  O  O67  1  0.29039218  0.91793324  0.85308113  1
  O  O68  1  0.50000000  0.08712470  0.00000000  1
  O  O69  1  0.30985424  0.45069967  0.36004591  1
  O  O70  1  0.69586170  0.88172104  0.93828339  1
  O  O71  1  0.50772323  0.94031863  0.44714279  1
  O  O72  1  0.30479795  1.00003536  0.65458309  1
  O  O73  1  0.21755205  0.62809033  0.55640241  1
  O  O74  1  0.45582641  0.88317455  0.19258158  1
  O  O75  1  0.77329313  0.00741839  0.84450275  1
  O  O76  1  0.22670687  0.16291564  0.15549725  1
  O  O77  1  0.95493346  0.62475114  0.33167696  1
  O  O78  1  0.26693056  0.31071666  0.44336073  1
  O  O79  1  0.23306944  0.81071666  0.44336073  1
  O  O80  1  0.28244795  0.12809033  0.55640241  1
  O  O81  1  0.76693056  0.36735593  0.55663927  1
  O  O82  1  0.55487401  0.63603756  0.31575639  1
  O  O83  1  0.80413830  0.38172104  0.93828339  1
  O  O84  1  0.00000000  0.99527464  1.00000000  1
  O  O85  1  0.19484868  0.13133303  0.93557376  1
  O  O86  1  0.95582641  0.19059297  0.80741842  1
  O  O87  1  0.20960782  0.41793324  0.85308113  1
