# generated using pymatgen
data_Tl2CuAsO4
_symmetry_space_group_name_H-M   'P 1'
_cell_length_a   5.48876576
_cell_length_b   6.16701585
_cell_length_c   8.94657761
_cell_angle_alpha   99.46483379
_cell_angle_beta   90.00000000
_cell_angle_gamma   90.00000000
_symmetry_Int_Tables_number   1
_chemical_formula_structural   Tl2CuAsO4
_chemical_formula_sum   'Tl4 Cu2 As2 O8'
_cell_volume   298.71285345
_cell_formula_units_Z   2
loop_
 _symmetry_equiv_pos_site_id
 _symmetry_equiv_pos_as_xyz
  1  'x, y, z'
loop_
 _atom_site_type_symbol
 _atom_site_label
 _atom_site_symmetry_multiplicity
 _atom_site_fract_x
 _atom_site_fract_y
 _atom_site_fract_z
 _atom_site_occupancy
  Tl  Tl0  1  0.01194536  0.78866765  0.81461822  1
  Tl  Tl1  1  0.50052437  0.73389740  0.48820769  1
  Tl  Tl2  1  0.51194536  0.21133235  0.18538178  1
  Tl  Tl3  1  1.00052437  0.26610260  0.51179231  1
  Cu  Cu4  1  0.43708160  0.66394463  0.01223680  1
  Cu  Cu5  1  0.93708160  0.33605537  0.98776320  1
  As  As6  1  0.01115567  0.75620873  0.21765055  1
  As  As7  1  0.51115567  0.24379127  0.78234945  1
  O  O8  1  0.82717714  0.19569664  0.79697509  1
  O  O9  1  0.43049911  0.14255917  0.59818751  1
  O  O10  1  0.97882176  0.47049395  0.18863426  1
  O  O11  1  0.47882176  0.52950605  0.81136574  1
  O  O12  1  0.85019498  0.87916975  0.08954171  1
  O  O13  1  0.32717714  0.80430336  0.20302491  1
  O  O14  1  0.93049911  0.85744083  0.40181249  1
  O  O15  1  0.35019498  0.12083025  0.91045829  1
