# generated using pymatgen
data_Ca6Hf19O44
_symmetry_space_group_name_H-M   'P 1'
_cell_length_a   12.09144324
_cell_length_b   12.09144389
_cell_length_c   12.09144411
_cell_angle_alpha   98.07669934
_cell_angle_beta   98.07669982
_cell_angle_gamma   98.07670127
_symmetry_Int_Tables_number   1
_chemical_formula_structural   Ca6Hf19O44
_chemical_formula_sum   'Ca12 Hf38 O88'
_cell_volume   1709.60005290
_cell_formula_units_Z   2
loop_
 _symmetry_equiv_pos_site_id
 _symmetry_equiv_pos_as_xyz
  1  'x, y, z'
loop_
 _atom_site_type_symbol
 _atom_site_label
 _atom_site_symmetry_multiplicity
 _atom_site_fract_x
 _atom_site_fract_y
 _atom_site_fract_z
 _atom_site_occupancy
  Ca  Ca0  1  0.45033336  0.04966664  0.25000000  1
  Ca  Ca1  1  0.16609802  0.33390198  0.75000000  1
  Ca  Ca2  1  0.75000000  0.16609802  0.33390198  1
  Ca  Ca3  1  0.33390198  0.75000000  0.16609802  1
  Ca  Ca4  1  0.04966664  0.25000000  0.45033336  1
  Ca  Ca5  1  0.54966664  0.95033336  0.75000000  1
  Ca  Ca6  1  0.75000000  0.54966664  0.95033336  1
  Ca  Ca7  1  0.66609802  0.25000000  0.83390198  1
  Ca  Ca8  1  0.25000000  0.83390198  0.66609802  1
  Ca  Ca9  1  0.25000000  0.45033336  0.04966664  1
  Ca  Ca10  1  0.95033336  0.75000000  0.54966664  1
  Ca  Ca11  1  0.83390198  0.66609802  0.25000000  1
  Hf  Hf12  1  0.75000000  0.35737007  0.14262993  1
  Hf  Hf13  1  0.42394383  0.85776440  0.44932622  1
  Hf  Hf14  1  0.62115053  0.44831651  0.65768827  1
  Hf  Hf15  1  0.07605617  0.05067378  0.64223560  1
  Hf  Hf16  1  0.12115053  0.15768827  0.94831651  1
  Hf  Hf17  1  0.25000000  0.06200181  0.43799819  1
  Hf  Hf18  1  0.55168349  0.34231173  0.37884947  1
  Hf  Hf19  1  0.85776440  0.44932622  0.42394383  1
  Hf  Hf20  1  0.93799819  0.56200181  0.75000000  1
  Hf  Hf21  1  0.35737007  0.14262993  0.75000000  1
  Hf  Hf22  1  0.06200181  0.43799819  0.25000000  1
  Hf  Hf23  1  0.37884947  0.55168349  0.34231173  1
  Hf  Hf24  1  0.85737007  0.25000000  0.64262993  1
  Hf  Hf25  1  0.84231173  0.05168349  0.87884947  1
  Hf  Hf26  1  0.25000000  0.64262993  0.85737007  1
  Hf  Hf27  1  0.34231173  0.37884947  0.55168349  1
  Hf  Hf28  1  0.25000000  0.25000000  0.25000000  1
  Hf  Hf29  1  0.94831651  0.12115053  0.15768827  1
  Hf  Hf30  1  0.94932622  0.35776440  0.92394383  1
  Hf  Hf31  1  0.15768827  0.94831651  0.12115053  1
  Hf  Hf32  1  0.55067378  0.57605617  0.14223560  1
  Hf  Hf33  1  0.44831651  0.65768827  0.62115053  1
  Hf  Hf34  1  0.65768827  0.62115053  0.44831651  1
  Hf  Hf35  1  0.05168349  0.87884947  0.84231173  1
  Hf  Hf36  1  0.14262993  0.75000000  0.35737007  1
  Hf  Hf37  1  0.44932622  0.42394383  0.85776440  1
  Hf  Hf38  1  0.05067378  0.64223560  0.07605617  1
  Hf  Hf39  1  0.56200181  0.75000000  0.93799819  1
  Hf  Hf40  1  0.75000000  0.93799819  0.56200181  1
  Hf  Hf41  1  0.64262993  0.85737007  0.25000000  1
  Hf  Hf42  1  0.92394383  0.94932622  0.35776440  1
  Hf  Hf43  1  0.14223560  0.55067378  0.57605617  1
  Hf  Hf44  1  0.75000000  0.75000000  0.75000000  1
  Hf  Hf45  1  0.43799819  0.25000000  0.06200181  1
  Hf  Hf46  1  0.35776440  0.92394383  0.94932622  1
  Hf  Hf47  1  0.57605617  0.14223560  0.55067378  1
  Hf  Hf48  1  0.64223560  0.07605617  0.05067378  1
  Hf  Hf49  1  0.87884947  0.84231173  0.05168349  1
  O  O50  1  0.74502372  0.10875381  0.56653577  1
  O  O51  1  0.39287862  0.39287862  0.39287862  1
  O  O52  1  0.68546652  0.45617768  0.49464377  1
  O  O53  1  0.84798160  0.20063420  0.80137095  1
  O  O54  1  0.91462660  0.10684008  0.31786461  1
  O  O55  1  0.74796709  0.92962959  0.73425983  1
  O  O56  1  0.49464377  0.68546652  0.45617768  1
  O  O57  1  0.92018012  0.95902196  0.54914549  1
  O  O58  1  0.43346423  0.25497628  0.89124619  1
  O  O59  1  0.29936580  0.65201840  0.69862905  1
  O  O60  1  0.98536015  0.80142008  0.36890685  1
  O  O61  1  0.34798160  0.30137095  0.70063420  1
  O  O62  1  0.25203291  0.07037041  0.26574017  1
  O  O63  1  0.80137095  0.84798160  0.20063420  1
  O  O64  1  0.45617768  0.49464377  0.68546652  1
  O  O65  1  0.99464377  0.95617768  0.18546652  1
  O  O66  1  0.86890685  0.30142008  0.48536015  1
  O  O67  1  0.81786461  0.60684008  0.41462660  1
  O  O68  1  0.79936580  0.19862905  0.15201840  1
  O  O69  1  0.57037041  0.75203291  0.76574017  1
  O  O70  1  0.89124619  0.43346423  0.25497628  1
  O  O71  1  0.07037041  0.26574017  0.25203291  1
  O  O72  1  0.01463985  0.19857992  0.63109315  1
  O  O73  1  0.69857992  0.51463985  0.13109315  1
  O  O74  1  0.80142008  0.36890685  0.98536015  1
  O  O75  1  0.54914549  0.92018012  0.95902196  1
  O  O76  1  0.24502372  0.06653577  0.60875381  1
  O  O77  1  0.42962959  0.24796709  0.23425983  1
  O  O78  1  0.30137095  0.70063420  0.34798160  1
  O  O79  1  0.95617768  0.18546652  0.99464377  1
  O  O80  1  0.89287862  0.89287862  0.89287862  1
  O  O81  1  0.39124619  0.75497628  0.93346423  1
  O  O82  1  0.08537340  0.89315992  0.68213539  1
  O  O83  1  0.70063420  0.34798160  0.30137095  1
  O  O84  1  0.24796709  0.23425983  0.42962959  1
  O  O85  1  0.18213539  0.39315992  0.58537340  1
  O  O86  1  0.36890685  0.98536015  0.80142008  1
  O  O87  1  0.57981988  0.95085451  0.54097804  1
  O  O88  1  0.07981988  0.04097804  0.45085451  1
  O  O89  1  0.10875381  0.56653577  0.74502372  1
  O  O90  1  0.60684008  0.41462660  0.81786461  1
  O  O91  1  0.04097804  0.45085451  0.07981988  1
  O  O92  1  0.42018012  0.04914549  0.45902196  1
  O  O93  1  0.18546652  0.99464377  0.95617768  1
  O  O94  1  0.04382232  0.81453348  0.00535623  1
  O  O95  1  0.75497628  0.93346423  0.39124619  1
  O  O96  1  0.25497628  0.89124619  0.43346423  1
  O  O97  1  0.06653577  0.60875381  0.24502372  1
  O  O98  1  0.51463985  0.13109315  0.69857992  1
  O  O99  1  0.19857992  0.63109315  0.01463985  1
  O  O100  1  0.75203291  0.76574017  0.57037041  1
  O  O101  1  0.10684008  0.31786461  0.91462660  1
  O  O102  1  0.41462660  0.81786461  0.60684008  1
  O  O103  1  0.58537340  0.18213539  0.39315992  1
  O  O104  1  0.04914549  0.45902196  0.42018012  1
  O  O105  1  0.13109315  0.69857992  0.51463985  1
  O  O106  1  0.54382232  0.50535623  0.31453348  1
  O  O107  1  0.15201840  0.79936580  0.19862905  1
  O  O108  1  0.56653577  0.74502372  0.10875381  1
  O  O109  1  0.31786461  0.91462660  0.10684008  1
  O  O110  1  0.68213539  0.08537340  0.89315992  1
  O  O111  1  0.48536015  0.86890685  0.30142008  1
  O  O112  1  0.81453348  0.00535623  0.04382232  1
  O  O113  1  0.31453348  0.54382232  0.50535623  1
  O  O114  1  0.30142008  0.48536015  0.86890685  1
  O  O115  1  0.60712138  0.60712138  0.60712138  1
  O  O116  1  0.00535623  0.04382232  0.81453348  1
  O  O117  1  0.92962959  0.73425983  0.74796709  1
  O  O118  1  0.23425983  0.42962959  0.24796709  1
  O  O119  1  0.89315992  0.68213539  0.08537340  1
  O  O120  1  0.10712138  0.10712138  0.10712138  1
  O  O121  1  0.26574017  0.25203291  0.07037041  1
  O  O122  1  0.45085451  0.07981988  0.04097804  1
  O  O123  1  0.76574017  0.57037041  0.75203291  1
  O  O124  1  0.73425983  0.74796709  0.92962959  1
  O  O125  1  0.95902196  0.54914549  0.92018012  1
  O  O126  1  0.45902196  0.42018012  0.04914549  1
  O  O127  1  0.65201840  0.69862905  0.29936580  1
  O  O128  1  0.20063420  0.80137095  0.84798160  1
  O  O129  1  0.69862905  0.29936580  0.65201840  1
  O  O130  1  0.93346423  0.39124619  0.75497628  1
  O  O131  1  0.54097804  0.57981988  0.95085451  1
  O  O132  1  0.60875381  0.24502372  0.06653577  1
  O  O133  1  0.19862905  0.15201840  0.79936580  1
  O  O134  1  0.95085451  0.54097804  0.57981988  1
  O  O135  1  0.63109315  0.01463985  0.19857992  1
  O  O136  1  0.39315992  0.58537340  0.18213539  1
  O  O137  1  0.50535623  0.31453348  0.54382232  1
