# generated using pymatgen
data_Tb2Cu(BO2)8
_symmetry_space_group_name_H-M   'P 1'
_cell_length_a   6.29770481
_cell_length_b   8.46693902
_cell_length_c   10.28877192
_cell_angle_alpha   90.00000000
_cell_angle_beta   90.43556016
_cell_angle_gamma   90.00000000
_symmetry_Int_Tables_number   1
_chemical_formula_structural   Tb2Cu(BO2)8
_chemical_formula_sum   'Tb4 Cu2 B16 O32'
_cell_volume   548.60495186
_cell_formula_units_Z   2
loop_
 _symmetry_equiv_pos_site_id
 _symmetry_equiv_pos_as_xyz
  1  'x, y, z'
loop_
 _atom_site_type_symbol
 _atom_site_label
 _atom_site_symmetry_multiplicity
 _atom_site_fract_x
 _atom_site_fract_y
 _atom_site_fract_z
 _atom_site_occupancy
  Tb  Tb0  1  0.50732934  0.01099618  0.81794462  1
  Tb  Tb1  1  0.99267066  0.51099618  0.18205538  1
  Tb  Tb2  1  0.00732934  0.48900382  0.81794462  1
  Tb  Tb3  1  0.49267066  0.98900382  0.18205538  1
  Cu  Cu4  1  0.00000000  0.50000000  0.50000000  1
  Cu  Cu5  1  0.50000000  0.00000000  0.50000000  1
  B  B6  1  0.00814171  0.00560297  0.80622925  1
  B  B7  1  0.12152336  0.80668290  0.62910625  1
  B  B8  1  0.38956531  0.68145012  0.99929727  1
  B  B9  1  0.50814171  0.49439703  0.80622925  1
  B  B10  1  0.88956531  0.81854988  0.99929727  1
  B  B11  1  0.37847664  0.30668290  0.37089375  1
  B  B12  1  0.61369315  0.68877430  0.38469576  1
  B  B13  1  0.38630685  0.31122570  0.61530424  1
  B  B14  1  0.99185829  0.99439703  0.19377075  1
  B  B15  1  0.49185829  0.50560297  0.19377075  1
  B  B16  1  0.62152336  0.69331710  0.62910625  1
  B  B17  1  0.11369315  0.81122570  0.38469576  1
  B  B18  1  0.61043469  0.31854988  0.00070273  1
  B  B19  1  0.88630685  0.18877430  0.61530424  1
  B  B20  1  0.11043469  0.18145012  0.00070273  1
  B  B21  1  0.87847664  0.19331710  0.37089375  1
  O  O22  1  0.05611908  0.65928368  0.36517540  1
  O  O23  1  0.34133596  0.40399942  0.26271119  1
  O  O24  1  0.65041711  0.62464033  0.50739088  1
  O  O25  1  0.34861596  0.61776900  0.12337696  1
  O  O26  1  0.84133596  0.09600058  0.26271119  1
  O  O27  1  0.86160183  0.91986469  0.89345369  1
  O  O28  1  0.65866404  0.59600058  0.73728881  1
  O  O29  1  0.44388092  0.15928368  0.63482460  1
  O  O30  1  0.44310815  0.83541284  0.98834748  1
  O  O31  1  0.06285157  0.65470194  0.64455301  1
  O  O32  1  0.65138404  0.38223100  0.87662304  1
  O  O33  1  0.93714843  0.34529806  0.35544699  1
  O  O34  1  0.94388092  0.34071632  0.63482460  1
  O  O35  1  0.63839817  0.41986469  0.10654631  1
  O  O36  1  0.64470721  0.58856132  0.27873565  1
  O  O37  1  0.15041711  0.87535967  0.50739088  1
  O  O38  1  0.15138404  0.11776900  0.87662304  1
  O  O39  1  0.85529279  0.08856132  0.72126435  1
  O  O40  1  0.43714843  0.15470194  0.35544699  1
  O  O41  1  0.34958289  0.37535967  0.49260912  1
  O  O42  1  0.84958289  0.12464033  0.49260912  1
  O  O43  1  0.56285157  0.84529806  0.64455301  1
  O  O44  1  0.55611908  0.84071632  0.36517540  1
  O  O45  1  0.35529279  0.41143868  0.72126435  1
  O  O46  1  0.36160183  0.58013531  0.89345369  1
  O  O47  1  0.55689185  0.16458716  0.01165252  1
  O  O48  1  0.13839817  0.08013531  0.10654631  1
  O  O49  1  0.05689185  0.33541284  0.01165252  1
  O  O50  1  0.84861596  0.88223100  0.12337696  1
  O  O51  1  0.94310815  0.66458716  0.98834748  1
  O  O52  1  0.14470721  0.91143868  0.27873565  1
  O  O53  1  0.15866404  0.90399942  0.73728881  1
