# generated using pymatgen
data_K3Sb5O14
_symmetry_space_group_name_H-M   'P 1'
_cell_length_a   7.27795950
_cell_length_b   7.46143325
_cell_length_c   24.68966822
_cell_angle_alpha   90.00000000
_cell_angle_beta   90.00000000
_cell_angle_gamma   90.00000000
_symmetry_Int_Tables_number   1
_chemical_formula_structural   K3Sb5O14
_chemical_formula_sum   'K12 Sb20 O56'
_cell_volume   1340.74796536
_cell_formula_units_Z   4
loop_
 _symmetry_equiv_pos_site_id
 _symmetry_equiv_pos_as_xyz
  1  'x, y, z'
loop_
 _atom_site_type_symbol
 _atom_site_label
 _atom_site_symmetry_multiplicity
 _atom_site_fract_x
 _atom_site_fract_y
 _atom_site_fract_z
 _atom_site_occupancy
  K  K0  1  0.10350431  0.98925470  0.38315943  1
  K  K1  1  0.72283119  0.03019606  0.48482294  1
  K  K2  1  0.61603231  0.50386339  0.20580695  1
  K  K3  1  0.39649569  0.98925470  0.88315943  1
  K  K4  1  0.88396769  0.50386339  0.70580695  1
  K  K5  1  0.89649569  0.98925470  0.61684057  1
  K  K6  1  0.60350431  0.98925470  0.11684057  1
  K  K7  1  0.22283119  0.03019606  0.01517706  1
  K  K8  1  0.77716881  0.03019606  0.98482294  1
  K  K9  1  0.27716881  0.03019606  0.51517706  1
  K  K10  1  0.38396769  0.50386339  0.79419305  1
  K  K11  1  0.11603231  0.50386339  0.29419305  1
  Sb  Sb12  1  0.17516147  0.01339333  0.75613765  1
  Sb  Sb13  1  0.58255262  0.51266503  0.94294664  1
  Sb  Sb14  1  0.82483853  0.01339333  0.24386235  1
  Sb  Sb15  1  0.39037851  0.24799205  0.64516606  1
  Sb  Sb16  1  0.08255262  0.51266503  0.55705336  1
  Sb  Sb17  1  0.60962149  0.24799205  0.35483394  1
  Sb  Sb18  1  0.67516147  0.01339333  0.74386235  1
  Sb  Sb19  1  0.10962149  0.24799205  0.14516606  1
  Sb  Sb20  1  0.89037851  0.24799205  0.85483394  1
  Sb  Sb21  1  0.10900345  0.77686017  0.14543641  1
  Sb  Sb22  1  0.40589502  0.51336483  0.43772241  1
  Sb  Sb23  1  0.89099655  0.77686017  0.85456359  1
  Sb  Sb24  1  0.91744738  0.51266503  0.44294664  1
  Sb  Sb25  1  0.39099655  0.77686017  0.64543641  1
  Sb  Sb26  1  0.41744738  0.51266503  0.05705336  1
  Sb  Sb27  1  0.90589502  0.51336483  0.06227759  1
  Sb  Sb28  1  0.32483853  0.01339333  0.25613765  1
  Sb  Sb29  1  0.09410498  0.51336483  0.93772241  1
  Sb  Sb30  1  0.59410498  0.51336483  0.56227759  1
  Sb  Sb31  1  0.60900345  0.77686017  0.35456359  1
  O  O32  1  0.66077076  0.51521429  0.09400828  1
  O  O33  1  0.73900742  0.78810942  0.78846137  1
  O  O34  1  0.62236727  0.82798757  0.68536544  1
  O  O35  1  0.23900742  0.78810942  0.71153863  1
  O  O36  1  0.83922924  0.51521429  0.59400828  1
  O  O37  1  0.95321625  0.76938586  0.07411233  1
  O  O38  1  0.43507073  0.01514279  0.78153752  1
  O  O39  1  0.83791278  0.31286486  0.39724814  1
  O  O40  1  0.45321625  0.76938586  0.42588767  1
  O  O41  1  0.66040602  0.51272098  0.48237307  1
  O  O42  1  0.16089956  0.70782087  0.60460505  1
  O  O43  1  0.76170322  0.23924615  0.28870996  1
  O  O44  1  0.02724764  0.51231734  0.14257761  1
  O  O45  1  0.93507073  0.01514279  0.71846248  1
  O  O46  1  0.37763273  0.82798757  0.31463456  1
  O  O47  1  0.23829678  0.23924615  0.71129004  1
  O  O48  1  0.83910044  0.70782087  0.39539495  1
  O  O49  1  0.04678375  0.76938586  0.92588767  1
  O  O50  1  0.33910044  0.70782087  0.10460505  1
  O  O51  1  0.04746258  0.25668672  0.92631282  1
  O  O52  1  0.16077076  0.51521429  0.40599172  1
  O  O53  1  0.47275236  0.51231734  0.64257761  1
  O  O54  1  0.68211533  0.01217585  0.38067705  1
  O  O55  1  0.54678375  0.76938586  0.57411233  1
  O  O56  1  0.83959398  0.51272098  0.98237307  1
  O  O57  1  0.52724764  0.51231734  0.35742239  1
  O  O58  1  0.26099258  0.78810942  0.21153863  1
  O  O59  1  0.33922924  0.51521429  0.90599172  1
  O  O60  1  0.62162856  0.19740565  0.68518468  1
  O  O61  1  0.12236727  0.82798757  0.81463456  1
  O  O62  1  0.12162856  0.19740565  0.81481532  1
  O  O63  1  0.45253742  0.25668672  0.42631282  1
  O  O64  1  0.00000000  0.69183473  0.50000000  1
  O  O65  1  0.87837144  0.19740565  0.18518468  1
  O  O66  1  0.16040602  0.51272098  0.01762693  1
  O  O67  1  0.50000000  0.33361944  0.00000000  1
  O  O68  1  0.56492927  0.01514279  0.21846248  1
  O  O69  1  0.16208722  0.31286486  0.60275186  1
  O  O70  1  0.97275236  0.51231734  0.85742239  1
  O  O71  1  0.37837144  0.19740565  0.31481532  1
  O  O72  1  0.66089956  0.70782087  0.89539495  1
  O  O73  1  0.54746258  0.25668672  0.57368718  1
  O  O74  1  0.18211533  0.01217585  0.11932295  1
  O  O75  1  0.00000000  0.33361944  0.50000000  1
  O  O76  1  0.87763273  0.82798757  0.18536544  1
  O  O77  1  0.50000000  0.69183473  0.00000000  1
  O  O78  1  0.73829678  0.23924615  0.78870996  1
  O  O79  1  0.95253742  0.25668672  0.07368718  1
  O  O80  1  0.33959398  0.51272098  0.51762693  1
  O  O81  1  0.06492927  0.01514279  0.28153752  1
  O  O82  1  0.31788467  0.01217585  0.61932295  1
  O  O83  1  0.66208722  0.31286486  0.89724814  1
  O  O84  1  0.76099258  0.78810942  0.28846137  1
  O  O85  1  0.33791278  0.31286486  0.10275186  1
  O  O86  1  0.26170322  0.23924615  0.21129004  1
  O  O87  1  0.81788467  0.01217585  0.88067705  1
