# generated using pymatgen
data_Er3B5O12
_symmetry_space_group_name_H-M   'P 1'
_cell_length_a   4.63898817
_cell_length_b   12.57301461
_cell_length_c   12.88483602
_cell_angle_alpha   90.00000000
_cell_angle_beta   90.00000000
_cell_angle_gamma   90.00000000
_symmetry_Int_Tables_number   1
_chemical_formula_structural   Er3B5O12
_chemical_formula_sum   'Er12 B20 O48'
_cell_volume   751.52179658
_cell_formula_units_Z   4
loop_
 _symmetry_equiv_pos_site_id
 _symmetry_equiv_pos_as_xyz
  1  'x, y, z'
loop_
 _atom_site_type_symbol
 _atom_site_label
 _atom_site_symmetry_multiplicity
 _atom_site_fract_x
 _atom_site_fract_y
 _atom_site_fract_z
 _atom_site_occupancy
  Er  Er0  1  -0.00053205  0.69260738  0.63527626  1
  Er  Er1  1  1.00053205  0.30739262  0.36472374  1
  Er  Er2  1  1.00053205  0.19260738  0.86472374  1
  Er  Er3  1  -0.00053205  0.80739262  0.86472374  1
  Er  Er4  1  0.00000000  0.50000000  0.13221240  1
  Er  Er5  1  1.00053205  0.19260738  0.13527626  1
  Er  Er6  1  0.00000000  0.50000000  0.86778760  1
  Er  Er7  1  1.00053205  0.30739262  0.63527626  1
  Er  Er8  1  0.00000000  0.00000000  0.63221240  1
  Er  Er9  1  -0.00053205  0.69260738  0.36472374  1
  Er  Er10  1  -0.00053205  0.80739262  0.13527626  1
  Er  Er11  1  0.00000000  0.00000000  0.36778760  1
  B  B12  1  0.50000000  0.50000000  0.33823646  1
  B  B13  1  0.50000000  0.00000000  0.83823646  1
  B  B14  1  0.53953895  0.84938524  0.50000000  1
  B  B15  1  0.52941196  0.15144022  0.70181646  1
  B  B16  1  0.53953895  0.65061476  0.00000000  1
  B  B17  1  0.47058804  0.65144022  0.20181646  1
  B  B18  1  0.52941196  0.34855978  0.79818354  1
  B  B19  1  0.45681220  0.37474429  0.50000000  1
  B  B20  1  0.50000000  0.00000000  0.16176354  1
  B  B21  1  0.47058804  0.84855978  0.70181646  1
  B  B22  1  0.45681220  0.12525571  0.00000000  1
  B  B23  1  0.46046105  0.34938524  0.00000000  1
  B  B24  1  0.47058804  0.84855978  0.29818354  1
  B  B25  1  0.46046105  0.15061476  0.50000000  1
  B  B26  1  0.47058804  0.65144022  0.79818354  1
  B  B27  1  0.54318780  0.62525571  0.50000000  1
  B  B28  1  0.54318780  0.87474429  0.00000000  1
  B  B29  1  0.52941196  0.15144022  0.29818354  1
  B  B30  1  0.50000000  0.50000000  0.66176354  1
  B  B31  1  0.52941196  0.34855978  0.20181646  1
  O  O32  1  0.31181937  0.56490605  0.73354058  1
  O  O33  1  0.65644546  0.14581559  0.40506257  1
  O  O34  1  0.66486633  0.57345392  0.40408271  1
  O  O35  1  0.31181937  0.93509395  0.76645942  1
  O  O36  1  0.65688647  0.25000000  0.25000000  1
  O  O37  1  0.66486633  0.92654608  0.90408271  1
  O  O38  1  0.68818063  0.43509395  0.26645942  1
  O  O39  1  0.24034723  0.42827501  0.00000000  1
  O  O40  1  0.33513367  0.42654608  0.59591729  1
  O  O41  1  0.77900963  0.84819313  0.70430079  1
  O  O42  1  0.34311353  0.75000000  0.75000000  1
  O  O43  1  0.31181937  0.56490605  0.26645942  1
  O  O44  1  0.68818063  0.06490605  0.76645942  1
  O  O45  1  0.22099037  0.15180687  0.29569921  1
  O  O46  1  0.24034723  0.07172499  0.50000000  1
  O  O47  1  0.69585382  0.76288741  0.00000000  1
  O  O48  1  0.75765629  0.36139757  0.50000000  1
  O  O49  1  0.68818063  0.06490605  0.23354058  1
  O  O50  1  0.65644546  0.35418441  0.09493743  1
  O  O51  1  0.34355454  0.85418441  0.59493743  1
  O  O52  1  0.34311353  0.75000000  0.25000000  1
  O  O53  1  0.65688647  0.25000000  0.75000000  1
  O  O54  1  0.34355454  0.85418441  0.40506257  1
  O  O55  1  0.66486633  0.92654608  0.09591729  1
  O  O56  1  0.33513367  0.07345392  0.90408271  1
  O  O57  1  0.77900963  0.65180687  0.79569921  1
  O  O58  1  0.75965277  0.57172499  0.00000000  1
  O  O59  1  0.22099037  0.34819313  0.79569921  1
  O  O60  1  0.69585382  0.73711259  0.50000000  1
  O  O61  1  0.77900963  0.84819313  0.29569921  1
  O  O62  1  0.31181937  0.93509395  0.23354058  1
  O  O63  1  0.65644546  0.14581559  0.59493743  1
  O  O64  1  0.30414618  0.26288741  0.50000000  1
  O  O65  1  0.66486633  0.57345392  0.59591729  1
  O  O66  1  0.24234371  0.86139757  0.00000000  1
  O  O67  1  0.22099037  0.34819313  0.20430079  1
  O  O68  1  0.77900963  0.65180687  0.20430079  1
  O  O69  1  0.65644546  0.35418441  0.90506257  1
  O  O70  1  0.33513367  0.42654608  0.40408271  1
  O  O71  1  0.22099037  0.15180687  0.70430079  1
  O  O72  1  0.33513367  0.07345392  0.09591729  1
  O  O73  1  0.68818063  0.43509395  0.73354058  1
  O  O74  1  0.34355454  0.64581559  0.90506257  1
  O  O75  1  0.75765629  0.13860243  0.00000000  1
  O  O76  1  0.75965277  0.92827501  0.50000000  1
  O  O77  1  0.34355454  0.64581559  0.09493743  1
  O  O78  1  0.24234371  0.63860243  0.50000000  1
  O  O79  1  0.30414618  0.23711259  0.00000000  1
