# generated using pymatgen
data_Ce(BO2)3
_symmetry_space_group_name_H-M   'P 1'
_cell_length_a   4.26268930
_cell_length_b   7.30804068
_cell_length_c   11.81006708
_cell_angle_alpha   90.00000000
_cell_angle_beta   90.00000000
_cell_angle_gamma   91.35578716
_symmetry_Int_Tables_number   1
_chemical_formula_structural   Ce(BO2)3
_chemical_formula_sum   'Ce4 B12 O24'
_cell_volume   367.80311158
_cell_formula_units_Z   4
loop_
 _symmetry_equiv_pos_site_id
 _symmetry_equiv_pos_as_xyz
  1  'x, y, z'
loop_
 _atom_site_type_symbol
 _atom_site_label
 _atom_site_symmetry_multiplicity
 _atom_site_fract_x
 _atom_site_fract_y
 _atom_site_fract_z
 _atom_site_occupancy
  Ce  Ce0  1  0.78621542  0.61949026  0.87966383  1
  Ce  Ce1  1  0.21378458  0.88050974  0.37966383  1
  Ce  Ce2  1  0.21378458  0.38050974  0.12033617  1
  Ce  Ce3  1  0.78621542  0.11949026  0.62033617  1
  B  B4  1  0.80609454  0.12602647  0.90594237  1
  B  B5  1  0.31174659  0.92592384  0.87842992  1
  B  B6  1  0.67508789  0.71162625  0.16660746  1
  B  B7  1  0.32491211  0.28837375  0.83339254  1
  B  B8  1  0.68825341  0.07407616  0.12157008  1
  B  B9  1  0.19390546  0.37397353  0.40594237  1
  B  B10  1  0.19390546  0.87397353  0.09405763  1
  B  B11  1  0.67508789  0.21162625  0.33339254  1
  B  B12  1  0.80609454  0.62602647  0.59405763  1
  B  B13  1  0.68825341  0.57407616  0.37842992  1
  B  B14  1  0.31174659  0.42592384  0.62157008  1
  B  B15  1  0.32491211  0.78837375  0.66660746  1
  O  O16  1  0.25259428  0.43855022  0.90941321  1
  O  O17  1  0.34860297  0.04827280  0.11944441  1
  O  O18  1  0.65139703  0.45172720  0.61944441  1
  O  O19  1  0.15460156  0.11029384  0.87315801  1
  O  O20  1  0.74740572  0.06144978  0.40941321  1
  O  O21  1  0.78034698  0.19393958  0.21547915  1
  O  O22  1  0.21965302  0.80606042  0.78452085  1
  O  O23  1  0.78034698  0.69393958  0.28452085  1
  O  O24  1  0.15460156  0.61029384  0.62684199  1
  O  O25  1  0.84539844  0.38970616  0.37315801  1
  O  O26  1  0.84539844  0.88970616  0.12684199  1
  O  O27  1  0.74740572  0.56144978  0.09058679  1
  O  O28  1  0.34860297  0.54827280  0.38055559  1
  O  O29  1  0.65139703  0.95172720  0.88055559  1
  O  O30  1  0.20447998  0.81692278  0.97617717  1
  O  O31  1  0.33093968  0.23620358  0.33132661  1
  O  O32  1  0.25259428  0.93855022  0.59058679  1
  O  O33  1  0.21965302  0.30606042  0.71547915  1
  O  O34  1  0.66906032  0.76379642  0.66867339  1
  O  O35  1  0.79552002  0.68307722  0.47617717  1
  O  O36  1  0.79552002  0.18307722  0.02382283  1
  O  O37  1  0.66906032  0.26379642  0.83132661  1
  O  O38  1  0.33093968  0.73620358  0.16867339  1
  O  O39  1  0.20447998  0.31692278  0.52382283  1
