# generated using pymatgen
data_Ca7Cu(PtO6)2
_symmetry_space_group_name_H-M   'P 1'
_cell_length_a   6.60427103
_cell_length_b   6.60427032
_cell_length_c   6.55739309
_cell_angle_alpha   90.73070342
_cell_angle_beta   90.73070337
_cell_angle_gamma   91.06633756
_symmetry_Int_Tables_number   1
_chemical_formula_structural   Ca7Cu(PtO6)2
_chemical_formula_sum   'Ca7 Cu1 Pt2 O12'
_cell_volume   285.91289725
_cell_formula_units_Z   1
loop_
 _symmetry_equiv_pos_site_id
 _symmetry_equiv_pos_as_xyz
  1  'x, y, z'
loop_
 _atom_site_type_symbol
 _atom_site_label
 _atom_site_symmetry_multiplicity
 _atom_site_fract_x
 _atom_site_fract_y
 _atom_site_fract_z
 _atom_site_occupancy
  Ca  Ca0  1  0.11164362  0.88835638  1.00000000  1
  Ca  Ca1  1  0.38381918  0.24269929  0.36749510  1
  Ca  Ca2  1  0.60926838  0.75323999  0.13639911  1
  Ca  Ca3  1  0.90497197  0.09502803  0.50000000  1
  Ca  Ca4  1  0.75730071  0.61618082  0.63250490  1
  Ca  Ca5  1  0.75251497  0.24748503  0.00000000  1
  Ca  Ca6  1  0.24676001  0.39073162  0.86360089  1
  Cu  Cu7  1  0.31065221  0.68934779  0.50000000  1
  Pt  Pt8  1  0.99657017  0.51092781  0.24964276  1
  Pt  Pt9  1  0.48907219  0.00342983  0.75035724  1
  O  O10  1  0.09415215  0.47752781  0.54376255  1
  O  O11  1  0.57233138  0.29898165  0.69730845  1
  O  O12  1  0.52247219  0.90584785  0.45623745  1
  O  O13  1  0.44758933  0.07707785  0.05094099  1
  O  O14  1  0.92292215  0.55241067  0.94905901  1
  O  O15  1  0.40497457  0.70747122  0.79342116  1
  O  O16  1  0.92322457  0.80379148  0.31241200  1
  O  O17  1  0.70101835  0.42766862  0.30269155  1
  O  O18  1  0.29252878  0.59502543  0.20657884  1
  O  O19  1  0.78842881  0.94032420  0.81718192  1
  O  O20  1  0.05967580  0.21157119  0.18281808  1
  O  O21  1  0.19620852  0.07677543  0.68758800  1
