# generated using pymatgen
data_Cs7O
_symmetry_space_group_name_H-M   'P 1'
_cell_length_a   16.52753657
_cell_length_b   16.52753618
_cell_length_c   9.31130644
_cell_angle_alpha   90.00000000
_cell_angle_beta   90.00000000
_cell_angle_gamma   120.00000080
_symmetry_Int_Tables_number   1
_chemical_formula_structural   Cs7O
_chemical_formula_sum   'Cs21 O3'
_cell_volume   2202.71085142
_cell_formula_units_Z   3
loop_
 _symmetry_equiv_pos_site_id
 _symmetry_equiv_pos_as_xyz
  1  'x, y, z'
loop_
 _atom_site_type_symbol
 _atom_site_label
 _atom_site_symmetry_multiplicity
 _atom_site_fract_x
 _atom_site_fract_y
 _atom_site_fract_z
 _atom_site_occupancy
  Cs  Cs0  1  0.77634586  0.88817293  0.50000000  1
  Cs  Cs1  1  0.81274286  0.18725714  0.78053027  1
  Cs  Cs2  1  0.11182707  0.88817293  0.50000000  1
  Cs  Cs3  1  0.81274286  0.18725714  0.21946973  1
  Cs  Cs4  1  0.21599532  0.43199063  0.00000000  1
  Cs  Cs5  1  0.44936537  0.89873074  0.50000000  1
  Cs  Cs6  1  0.81274286  0.62548572  0.78053027  1
  Cs  Cs7  1  0.89764362  0.44882181  0.00000000  1
  Cs  Cs8  1  0.81274286  0.62548572  0.21946973  1
  Cs  Cs9  1  0.55117819  0.10235638  0.00000000  1
  Cs  Cs10  1  0.66666700  0.33333300  0.79558286  1
  Cs  Cs11  1  0.11182707  0.22365414  0.50000000  1
  Cs  Cs12  1  0.00000000  0.00000000  0.00000000  1
  Cs  Cs13  1  0.10126926  0.55063463  0.50000000  1
  Cs  Cs14  1  0.21599532  0.78400468  0.00000000  1
  Cs  Cs15  1  0.56800937  0.78400468  0.00000000  1
  Cs  Cs16  1  0.66666700  0.33333300  0.20441714  1
  Cs  Cs17  1  0.37451428  0.18725714  0.78053027  1
  Cs  Cs18  1  0.44936537  0.55063463  0.50000000  1
  Cs  Cs19  1  0.55117819  0.44882181  0.00000000  1
  Cs  Cs20  1  0.37451428  0.18725714  0.21946973  1
  O  O21  1  0.74736515  0.25263485  0.00000000  1
  O  O22  1  0.50526969  0.25263485  0.00000000  1
  O  O23  1  0.74736515  0.49473031  0.00000000  1
