# generated using pymatgen
data_In2Te2MoO10
_symmetry_space_group_name_H-M   'P 1'
_cell_length_a   5.47548330
_cell_length_b   12.16824639
_cell_length_c   13.15692792
_cell_angle_alpha   95.50993703
_cell_angle_beta   90.00000000
_cell_angle_gamma   90.00000000
_symmetry_Int_Tables_number   1
_chemical_formula_structural   In2Te2MoO10
_chemical_formula_sum   'In8 Te8 Mo4 O40'
_cell_volume   872.55671953
_cell_formula_units_Z   4
loop_
 _symmetry_equiv_pos_site_id
 _symmetry_equiv_pos_as_xyz
  1  'x, y, z'
loop_
 _atom_site_type_symbol
 _atom_site_label
 _atom_site_symmetry_multiplicity
 _atom_site_fract_x
 _atom_site_fract_y
 _atom_site_fract_z
 _atom_site_occupancy
  In  In0  1  0.70458826  0.84463882  0.81854932  1
  In  In1  1  0.29541174  0.15536118  0.18145068  1
  In  In2  1  0.23816789  0.06069458  0.87436874  1
  In  In3  1  0.79541174  0.34463882  0.31854932  1
  In  In4  1  0.73816789  0.43930542  0.62563126  1
  In  In5  1  0.26183211  0.56069458  0.37436874  1
  In  In6  1  0.76183211  0.93930542  0.12563126  1
  In  In7  1  0.20458826  0.65536118  0.68145068  1
  Te  Te8  1  0.23979198  0.87490394  0.25551809  1
  Te  Te9  1  0.69188448  0.71992033  0.54128864  1
  Te  Te10  1  0.26020802  0.37490394  0.75551809  1
  Te  Te11  1  0.80811552  0.21992033  0.04128864  1
  Te  Te12  1  0.30811552  0.28007967  0.45871136  1
  Te  Te13  1  0.73979198  0.62509606  0.24448191  1
  Te  Te14  1  0.19188448  0.78007967  0.95871136  1
  Te  Te15  1  0.76020802  0.12509606  0.74448191  1
  Mo  Mo16  1  0.26755734  0.43467732  0.11325438  1
  Mo  Mo17  1  0.23244266  0.93467732  0.61325438  1
  Mo  Mo18  1  0.76755734  0.06532268  0.38674562  1
  Mo  Mo19  1  0.73244266  0.56532268  0.88674562  1
  O  O20  1  0.07503745  0.48096077  0.22579932  1
  O  O21  1  0.91285120  0.98807925  0.78899330  1
  O  O22  1  0.54867795  0.30418791  0.69674514  1
  O  O23  1  0.92496255  0.51903923  0.77420068  1
  O  O24  1  0.59717191  0.37496266  0.47825299  1
  O  O25  1  0.08714880  0.01192075  0.21100670  1
  O  O26  1  0.58714880  0.48807925  0.28899330  1
  O  O27  1  0.43306757  0.55292800  0.08951498  1
  O  O28  1  0.46690991  0.31187954  0.12767650  1
  O  O29  1  0.53309009  0.68812046  0.87232350  1
  O  O30  1  0.61417122  0.09782154  0.08748313  1
  O  O31  1  0.57817886  0.14792712  0.87066193  1
  O  O32  1  0.07556609  0.39248765  0.00941246  1
  O  O33  1  0.45445948  0.24185351  0.32242509  1
  O  O34  1  0.38582878  0.90217846  0.91251687  1
  O  O35  1  0.88582878  0.59782154  0.58748313  1
  O  O36  1  0.42496255  0.98096077  0.72579932  1
  O  O37  1  0.09717191  0.12503734  0.02174701  1
  O  O38  1  0.93306757  0.94707200  0.41048502  1
  O  O39  1  0.96690991  0.18812046  0.37232350  1
  O  O40  1  0.95132205  0.80418791  0.19674514  1
  O  O41  1  0.42443391  0.89248765  0.50941246  1
  O  O42  1  0.57556609  0.10751235  0.49058754  1
  O  O43  1  0.92182114  0.64792712  0.37066193  1
  O  O44  1  0.40282809  0.62503734  0.52174701  1
  O  O45  1  0.56693243  0.44707200  0.91048502  1
  O  O46  1  0.42182114  0.85207288  0.12933807  1
  O  O47  1  0.45132205  0.69581209  0.30325486  1
  O  O48  1  0.92443391  0.60751235  0.99058754  1
  O  O49  1  0.04554052  0.74185351  0.82242509  1
  O  O50  1  0.03309009  0.81187954  0.62767650  1
  O  O51  1  0.95445948  0.25814649  0.17757491  1
  O  O52  1  0.04867795  0.19581209  0.80325486  1
  O  O53  1  0.11417122  0.40217846  0.41251687  1
  O  O54  1  0.54554052  0.75814649  0.67757491  1
  O  O55  1  0.06693243  0.05292800  0.58951498  1
  O  O56  1  0.07817886  0.35207288  0.62933807  1
  O  O57  1  0.41285120  0.51192075  0.71100670  1
  O  O58  1  0.90282809  0.87496266  0.97825299  1
  O  O59  1  0.57503745  0.01903923  0.27420068  1
