# generated using pymatgen
data_Ba2Nd7Si11N23
_symmetry_space_group_name_H-M   'P 1'
_cell_length_a   9.76711769
_cell_length_b   11.02318018
_cell_length_c   12.85148237
_cell_angle_alpha   115.39574390
_cell_angle_beta   90.00000000
_cell_angle_gamma   90.00000000
_symmetry_Int_Tables_number   1
_chemical_formula_structural   Ba2Nd7Si11N23
_chemical_formula_sum   'Ba4 Nd14 Si22 N46'
_cell_volume   1249.94483770
_cell_formula_units_Z   2
loop_
 _symmetry_equiv_pos_site_id
 _symmetry_equiv_pos_as_xyz
  1  'x, y, z'
loop_
 _atom_site_type_symbol
 _atom_site_label
 _atom_site_symmetry_multiplicity
 _atom_site_fract_x
 _atom_site_fract_y
 _atom_site_fract_z
 _atom_site_occupancy
  Ba  Ba0  1  0.79118591  0.50000000  0.00000000  1
  Ba  Ba1  1  0.00000000  0.83397256  1.00000000  1
  Ba  Ba2  1  0.00000000  0.16602744  0.00000000  1
  Ba  Ba3  1  0.20881409  0.50000000  0.00000000  1
  Nd  Nd4  1  0.29492089  0.12099827  0.24199655  1
  Nd  Nd5  1  0.26580901  0.50000000  0.50000000  1
  Nd  Nd6  1  0.26580901  0.00000000  0.50000000  1
  Nd  Nd7  1  0.00000000  0.33620524  0.67241049  1
  Nd  Nd8  1  0.50000000  0.38594702  0.20556237  1
  Nd  Nd9  1  0.70507911  0.12099827  0.24199655  1
  Nd  Nd10  1  0.50000000  0.18038466  0.79443763  1
  Nd  Nd11  1  0.70507911  0.87900173  0.75800345  1
  Nd  Nd12  1  0.50000000  0.81961534  0.20556237  1
  Nd  Nd13  1  0.29492089  0.87900173  0.75800345  1
  Nd  Nd14  1  0.00000000  0.66379476  0.32758951  1
  Nd  Nd15  1  0.73419099  0.00000000  0.50000000  1
  Nd  Nd16  1  0.50000000  0.61405298  0.79443763  1
  Nd  Nd17  1  0.73419099  0.50000000  0.50000000  1
  Si  Si18  1  0.33888209  0.32655027  0.65310054  1
  Si  Si19  1  0.83877244  0.84690743  0.23079284  1
  Si  Si20  1  0.66111791  0.32655027  0.65310054  1
  Si  Si21  1  0.32851601  0.15197769  0.00000000  1
  Si  Si22  1  0.50000000  0.21483487  0.42966974  1
  Si  Si23  1  0.00000000  0.66685423  0.59653934  1
  Si  Si24  1  0.50000000  0.78516513  0.57033026  1
  Si  Si25  1  0.16122756  0.84690743  0.23079284  1
  Si  Si26  1  0.33888209  0.67344973  0.34689946  1
  Si  Si27  1  0.00000000  0.07031489  0.40346066  1
  Si  Si28  1  0.00000000  0.33314577  0.40346066  1
  Si  Si29  1  0.67148399  0.84802231  1.00000000  1
  Si  Si30  1  0.83877244  0.61611459  0.76920716  1
  Si  Si31  1  0.66111791  0.67344973  0.34689946  1
  Si  Si32  1  0.32851601  0.84802231  1.00000000  1
  Si  Si33  1  0.16122756  0.15309257  0.76920716  1
  Si  Si34  1  0.00000000  0.92968511  0.59653934  1
  Si  Si35  1  0.67148399  0.15197769  0.00000000  1
  Si  Si36  1  0.16122756  0.61611459  0.76920716  1
  Si  Si37  1  0.16122756  0.38388541  0.23079284  1
  Si  Si38  1  0.83877244  0.38388541  0.23079284  1
  Si  Si39  1  0.83877244  0.15309257  0.76920716  1
  N  N40  1  0.00000000  0.23924310  0.47848620  1
  N  N41  1  0.50000000  0.63757978  0.27515957  1
  N  N42  1  0.00000000  0.41516845  0.18076636  1
  N  N43  1  0.73421329  0.71617998  0.87999222  1
  N  N44  1  0.00000000  0.76559791  0.18076636  1
  N  N45  1  0.75366464  0.52915832  0.30771186  1
  N  N46  1  0.24633536  0.22144646  0.69228814  1
  N  N47  1  0.24633536  0.47084168  0.69228814  1
  N  N48  1  0.14588283  0.01476246  0.32185917  1
  N  N49  1  0.26578671  0.83618776  0.12000778  1
  N  N50  1  0.85411717  0.30709671  0.32185917  1
  N  N51  1  0.00000000  0.50000000  0.50000000  1
  N  N52  1  0.75366464  0.47084168  0.69228814  1
  N  N53  1  0.14588283  0.98523754  0.67814083  1
  N  N54  1  0.75366464  0.77855354  0.30771186  1
  N  N55  1  0.50000000  0.04085723  0.33190513  1
  N  N56  1  0.73421329  0.28382002  0.12000778  1
  N  N57  1  0.14588283  0.69290329  0.67814083  1
  N  N58  1  0.26578671  0.16381224  0.87999222  1
  N  N59  1  0.64914478  0.74699479  0.49398959  1
  N  N60  1  0.85411717  0.69290329  0.67814083  1
  N  N61  1  0.26578671  0.71617998  0.87999222  1
  N  N62  1  0.85411717  0.01476246  0.32185917  1
  N  N63  1  0.26578671  0.28382002  0.12000778  1
  N  N64  1  0.75366464  0.22144646  0.69228814  1
  N  N65  1  0.50000000  0.36242022  0.72484043  1
  N  N66  1  0.24633536  0.77855354  0.30771186  1
  N  N67  1  0.50000000  0.81770567  1.00000000  1
  N  N68  1  0.50000000  0.18229433  0.00000000  1
  N  N69  1  0.85411717  0.98523754  0.67814083  1
  N  N70  1  0.50000000  0.95914277  0.66809487  1
  N  N71  1  0.73421329  0.16381224  0.87999222  1
  N  N72  1  0.24633536  0.52915832  0.30771186  1
  N  N73  1  0.35085522  0.25300521  0.50601041  1
  N  N74  1  0.00000000  0.76075690  0.52151380  1
  N  N75  1  0.64914478  0.25300521  0.50601041  1
  N  N76  1  0.14588283  0.30709671  0.32185917  1
  N  N77  1  0.27485191  0.00000000  0.00000000  1
  N  N78  1  0.50000000  0.29104789  0.33190513  1
  N  N79  1  0.00000000  0.00000000  0.50000000  1
  N  N80  1  0.50000000  0.70895211  0.66809487  1
  N  N81  1  0.72514809  0.00000000  0.00000000  1
  N  N82  1  0.73421329  0.83618776  0.12000778  1
  N  N83  1  0.35085522  0.74699479  0.49398959  1
  N  N84  1  0.00000000  0.23440209  0.81923364  1
  N  N85  1  0.00000000  0.58483155  0.81923364  1
