# generated using pymatgen
data_KTiBr3
_symmetry_space_group_name_H-M   'P 1'
_cell_length_a   13.39981610
_cell_length_b   13.39981657
_cell_length_c   5.92891070
_cell_angle_alpha   90.00000000
_cell_angle_beta   90.00000000
_cell_angle_gamma   119.99999886
_symmetry_Int_Tables_number   1
_chemical_formula_structural   KTiBr3
_chemical_formula_sum   'K6 Ti6 Br18'
_cell_volume   921.94122980
_cell_formula_units_Z   6
loop_
 _symmetry_equiv_pos_site_id
 _symmetry_equiv_pos_as_xyz
  1  'x, y, z'
loop_
 _atom_site_type_symbol
 _atom_site_label
 _atom_site_symmetry_multiplicity
 _atom_site_fract_x
 _atom_site_fract_y
 _atom_site_fract_z
 _atom_site_occupancy
  K  K0  1  0.35672819  0.99909184  0.52171316  1
  K  K1  1  0.64236366  0.64327181  0.52171316  1
  K  K2  1  0.99909184  0.64236366  0.02171316  1
  K  K3  1  0.00090816  0.35763634  0.52171316  1
  K  K4  1  0.64327181  0.00090816  0.02171316  1
  K  K5  1  0.35763634  0.35672819  0.02171316  1
  Ti  Ti6  1  0.33333300  0.66666700  0.80223333  1
  Ti  Ti7  1  0.33333300  0.66666700  0.24113427  1
  Ti  Ti8  1  0.66666700  0.33333300  0.30223333  1
  Ti  Ti9  1  0.00000000  0.00000000  0.01724152  1
  Ti  Ti10  1  0.00000000  0.00000000  0.51724152  1
  Ti  Ti11  1  0.66666700  0.33333300  0.74113427  1
  Br  Br12  1  0.33210516  0.83804978  0.02078671  1
  Br  Br13  1  0.66789484  0.16195022  0.52078671  1
  Br  Br14  1  0.50428434  0.17193161  0.02240094  1
  Br  Br15  1  0.49571566  0.82806839  0.52240094  1
  Br  Br16  1  0.19135007  0.09626445  0.76742948  1
  Br  Br17  1  0.82806839  0.33235273  0.02240094  1
  Br  Br18  1  0.49405538  0.33210516  0.52078671  1
  Br  Br19  1  0.50594462  0.66789484  0.02078671  1
  Br  Br20  1  0.09626445  0.90491437  0.26742948  1
  Br  Br21  1  0.17193161  0.66764727  0.52240094  1
  Br  Br22  1  0.80864993  0.90373555  0.26742948  1
  Br  Br23  1  0.16195022  0.49405538  0.02078671  1
  Br  Br24  1  0.09508563  0.19135007  0.26742948  1
  Br  Br25  1  0.90373555  0.09508563  0.76742948  1
  Br  Br26  1  0.83804978  0.50594462  0.52078671  1
  Br  Br27  1  0.90491437  0.80864993  0.76742948  1
  Br  Br28  1  0.66764727  0.49571566  0.02240094  1
  Br  Br29  1  0.33235273  0.50428434  0.52240094  1
