# generated using pymatgen
data_K3(MoO3)10
_symmetry_space_group_name_H-M   'P 1'
_cell_length_a   7.69657496
_cell_length_b   10.25319932
_cell_length_c   10.23248439
_cell_angle_alpha   116.83571037
_cell_angle_beta   90.00000000
_cell_angle_gamma   112.04443100
_symmetry_Int_Tables_number   1
_chemical_formula_structural   K3(MoO3)10
_chemical_formula_sum   'K3 Mo10 O30'
_cell_volume   653.68840397
_cell_formula_units_Z   1
loop_
 _symmetry_equiv_pos_site_id
 _symmetry_equiv_pos_as_xyz
  1  'x, y, z'
loop_
 _atom_site_type_symbol
 _atom_site_label
 _atom_site_symmetry_multiplicity
 _atom_site_fract_x
 _atom_site_fract_y
 _atom_site_fract_z
 _atom_site_occupancy
  K  K0  1  0.50000000  0.00000000  0.50000000  1
  K  K1  1  0.81599541  0.63199081  0.27244474  1
  K  K2  1  0.18400459  0.36800919  0.72755526  1
  Mo  Mo3  1  0.22345216  0.44690533  0.17215045  1
  Mo  Mo4  1  0.77654784  0.55309467  0.82784955  1
  Mo  Mo5  1  0.17716491  0.84368578  0.04123015  1
  Mo  Mo6  1  0.33347812  0.15631422  0.95876985  1
  Mo  Mo7  1  0.82283509  0.15631422  0.95876985  1
  Mo  Mo8  1  0.66652188  0.84368578  0.04123015  1
  Mo  Mo9  1  0.88971004  0.27863396  0.34493073  1
  Mo  Mo10  1  0.61107608  0.72136604  0.65506927  1
  Mo  Mo11  1  0.11028996  0.72136604  0.65506927  1
  Mo  Mo12  1  0.38892392  0.27863396  0.34493073  1
  O  O13  1  0.00000000  0.50000000  0.50000000  1
  O  O14  1  0.50000000  0.50000000  0.50000000  1
  O  O15  1  0.24617796  0.49235592  0.02687734  1
  O  O16  1  0.75382204  0.50764408  0.97312266  1
  O  O17  1  0.31648891  0.63297783  0.33317755  1
  O  O18  1  0.68351109  0.36702217  0.66682245  1
  O  O19  1  0.42157132  0.84314164  0.01472144  1
  O  O20  1  0.57842868  0.15685836  0.98527856  1
  O  O21  1  0.91219614  0.82439327  0.00588669  1
  O  O22  1  0.08780386  0.17560673  0.99411331  1
  O  O23  1  0.15572323  0.31144745  0.31182793  1
  O  O24  1  0.84427677  0.68855255  0.68817207  1
  O  O25  1  0.64192688  0.28385377  0.33022004  1
  O  O26  1  0.35807312  0.71614623  0.66977996  1
  O  O27  1  0.15501906  0.80416690  0.18885180  1
  O  O28  1  0.35085116  0.19583310  0.81114820  1
  O  O29  1  0.84498094  0.19583310  0.81114820  1
  O  O30  1  0.64914884  0.80416690  0.18885180  1
  O  O31  1  0.94232346  0.36958751  0.16064962  1
  O  O32  1  0.57273595  0.63041249  0.83935038  1
  O  O33  1  0.05767654  0.63041249  0.83935038  1
  O  O34  1  0.42726405  0.36958751  0.16064962  1
  O  O35  1  0.87127273  0.18302364  0.44937384  1
  O  O36  1  0.68824809  0.81697636  0.55062616  1
  O  O37  1  0.12872727  0.81697636  0.55062616  1
  O  O38  1  0.31175191  0.18302364  0.44937384  1
  O  O39  1  0.79409114  0.07998686  0.14574744  1
  O  O40  1  0.71410428  0.92001314  0.85425256  1
  O  O41  1  0.20590886  0.92001314  0.85425256  1
  O  O42  1  0.28589572  0.07998686  0.14574744  1
