# generated using pymatgen
data_U3Ag6Mo5O27
_symmetry_space_group_name_H-M   'P 1'
_cell_length_a   10.07175045
_cell_length_b   10.07175108
_cell_length_c   13.26348277
_cell_angle_alpha   82.28247034
_cell_angle_beta   82.28246974
_cell_angle_gamma   69.63590354
_symmetry_Int_Tables_number   1
_chemical_formula_structural   U3Ag6Mo5O27
_chemical_formula_sum   'U6 Ag12 Mo10 O54'
_cell_volume   1244.37039797
_cell_formula_units_Z   2
loop_
 _symmetry_equiv_pos_site_id
 _symmetry_equiv_pos_as_xyz
  1  'x, y, z'
loop_
 _atom_site_type_symbol
 _atom_site_label
 _atom_site_symmetry_multiplicity
 _atom_site_fract_x
 _atom_site_fract_y
 _atom_site_fract_z
 _atom_site_occupancy
  U  U0  1  0.36073959  0.63926041  0.25000000  1
  U  U1  1  0.75320005  0.50762471  0.27739908  1
  U  U2  1  0.50762471  0.75320005  0.77739908  1
  U  U3  1  0.63926041  0.36073959  0.75000000  1
  U  U4  1  0.49237529  0.24679995  0.22260092  1
  U  U5  1  0.24679995  0.49237529  0.72260092  1
  Ag  Ag6  1  0.89276267  0.66493737  0.90082815  1
  Ag  Ag7  1  0.29547308  0.55491201  0.97987568  1
  Ag  Ag8  1  0.33506263  0.10723733  0.59917185  1
  Ag  Ag9  1  0.55491201  0.29547308  0.47987568  1
  Ag  Ag10  1  0.70452692  0.44508799  0.02012432  1
  Ag  Ag11  1  0.02648862  0.82215861  0.45403091  1
  Ag  Ag12  1  0.66493737  0.89276267  0.40082815  1
  Ag  Ag13  1  0.10723733  0.33506263  0.09917185  1
  Ag  Ag14  1  0.17784139  0.97351138  0.04596909  1
  Ag  Ag15  1  0.82215861  0.02648862  0.95403091  1
  Ag  Ag16  1  0.44508799  0.70452692  0.52012432  1
  Ag  Ag17  1  0.97351138  0.17784139  0.54596909  1
  Mo  Mo18  1  0.57471647  0.86257372  0.10781928  1
  Mo  Mo19  1  0.72936734  0.98588443  0.66788880  1
  Mo  Mo20  1  0.98588443  0.72936734  0.16788880  1
  Mo  Mo21  1  0.27063266  0.01411557  0.33211120  1
  Mo  Mo22  1  0.86257372  0.57471647  0.60781928  1
  Mo  Mo23  1  0.13742628  0.42528353  0.39218072  1
  Mo  Mo24  1  0.42528353  0.13742628  0.89218072  1
  Mo  Mo25  1  0.13208556  0.86791444  0.75000000  1
  Mo  Mo26  1  0.86791444  0.13208556  0.25000000  1
  Mo  Mo27  1  0.01411557  0.27063266  0.83211120  1
  O  O28  1  0.57229103  0.09386924  0.96397330  1
  O  O29  1  0.70506769  0.11450812  0.75917252  1
  O  O30  1  0.80691318  0.73611155  0.52631342  1
  O  O31  1  0.33122399  0.43092273  0.59821242  1
  O  O32  1  0.88549188  0.29493231  0.74082748  1
  O  O33  1  0.12844275  0.03415699  0.68194967  1
  O  O34  1  0.29493231  0.88549188  0.24082748  1
  O  O35  1  0.03155547  0.10519886  0.90722326  1
  O  O36  1  0.29617363  0.42975522  0.30164200  1
  O  O37  1  0.96844453  0.89480114  0.09277674  1
  O  O38  1  0.66877601  0.56907727  0.40178758  1
  O  O39  1  0.87155725  0.96584301  0.31805033  1
  O  O40  1  0.55462167  0.44537833  0.25000000  1
  O  O41  1  0.18691882  0.73034512  0.66028696  1
  O  O42  1  0.36044119  0.64912758  0.38893615  1
  O  O43  1  0.70382637  0.57024478  0.69835800  1
  O  O44  1  0.64912758  0.36044119  0.88893615  1
  O  O45  1  0.26965488  0.81308118  0.83971304  1
  O  O46  1  0.58893359  0.05945849  0.58611506  1
  O  O47  1  0.89480114  0.96844453  0.59277674  1
  O  O48  1  0.99134695  0.44181004  0.31802073  1
  O  O49  1  0.94054151  0.41106641  0.91388494  1
  O  O50  1  0.35087242  0.63955881  0.11106385  1
  O  O51  1  0.55069700  0.16824689  0.35174742  1
  O  O52  1  0.42770897  0.90613076  0.03602670  1
  O  O53  1  0.63955881  0.35087242  0.61106385  1
  O  O54  1  0.56907727  0.66877601  0.90178758  1
  O  O55  1  0.11450812  0.70506769  0.25917252  1
  O  O56  1  0.73611155  0.80691318  0.02631342  1
  O  O57  1  0.44537833  0.55462167  0.75000000  1
  O  O58  1  0.17901667  0.28504162  0.76260059  1
  O  O59  1  0.44181004  0.99134695  0.81802073  1
  O  O60  1  0.42975522  0.29617363  0.80164200  1
  O  O61  1  0.26388845  0.19308682  0.97368658  1
  O  O62  1  0.41106641  0.94054151  0.41388494  1
  O  O63  1  0.10519886  0.03155547  0.40722326  1
  O  O64  1  0.81308118  0.26965488  0.33971304  1
  O  O65  1  0.16824689  0.55069700  0.85174742  1
  O  O66  1  0.90613076  0.42770897  0.53602670  1
  O  O67  1  0.44930300  0.83175311  0.64825258  1
  O  O68  1  0.55818996  0.00865305  0.18197927  1
  O  O69  1  0.05945849  0.58893359  0.08611506  1
  O  O70  1  0.43092273  0.33122399  0.09821242  1
  O  O71  1  0.03415699  0.12844275  0.18194967  1
  O  O72  1  0.82098333  0.71495838  0.23739941  1
  O  O73  1  0.73034512  0.18691882  0.16028696  1
  O  O74  1  0.83175311  0.44930300  0.14825258  1
  O  O75  1  0.28504162  0.17901667  0.26260059  1
  O  O76  1  0.19308682  0.26388845  0.47368658  1
  O  O77  1  0.96584301  0.87155725  0.81805033  1
  O  O78  1  0.09386924  0.57229103  0.46397330  1
  O  O79  1  0.57024478  0.70382637  0.19835800  1
  O  O80  1  0.00865305  0.55818996  0.68197927  1
  O  O81  1  0.71495838  0.82098333  0.73739941  1
