# generated using pymatgen
data_Nd4Ni3O10
_symmetry_space_group_name_H-M   'P 1'
_cell_length_a   5.44562191
_cell_length_b   5.52671898
_cell_length_c   27.69733923
_cell_angle_alpha   90.00000000
_cell_angle_beta   90.63963258
_cell_angle_gamma   90.00000000
_symmetry_Int_Tables_number   1
_chemical_formula_structural   Nd4Ni3O10
_chemical_formula_sum   'Nd16 Ni12 O40'
_cell_volume   833.53886568
_cell_formula_units_Z   4
loop_
 _symmetry_equiv_pos_site_id
 _symmetry_equiv_pos_as_xyz
  1  'x, y, z'
loop_
 _atom_site_type_symbol
 _atom_site_label
 _atom_site_symmetry_multiplicity
 _atom_site_fract_x
 _atom_site_fract_y
 _atom_site_fract_z
 _atom_site_occupancy
  Nd  Nd0  1  0.45824408  0.49275364  0.56851748  1
  Nd  Nd1  1  0.54175592  0.50724636  0.43148252  1
  Nd  Nd2  1  0.01151857  0.01582958  0.69995892  1
  Nd  Nd3  1  0.95824408  0.00724636  0.56851748  1
  Nd  Nd4  1  0.04429515  0.50711856  0.93157118  1
  Nd  Nd5  1  0.50149450  0.01610843  0.19975374  1
  Nd  Nd6  1  0.51151857  0.48417042  0.69995892  1
  Nd  Nd7  1  0.49850550  0.98389157  0.80024626  1
  Nd  Nd8  1  0.45570485  0.00711856  0.06842882  1
  Nd  Nd9  1  1.00149450  0.48389157  0.19975374  1
  Nd  Nd10  1  -0.00149450  0.51610843  0.80024626  1
  Nd  Nd11  1  0.98848143  0.98417042  0.30004108  1
  Nd  Nd12  1  0.04175592  0.99275364  0.43148252  1
  Nd  Nd13  1  0.95570485  0.49288144  0.06842882  1
  Nd  Nd14  1  0.54429515  0.99288144  0.93157118  1
  Nd  Nd15  1  0.48848143  0.51582958  0.30004108  1
  Ni  Ni16  1  0.49481416  0.99573920  0.64007954  1
  Ni  Ni17  1  0.98861217  0.99565818  0.13996491  1
  Ni  Ni18  1  0.01138783  0.00434182  0.86003509  1
  Ni  Ni19  1  0.00518584  0.49573920  0.35992046  1
  Ni  Ni20  1  0.50000000  0.50000000  0.00000000  1
  Ni  Ni21  1  0.48861217  0.50434182  0.13996491  1
  Ni  Ni22  1  0.51138783  0.49565818  0.86003509  1
  Ni  Ni23  1  0.99481416  0.50426080  0.64007954  1
  Ni  Ni24  1  0.50000000  0.00000000  0.50000000  1
  Ni  Ni25  1  0.50518584  0.00426080  0.35992046  1
  Ni  Ni26  1  0.00000000  0.00000000  0.00000000  1
  Ni  Ni27  1  0.00000000  0.50000000  0.50000000  1
  O  O28  1  0.01124955  0.91727034  0.06834839  1
  O  O29  1  0.01492108  0.93853997  0.78236439  1
  O  O30  1  0.51492108  0.56146003  0.78236439  1
  O  O31  1  0.48507892  0.43853997  0.21763561  1
  O  O32  1  0.50952375  0.93845027  0.28222768  1
  O  O33  1  0.48875045  0.41727034  0.93165161  1
  O  O34  1  0.51124955  0.58272966  0.06834839  1
  O  O35  1  0.26965923  0.73649117  0.36883146  1
  O  O36  1  0.70387739  0.21343109  0.01274544  1
  O  O37  1  0.20387739  0.28656891  0.01274544  1
  O  O38  1  0.75124902  0.24115877  0.84816616  1
  O  O39  1  0.72716233  0.23946974  0.13129639  1
  O  O40  1  0.76965923  0.76350883  0.36883146  1
  O  O41  1  0.98507892  0.06146003  0.21763561  1
  O  O42  1  0.98875045  0.08272966  0.93165161  1
  O  O43  1  0.77283767  0.73946974  0.86870361  1
  O  O44  1  0.00952375  0.56154973  0.28222768  1
  O  O45  1  0.75835251  0.76236082  0.65190103  1
  O  O46  1  0.79271075  0.78785808  0.48732112  1
  O  O47  1  0.23034077  0.23649117  0.63116854  1
  O  O48  1  0.29271075  0.71214192  0.48732112  1
  O  O49  1  0.98504281  0.41740607  0.43155316  1
  O  O50  1  0.25835251  0.73763918  0.65190103  1
  O  O51  1  0.25124902  0.25884123  0.84816616  1
  O  O52  1  0.20728925  0.21214192  0.51267888  1
  O  O53  1  0.70728925  0.28785808  0.51267888  1
  O  O54  1  0.24875098  0.75884123  0.15183384  1
  O  O55  1  0.49047625  0.06154973  0.71777232  1
  O  O56  1  0.27283767  0.76053026  0.86870361  1
  O  O57  1  0.74164749  0.26236082  0.34809897  1
  O  O58  1  0.22716233  0.26053026  0.13129639  1
  O  O59  1  0.24164749  0.23763918  0.34809897  1
  O  O60  1  0.01495719  0.58259393  0.56844684  1
  O  O61  1  0.29612261  0.78656891  0.98725456  1
  O  O62  1  0.99047625  0.43845027  0.71777232  1
  O  O63  1  0.73034077  0.26350883  0.63116854  1
  O  O64  1  0.48504281  0.08259393  0.43155316  1
  O  O65  1  0.51495719  0.91740607  0.56844684  1
  O  O66  1  0.74875098  0.74115877  0.15183384  1
  O  O67  1  0.79612261  0.71343109  0.98725456  1
