# generated using pymatgen
data_AgTe3I
_symmetry_space_group_name_H-M   'P 1'
_cell_length_a   5.14774496
_cell_length_b   8.80615465
_cell_length_c   16.46904544
_cell_angle_alpha   90.00000000
_cell_angle_beta   90.00000000
_cell_angle_gamma   90.00000000
_symmetry_Int_Tables_number   1
_chemical_formula_structural   AgTe3I
_chemical_formula_sum   'Ag4 Te12 I4'
_cell_volume   746.57210347
_cell_formula_units_Z   4
loop_
 _symmetry_equiv_pos_site_id
 _symmetry_equiv_pos_as_xyz
  1  'x, y, z'
loop_
 _atom_site_type_symbol
 _atom_site_label
 _atom_site_symmetry_multiplicity
 _atom_site_fract_x
 _atom_site_fract_y
 _atom_site_fract_z
 _atom_site_occupancy
  Ag  Ag0  1  0.30063686  0.75000000  0.25000000  1
  Ag  Ag1  1  0.30063686  0.75000000  0.75000000  1
  Ag  Ag2  1  0.69936314  0.25000000  0.25000000  1
  Ag  Ag3  1  0.69936314  0.25000000  0.75000000  1
  Te  Te4  1  0.37297931  0.71786899  0.00000000  1
  Te  Te5  1  0.63090951  0.85886485  0.12706721  1
  Te  Te6  1  0.37297931  0.78213101  0.50000000  1
  Te  Te7  1  0.36909049  0.14113515  0.87293279  1
  Te  Te8  1  0.62702069  0.21786899  0.50000000  1
  Te  Te9  1  0.63090951  0.64113515  0.37293279  1
  Te  Te10  1  0.36909049  0.35886485  0.37293279  1
  Te  Te11  1  0.62702069  0.28213101  0.00000000  1
  Te  Te12  1  0.36909049  0.14113515  0.12706721  1
  Te  Te13  1  0.63090951  0.85886485  0.87293279  1
  Te  Te14  1  0.36909049  0.35886485  0.62706721  1
  Te  Te15  1  0.63090951  0.64113515  0.62706721  1
  I  I16  1  0.00000000  0.00000000  0.67797976  1
  I  I17  1  0.00000000  0.50000000  0.82202024  1
  I  I18  1  0.00000000  0.50000000  0.17797976  1
  I  I19  1  0.00000000  0.00000000  0.32202024  1
