# generated using pymatgen
data_CsLi2Cl3
_symmetry_space_group_name_H-M   'P 1'
_cell_length_a   4.55818223
_cell_length_b   5.30551565
_cell_length_c   7.19337508
_cell_angle_alpha   111.64026425
_cell_angle_beta   108.47144328
_cell_angle_gamma   90.00000114
_symmetry_Int_Tables_number   1
_chemical_formula_structural   CsLi2Cl3
_chemical_formula_sum   'Cs1 Li2 Cl3'
_cell_volume   152.01650724
_cell_formula_units_Z   1
loop_
 _symmetry_equiv_pos_site_id
 _symmetry_equiv_pos_as_xyz
  1  'x, y, z'
loop_
 _atom_site_type_symbol
 _atom_site_label
 _atom_site_symmetry_multiplicity
 _atom_site_fract_x
 _atom_site_fract_y
 _atom_site_fract_z
 _atom_site_occupancy
  Cs  Cs0  1  0.50000000  0.50000000  0.00000000  1
  Li  Li1  1  0.80896164  0.80896164  0.61792328  1
  Li  Li2  1  0.19103836  0.19103836  0.38207672  1
  Cl  Cl3  1  0.76845058  0.26845058  0.53690117  1
  Cl  Cl4  1  0.23154942  0.73154942  0.46309883  1
  Cl  Cl5  1  0.00000000  0.00000000  0.00000000  1
