# generated using pymatgen
data_Gd
_symmetry_space_group_name_H-M   'P 1'
_cell_length_a   3.62358482
_cell_length_b   3.62358482
_cell_length_c   8.92622811
_cell_angle_alpha   78.28907580
_cell_angle_beta   78.28907580
_cell_angle_gamma   59.99999811
_symmetry_Int_Tables_number   1
_chemical_formula_structural   Gd
_chemical_formula_sum   Gd3
_cell_volume   98.67500766
_cell_formula_units_Z   3
loop_
 _symmetry_equiv_pos_site_id
 _symmetry_equiv_pos_as_xyz
  1  'x, y, z'
loop_
 _atom_site_type_symbol
 _atom_site_label
 _atom_site_symmetry_multiplicity
 _atom_site_fract_x
 _atom_site_fract_y
 _atom_site_fract_z
 _atom_site_occupancy
  Gd  Gd0  1  0.00000000  0.00000000  -0.00000000  1
  Gd  Gd1  1  0.22213017  0.22213017  0.33360950  1
  Gd  Gd2  1  0.77786983  0.77786983  0.66639050  1
