# generated using pymatgen
data_Rb2ZnN12
_symmetry_space_group_name_H-M   'P 1'
_cell_length_a   6.67586450
_cell_length_b   7.34832790
_cell_length_c   21.16425111
_cell_angle_alpha   90.00000000
_cell_angle_beta   90.00000000
_cell_angle_gamma   90.00000000
_symmetry_Int_Tables_number   1
_chemical_formula_structural   Rb2ZnN12
_chemical_formula_sum   'Rb8 Zn4 N48'
_cell_volume   1038.24284355
_cell_formula_units_Z   4
loop_
 _symmetry_equiv_pos_site_id
 _symmetry_equiv_pos_as_xyz
  1  'x, y, z'
loop_
 _atom_site_type_symbol
 _atom_site_label
 _atom_site_symmetry_multiplicity
 _atom_site_fract_x
 _atom_site_fract_y
 _atom_site_fract_z
 _atom_site_occupancy
  Rb  Rb0  1  0.67971775  0.38022057  0.51361499  1
  Rb  Rb1  1  0.67971775  0.88022057  0.98638501  1
  Rb  Rb2  1  0.30787542  0.12212280  0.19567788  1
  Rb  Rb3  1  0.30787542  0.62212280  0.30432212  1
  Rb  Rb4  1  0.32028225  0.38022057  0.01361499  1
  Rb  Rb5  1  0.69212458  0.62212280  0.80432212  1
  Rb  Rb6  1  0.32028225  0.88022057  0.48638501  1
  Rb  Rb7  1  0.69212458  0.12212280  0.69567788  1
  Zn  Zn8  1  0.06199456  0.62188607  0.63045367  1
  Zn  Zn9  1  0.06199456  0.12188607  0.86954633  1
  Zn  Zn10  1  0.93800544  0.62188607  0.13045367  1
  Zn  Zn11  1  0.93800544  0.12188607  0.36954633  1
  N  N12  1  0.27030402  0.99483388  0.05351198  1
  N  N13  1  0.17248143  0.26395081  0.60797627  1
  N  N14  1  0.02997184  0.28369235  0.79370902  1
  N  N15  1  0.81543522  0.84093076  0.22839847  1
  N  N16  1  0.33186261  0.39855870  0.74948103  1
  N  N17  1  0.81543522  0.34093076  0.27160153  1
  N  N18  1  0.83311748  0.86615417  0.55396835  1
  N  N19  1  0.66813739  0.39855870  0.24948103  1
  N  N20  1  0.36359333  0.15299507  0.89673341  1
  N  N21  1  0.50856126  0.61816274  0.63432211  1
  N  N22  1  0.68781296  0.67683816  0.40599928  1
  N  N23  1  0.17248143  0.76395081  0.89202373  1
  N  N24  1  0.50856126  0.11816274  0.86567789  1
  N  N25  1  0.72969598  0.49483388  0.94648802  1
  N  N26  1  0.02997184  0.78369235  0.70629098  1
  N  N27  1  0.02499251  0.34926641  0.62243263  1
  N  N28  1  0.49143874  0.11816274  0.36567789  1
  N  N29  1  0.31218704  0.67683816  0.90599928  1
  N  N30  1  0.18456478  0.84093076  0.72839847  1
  N  N31  1  0.31218704  0.17683816  0.59400072  1
  N  N32  1  0.16688252  0.36615417  0.44603165  1
  N  N33  1  0.33186261  0.89855870  0.75051897  1
  N  N34  1  0.27030402  0.49483388  0.44648802  1
  N  N35  1  0.65500628  0.58344933  0.66259779  1
  N  N36  1  0.49143874  0.61816274  0.13432211  1
  N  N37  1  0.97002816  0.28369235  0.29370902  1
  N  N38  1  0.36359333  0.65299507  0.60326659  1
  N  N39  1  0.93780650  0.73363819  0.55168614  1
  N  N40  1  0.97500749  0.34926641  0.12243263  1
  N  N41  1  0.93780650  0.23363819  0.94831386  1
  N  N42  1  0.34499372  0.58344933  0.16259779  1
  N  N43  1  0.66813739  0.89855870  0.25051897  1
  N  N44  1  0.65500628  0.08344933  0.83740221  1
  N  N45  1  0.06219350  0.23363819  0.44831386  1
  N  N46  1  0.97500749  0.84926641  0.37756737  1
  N  N47  1  0.83311748  0.36615417  0.94603165  1
  N  N48  1  0.72969598  0.99483388  0.55351198  1
  N  N49  1  0.34499372  0.08344933  0.33740221  1
  N  N50  1  0.63640667  0.15299507  0.39673341  1
  N  N51  1  0.16688252  0.86615417  0.05396835  1
  N  N52  1  0.97002816  0.78369235  0.20629098  1
  N  N53  1  0.82751857  0.76395081  0.39202373  1
  N  N54  1  0.06219350  0.73363819  0.05168614  1
  N  N55  1  0.68781296  0.17683816  0.09400072  1
  N  N56  1  0.82751857  0.26395081  0.10797627  1
  N  N57  1  0.02499251  0.84926641  0.87756737  1
  N  N58  1  0.18456478  0.34093076  0.77160153  1
  N  N59  1  0.63640667  0.65299507  0.10326659  1
