# generated using pymatgen
data_Y4CoB13
_symmetry_space_group_name_H-M   'P 1'
_cell_length_a   7.32419225
_cell_length_b   7.32419225
_cell_length_c   6.91986170
_cell_angle_alpha   90.00000000
_cell_angle_beta   90.00000000
_cell_angle_gamma   90.00000000
_symmetry_Int_Tables_number   1
_chemical_formula_structural   Y4CoB13
_chemical_formula_sum   'Y8 Co2 B26'
_cell_volume   371.20762250
_cell_formula_units_Z   2
loop_
 _symmetry_equiv_pos_site_id
 _symmetry_equiv_pos_as_xyz
  1  'x, y, z'
loop_
 _atom_site_type_symbol
 _atom_site_label
 _atom_site_symmetry_multiplicity
 _atom_site_fract_x
 _atom_site_fract_y
 _atom_site_fract_z
 _atom_site_occupancy
  Y  Y0  1  0.18478121  0.68081779  0.00000000  1
  Y  Y1  1  0.31918221  0.18478121  0.00000000  1
  Y  Y2  1  0.68081779  0.81521879  0.00000000  1
  Y  Y3  1  0.68478121  0.81918221  0.50000000  1
  Y  Y4  1  0.31521879  0.18081779  0.50000000  1
  Y  Y5  1  0.81521879  0.31918221  0.00000000  1
  Y  Y6  1  0.18081779  0.68478121  0.50000000  1
  Y  Y7  1  0.81918221  0.31521879  0.50000000  1
  Co  Co8  1  0.00000000  0.00000000  0.00000000  1
  Co  Co9  1  0.50000000  0.50000000  0.50000000  1
  B  B10  1  0.00000000  0.00000000  0.50000000  1
  B  B11  1  0.50000000  0.50000000  0.00000000  1
  B  B12  1  0.40904262  0.90904262  0.25000000  1
  B  B13  1  0.09095738  0.40904262  0.25000000  1
  B  B14  1  0.90904262  0.59095738  0.25000000  1
  B  B15  1  0.59095738  0.09095738  0.25000000  1
  B  B16  1  0.59095738  0.09095738  0.75000000  1
  B  B17  1  0.90904262  0.59095738  0.75000000  1
  B  B18  1  0.09095738  0.40904262  0.75000000  1
  B  B19  1  0.40904262  0.90904262  0.75000000  1
  B  B20  1  0.03925535  0.16959857  0.25363093  1
  B  B21  1  0.83040143  0.03925535  0.25363093  1
  B  B22  1  0.16959857  0.96074465  0.25363093  1
  B  B23  1  0.53925535  0.33040143  0.24636907  1
  B  B24  1  0.46074465  0.66959857  0.24636907  1
  B  B25  1  0.96074465  0.83040143  0.25363093  1
  B  B26  1  0.66959857  0.53925535  0.24636907  1
  B  B27  1  0.33040143  0.46074465  0.24636907  1
  B  B28  1  0.96074465  0.83040143  0.74636907  1
  B  B29  1  0.16959857  0.96074465  0.74636907  1
  B  B30  1  0.83040143  0.03925535  0.74636907  1
  B  B31  1  0.46074465  0.66959857  0.75363093  1
  B  B32  1  0.53925535  0.33040143  0.75363093  1
  B  B33  1  0.03925535  0.16959857  0.74636907  1
  B  B34  1  0.33040143  0.46074465  0.75363093  1
  B  B35  1  0.66959857  0.53925535  0.75363093  1
