# generated using pymatgen
data_Tb10B7C10
_symmetry_space_group_name_H-M   'P 1'
_cell_length_a   8.04987363
_cell_length_b   8.04987414
_cell_length_c   23.69018700
_cell_angle_alpha   84.04823154
_cell_angle_beta   84.04823118
_cell_angle_gamma   88.69488607
_symmetry_Int_Tables_number   1
_chemical_formula_structural   Tb10B7C10
_chemical_formula_sum   'Tb40 B28 C40'
_cell_volume   1518.51746793
_cell_formula_units_Z   4
loop_
 _symmetry_equiv_pos_site_id
 _symmetry_equiv_pos_as_xyz
  1  'x, y, z'
loop_
 _atom_site_type_symbol
 _atom_site_label
 _atom_site_symmetry_multiplicity
 _atom_site_fract_x
 _atom_site_fract_y
 _atom_site_fract_z
 _atom_site_occupancy
  Tb  Tb0  1  0.02878440  0.37592715  0.07772886  1
  Tb  Tb1  1  0.69733441  0.45400029  0.18194532  1
  Tb  Tb2  1  0.50390481  0.84409780  0.18209910  1
  Tb  Tb3  1  0.62407285  0.97121560  0.42227114  1
  Tb  Tb4  1  0.02109104  0.77238229  0.42240959  1
  Tb  Tb5  1  0.64628499  0.08728598  0.68248106  1
  Tb  Tb6  1  0.91271402  0.35371501  0.81751894  1
  Tb  Tb7  1  0.77707048  0.82690062  0.57571026  1
  Tb  Tb8  1  0.37592715  0.02878440  0.57772886  1
  Tb  Tb9  1  0.54599971  0.30266559  0.31805468  1
  Tb  Tb10  1  0.62478590  0.17751332  0.07802769  1
  Tb  Tb11  1  0.75861563  0.70844071  0.30369623  1
  Tb  Tb12  1  0.37521410  0.82248668  0.92197231  1
  Tb  Tb13  1  0.35371501  0.91271402  0.31751894  1
  Tb  Tb14  1  0.17751332  0.62478590  0.57802769  1
  Tb  Tb15  1  0.42436470  0.57403962  0.42266154  1
  Tb  Tb16  1  0.17309938  0.22292952  0.92428974  1
  Tb  Tb17  1  0.45400029  0.69733441  0.68194532  1
  Tb  Tb18  1  0.96342105  0.10605514  0.31770607  1
  Tb  Tb19  1  0.29155929  0.24138437  0.19630377  1
  Tb  Tb20  1  0.42596038  0.57563530  0.07733846  1
  Tb  Tb21  1  0.30266559  0.54599971  0.81805468  1
  Tb  Tb22  1  0.84409780  0.50390481  0.68209910  1
  Tb  Tb23  1  0.10605514  0.96342105  0.81770607  1
  Tb  Tb24  1  0.03657895  0.89394486  0.68229393  1
  Tb  Tb25  1  0.70844071  0.75861563  0.80369623  1
  Tb  Tb26  1  0.24138437  0.29155929  0.69630377  1
  Tb  Tb27  1  0.22761771  0.97890896  0.07759041  1
  Tb  Tb28  1  0.82248668  0.37521410  0.42197231  1
  Tb  Tb29  1  0.77238229  0.02109104  0.92240959  1
  Tb  Tb30  1  0.15590220  0.49609519  0.31790090  1
  Tb  Tb31  1  0.57403962  0.42436470  0.92266154  1
  Tb  Tb32  1  0.97121560  0.62407285  0.92227114  1
  Tb  Tb33  1  0.89394486  0.03657895  0.18229393  1
  Tb  Tb34  1  0.57563530  0.42596038  0.57733846  1
  Tb  Tb35  1  0.22292952  0.17309938  0.42428974  1
  Tb  Tb36  1  0.82690062  0.77707048  0.07571026  1
  Tb  Tb37  1  0.97890896  0.22761771  0.57759041  1
  Tb  Tb38  1  0.08728598  0.64628499  0.18248106  1
  Tb  Tb39  1  0.49609519  0.15590220  0.81790090  1
  B  B40  1  0.89701109  0.54176651  0.51991472  1
  B  B41  1  0.69458050  0.14489442  0.52068201  1
  B  B42  1  0.10298891  0.45823349  0.48008528  1
  B  B43  1  0.12154586  0.87845414  0.25000000  1
  B  B44  1  0.87845414  0.12154586  0.75000000  1
  B  B45  1  0.42867972  0.57132028  0.25000000  1
  B  B46  1  0.70585971  0.65705649  0.47540339  1
  B  B47  1  0.90435779  0.05746814  0.47938802  1
  B  B48  1  0.30541950  0.85510558  0.47931799  1
  B  B49  1  0.09564221  0.94253186  0.52061198  1
  B  B50  1  0.93096749  0.37933464  0.24955123  1
  B  B51  1  0.06903251  0.62066536  0.75044877  1
  B  B52  1  0.74436150  0.49049828  0.01964518  1
  B  B53  1  0.45823349  0.10298891  0.98008528  1
  B  B54  1  0.29414029  0.34294351  0.52459661  1
  B  B55  1  0.14489442  0.69458050  0.02068201  1
  B  B56  1  0.37933464  0.93096749  0.74955123  1
  B  B57  1  0.62066536  0.06903251  0.25044877  1
  B  B58  1  0.34294351  0.29414029  0.02459661  1
  B  B59  1  0.65705649  0.70585971  0.97540339  1
  B  B60  1  0.25563850  0.50950172  0.98035482  1
  B  B61  1  0.05746814  0.90435779  0.97938802  1
  B  B62  1  0.49049828  0.74436150  0.51964518  1
  B  B63  1  0.85510558  0.30541950  0.97931799  1
  B  B64  1  0.57132028  0.42867972  0.75000000  1
  B  B65  1  0.50950172  0.25563850  0.48035482  1
  B  B66  1  0.54176651  0.89701109  0.01991472  1
  B  B67  1  0.94253186  0.09564221  0.02061198  1
  C  C68  1  0.25490624  0.20463841  0.31777392  1
  C  C69  1  0.60802393  0.45600996  0.80774382  1
  C  C70  1  0.27631782  0.52597042  0.91716447  1
  C  C71  1  0.67560115  0.72580671  0.91183105  1
  C  C72  1  0.59403300  0.14193956  0.19265106  1
  C  C73  1  0.47640358  0.12511958  0.91692553  1
  C  C74  1  0.32439885  0.27419329  0.08816895  1
  C  C75  1  0.85806044  0.40596700  0.30734894  1
  C  C76  1  0.12689006  0.67511165  0.08382278  1
  C  C77  1  0.52597042  0.27631782  0.41716447  1
  C  C78  1  0.79536159  0.74509376  0.18222608  1
  C  C79  1  0.07658747  0.92548025  0.58372046  1
  C  C80  1  0.67511165  0.12689006  0.58382278  1
  C  C81  1  0.27419329  0.32439885  0.58816895  1
  C  C82  1  0.34264347  0.99145660  0.69152113  1
  C  C83  1  0.07451975  0.92341253  0.91627954  1
  C  C84  1  0.74509376  0.79536159  0.68222608  1
  C  C85  1  0.45600996  0.60802393  0.30774382  1
  C  C86  1  0.87310994  0.32488835  0.91617722  1
  C  C87  1  0.92341253  0.07451975  0.41627954  1
  C  C88  1  0.54399004  0.39197607  0.69225618  1
  C  C89  1  0.00854340  0.65735653  0.80847887  1
  C  C90  1  0.65735653  0.00854340  0.30847887  1
  C  C91  1  0.40596700  0.85806044  0.80734894  1
  C  C92  1  0.14193956  0.59403300  0.69265106  1
  C  C93  1  0.80655526  0.05883666  0.80753992  1
  C  C94  1  0.72368218  0.47402958  0.08283553  1
  C  C95  1  0.39197607  0.54399004  0.19225618  1
  C  C96  1  0.19344474  0.94116334  0.19246008  1
  C  C97  1  0.32488835  0.87310994  0.41617722  1
  C  C98  1  0.05883666  0.80655526  0.30753992  1
  C  C99  1  0.12511958  0.47640358  0.41692553  1
  C  C100  1  0.99145660  0.34264347  0.19152113  1
  C  C101  1  0.94116334  0.19344474  0.69246008  1
  C  C102  1  0.72580671  0.67560115  0.41183105  1
  C  C103  1  0.87488042  0.52359642  0.58307447  1
  C  C104  1  0.92548025  0.07658747  0.08372046  1
  C  C105  1  0.47402958  0.72368218  0.58283553  1
  C  C106  1  0.20463841  0.25490624  0.81777392  1
  C  C107  1  0.52359642  0.87488042  0.08307447  1
