# generated using pymatgen
data_BeCl2
_symmetry_space_group_name_H-M   'P 1'
_cell_length_a   11.52321409
_cell_length_b   11.52321414
_cell_length_c   8.40369630
_cell_angle_alpha   90.00000000
_cell_angle_beta   90.00000000
_cell_angle_gamma   119.99999989
_symmetry_Int_Tables_number   1
_chemical_formula_structural   BeCl2
_chemical_formula_sum   'Be9 Cl18'
_cell_volume   966.38069278
_cell_formula_units_Z   9
loop_
 _symmetry_equiv_pos_site_id
 _symmetry_equiv_pos_as_xyz
  1  'x, y, z'
loop_
 _atom_site_type_symbol
 _atom_site_label
 _atom_site_symmetry_multiplicity
 _atom_site_fract_x
 _atom_site_fract_y
 _atom_site_fract_z
 _atom_site_occupancy
  Be  Be0  1  0.70510333  0.26256705  0.41642574  1
  Be  Be1  1  0.26259400  0.70515264  0.36593854  1
  Be  Be2  1  0.55746372  0.29489667  0.74975874  1
  Be  Be3  1  0.00001750  0.41163834  0.22457176  1
  Be  Be4  1  0.29484736  0.55744136  0.03260554  1
  Be  Be5  1  0.73743295  0.44253628  0.08309174  1
  Be  Be6  1  0.41162083  0.99998250  0.55790476  1
  Be  Be7  1  0.44255864  0.73740600  0.69927254  1
  Be  Be8  1  0.58836166  0.58837917  0.89123876  1
  Cl  Cl9  1  0.45758829  0.53724077  0.07683267  1
  Cl  Cl10  1  0.53702732  0.45750962  0.70569260  1
  Cl  Cl11  1  0.38136130  0.14250908  0.66045611  1
  Cl  Cl12  1  0.57618401  0.27614144  0.98748466  1
  Cl  Cl13  1  0.23885787  0.85755558  0.45512203  1
  Cl  Cl14  1  0.42388536  0.70008022  0.46150888  1
  Cl  Cl15  1  0.07965248  0.54241171  0.41016567  1
  Cl  Cl16  1  0.27619486  0.57611464  0.79484188  1
  Cl  Cl17  1  0.46275923  0.92034752  0.74349967  1
  Cl  Cl18  1  0.54249038  0.07951770  0.37235960  1
  Cl  Cl19  1  0.29991978  0.72380514  0.12817488  1
  Cl  Cl20  1  0.85749092  0.23885222  0.32712311  1
  Cl  Cl21  1  0.72385856  0.30004256  0.65415166  1
  Cl  Cl22  1  0.61869772  0.76114213  0.78845603  1
  Cl  Cl23  1  0.69995744  0.42381599  0.32081866  1
  Cl  Cl24  1  0.92048230  0.46297268  0.03902560  1
  Cl  Cl25  1  0.14244442  0.38130228  0.12178903  1
  Cl  Cl26  1  0.76114778  0.61863870  0.99378911  1
