# generated using pymatgen
data_Cs3LiI4
_symmetry_space_group_name_H-M   'P 1'
_cell_length_a   5.20946130
_cell_length_b   9.36858607
_cell_length_c   17.44132900
_cell_angle_alpha   90.00000000
_cell_angle_beta   98.23578618
_cell_angle_gamma   90.00000000
_symmetry_Int_Tables_number   1
_chemical_formula_structural   Cs3LiI4
_chemical_formula_sum   'Cs6 Li2 I8'
_cell_volume   842.45029482
_cell_formula_units_Z   2
loop_
 _symmetry_equiv_pos_site_id
 _symmetry_equiv_pos_as_xyz
  1  'x, y, z'
loop_
 _atom_site_type_symbol
 _atom_site_label
 _atom_site_symmetry_multiplicity
 _atom_site_fract_x
 _atom_site_fract_y
 _atom_site_fract_z
 _atom_site_occupancy
  Cs  Cs0  1  0.37964259  0.25000000  0.73923722  1
  Cs  Cs1  1  0.71294714  0.25000000  0.45542539  1
  Cs  Cs2  1  0.50000000  0.00000000  0.00000000  1
  Cs  Cs3  1  0.62035741  0.75000000  0.26076278  1
  Cs  Cs4  1  0.28705286  0.75000000  0.54457461  1
  Cs  Cs5  1  0.50000000  0.50000000  0.00000000  1
  Li  Li6  1  0.87752077  0.75000000  0.73981079  1
  Li  Li7  1  0.12247923  0.25000000  0.26018921  1
  I  I8  1  0.95670679  0.25000000  0.90700915  1
  I  I9  1  0.83240534  0.99360949  0.63919224  1
  I  I10  1  0.58824689  0.25000000  0.18762151  1
  I  I11  1  0.16759466  0.00639051  0.36080776  1
  I  I12  1  0.83240534  0.50639051  0.63919224  1
  I  I13  1  0.16759466  0.49360949  0.36080776  1
  I  I14  1  0.04329321  0.75000000  0.09299085  1
  I  I15  1  0.41175311  0.75000000  0.81237849  1
