# generated using pymatgen
data_Cu3Te2(BrO3)2
_symmetry_space_group_name_H-M   'P 1'
_cell_length_a   5.73410330
_cell_length_b   5.73410393
_cell_length_c   8.36721998
_cell_angle_alpha   77.82333609
_cell_angle_beta   77.82333435
_cell_angle_gamma   66.79621576
_symmetry_Int_Tables_number   1
_chemical_formula_structural   Cu3Te2(BrO3)2
_chemical_formula_sum   'Cu3 Te2 Br2 O6'
_cell_volume   244.65642719
_cell_formula_units_Z   1
loop_
 _symmetry_equiv_pos_site_id
 _symmetry_equiv_pos_as_xyz
  1  'x, y, z'
loop_
 _atom_site_type_symbol
 _atom_site_label
 _atom_site_symmetry_multiplicity
 _atom_site_fract_x
 _atom_site_fract_y
 _atom_site_fract_z
 _atom_site_occupancy
  Cu  Cu0  1  0.08992161  0.08992161  0.63278616  1
  Cu  Cu1  1  0.50000000  0.50000000  0.50000000  1
  Cu  Cu2  1  0.91007839  0.91007839  0.36721384  1
  Te  Te3  1  0.32706096  0.32706096  0.24392458  1
  Te  Te4  1  0.67293904  0.67293904  0.75607542  1
  Br  Br5  1  0.20530662  0.20530662  0.86089044  1
  Br  Br6  1  0.79469338  0.79469338  0.13910956  1
  O  O7  1  0.86148968  0.86148968  0.62303147  1
  O  O8  1  0.22366068  0.61197728  0.36953730  1
  O  O9  1  0.77633932  0.38802272  0.63046270  1
  O  O10  1  0.61197728  0.22366068  0.36953730  1
  O  O11  1  0.38802272  0.77633932  0.63046270  1
  O  O12  1  0.13851032  0.13851032  0.37696853  1
