# generated using pymatgen
data_Bi6PtBr10
_symmetry_space_group_name_H-M   'P 1'
_cell_length_a   10.71303799
_cell_length_b   17.64165218
_cell_length_c   27.59123781
_cell_angle_alpha   90.00000000
_cell_angle_beta   90.00000000
_cell_angle_gamma   90.00000000
_symmetry_Int_Tables_number   1
_chemical_formula_structural   Bi6PtBr10
_chemical_formula_sum   'Bi48 Pt8 Br80'
_cell_volume   5214.62502815
_cell_formula_units_Z   8
loop_
 _symmetry_equiv_pos_site_id
 _symmetry_equiv_pos_as_xyz
  1  'x, y, z'
loop_
 _atom_site_type_symbol
 _atom_site_label
 _atom_site_symmetry_multiplicity
 _atom_site_fract_x
 _atom_site_fract_y
 _atom_site_fract_z
 _atom_site_occupancy
  Bi  Bi0  1  0.32598620  0.44090800  0.43724580  1
  Bi  Bi1  1  0.11020538  0.33530829  0.75000000  1
  Bi  Bi2  1  0.79987227  0.08520152  0.75000000  1
  Bi  Bi3  1  0.67401380  0.55909200  0.56275420  1
  Bi  Bi4  1  0.61385992  0.35461444  0.18097289  1
  Bi  Bi5  1  0.38614008  0.64538556  0.81902711  1
  Bi  Bi6  1  0.12606940  0.92883647  0.92514658  1
  Bi  Bi7  1  0.20012773  0.91479848  0.25000000  1
  Bi  Bi8  1  0.15357799  0.12498047  0.50985260  1
  Bi  Bi9  1  0.70012773  0.58520152  0.75000000  1
  Bi  Bi10  1  0.17401380  0.94090800  0.06275420  1
  Bi  Bi11  1  0.32598620  0.44090800  0.06275420  1
  Bi  Bi12  1  0.18759662  0.72441191  0.31942448  1
  Bi  Bi13  1  0.18759662  0.72441191  0.18057552  1
  Bi  Bi14  1  0.82598620  0.05909200  0.93724580  1
  Bi  Bi15  1  0.15357799  0.12498047  0.99014740  1
  Bi  Bi16  1  0.12606940  0.92883647  0.57485342  1
  Bi  Bi17  1  0.38614008  0.64538556  0.68097289  1
  Bi  Bi18  1  0.67401380  0.55909200  0.93724580  1
  Bi  Bi19  1  0.82598620  0.05909200  0.56275420  1
  Bi  Bi20  1  0.65357799  0.37501953  0.49014740  1
  Bi  Bi21  1  0.84642201  0.87501953  0.00985260  1
  Bi  Bi22  1  0.88614008  0.85461444  0.18097289  1
  Bi  Bi23  1  0.88979462  0.66469171  0.25000000  1
  Bi  Bi24  1  0.87393060  0.07116353  0.07485342  1
  Bi  Bi25  1  0.38979462  0.83530829  0.75000000  1
  Bi  Bi26  1  0.68759662  0.77558809  0.81942448  1
  Bi  Bi27  1  0.37393060  0.42883647  0.57485342  1
  Bi  Bi28  1  0.81240338  0.27558809  0.68057552  1
  Bi  Bi29  1  0.17401380  0.94090800  0.43724580  1
  Bi  Bi30  1  0.31240338  0.22441191  0.31942448  1
  Bi  Bi31  1  0.11385992  0.14538556  0.68097289  1
  Bi  Bi32  1  0.65357799  0.37501953  0.00985260  1
  Bi  Bi33  1  0.87393060  0.07116353  0.42514658  1
  Bi  Bi34  1  0.84642201  0.87501953  0.49014740  1
  Bi  Bi35  1  0.34642201  0.62498047  0.99014740  1
  Bi  Bi36  1  0.88614008  0.85461444  0.31902711  1
  Bi  Bi37  1  0.61385992  0.35461444  0.31902711  1
  Bi  Bi38  1  0.34642201  0.62498047  0.50985260  1
  Bi  Bi39  1  0.61020538  0.16469171  0.25000000  1
  Bi  Bi40  1  0.31240338  0.22441191  0.18057552  1
  Bi  Bi41  1  0.29987227  0.41479848  0.25000000  1
  Bi  Bi42  1  0.62606940  0.57116353  0.07485342  1
  Bi  Bi43  1  0.11385992  0.14538556  0.81902711  1
  Bi  Bi44  1  0.62606940  0.57116353  0.42514658  1
  Bi  Bi45  1  0.81240338  0.27558809  0.81942448  1
  Bi  Bi46  1  0.37393060  0.42883647  0.92514658  1
  Bi  Bi47  1  0.68759662  0.77558809  0.68057552  1
  Pt  Pt48  1  0.45801553  0.29247934  0.25000000  1
  Pt  Pt49  1  0.04198447  0.79247934  0.25000000  1
  Pt  Pt50  1  0.50000000  0.50000000  0.50000000  1
  Pt  Pt51  1  0.50000000  0.50000000  0.00000000  1
  Pt  Pt52  1  0.00000000  0.00000000  0.00000000  1
  Pt  Pt53  1  0.95801553  0.20752066  0.75000000  1
  Pt  Pt54  1  0.54198447  0.70752066  0.75000000  1
  Pt  Pt55  1  0.00000000  0.00000000  0.50000000  1
  Br  Br56  1  0.77893786  0.22904530  0.17444845  1
  Br  Br57  1  0.96452991  0.79542544  0.92910987  1
  Br  Br58  1  0.46914991  0.29517970  0.09051512  1
  Br  Br59  1  0.35812526  0.86061957  0.17670585  1
  Br  Br60  1  0.46452991  0.70457456  0.42910987  1
  Br  Br61  1  0.30059056  0.05562532  0.58825854  1
  Br  Br62  1  0.96067785  0.41169899  0.82279846  1
  Br  Br63  1  0.46067785  0.08830101  0.32279846  1
  Br  Br64  1  0.22106214  0.77095470  0.82555155  1
  Br  Br65  1  0.30316956  0.85603526  0.51200599  1
  Br  Br66  1  0.84007868  0.42943445  0.55414489  1
  Br  Br67  1  0.65992132  0.92943445  0.55414489  1
  Br  Br68  1  0.34007868  0.07056555  0.05414489  1
  Br  Br69  1  0.45222262  0.49885853  0.15670858  1
  Br  Br70  1  0.85812526  0.63938043  0.82329415  1
  Br  Br71  1  0.96914991  0.20482030  0.90948488  1
  Br  Br72  1  0.45222262  0.49885853  0.34329142  1
  Br  Br73  1  0.19940944  0.55562532  0.58825854  1
  Br  Br74  1  0.03085009  0.79517970  0.09051512  1
  Br  Br75  1  0.46067785  0.08830101  0.17720154  1
  Br  Br76  1  0.19683044  0.35603526  0.51200599  1
  Br  Br77  1  0.19683044  0.35603526  0.98799401  1
  Br  Br78  1  0.19940944  0.55562532  0.91174146  1
  Br  Br79  1  0.96914991  0.20482030  0.59051512  1
  Br  Br80  1  0.85812526  0.63938043  0.67670585  1
  Br  Br81  1  0.80059056  0.44437468  0.41174146  1
  Br  Br82  1  0.35812526  0.86061957  0.32329415  1
  Br  Br83  1  0.73711321  0.93946380  0.25000000  1
  Br  Br84  1  0.72106214  0.72904530  0.17444845  1
  Br  Br85  1  0.65992132  0.92943445  0.94585511  1
  Br  Br86  1  0.53932215  0.91169899  0.82279846  1
  Br  Br87  1  0.80316956  0.64396474  0.01200599  1
  Br  Br88  1  0.84007868  0.42943445  0.94585511  1
  Br  Br89  1  0.03932215  0.58830101  0.32279846  1
  Br  Br90  1  0.30316956  0.85603526  0.98799401  1
  Br  Br91  1  0.22106214  0.77095470  0.67444845  1
  Br  Br92  1  0.04777738  0.99885853  0.15670858  1
  Br  Br93  1  0.14187474  0.36061957  0.32329415  1
  Br  Br94  1  0.53932215  0.91169899  0.67720154  1
  Br  Br95  1  0.96067785  0.41169899  0.67720154  1
  Br  Br96  1  0.69940944  0.94437468  0.08825854  1
  Br  Br97  1  0.96452991  0.79542544  0.57089013  1
  Br  Br98  1  0.76288679  0.43946380  0.25000000  1
  Br  Br99  1  0.14187474  0.36061957  0.17670585  1
  Br  Br100  1  0.15992132  0.57056555  0.05414489  1
  Br  Br101  1  0.64339196  0.34179587  0.75000000  1
  Br  Br102  1  0.03932215  0.58830101  0.17720154  1
  Br  Br103  1  0.54777738  0.50114147  0.84329142  1
  Br  Br104  1  0.85660804  0.84179587  0.75000000  1
  Br  Br105  1  0.77893786  0.22904530  0.32555155  1
  Br  Br106  1  0.14339196  0.15820413  0.25000000  1
  Br  Br107  1  0.72106214  0.72904530  0.32555155  1
  Br  Br108  1  0.80059056  0.44437468  0.08825854  1
  Br  Br109  1  0.46914991  0.29517970  0.40948488  1
  Br  Br110  1  0.80316956  0.64396474  0.48799401  1
  Br  Br111  1  0.53547009  0.29542544  0.92910987  1
  Br  Br112  1  0.53085009  0.70482030  0.59051512  1
  Br  Br113  1  0.95222262  0.00114147  0.84329142  1
  Br  Br114  1  0.64187474  0.13938043  0.82329415  1
  Br  Br115  1  0.69683044  0.14396474  0.48799401  1
  Br  Br116  1  0.64187474  0.13938043  0.67670585  1
  Br  Br117  1  0.27893786  0.27095470  0.67444845  1
  Br  Br118  1  0.04777738  0.99885853  0.34329142  1
  Br  Br119  1  0.27893786  0.27095470  0.82555155  1
  Br  Br120  1  0.26288679  0.06053620  0.75000000  1
  Br  Br121  1  0.95222262  0.00114147  0.65670858  1
  Br  Br122  1  0.30059056  0.05562532  0.91174146  1
  Br  Br123  1  0.53085009  0.70482030  0.90948488  1
  Br  Br124  1  0.03547009  0.20457456  0.42910987  1
  Br  Br125  1  0.03085009  0.79517970  0.40948488  1
  Br  Br126  1  0.53547009  0.29542544  0.57089013  1
  Br  Br127  1  0.34007868  0.07056555  0.44585511  1
  Br  Br128  1  0.15992132  0.57056555  0.44585511  1
  Br  Br129  1  0.69683044  0.14396474  0.01200599  1
  Br  Br130  1  0.69940944  0.94437468  0.41174146  1
  Br  Br131  1  0.46452991  0.70457456  0.07089013  1
  Br  Br132  1  0.54777738  0.50114147  0.65670858  1
  Br  Br133  1  0.35660804  0.65820413  0.25000000  1
  Br  Br134  1  0.03547009  0.20457456  0.07089013  1
  Br  Br135  1  0.23711321  0.56053620  0.75000000  1
