# generated using pymatgen
data_K5InPb8
_symmetry_space_group_name_H-M   'P 1'
_cell_length_a   13.60466177
_cell_length_b   13.60466144
_cell_length_c   13.60466127
_cell_angle_alpha   30.11230789
_cell_angle_beta   30.11231026
_cell_angle_gamma   30.11231069
_symmetry_Int_Tables_number   1
_chemical_formula_structural   K5InPb8
_chemical_formula_sum   'K5 In1 Pb8'
_cell_volume   561.49358515
_cell_formula_units_Z   1
loop_
 _symmetry_equiv_pos_site_id
 _symmetry_equiv_pos_as_xyz
  1  'x, y, z'
loop_
 _atom_site_type_symbol
 _atom_site_label
 _atom_site_symmetry_multiplicity
 _atom_site_fract_x
 _atom_site_fract_y
 _atom_site_fract_z
 _atom_site_occupancy
  K  K0  1  0.31807908  0.31807908  0.31807908  1
  K  K1  1  0.50000000  0.50000000  0.50000000  1
  K  K2  1  0.78017064  0.78017064  0.78017064  1
  K  K3  1  0.68192092  0.68192092  0.68192092  1
  K  K4  1  0.21982936  0.21982936  0.21982936  1
  In  In5  1  0.00000000  0.00000000  0.00000000  1
  Pb  Pb6  1  0.77587558  0.77587558  0.25048750  1
  Pb  Pb7  1  0.87157993  0.87157993  0.87157993  1
  Pb  Pb8  1  0.74951250  0.22412442  0.22412442  1
  Pb  Pb9  1  0.77587558  0.25048750  0.77587558  1
  Pb  Pb10  1  0.12842007  0.12842007  0.12842007  1
  Pb  Pb11  1  0.25048750  0.77587558  0.77587558  1
  Pb  Pb12  1  0.22412442  0.74951250  0.22412442  1
  Pb  Pb13  1  0.22412442  0.22412442  0.74951250  1
