# generated using pymatgen
data_BaBi12Mo4WO34
_symmetry_space_group_name_H-M   'P 1'
_cell_length_a   5.92530703
_cell_length_b   11.96990825
_cell_length_c   25.57168749
_cell_angle_alpha   102.85562383
_cell_angle_beta   90.00000000
_cell_angle_gamma   90.00000000
_symmetry_Int_Tables_number   1
_chemical_formula_structural   BaBi12Mo4WO34
_chemical_formula_sum   'Ba2 Bi24 Mo8 W2 O68'
_cell_volume   1768.21960407
_cell_formula_units_Z   2
loop_
 _symmetry_equiv_pos_site_id
 _symmetry_equiv_pos_as_xyz
  1  'x, y, z'
loop_
 _atom_site_type_symbol
 _atom_site_label
 _atom_site_symmetry_multiplicity
 _atom_site_fract_x
 _atom_site_fract_y
 _atom_site_fract_z
 _atom_site_occupancy
  Ba  Ba0  1  0.50000000  0.50000000  0.50000000  1
  Ba  Ba1  1  0.50000000  0.50000000  0.00000000  1
  Bi  Bi2  1  0.47363816  0.36146148  0.32149600  1
  Bi  Bi3  1  0.52559704  0.73654322  0.84133539  1
  Bi  Bi4  1  0.02795581  0.92131657  0.90687718  1
  Bi  Bi5  1  0.96591468  0.75498509  0.10244237  1
  Bi  Bi6  1  0.52559704  0.26345678  0.65866461  1
  Bi  Bi7  1  0.07138095  0.15595294  0.24508964  1
  Bi  Bi8  1  0.02795581  0.07868343  0.59312282  1
  Bi  Bi9  1  0.03408532  0.24501491  0.89755763  1
  Bi  Bi10  1  0.57016032  0.95766771  0.17496071  1
  Bi  Bi11  1  0.42983968  0.95766771  0.67496071  1
  Bi  Bi12  1  0.96591468  0.24501491  0.39755763  1
  Bi  Bi13  1  0.52636184  0.63853852  0.67850400  1
  Bi  Bi14  1  0.47363816  0.63853852  0.17850400  1
  Bi  Bi15  1  0.47440296  0.26345678  0.15866461  1
  Bi  Bi16  1  0.97204419  0.92131657  0.40687718  1
  Bi  Bi17  1  0.42983968  0.04233229  0.82503929  1
  Bi  Bi18  1  0.97204419  0.07868343  0.09312282  1
  Bi  Bi19  1  0.47440296  0.73654322  0.34133539  1
  Bi  Bi20  1  0.92861905  0.84404706  0.75491036  1
  Bi  Bi21  1  0.07138095  0.84404706  0.25491036  1
  Bi  Bi22  1  0.03408532  0.75498509  0.60244237  1
  Bi  Bi23  1  0.92861905  0.15595294  0.74508964  1
  Bi  Bi24  1  0.57016032  0.04233229  0.32503929  1
  Bi  Bi25  1  0.52636184  0.36146148  0.82149600  1
  Mo  Mo26  1  0.52354596  0.15473578  0.98634027  1
  Mo  Mo27  1  0.99167952  0.57672869  0.42007263  1
  Mo  Mo28  1  0.99167952  0.42327131  0.07992737  1
  Mo  Mo29  1  0.00832048  0.57672869  0.92007263  1
  Mo  Mo30  1  0.47645404  0.84526422  0.01365973  1
  Mo  Mo31  1  0.47645404  0.15473578  0.48634027  1
  Mo  Mo32  1  0.00832048  0.42327131  0.57992737  1
  Mo  Mo33  1  0.52354596  0.84526422  0.51365973  1
  W  W34  1  0.02189241  0.50000000  0.75000000  1
  W  W35  1  0.97810759  0.50000000  0.25000000  1
  O  O36  1  0.74588648  0.50199889  0.58526369  1
  O  O37  1  0.74588648  0.49800111  0.91473631  1
  O  O38  1  0.41341657  0.73003334  0.54164546  1
  O  O39  1  0.21617385  0.23570635  0.33375201  1
  O  O40  1  0.75611215  0.00000000  0.25000000  1
  O  O41  1  0.62343593  0.73478418  0.75830478  1
  O  O42  1  0.72427394  0.86626036  0.34089970  1
  O  O43  1  0.79017776  0.88647157  0.54718954  1
  O  O44  1  0.76474829  0.87676044  0.84492150  1
  O  O45  1  0.91064735  0.06465255  0.36747538  1
  O  O46  1  0.37656407  0.73478418  0.25830478  1
  O  O47  1  0.23525171  0.87676044  0.34492150  1
  O  O48  1  0.54521510  0.79510946  0.44194429  1
  O  O49  1  0.15831263  0.49310490  0.19215911  1
  O  O50  1  0.32241128  0.04111274  0.96948343  1
  O  O51  1  0.84168737  0.50689510  0.80784089  1
  O  O52  1  0.37656407  0.26521582  0.24169522  1
  O  O53  1  0.25411352  0.50199889  0.08526369  1
  O  O54  1  0.15831263  0.50689510  0.30784089  1
  O  O55  1  0.91064735  0.93534745  0.13252462  1
  O  O56  1  0.25411352  0.49800111  0.41473631  1
  O  O57  1  0.41341657  0.26996666  0.95835454  1
  O  O58  1  0.67758872  0.04111274  0.46948343  1
  O  O59  1  0.07659054  0.62129543  0.98953804  1
  O  O60  1  0.84168737  0.49310490  0.69215911  1
  O  O61  1  0.76474829  0.12323956  0.65507850  1
  O  O62  1  0.58658343  0.73003334  0.04164546  1
  O  O63  1  0.23316535  0.52309565  0.60581009  1
  O  O64  1  0.54521510  0.20489054  0.05805571  1
  O  O65  1  0.92340946  0.62129543  0.48953804  1
  O  O66  1  0.28593872  0.77160953  0.66794382  1
  O  O67  1  0.08935265  0.93534745  0.63252462  1
  O  O68  1  0.79017776  0.11352843  0.95281046  1
  O  O69  1  0.07659054  0.37870457  0.51046196  1
  O  O70  1  0.26824079  0.00000000  0.25000000  1
  O  O71  1  0.01040040  0.29737316  0.10774078  1
  O  O72  1  0.23316535  0.47690435  0.89418991  1
  O  O73  1  0.20323404  0.62635195  0.75896111  1
  O  O74  1  0.92340946  0.37870457  0.01046196  1
  O  O75  1  0.67758872  0.95888726  0.03051657  1
  O  O76  1  0.71406128  0.22839047  0.33205618  1
  O  O77  1  0.76683465  0.47690435  0.39418991  1
  O  O78  1  0.24388785  0.00000000  0.75000000  1
  O  O79  1  0.08935265  0.06465255  0.86747538  1
  O  O80  1  0.20982224  0.88647157  0.04718954  1
  O  O81  1  0.73175921  0.00000000  0.75000000  1
  O  O82  1  0.78382615  0.23570635  0.83375201  1
  O  O83  1  0.72427394  0.13373964  0.15910030  1
  O  O84  1  0.01040040  0.70262684  0.39225922  1
  O  O85  1  0.27572606  0.13373964  0.65910030  1
  O  O86  1  0.45478490  0.79510946  0.94194429  1
  O  O87  1  0.27572606  0.86626036  0.84089970  1
  O  O88  1  0.28593872  0.22839047  0.83205618  1
  O  O89  1  0.21617385  0.76429365  0.16624799  1
  O  O90  1  0.58658343  0.26996666  0.45835454  1
  O  O91  1  0.79676596  0.37364805  0.24103889  1
  O  O92  1  0.45478490  0.20489054  0.55805571  1
  O  O93  1  0.32241128  0.95888726  0.53051657  1
  O  O94  1  0.98959960  0.29737316  0.60774078  1
  O  O95  1  0.78382615  0.76429365  0.66624799  1
  O  O96  1  0.62343593  0.26521582  0.74169522  1
  O  O97  1  0.20982224  0.11352843  0.45281046  1
  O  O98  1  0.20323404  0.37364805  0.74103889  1
  O  O99  1  0.23525171  0.12323956  0.15507850  1
  O  O100  1  0.79676596  0.62635195  0.25896111  1
  O  O101  1  0.98959960  0.70262684  0.89225922  1
  O  O102  1  0.76683465  0.52309565  0.10581009  1
  O  O103  1  0.71406128  0.77160953  0.16794382  1
