# generated using pymatgen
data_Bi14Rh3
_symmetry_space_group_name_H-M   'P 1'
_cell_length_a   6.93186812
_cell_length_b   9.52465508
_cell_length_c   16.43771249
_cell_angle_alpha   85.60644177
_cell_angle_beta   77.83590636
_cell_angle_gamma   68.71268365
_symmetry_Int_Tables_number   1
_chemical_formula_structural   Bi14Rh3
_chemical_formula_sum   'Bi28 Rh6'
_cell_volume   988.52704568
_cell_formula_units_Z   2
loop_
 _symmetry_equiv_pos_site_id
 _symmetry_equiv_pos_as_xyz
  1  'x, y, z'
loop_
 _atom_site_type_symbol
 _atom_site_label
 _atom_site_symmetry_multiplicity
 _atom_site_fract_x
 _atom_site_fract_y
 _atom_site_fract_z
 _atom_site_occupancy
  Bi  Bi0  1  0.54279302  0.62925379  0.64506170  1
  Bi  Bi1  1  0.45245736  0.81106788  0.46651238  1
  Bi  Bi2  1  0.40233681  0.19634908  0.74998484  1
  Bi  Bi3  1  0.68288752  0.12956268  0.14482477  1
  Bi  Bi4  1  0.80456117  0.01456408  0.35610728  1
  Bi  Bi5  1  0.32443507  0.51456572  0.85589755  1
  Bi  Bi6  1  0.82771027  0.62951259  0.85510975  1
  Bi  Bi7  1  0.08076973  0.68896308  0.46655093  1
  Bi  Bi8  1  0.23026268  0.68899844  0.03342524  1
  Bi  Bi9  1  0.67556493  0.48543428  0.14410245  1
  Bi  Bi10  1  0.19543883  0.98543592  0.64389272  1
  Bi  Bi11  1  0.26368469  0.18900322  0.96659967  1
  Bi  Bi12  1  0.45720698  0.37074621  0.35493830  1
  Bi  Bi13  1  0.73631531  0.81099678  0.03340033  1
  Bi  Bi14  1  0.54754264  0.18893212  0.53348762  1
  Bi  Bi15  1  0.81965414  0.98532661  0.85591308  1
  Bi  Bi16  1  0.15239144  0.69628456  0.25003716  1
  Bi  Bi17  1  0.31711248  0.87043732  0.85517523  1
  Bi  Bi18  1  0.16077597  0.51464059  0.64387701  1
  Bi  Bi19  1  0.17228973  0.37048741  0.14489025  1
  Bi  Bi20  1  0.84760856  0.30371544  0.74996284  1
  Bi  Bi21  1  0.18763818  0.12927363  0.35500044  1
  Bi  Bi22  1  0.59766319  0.80365092  0.25001516  1
  Bi  Bi23  1  0.18034586  0.01467339  0.14408692  1
  Bi  Bi24  1  0.83922403  0.48535941  0.35612299  1
  Bi  Bi25  1  0.76973732  0.31100156  0.96657476  1
  Bi  Bi26  1  0.81236182  0.87072637  0.64499956  1
  Bi  Bi27  1  0.91923027  0.31103692  0.53344907  1
  Rh  Rh28  1  0.00000000  0.50000000  0.00000000  1
  Rh  Rh29  1  0.87485240  0.25001725  0.25014376  1
  Rh  Rh30  1  0.00000000  0.00000000  0.50000000  1
  Rh  Rh31  1  0.00000000  0.00000000  0.00000000  1
  Rh  Rh32  1  0.50000000  0.50000000  0.50000000  1
  Rh  Rh33  1  0.12514760  0.74998275  0.74985624  1
