# generated using pymatgen
data_La4Cu6(MoO4)9
_symmetry_space_group_name_H-M   'P 1'
_cell_length_a   12.97229998
_cell_length_b   12.97229979
_cell_length_c   12.97229969
_cell_angle_alpha   109.48411470
_cell_angle_beta   109.48411445
_cell_angle_gamma   109.48412025
_symmetry_Int_Tables_number   1
_chemical_formula_structural   La4Cu6(MoO4)9
_chemical_formula_sum   'La8 Cu12 Mo18 O72'
_cell_volume   1679.66051306
_cell_formula_units_Z   2
loop_
 _symmetry_equiv_pos_site_id
 _symmetry_equiv_pos_as_xyz
  1  'x, y, z'
loop_
 _atom_site_type_symbol
 _atom_site_label
 _atom_site_symmetry_multiplicity
 _atom_site_fract_x
 _atom_site_fract_y
 _atom_site_fract_z
 _atom_site_occupancy
  La  La0  1  0.59728660  0.05227314  0.54556193  1
  La  La1  1  0.54556193  0.59728660  0.05227314  1
  La  La2  1  0.04556193  0.55227314  0.09728660  1
  La  La3  1  0.55227314  0.09728660  0.04556193  1
  La  La4  1  0.09728660  0.04556193  0.55227314  1
  La  La5  1  0.99015597  0.99015597  0.99015597  1
  La  La6  1  0.05227314  0.54556193  0.59728660  1
  La  La7  1  0.49015597  0.49015597  0.49015597  1
  Cu  Cu8  1  0.60065062  0.35867356  0.66881818  1
  Cu  Cu9  1  0.72863456  0.49077125  0.93504992  1
  Cu  Cu10  1  0.85867356  0.10065062  0.16881818  1
  Cu  Cu11  1  0.35867356  0.66881818  0.60065062  1
  Cu  Cu12  1  0.22863456  0.43504992  0.99077125  1
  Cu  Cu13  1  0.93504992  0.72863456  0.49077125  1
  Cu  Cu14  1  0.66881818  0.60065062  0.35867356  1
  Cu  Cu15  1  0.99077125  0.22863456  0.43504992  1
  Cu  Cu16  1  0.43504992  0.99077125  0.22863456  1
  Cu  Cu17  1  0.49077125  0.93504992  0.72863456  1
  Cu  Cu18  1  0.10065062  0.16881818  0.85867356  1
  Cu  Cu19  1  0.16881818  0.85867356  0.10065062  1
  Mo  Mo20  1  0.67095629  0.30367691  0.41641735  1
  Mo  Mo21  1  0.91641735  0.80367691  0.17095629  1
  Mo  Mo22  1  0.24342251  0.79797317  0.49571203  1
  Mo  Mo23  1  0.29694111  0.08983241  0.34341787  1
  Mo  Mo24  1  0.49571203  0.24342251  0.79797317  1
  Mo  Mo25  1  0.34341787  0.29694111  0.08983241  1
  Mo  Mo26  1  0.99571203  0.29797317  0.74342251  1
  Mo  Mo27  1  0.58983241  0.79694111  0.84341787  1
  Mo  Mo28  1  0.08983241  0.34341787  0.29694111  1
  Mo  Mo29  1  0.80367691  0.17095629  0.91641735  1
  Mo  Mo30  1  0.30367691  0.41641735  0.67095629  1
  Mo  Mo31  1  0.79797317  0.49571203  0.24342251  1
  Mo  Mo32  1  0.74342251  0.99571203  0.29797317  1
  Mo  Mo33  1  0.17095629  0.91641735  0.80367691  1
  Mo  Mo34  1  0.41641735  0.67095629  0.30367691  1
  Mo  Mo35  1  0.79694111  0.84341787  0.58983241  1
  Mo  Mo36  1  0.29797317  0.74342251  0.99571203  1
  Mo  Mo37  1  0.84341787  0.58983241  0.79694111  1
  O  O38  1  0.40874679  0.92432149  0.57087596  1
  O  O39  1  0.90243760  0.75339402  0.89000400  1
  O  O40  1  0.25339402  0.40243760  0.39000400  1
  O  O41  1  0.33328597  0.95969612  0.86480932  1
  O  O42  1  0.53010897  0.15814925  0.87446633  1
  O  O43  1  0.40243760  0.39000400  0.25339402  1
  O  O44  1  0.68332145  0.83092555  0.21750206  1
  O  O45  1  0.04023432  0.17355493  0.70756250  1
  O  O46  1  0.67355493  0.54023432  0.20756250  1
  O  O47  1  0.03010897  0.37446633  0.65814925  1
  O  O48  1  0.13261232  0.92481875  0.92570594  1
  O  O49  1  0.90874679  0.07087596  0.42432149  1
  O  O50  1  0.15814925  0.87446633  0.53010897  1
  O  O51  1  0.75339402  0.89000400  0.90243760  1
  O  O52  1  0.83328597  0.36480932  0.45969612  1
  O  O53  1  0.90755854  0.86955827  0.52841540  1
  O  O54  1  0.40755854  0.02841540  0.36955827  1
  O  O55  1  0.75686615  0.66680231  0.06780922  1
  O  O56  1  0.21873841  0.06569129  0.42880236  1
  O  O57  1  0.70756250  0.04023432  0.17355493  1
  O  O58  1  0.16680231  0.25686615  0.56780922  1
  O  O59  1  0.51834086  0.67873116  0.67556272  1
  O  O60  1  0.95969612  0.86480932  0.33328597  1
  O  O61  1  0.42880236  0.21873841  0.06569129  1
  O  O62  1  0.45969612  0.83328597  0.36480932  1
  O  O63  1  0.63261232  0.42570594  0.42481875  1
  O  O64  1  0.86955827  0.52841540  0.90755854  1
  O  O65  1  0.86480932  0.33328597  0.95969612  1
  O  O66  1  0.17355493  0.70756250  0.04023432  1
  O  O67  1  0.92570594  0.13261232  0.92481875  1
  O  O68  1  0.71750206  0.33092555  0.18332145  1
  O  O69  1  0.56780922  0.16680231  0.25686615  1
  O  O70  1  0.54023432  0.20756250  0.67355493  1
  O  O71  1  0.71873841  0.92880236  0.56569129  1
  O  O72  1  0.25686615  0.56780922  0.16680231  1
  O  O73  1  0.75727602  0.14651352  0.02657578  1
  O  O74  1  0.64651352  0.25727602  0.52657578  1
  O  O75  1  0.89000400  0.90243760  0.75339402  1
  O  O76  1  0.33092555  0.18332145  0.71750206  1
  O  O77  1  0.06569129  0.42880236  0.21873841  1
  O  O78  1  0.21750206  0.68332145  0.83092555  1
  O  O79  1  0.42481875  0.63261232  0.42570594  1
  O  O80  1  0.57087596  0.40874679  0.92432149  1
  O  O81  1  0.36480932  0.45969612  0.83328597  1
  O  O82  1  0.52657578  0.64651352  0.25727602  1
  O  O83  1  0.02657578  0.75727602  0.14651352  1
  O  O84  1  0.37446633  0.65814925  0.03010897  1
  O  O85  1  0.02841540  0.36955827  0.40755854  1
  O  O86  1  0.87446633  0.53010897  0.15814925  1
  O  O87  1  0.14651352  0.02657578  0.75727602  1
  O  O88  1  0.42570594  0.42481875  0.63261232  1
  O  O89  1  0.67873116  0.67556272  0.51834086  1
  O  O90  1  0.52841540  0.90755854  0.86955827  1
  O  O91  1  0.83092555  0.21750206  0.68332145  1
  O  O92  1  0.42432149  0.90874679  0.07087596  1
  O  O93  1  0.56569129  0.71873841  0.92880236  1
  O  O94  1  0.20756250  0.67355493  0.54023432  1
  O  O95  1  0.65814925  0.03010897  0.37446633  1
  O  O96  1  0.39000400  0.25339402  0.40243760  1
  O  O97  1  0.92481875  0.92570594  0.13261232  1
  O  O98  1  0.36955827  0.40755854  0.02841540  1
  O  O99  1  0.25727602  0.52657578  0.64651352  1
  O  O100  1  0.07087596  0.42432149  0.90874679  1
  O  O101  1  0.01834086  0.17556272  0.17873116  1
  O  O102  1  0.06780922  0.75686615  0.66680231  1
  O  O103  1  0.67556272  0.51834086  0.67873116  1
  O  O104  1  0.92880236  0.56569129  0.71873841  1
  O  O105  1  0.17873116  0.01834086  0.17556272  1
  O  O106  1  0.66680231  0.06780922  0.75686615  1
  O  O107  1  0.18332145  0.71750206  0.33092555  1
  O  O108  1  0.92432149  0.57087596  0.40874679  1
  O  O109  1  0.17556272  0.17873116  0.01834086  1
