# generated using pymatgen
data_K2ZnN12
_symmetry_space_group_name_H-M   'P 1'
_cell_length_a   11.37821318
_cell_length_b   11.82166185
_cell_length_c   14.53361658
_cell_angle_alpha   90.00000000
_cell_angle_beta   90.00000000
_cell_angle_gamma   90.00000000
_symmetry_Int_Tables_number   1
_chemical_formula_structural   K2ZnN12
_chemical_formula_sum   'K16 Zn8 N96'
_cell_volume   1954.90788136
_cell_formula_units_Z   8
loop_
 _symmetry_equiv_pos_site_id
 _symmetry_equiv_pos_as_xyz
  1  'x, y, z'
loop_
 _atom_site_type_symbol
 _atom_site_label
 _atom_site_symmetry_multiplicity
 _atom_site_fract_x
 _atom_site_fract_y
 _atom_site_fract_z
 _atom_site_occupancy
  K  K0  1  0.75771040  0.91741034  0.39422886  1
  K  K1  1  0.79838715  0.75070813  0.15653810  1
  K  K2  1  0.20161285  0.24929187  0.84346190  1
  K  K3  1  0.79838715  0.25070813  0.34346190  1
  K  K4  1  0.20161285  0.74929187  0.65653810  1
  K  K5  1  0.74228960  0.91741034  0.89422886  1
  K  K6  1  0.70161285  0.25070813  0.84346190  1
  K  K7  1  0.25771040  0.08258966  0.10577114  1
  K  K8  1  0.70161285  0.75070813  0.65653810  1
  K  K9  1  0.24228960  0.58258966  0.89422886  1
  K  K10  1  0.75771040  0.41741034  0.10577114  1
  K  K11  1  0.25771040  0.58258966  0.39422886  1
  K  K12  1  0.24228960  0.08258966  0.60577114  1
  K  K13  1  0.29838715  0.74929187  0.15653810  1
  K  K14  1  0.74228960  0.41741034  0.60577114  1
  K  K15  1  0.29838715  0.24929187  0.34346190  1
  Zn  Zn16  1  0.75212480  0.07482983  0.11383665  1
  Zn  Zn17  1  0.24787520  0.42517017  0.61383665  1
  Zn  Zn18  1  0.74787520  0.57482983  0.88616335  1
  Zn  Zn19  1  0.25212480  0.42517017  0.11383665  1
  Zn  Zn20  1  0.25212480  0.92517017  0.38616335  1
  Zn  Zn21  1  0.75212480  0.57482983  0.38616335  1
  Zn  Zn22  1  0.24787520  0.92517017  0.88616335  1
  Zn  Zn23  1  0.74787520  0.07482983  0.61383665  1
  N  N24  1  0.45975586  0.98658052  0.29087254  1
  N  N25  1  0.43789214  0.01077890  0.70746726  1
  N  N26  1  0.66037051  0.70511076  0.33268587  1
  N  N27  1  0.04687828  0.21563280  0.68018888  1
  N  N28  1  0.33908957  0.56674247  0.57958689  1
  N  N29  1  0.56111260  0.63386878  0.00994084  1
  N  N30  1  0.04611282  0.91155981  0.58488057  1
  N  N31  1  0.94453366  0.92446786  0.58313673  1
  N  N32  1  0.33309599  0.37092054  0.99727568  1
  N  N33  1  0.05505213  0.79189937  0.32710392  1
  N  N34  1  0.66091043  0.43325753  0.42041311  1
  N  N35  1  0.55505213  0.70810063  0.32710392  1
  N  N36  1  0.44494787  0.79189937  0.82710392  1
  N  N37  1  0.16690401  0.37092054  0.49727568  1
  N  N38  1  0.93888740  0.13386878  0.99005916  1
  N  N39  1  0.05546634  0.07553214  0.41686327  1
  N  N40  1  0.55546634  0.42446786  0.41686327  1
  N  N41  1  0.43888740  0.36613122  0.99005916  1
  N  N42  1  0.05505213  0.29189937  0.17289608  1
  N  N43  1  0.04611282  0.41155981  0.91511943  1
  N  N44  1  0.83309599  0.12907946  0.99727568  1
  N  N45  1  0.45312172  0.71563280  0.31981112  1
  N  N46  1  0.95978730  0.35992977  0.47937992  1
  N  N47  1  0.83908957  0.93325753  0.57958689  1
  N  N48  1  0.85398654  0.01348642  0.21503536  1
  N  N49  1  0.44453366  0.57553214  0.58313673  1
  N  N50  1  0.04021270  0.14007023  0.97937992  1
  N  N51  1  0.95312172  0.78436720  0.31981112  1
  N  N52  1  0.04024414  0.98658052  0.79087254  1
  N  N53  1  0.66690401  0.62907946  0.00272432  1
  N  N54  1  0.64601346  0.01348642  0.71503536  1
  N  N55  1  0.44494787  0.29189937  0.67289608  1
  N  N56  1  0.16037051  0.29488924  0.16731413  1
  N  N57  1  0.35398654  0.98651358  0.28496464  1
  N  N58  1  0.54687828  0.78436720  0.81981112  1
  N  N59  1  0.93789214  0.98922110  0.79253274  1
  N  N60  1  0.66091043  0.93325753  0.07958689  1
  N  N61  1  0.45312172  0.21563280  0.18018888  1
  N  N62  1  0.33962949  0.29488924  0.66731413  1
  N  N63  1  0.83962949  0.20511076  0.66731413  1
  N  N64  1  0.54024414  0.01341948  0.70912746  1
  N  N65  1  0.04687828  0.71563280  0.81981112  1
  N  N66  1  0.95975586  0.51341948  0.29087254  1
  N  N67  1  0.54611282  0.08844019  0.91511943  1
  N  N68  1  0.43789214  0.51077890  0.79253274  1
  N  N69  1  0.56111260  0.13386878  0.49005916  1
  N  N70  1  0.35398654  0.48651358  0.21503536  1
  N  N71  1  0.05546634  0.57553214  0.08313673  1
  N  N72  1  0.54021270  0.85992977  0.52062008  1
  N  N73  1  0.04024414  0.48658052  0.70912746  1
  N  N74  1  0.95978730  0.85992977  0.02062008  1
  N  N75  1  0.95388718  0.08844019  0.41511943  1
  N  N76  1  0.66690401  0.12907946  0.49727568  1
  N  N77  1  0.45388718  0.41155981  0.41511943  1
  N  N78  1  0.83309599  0.62907946  0.50272432  1
  N  N79  1  0.33309599  0.87092054  0.50272432  1
  N  N80  1  0.94494787  0.20810063  0.67289608  1
  N  N81  1  0.45388718  0.91155981  0.08488057  1
  N  N82  1  0.06210786  0.01077890  0.20746726  1
  N  N83  1  0.56210786  0.48922110  0.20746726  1
  N  N84  1  0.16091043  0.06674247  0.42041311  1
  N  N85  1  0.16690401  0.87092054  0.00272432  1
  N  N86  1  0.06111260  0.36613122  0.49005916  1
  N  N87  1  0.54021270  0.35992977  0.97937992  1
  N  N88  1  0.16091043  0.56674247  0.07958689  1
  N  N89  1  0.83962949  0.70511076  0.83268587  1
  N  N90  1  0.93789214  0.48922110  0.70746726  1
  N  N91  1  0.85398654  0.51348642  0.28496464  1
  N  N92  1  0.56210786  0.98922110  0.29253274  1
  N  N93  1  0.33908957  0.06674247  0.92041311  1
  N  N94  1  0.95312172  0.28436720  0.18018888  1
  N  N95  1  0.45978730  0.64007023  0.02062008  1
  N  N96  1  0.16037051  0.79488924  0.33268587  1
  N  N97  1  0.45978730  0.14007023  0.47937992  1
  N  N98  1  0.95388718  0.58844019  0.08488057  1
  N  N99  1  0.04021270  0.64007023  0.52062008  1
  N  N100  1  0.06111260  0.86613122  0.00994084  1
  N  N101  1  0.66037051  0.20511076  0.16731413  1
  N  N102  1  0.54687828  0.28436720  0.68018888  1
  N  N103  1  0.94453366  0.42446786  0.91686327  1
  N  N104  1  0.14601346  0.98651358  0.78496464  1
  N  N105  1  0.55546634  0.92446786  0.08313673  1
  N  N106  1  0.06210786  0.51077890  0.29253274  1
  N  N107  1  0.45975586  0.48658052  0.20912746  1
  N  N108  1  0.44453366  0.07553214  0.91686327  1
  N  N109  1  0.83908957  0.43325753  0.92041311  1
  N  N110  1  0.33962949  0.79488924  0.83268587  1
  N  N111  1  0.94494787  0.70810063  0.82710392  1
  N  N112  1  0.14601346  0.48651358  0.71503536  1
  N  N113  1  0.95975586  0.01341948  0.20912746  1
  N  N114  1  0.54024414  0.51341948  0.79087254  1
  N  N115  1  0.43888740  0.86613122  0.50994084  1
  N  N116  1  0.64601346  0.51348642  0.78496464  1
  N  N117  1  0.55505213  0.20810063  0.17289608  1
  N  N118  1  0.54611282  0.58844019  0.58488057  1
  N  N119  1  0.93888740  0.63386878  0.50994084  1
