# generated using pymatgen
data_Er2TiO5
_symmetry_space_group_name_H-M   'P 1'
_cell_length_a   7.38850398
_cell_length_b   7.24361808
_cell_length_c   21.78409476
_cell_angle_alpha   60.07840115
_cell_angle_beta   59.42192963
_cell_angle_gamma   60.64710357
_symmetry_Int_Tables_number   1
_chemical_formula_structural   Er2TiO5
_chemical_formula_sum   'Er16 Ti8 O40'
_cell_volume   825.12703764
_cell_formula_units_Z   8
loop_
 _symmetry_equiv_pos_site_id
 _symmetry_equiv_pos_as_xyz
  1  'x, y, z'
loop_
 _atom_site_type_symbol
 _atom_site_label
 _atom_site_symmetry_multiplicity
 _atom_site_fract_x
 _atom_site_fract_y
 _atom_site_fract_z
 _atom_site_occupancy
  Er  Er0  1  0.00557446  0.97956659  0.17838756  1
  Er  Er1  1  0.53327728  0.98676870  0.99776878  1
  Er  Er2  1  0.00161379  0.52179852  0.15157265  1
  Er  Er3  1  0.49878508  0.99491056  0.16655870  1
  Er  Er4  1  0.01788436  0.96949458  0.51439074  1
  Er  Er5  1  0.47400278  0.52649684  0.99102573  1
  Er  Er6  1  0.49877619  0.50663694  0.16653995  1
  Er  Er7  1  0.98749349  0.49722567  0.50604964  1
  Er  Er8  1  0.51530226  0.97467470  0.50544881  1
  Er  Er9  1  0.54534489  0.48766107  0.32642259  1
  Er  Er10  1  0.52268773  0.97708861  0.34098609  1
  Er  Er11  1  0.51512922  0.49365360  0.50551803  1
  Er  Er12  1  0.99993681  0.48230564  0.84521052  1
  Er  Er13  1  0.55100099  0.99543720  0.82197336  1
  Er  Er14  1  0.52541351  0.47888919  0.67242822  1
  Er  Er15  1  0.55097654  0.48771445  0.82198284  1
  O  O16  1  0.09582052  0.66595398  0.02406291  1
  O  O17  1  0.12496638  0.15458062  0.20956695  1
  O  O18  1  0.12510689  0.59167282  0.20950923  1
  O  O19  1  0.60212528  0.16274093  0.04253721  1
  O  O20  1  0.30453961  0.39512281  0.31741446  1
  O  O21  1  0.36557713  0.88431018  0.12194297  1
  O  O22  1  0.91471012  0.82796711  0.30972121  1
  O  O23  1  0.14498451  0.14024611  0.54693169  1
  O  O24  1  0.60647772  0.12326198  0.21564790  1
  O  O25  1  0.60226930  0.60757356  0.04250316  1
  O  O26  1  0.30449645  0.84805846  0.31740428  1
  O  O27  1  0.92877524  0.34428615  0.10387793  1
  O  O28  1  0.65247262  0.61601015  0.20514248  1
  O  O29  1  0.14488714  0.57411594  0.54694776  1
  O  O30  1  0.62217533  0.13228158  0.38155580  1
  O  O31  1  0.32412491  0.33887799  0.65312609  1
  O  O32  1  0.37034952  0.86800127  0.46458189  1
  O  O33  1  0.97676938  0.08403950  0.90706261  1
  O  O34  1  0.03003725  0.77948867  0.63700867  1
  O  O35  1  0.93916772  0.29469667  0.32383359  1
  O  O36  1  0.62189344  0.60071766  0.38164875  1
  O  O37  1  0.92871668  0.91521224  0.10389402  1
  O  O38  1  0.62831935  0.09715266  0.55912075  1
  O  O39  1  0.32419205  0.87739433  0.65312117  1
  O  O40  1  0.93466440  0.36603376  0.44309226  1
  O  O41  1  0.97702051  0.71777101  0.90697972  1
  O  O42  1  0.36222543  0.37714191  0.79448355  1
  O  O43  1  0.66318707  0.08100428  0.69371776  1
  O  O44  1  0.63577849  0.60671851  0.55026905  1
  O  O45  1  0.31606703  0.91813359  0.78261882  1
  O  O46  1  0.33346232  0.36158275  0.95630496  1
  O  O47  1  0.89486964  0.31609404  0.65766152  1
  O  O48  1  0.93463213  0.87010167  0.44308467  1
  O  O49  1  0.67485004  0.11859567  0.86266849  1
  O  O50  1  0.66311603  0.67465313  0.69374425  1
  O  O51  1  0.33345688  0.93602730  0.95630331  1
  O  O52  1  0.94122141  0.37186572  0.77259558  1
  O  O53  1  0.63469741  0.62527923  0.87160617  1
  O  O54  1  0.97251609  0.31491567  0.96586049  1
  O  O55  1  0.94121993  0.86928632  0.77258431  1
  Ti  Ti56  1  0.02524471  0.00019636  0.99954572  1
  Ti  Ti57  1  0.02522564  0.47582589  0.99955987  1
  Ti  Ti58  1  0.00600038  0.49332226  0.33382584  1
  Ti  Ti59  1  0.50209625  0.99017856  0.67266748  1
  Ti  Ti60  1  0.00596080  0.99928748  0.33377326  1
  Ti  Ti61  1  0.02534975  0.48872455  0.66314386  1
  Ti  Ti62  1  0.99539688  0.99669570  0.83705771  1
  Ti  Ti63  1  0.02558686  -0.00352157  0.66309069  1
