# generated using pymatgen
data_SiO2
_symmetry_space_group_name_H-M   'P 1'
_cell_length_a   8.52743619
_cell_length_b   14.21690094
_cell_length_c   16.08390429
_cell_angle_alpha   90.00000000
_cell_angle_beta   90.00000000
_cell_angle_gamma   90.00000000
_symmetry_Int_Tables_number   1
_chemical_formula_structural   SiO2
_chemical_formula_sum   'Si32 O64'
_cell_volume   1949.91147820
_cell_formula_units_Z   32
loop_
 _symmetry_equiv_pos_site_id
 _symmetry_equiv_pos_as_xyz
  1  'x, y, z'
loop_
 _atom_site_type_symbol
 _atom_site_label
 _atom_site_symmetry_multiplicity
 _atom_site_fract_x
 _atom_site_fract_y
 _atom_site_fract_z
 _atom_site_occupancy
  Si  Si0  1  0.82501873  0.14187662  0.15952176  1
  Si  Si1  1  0.32501873  0.35812338  0.34047824  1
  Si  Si2  1  0.17498127  0.64187662  0.84047824  1
  Si  Si3  1  0.67498127  0.85812338  0.65952176  1
  Si  Si4  1  0.17498127  0.85812338  0.84047824  1
  Si  Si5  1  0.67498127  0.64187662  0.65952176  1
  Si  Si6  1  0.82501873  0.35812338  0.15952176  1
  Si  Si7  1  0.32501873  0.14187662  0.34047824  1
  Si  Si8  1  0.55591859  0.35879809  0.03263479  1
  Si  Si9  1  0.05591859  0.14120191  0.46736521  1
  Si  Si10  1  0.44408141  0.85879809  0.96736521  1
  Si  Si11  1  0.94408141  0.64120191  0.53263479  1
  Si  Si12  1  0.44408141  0.64120191  0.96736521  1
  Si  Si13  1  0.94408141  0.85879809  0.53263479  1
  Si  Si14  1  0.55591859  0.14120191  0.03263479  1
  Si  Si15  1  0.05591859  0.35879809  0.46736521  1
  Si  Si16  1  0.11263661  0.46958335  0.22096406  1
  Si  Si17  1  0.61263661  0.03041665  0.27903594  1
  Si  Si18  1  0.88736339  0.96958335  0.77903594  1
  Si  Si19  1  0.38736339  0.53041665  0.72096406  1
  Si  Si20  1  0.88736339  0.53041665  0.77903594  1
  Si  Si21  1  0.38736339  0.96958335  0.72096406  1
  Si  Si22  1  0.11263661  0.03041665  0.22096406  1
  Si  Si23  1  0.61263661  0.46958335  0.27903594  1
  Si  Si24  1  0.41011948  0.97316493  0.12955723  1
  Si  Si25  1  0.91011948  0.52683507  0.37044277  1
  Si  Si26  1  0.58988052  0.47316493  0.87044277  1
  Si  Si27  1  0.08988052  0.02683507  0.62955723  1
  Si  Si28  1  0.58988052  0.02683507  0.87044277  1
  Si  Si29  1  0.08988052  0.47316493  0.62955723  1
  Si  Si30  1  0.41011948  0.52683507  0.12955723  1
  Si  Si31  1  0.91011948  0.97316493  0.37044277  1
  O  O32  1  0.88472104  0.25000000  0.16776113  1
  O  O33  1  0.38472104  0.25000000  0.33223887  1
  O  O34  1  0.11527896  0.75000000  0.83223887  1
  O  O35  1  0.61527896  0.75000000  0.66776113  1
  O  O36  1  0.73085361  0.12781828  0.07213837  1
  O  O37  1  0.23085361  0.37218172  0.42786163  1
  O  O38  1  0.26914639  0.62781828  0.92786163  1
  O  O39  1  0.76914639  0.87218172  0.57213837  1
  O  O40  1  0.26914639  0.87218172  0.92786163  1
  O  O41  1  0.76914639  0.62781828  0.57213837  1
  O  O42  1  0.73085361  0.37218172  0.07213837  1
  O  O43  1  0.23085361  0.12781828  0.42786163  1
  O  O44  1  0.97529494  0.07147942  0.16085244  1
  O  O45  1  0.47529494  0.42852058  0.33914756  1
  O  O46  1  0.02470506  0.57147942  0.83914756  1
  O  O47  1  0.52470506  0.92852058  0.66085244  1
  O  O48  1  0.02470506  0.92852058  0.83914756  1
  O  O49  1  0.52470506  0.57147942  0.66085244  1
  O  O50  1  0.97529494  0.42852058  0.16085244  1
  O  O51  1  0.47529494  0.07147942  0.33914756  1
  O  O52  1  0.70840798  0.11806405  0.23737708  1
  O  O53  1  0.20840798  0.38193595  0.26262292  1
  O  O54  1  0.29159202  0.61806405  0.76262292  1
  O  O55  1  0.79159202  0.88193595  0.73737708  1
  O  O56  1  0.29159202  0.88193595  0.76262292  1
  O  O57  1  0.79159202  0.61806405  0.73737708  1
  O  O58  1  0.70840798  0.38193595  0.23737708  1
  O  O59  1  0.20840798  0.11806405  0.26262292  1
  O  O60  1  0.56013846  0.38671639  0.93455341  1
  O  O61  1  0.06013846  0.11328361  0.56544659  1
  O  O62  1  0.43986154  0.88671639  0.06544659  1
  O  O63  1  0.93986154  0.61328361  0.43455341  1
  O  O64  1  0.43986154  0.61328361  0.06544659  1
  O  O65  1  0.93986154  0.88671639  0.43455341  1
  O  O66  1  0.56013846  0.11328361  0.93455341  1
  O  O67  1  0.06013846  0.38671639  0.56544659  1
  O  O68  1  0.43176705  0.42633823  0.08147662  1
  O  O69  1  0.93176705  0.07366177  0.41852338  1
  O  O70  1  0.56823295  0.92633823  0.91852338  1
  O  O71  1  0.06823295  0.57366177  0.58147662  1
  O  O72  1  0.56823295  0.57366177  0.91852338  1
  O  O73  1  0.06823295  0.92633823  0.58147662  1
  O  O74  1  0.43176705  0.07366177  0.08147662  1
  O  O75  1  0.93176705  0.42633823  0.41852338  1
  O  O76  1  0.49940313  0.25000000  0.04239262  1
  O  O77  1  0.99940313  0.25000000  0.45760738  1
  O  O78  1  0.50059687  0.75000000  0.95760738  1
  O  O79  1  0.00059687  0.75000000  0.54239262  1
  O  O80  1  0.03576147  0.53445800  0.29421898  1
  O  O81  1  0.53576147  0.96554200  0.20578102  1
  O  O82  1  0.96423853  0.03445800  0.70578102  1
  O  O83  1  0.46423853  0.46554200  0.79421898  1
  O  O84  1  0.96423853  0.46554200  0.70578102  1
  O  O85  1  0.46423853  0.03445800  0.79421898  1
  O  O86  1  0.03576147  0.96554200  0.29421898  1
  O  O87  1  0.53576147  0.53445800  0.20578102  1
  O  O88  1  0.23230165  0.53358032  0.16608836  1
  O  O89  1  0.73230165  0.96641968  0.33391164  1
  O  O90  1  0.76769835  0.03358032  0.83391164  1
  O  O91  1  0.26769835  0.46641968  0.66608836  1
  O  O92  1  0.76769835  0.46641968  0.83391164  1
  O  O93  1  0.26769835  0.03358032  0.66608836  1
  O  O94  1  0.23230165  0.96641968  0.16608836  1
  O  O95  1  0.73230165  0.53358032  0.33391164  1
