# generated using pymatgen
data_CsB9O13
_symmetry_space_group_name_H-M   'P 1'
_cell_length_a   9.36878345
_cell_length_b   9.36878345
_cell_length_c   12.93727009
_cell_angle_alpha   90.00000000
_cell_angle_beta   90.00000000
_cell_angle_gamma   90.00000000
_symmetry_Int_Tables_number   1
_chemical_formula_structural   CsB9O13
_chemical_formula_sum   'Cs4 B36 O52'
_cell_volume   1135.55728173
_cell_formula_units_Z   4
loop_
 _symmetry_equiv_pos_site_id
 _symmetry_equiv_pos_as_xyz
  1  'x, y, z'
loop_
 _atom_site_type_symbol
 _atom_site_label
 _atom_site_symmetry_multiplicity
 _atom_site_fract_x
 _atom_site_fract_y
 _atom_site_fract_z
 _atom_site_occupancy
  B  B0  1  0.01516028  0.15057000  0.81183469  1
  B  B1  1  0.01516028  0.84943000  0.68816531  1
  B  B2  1  0.11179832  0.66950447  0.79909973  1
  B  B3  1  0.11179832  0.33049553  0.70090027  1
  B  B4  1  0.14851747  0.30655215  0.27747431  1
  B  B5  1  0.14851747  0.69344785  0.22252569  1
  B  B6  1  0.15057000  0.01516028  0.93816531  1
  B  B7  1  0.15057000  0.98483972  0.56183469  1
  B  B8  1  0.30655215  0.85148253  0.02747431  1
  B  B9  1  0.30655215  0.14851747  0.47252569  1
  B  B10  1  0.33049553  0.11179832  0.04909973  1
  B  B11  1  0.33049553  0.88820168  0.45090027  1
  B  B12  1  0.38056487  0.38056487  0.37500000  1
  B  B13  1  0.38056487  0.61943513  0.12500000  1
  B  B14  1  0.36496470  0.56584292  0.79805346  1
  B  B15  1  0.36496470  0.43415708  0.70194654  1
  B  B16  1  0.43415708  0.36496470  0.04805346  1
  B  B17  1  0.43415708  0.63503530  0.45194654  1
  B  B18  1  0.56584292  0.63503530  0.54805346  1
  B  B19  1  0.56584292  0.36496470  0.95194654  1
  B  B20  1  0.63503530  0.56584292  0.20194654  1
  B  B21  1  0.63503530  0.43415708  0.29805346  1
  B  B22  1  0.61943513  0.38056487  0.62500000  1
  B  B23  1  0.61943513  0.61943513  0.87500000  1
  B  B24  1  0.66950447  0.11179832  0.95090027  1
  B  B25  1  0.66950447  0.88820168  0.54909973  1
  B  B26  1  0.69344785  0.14851747  0.52747431  1
  B  B27  1  0.69344785  0.85148253  0.97252569  1
  B  B28  1  0.84943000  0.01516028  0.06183469  1
  B  B29  1  0.84943000  0.98483972  0.43816531  1
  B  B30  1  0.85148253  0.30655215  0.72252569  1
  B  B31  1  0.85148253  0.69344785  0.77747431  1
  B  B32  1  0.88820168  0.66950447  0.20090027  1
  B  B33  1  0.88820168  0.33049553  0.29909973  1
  B  B34  1  0.98483972  0.15057000  0.18816531  1
  B  B35  1  0.98483972  0.84943000  0.31183469  1
  Cs  Cs36  1  0.00000000  0.42828308  0.00000000  1
  Cs  Cs37  1  0.00000000  0.57171692  0.50000000  1
  Cs  Cs38  1  0.42828308  0.00000000  0.75000000  1
  Cs  Cs39  1  0.57171692  0.00000000  0.25000000  1
  O  O40  1  0.02777467  0.36638901  0.32668575  1
  O  O41  1  0.02777467  0.63361099  0.17331425  1
  O  O42  1  0.03407285  0.03407285  0.87500000  1
  O  O43  1  0.03407285  0.96592715  0.62500000  1
  O  O44  1  0.12035971  0.19676414  0.20547815  1
  O  O45  1  0.12035971  0.80323586  0.29452185  1
  O  O46  1  0.13321706  0.78174102  0.72924954  1
  O  O47  1  0.13321706  0.21825898  0.77075046  1
  O  O48  1  0.19676414  0.12035971  0.54452185  1
  O  O49  1  0.19676414  0.87964029  0.95547815  1
  O  O50  1  0.21825898  0.13321706  0.97924954  1
  O  O51  1  0.21825898  0.86678294  0.52075046  1
  O  O52  1  0.22315787  0.59359975  0.83412313  1
  O  O53  1  0.22315787  0.40640025  0.66587687  1
  O  O54  1  0.28237834  0.34462350  0.29098039  1
  O  O55  1  0.28237834  0.65537650  0.20901961  1
  O  O56  1  0.34462350  0.71762166  0.04098039  1
  O  O57  1  0.34462350  0.28237834  0.45901961  1
  O  O58  1  0.35969569  0.47018586  0.09155565  1
  O  O59  1  0.35969569  0.52981414  0.40844435  1
  O  O60  1  0.36638901  0.97222533  0.07668575  1
  O  O61  1  0.36638901  0.02777467  0.42331425  1
  O  O62  1  0.40640025  0.22315787  0.08412313  1
  O  O63  1  0.40640025  0.77684213  0.41587687  1
  O  O64  1  0.47018586  0.35969569  0.65844435  1
  O  O65  1  0.47018586  0.64030431  0.84155565  1
  O  O66  1  0.52981414  0.35969569  0.34155565  1
  O  O67  1  0.52981414  0.64030431  0.15844435  1
  O  O68  1  0.59359975  0.77684213  0.58412313  1
  O  O69  1  0.59359975  0.22315787  0.91587687  1
  O  O70  1  0.63361099  0.02777467  0.57668575  1
  O  O71  1  0.63361099  0.97222533  0.92331425  1
  O  O72  1  0.64030431  0.47018586  0.90844435  1
  O  O73  1  0.64030431  0.52981414  0.59155565  1
  O  O74  1  0.65537650  0.28237834  0.54098039  1
  O  O75  1  0.65537650  0.71762166  0.95901961  1
  O  O76  1  0.71762166  0.34462350  0.70901961  1
  O  O77  1  0.71762166  0.65537650  0.79098039  1
  O  O78  1  0.77684213  0.40640025  0.33412313  1
  O  O79  1  0.77684213  0.59359975  0.16587687  1
  O  O80  1  0.78174102  0.13321706  0.02075046  1
  O  O81  1  0.78174102  0.86678294  0.47924954  1
  O  O82  1  0.80323586  0.12035971  0.45547815  1
  O  O83  1  0.80323586  0.87964029  0.04452185  1
  O  O84  1  0.86678294  0.78174102  0.27075046  1
  O  O85  1  0.86678294  0.21825898  0.22924954  1
  O  O86  1  0.87964029  0.80323586  0.70547815  1
  O  O87  1  0.87964029  0.19676414  0.79452185  1
  O  O88  1  0.96592715  0.03407285  0.12500000  1
  O  O89  1  0.96592715  0.96592715  0.37500000  1
  O  O90  1  0.97222533  0.36638901  0.67331425  1
  O  O91  1  0.97222533  0.63361099  0.82668575  1
