# generated using pymatgen
data_CdSi3PH27C9Br2
_symmetry_space_group_name_H-M   'P 1'
_cell_length_a   12.54605835
_cell_length_b   13.14947022
_cell_length_c   13.80121654
_cell_angle_alpha   90.00000000
_cell_angle_beta   90.00000000
_cell_angle_gamma   97.59966228
_symmetry_Int_Tables_number   1
_chemical_formula_structural   CdSi3PH27C9Br2
_chemical_formula_sum   'Cd4 Si12 P4 H108 C36 Br8'
_cell_volume   2256.84312807
_cell_formula_units_Z   4
loop_
 _symmetry_equiv_pos_site_id
 _symmetry_equiv_pos_as_xyz
  1  'x, y, z'
loop_
 _atom_site_type_symbol
 _atom_site_label
 _atom_site_symmetry_multiplicity
 _atom_site_fract_x
 _atom_site_fract_y
 _atom_site_fract_z
 _atom_site_occupancy
  Cd  Cd0  1  0.96744088  0.35595137  0.01031214  1
  Cd  Cd1  1  0.03255912  0.64404863  0.98968786  1
  Cd  Cd2  1  0.53255912  0.64404863  0.51031214  1
  Cd  Cd3  1  0.46744088  0.35595137  0.48968786  1
  Si  Si4  1  0.20288943  0.90916024  0.04213121  1
  Si  Si5  1  0.83041544  0.67084495  0.38599899  1
  Si  Si6  1  0.70537303  0.26113435  0.15359870  1
  Si  Si7  1  0.16958456  0.32915505  0.61400101  1
  Si  Si8  1  0.20537303  0.26113435  0.34640130  1
  Si  Si9  1  0.70288943  0.90916024  0.45786879  1
  Si  Si10  1  0.33041544  0.67084495  0.11400101  1
  Si  Si11  1  0.29462697  0.73886565  0.84640130  1
  Si  Si12  1  0.79462697  0.73886565  0.65359870  1
  Si  Si13  1  0.79711057  0.09083976  0.95786879  1
  Si  Si14  1  0.29711057  0.09083976  0.54213121  1
  Si  Si15  1  0.66958456  0.32915505  0.88599899  1
  P  P16  1  0.22452513  0.74201098  0.00168052  1
  P  P17  1  0.72452513  0.74201098  0.49831948  1
  P  P18  1  0.27547487  0.25798902  0.50168052  1
  P  P19  1  0.77547487  0.25798902  0.99831948  1
  H  H20  1  0.46615894  0.15159716  0.63231130  1
  H  H21  1  0.82294235  0.05996442  0.39430674  1
  H  H22  1  0.28037521  0.54868596  0.83473837  1
  H  H23  1  0.23859058  0.48970491  0.11720691  1
  H  H24  1  0.38533468  0.60951775  0.75944728  1
  H  H25  1  0.40615452  0.60167294  0.88635573  1
  H  H26  1  0.26140942  0.51029509  0.61720691  1
  H  H27  1  0.50248468  0.71233234  0.02265654  1
  H  H28  1  0.01301085  0.18902366  0.60781636  1
  H  H29  1  0.12932035  0.05609129  0.63991464  1
  H  H30  1  0.47321557  0.30695457  0.85237340  1
  H  H31  1  0.92155685  0.01984231  0.84409975  1
  H  H32  1  0.11994306  0.50484285  0.63241126  1
  H  H33  1  0.88533468  0.60951775  0.74055272  1
  H  H34  1  0.71962479  0.45131404  0.16526163  1
  H  H35  1  0.37067965  0.94390871  0.13991464  1
  H  H36  1  0.19417889  0.67233336  0.24556140  1
  H  H37  1  0.84575183  0.17159541  0.23148350  1
  H  H38  1  0.78037521  0.54868596  0.66526163  1
  H  H39  1  0.21479189  0.21145596  0.74575639  1
  H  H40  1  0.19873478  0.95661371  0.86810925  1
  H  H41  1  0.38986545  0.30551168  0.27872729  1
  H  H42  1  0.67420891  0.32493923  0.70554359  1
  H  H43  1  0.90615452  0.60167294  0.61364427  1
  H  H44  1  0.67705765  0.94003558  0.89430674  1
  H  H45  1  0.14378804  0.88426851  0.21322088  1
  H  H46  1  0.30582111  0.32766664  0.74556140  1
  H  H47  1  0.59384548  0.39832706  0.11364427  1
  H  H48  1  0.20420638  0.74103396  0.68687518  1
  H  H49  1  0.62320890  0.07757788  0.15759383  1
  H  H50  1  0.05986056  0.15241828  0.25801204  1
  H  H51  1  0.88986545  0.30551168  0.22127271  1
  H  H52  1  0.94013944  0.84758172  0.74198796  1
  H  H53  1  0.32536646  0.51074321  0.01554617  1
  H  H54  1  0.49751532  0.28766766  0.97734346  1
  H  H55  1  0.79579362  0.25896604  0.31312482  1
  H  H56  1  0.28520811  0.78854404  0.24575639  1
  H  H57  1  0.35621196  0.11573149  0.71322088  1
  H  H58  1  0.44013944  0.84758172  0.75801204  1
  H  H59  1  0.88005694  0.49515715  0.36758874  1
  H  H60  1  0.17420891  0.32493923  0.79445641  1
  H  H61  1  0.42155685  0.01984231  0.65590025  1
  H  H62  1  0.78520811  0.78854404  0.25424361  1
  H  H63  1  0.97119077  0.84236202  0.61627301  1
  H  H64  1  0.57844315  0.98015769  0.34409975  1
  H  H65  1  0.15424817  0.82840459  0.76851650  1
  H  H66  1  0.43393094  0.06533209  0.41778778  1
  H  H67  1  0.71479189  0.21145596  0.75424361  1
  H  H68  1  0.34838358  0.94848519  0.44307822  1
  H  H69  1  0.00248468  0.71233234  0.47734346  1
  H  H70  1  0.34575183  0.17159541  0.26851650  1
  H  H71  1  0.15161642  0.05151481  0.94307822  1
  H  H72  1  0.32579109  0.67506077  0.29445641  1
  H  H73  1  0.32294235  0.05996442  0.10569326  1
  H  H74  1  0.61013455  0.69448832  0.72127271  1
  H  H75  1  0.85621196  0.11573149  0.78677912  1
  H  H76  1  0.87679110  0.92242212  0.65759383  1
  H  H77  1  0.60733670  0.00769093  0.98013804  1
  H  H78  1  0.87067965  0.94390871  0.36008536  1
  H  H79  1  0.62932035  0.05609129  0.86008536  1
  H  H80  1  0.48698915  0.81097634  0.10781636  1
  H  H81  1  0.98698915  0.81097634  0.39218364  1
  H  H82  1  0.02880923  0.15763798  0.38372699  1
  H  H83  1  0.30126522  0.04338629  0.36810925  1
  H  H84  1  0.52880923  0.15763798  0.11627301  1
  H  H85  1  0.29579362  0.25896604  0.18687518  1
  H  H86  1  0.76140942  0.51029509  0.88279309  1
  H  H87  1  0.53384106  0.84840284  0.36768870  1
  H  H88  1  0.80582111  0.32766664  0.75443860  1
  H  H89  1  0.61466532  0.39048225  0.24055272  1
  H  H90  1  0.10733670  0.00769093  0.51986196  1
  H  H91  1  0.82536646  0.51074321  0.48445383  1
  H  H92  1  0.11466532  0.39048225  0.25944728  1
  H  H93  1  0.80126522  0.04338629  0.13189075  1
  H  H94  1  0.65424817  0.82840459  0.73148350  1
  H  H95  1  0.09384548  0.39832706  0.38635573  1
  H  H96  1  0.39266330  0.99230907  0.01986196  1
  H  H97  1  0.99751532  0.28766766  0.52265654  1
  H  H98  1  0.47119077  0.84236202  0.88372699  1
  H  H99  1  0.51301085  0.18902366  0.89218364  1
  H  H100  1  0.12320890  0.07757788  0.34240617  1
  H  H101  1  0.70420638  0.74103396  0.81312482  1
  H  H102  1  0.89266330  0.99230907  0.48013804  1
  H  H103  1  0.96615894  0.15159716  0.86768870  1
  H  H104  1  0.52678443  0.69304543  0.14762660  1
  H  H105  1  0.17705765  0.94003558  0.60569326  1
  H  H106  1  0.82579109  0.67506077  0.20554359  1
  H  H107  1  0.11013455  0.69448832  0.77872729  1
  H  H108  1  0.38005694  0.49515715  0.13241126  1
  H  H109  1  0.69417889  0.67233336  0.25443860  1
  H  H110  1  0.21962479  0.45131404  0.33473837  1
  H  H111  1  0.65161642  0.05151481  0.55692178  1
  H  H112  1  0.07844315  0.98015769  0.15590025  1
  H  H113  1  0.17463354  0.48925679  0.51554617  1
  H  H114  1  0.97321557  0.30695457  0.64762660  1
  H  H115  1  0.06606906  0.93466791  0.91778778  1
  H  H116  1  0.93393094  0.06533209  0.08221222  1
  H  H117  1  0.56606906  0.93466791  0.58221222  1
  H  H118  1  0.67463354  0.48925679  0.98445383  1
  H  H119  1  0.61994306  0.50484285  0.86758874  1
  H  H120  1  0.37679110  0.92242212  0.84240617  1
  H  H121  1  0.84838358  0.94848519  0.05692178  1
  H  H122  1  0.02678443  0.69304543  0.35237340  1
  H  H123  1  0.73859058  0.48970491  0.38279309  1
  H  H124  1  0.64378804  0.88426851  0.28677912  1
  H  H125  1  0.55986056  0.15241828  0.24198796  1
  H  H126  1  0.69873478  0.95661371  0.63189075  1
  H  H127  1  0.03384106  0.84840284  0.13231130  1
  C  C128  1  0.81702282  0.52881218  0.40737805  1
  C  C129  1  0.67989131  0.75224417  0.73773328  1
  C  C130  1  0.39438022  0.09537378  0.64578030  1
  C  C131  1  0.68297718  0.47118782  0.90737805  1
  C  C132  1  0.16508459  0.01712605  0.58016833  1
  C  C133  1  0.22085589  0.29498064  0.73601597  1
  C  C134  1  0.72085589  0.29498064  0.76398403  1
  C  C135  1  0.85021182  0.03160701  0.06810448  1
  C  C136  1  0.34631458  0.61289973  0.83060659  1
  C  C137  1  0.77914411  0.70501936  0.26398403  1
  C  C138  1  0.32010869  0.24775583  0.26226672  1
  C  C139  1  0.02511377  0.27228556  0.59614534  1
  C  C140  1  0.90604686  0.84821755  0.66839448  1
  C  C141  1  0.83491541  0.98287395  0.41983167  1
  C  C142  1  0.17989131  0.75224417  0.76226672  1
  C  C143  1  0.59395314  0.15178245  0.16839448  1
  C  C144  1  0.18297718  0.47118782  0.59262195  1
  C  C145  1  0.33491541  0.98287395  0.08016833  1
  C  C146  1  0.97488623  0.72771444  0.40385466  1
  C  C147  1  0.65368542  0.38710027  0.16939341  1
  C  C148  1  0.10561978  0.90462622  0.14578030  1
  C  C149  1  0.27914411  0.70501936  0.23601597  1
  C  C150  1  0.52511377  0.27228556  0.90385466  1
  C  C151  1  0.82010869  0.24775583  0.23773328  1
  C  C152  1  0.14978818  0.96839299  0.93189552  1
  C  C153  1  0.47488623  0.72771444  0.09614534  1
  C  C154  1  0.15368542  0.38710027  0.33060659  1
  C  C155  1  0.89438022  0.09537378  0.85421970  1
  C  C156  1  0.31702282  0.52881218  0.09262195  1
  C  C157  1  0.84631458  0.61289973  0.66939341  1
  C  C158  1  0.60561978  0.90462622  0.35421970  1
  C  C159  1  0.64978818  0.96839299  0.56810448  1
  C  C160  1  0.66508459  0.01712605  0.91983167  1
  C  C161  1  0.35021182  0.03160701  0.43189552  1
  C  C162  1  0.09395314  0.15178245  0.33160552  1
  C  C163  1  0.40604686  0.84821755  0.83160552  1
  Br  Br164  1  0.97639537  0.51576136  0.14120781  1
  Br  Br165  1  0.52360463  0.48423864  0.64120781  1
  Br  Br166  1  0.02360463  0.48423864  0.85879219  1
  Br  Br167  1  0.37890336  0.75210078  0.54440794  1
  Br  Br168  1  0.62109664  0.24789922  0.45559206  1
  Br  Br169  1  0.12109664  0.24789922  0.04440794  1
  Br  Br170  1  0.87890336  0.75210078  0.95559206  1
  Br  Br171  1  0.47639537  0.51576136  0.35879219  1
