# generated using pymatgen
data_SiO2
_symmetry_space_group_name_H-M   'P 1'
_cell_length_a   10.32549280
_cell_length_b   12.67380127
_cell_length_c   21.89169540
_cell_angle_alpha   90.00000000
_cell_angle_beta   90.00000000
_cell_angle_gamma   90.00000000
_symmetry_Int_Tables_number   1
_chemical_formula_structural   SiO2
_chemical_formula_sum   'Si48 O96'
_cell_volume   2864.81827149
_cell_formula_units_Z   48
loop_
 _symmetry_equiv_pos_site_id
 _symmetry_equiv_pos_as_xyz
  1  'x, y, z'
loop_
 _atom_site_type_symbol
 _atom_site_label
 _atom_site_symmetry_multiplicity
 _atom_site_fract_x
 _atom_site_fract_y
 _atom_site_fract_z
 _atom_site_occupancy
  Si  Si0  1  0.22066580  0.37075027  0.11099556  1
  Si  Si1  1  0.22066580  0.62924973  0.88900444  1
  Si  Si2  1  0.77933420  0.87075027  0.88900444  1
  Si  Si3  1  0.77933420  0.12924973  0.11099556  1
  Si  Si4  1  0.77933420  0.62924973  0.88900444  1
  Si  Si5  1  0.77933420  0.37075027  0.11099556  1
  Si  Si6  1  0.22066580  0.12924973  0.11099556  1
  Si  Si7  1  0.22066580  0.87075027  0.88900444  1
  Si  Si8  1  0.72066580  0.87075027  0.61099556  1
  Si  Si9  1  0.72066580  0.12924973  0.38900444  1
  Si  Si10  1  0.27933420  0.37075027  0.38900444  1
  Si  Si11  1  0.27933420  0.62924973  0.61099556  1
  Si  Si12  1  0.27933420  0.12924973  0.38900444  1
  Si  Si13  1  0.27933420  0.87075027  0.61099556  1
  Si  Si14  1  0.72066580  0.62924973  0.61099556  1
  Si  Si15  1  0.72066580  0.37075027  0.38900444  1
  Si  Si16  1  0.00000000  0.56111837  0.65602758  1
  Si  Si17  1  0.00000000  0.43888163  0.34397242  1
  Si  Si18  1  0.00000000  0.06111837  0.34397242  1
  Si  Si19  1  0.00000000  0.93888163  0.65602758  1
  Si  Si20  1  0.50000000  0.06111837  0.15602758  1
  Si  Si21  1  0.50000000  0.93888163  0.84397242  1
  Si  Si22  1  0.50000000  0.56111837  0.84397242  1
  Si  Si23  1  0.50000000  0.43888163  0.15602758  1
  Si  Si24  1  0.00000000  0.87481654  0.79245304  1
  Si  Si25  1  0.00000000  0.12518346  0.20754696  1
  Si  Si26  1  0.00000000  0.37481654  0.20754696  1
  Si  Si27  1  0.00000000  0.62518346  0.79245304  1
  Si  Si28  1  0.50000000  0.37481654  0.29245304  1
  Si  Si29  1  0.50000000  0.62518346  0.70754696  1
  Si  Si30  1  0.50000000  0.87481654  0.70754696  1
  Si  Si31  1  0.50000000  0.12518346  0.29245304  1
  Si  Si32  1  0.00000000  0.87477014  0.43359141  1
  Si  Si33  1  0.00000000  0.12522986  0.56640859  1
  Si  Si34  1  0.00000000  0.37477014  0.56640859  1
  Si  Si35  1  0.00000000  0.62522986  0.43359141  1
  Si  Si36  1  0.50000000  0.37477014  0.93359141  1
  Si  Si37  1  0.50000000  0.62522986  0.06640859  1
  Si  Si38  1  0.50000000  0.87477014  0.06640859  1
  Si  Si39  1  0.50000000  0.12522986  0.93359141  1
  Si  Si40  1  0.21856648  0.50000000  0.50000000  1
  Si  Si41  1  0.78143352  0.00000000  0.50000000  1
  Si  Si42  1  0.78143352  0.50000000  0.50000000  1
  Si  Si43  1  0.21856648  0.00000000  0.50000000  1
  Si  Si44  1  0.71856648  0.00000000  0.00000000  1
  Si  Si45  1  0.28143352  0.50000000  0.00000000  1
  Si  Si46  1  0.28143352  0.00000000  0.00000000  1
  Si  Si47  1  0.71856648  0.50000000  0.00000000  1
  O  O48  1  0.19174657  0.45080059  0.05404872  1
  O  O49  1  0.19174657  0.54919941  0.94595128  1
  O  O50  1  0.80825343  0.95080059  0.94595128  1
  O  O51  1  0.80825343  0.04919941  0.05404872  1
  O  O52  1  0.80825343  0.54919941  0.94595128  1
  O  O53  1  0.80825343  0.45080059  0.05404872  1
  O  O54  1  0.19174657  0.04919941  0.05404872  1
  O  O55  1  0.19174657  0.95080059  0.94595128  1
  O  O56  1  0.69174657  0.95080059  0.55404872  1
  O  O57  1  0.69174657  0.04919941  0.44595128  1
  O  O58  1  0.30825343  0.45080059  0.44595128  1
  O  O59  1  0.30825343  0.54919941  0.55404872  1
  O  O60  1  0.30825343  0.04919941  0.44595128  1
  O  O61  1  0.30825343  0.95080059  0.55404872  1
  O  O62  1  0.69174657  0.54919941  0.55404872  1
  O  O63  1  0.69174657  0.45080059  0.44595128  1
  O  O64  1  0.37190485  0.37750763  0.13140808  1
  O  O65  1  0.37190485  0.62249237  0.86859192  1
  O  O66  1  0.62809515  0.87750763  0.86859192  1
  O  O67  1  0.62809515  0.12249237  0.13140808  1
  O  O68  1  0.62809515  0.62249237  0.86859192  1
  O  O69  1  0.62809515  0.37750763  0.13140808  1
  O  O70  1  0.37190485  0.12249237  0.13140808  1
  O  O71  1  0.37190485  0.87750763  0.86859192  1
  O  O72  1  0.87190485  0.87750763  0.63140808  1
  O  O73  1  0.87190485  0.12249237  0.36859192  1
  O  O74  1  0.12809515  0.37750763  0.36859192  1
  O  O75  1  0.12809515  0.62249237  0.63140808  1
  O  O76  1  0.12809515  0.12249237  0.36859192  1
  O  O77  1  0.12809515  0.87750763  0.63140808  1
  O  O78  1  0.87190485  0.62249237  0.63140808  1
  O  O79  1  0.87190485  0.37750763  0.36859192  1
  O  O80  1  0.12892700  0.40365505  0.16822359  1
  O  O81  1  0.12892700  0.59634495  0.83177641  1
  O  O82  1  0.87107300  0.90365505  0.83177641  1
  O  O83  1  0.87107300  0.09634495  0.16822359  1
  O  O84  1  0.87107300  0.59634495  0.83177641  1
  O  O85  1  0.87107300  0.40365505  0.16822359  1
  O  O86  1  0.12892700  0.09634495  0.16822359  1
  O  O87  1  0.12892700  0.90365505  0.83177641  1
  O  O88  1  0.62892700  0.90365505  0.66822359  1
  O  O89  1  0.62892700  0.09634495  0.33177641  1
  O  O90  1  0.37107300  0.40365505  0.33177641  1
  O  O91  1  0.37107300  0.59634495  0.66822359  1
  O  O92  1  0.37107300  0.09634495  0.33177641  1
  O  O93  1  0.37107300  0.90365505  0.66822359  1
  O  O94  1  0.62892700  0.59634495  0.66822359  1
  O  O95  1  0.62892700  0.40365505  0.33177641  1
  O  O96  1  0.18860015  0.25000000  0.09007317  1
  O  O97  1  0.18860015  0.75000000  0.90992683  1
  O  O98  1  0.81139985  0.75000000  0.90992683  1
  O  O99  1  0.81139985  0.25000000  0.09007317  1
  O  O100  1  0.68860015  0.75000000  0.59007317  1
  O  O101  1  0.68860015  0.25000000  0.40992683  1
  O  O102  1  0.31139985  0.25000000  0.40992683  1
  O  O103  1  0.31139985  0.75000000  0.59007317  1
  O  O104  1  0.00000000  0.44055027  0.63015111  1
  O  O105  1  0.00000000  0.55944973  0.36984889  1
  O  O106  1  0.00000000  0.94055027  0.36984889  1
  O  O107  1  0.00000000  0.05944973  0.63015111  1
  O  O108  1  0.50000000  0.94055027  0.13015111  1
  O  O109  1  0.50000000  0.05944973  0.86984889  1
  O  O110  1  0.50000000  0.44055027  0.86984889  1
  O  O111  1  0.50000000  0.55944973  0.13015111  1
  O  O112  1  0.00000000  0.55636190  0.73015043  1
  O  O113  1  0.00000000  0.44363810  0.26984957  1
  O  O114  1  0.00000000  0.05636190  0.26984957  1
  O  O115  1  0.00000000  0.94363810  0.73015043  1
  O  O116  1  0.50000000  0.05636190  0.23015043  1
  O  O117  1  0.50000000  0.94363810  0.76984957  1
  O  O118  1  0.50000000  0.55636190  0.76984957  1
  O  O119  1  0.50000000  0.44363810  0.23015043  1
  O  O120  1  0.00000000  0.75000000  0.77446385  1
  O  O121  1  0.00000000  0.25000000  0.22553615  1
  O  O122  1  0.50000000  0.25000000  0.27446385  1
  O  O123  1  0.50000000  0.75000000  0.72553615  1
  O  O124  1  0.12858250  0.90469657  0.47311952  1
  O  O125  1  0.12858250  0.09530343  0.52688048  1
  O  O126  1  0.87141750  0.40469657  0.52688048  1
  O  O127  1  0.87141750  0.59530343  0.47311952  1
  O  O128  1  0.87141750  0.09530343  0.52688048  1
  O  O129  1  0.87141750  0.90469657  0.47311952  1
  O  O130  1  0.12858250  0.59530343  0.47311952  1
  O  O131  1  0.12858250  0.40469657  0.52688048  1
  O  O132  1  0.62858250  0.40469657  0.97311952  1
  O  O133  1  0.62858250  0.59530343  0.02688048  1
  O  O134  1  0.37141750  0.90469657  0.02688048  1
  O  O135  1  0.37141750  0.09530343  0.97311952  1
  O  O136  1  0.37141750  0.59530343  0.02688048  1
  O  O137  1  0.37141750  0.40469657  0.97311952  1
  O  O138  1  0.62858250  0.09530343  0.97311952  1
  O  O139  1  0.62858250  0.90469657  0.02688048  1
  O  O140  1  0.00000000  0.75000000  0.41802689  1
  O  O141  1  0.00000000  0.25000000  0.58197311  1
  O  O142  1  0.50000000  0.25000000  0.91802689  1
  O  O143  1  0.50000000  0.75000000  0.08197311  1
