# generated using pymatgen
data_Pr5In11Ni6
_symmetry_space_group_name_H-M   'P 1'
_cell_length_a   4.36253713
_cell_length_b   10.23142510
_cell_length_c   10.23142510
_cell_angle_alpha   90.28348261
_cell_angle_beta   90.00000000
_cell_angle_gamma   90.00000000
_symmetry_Int_Tables_number   1
_chemical_formula_structural   Pr5In11Ni6
_chemical_formula_sum   'Pr5 In11 Ni6'
_cell_volume   456.67378186
_cell_formula_units_Z   1
loop_
 _symmetry_equiv_pos_site_id
 _symmetry_equiv_pos_as_xyz
  1  'x, y, z'
loop_
 _atom_site_type_symbol
 _atom_site_label
 _atom_site_symmetry_multiplicity
 _atom_site_fract_x
 _atom_site_fract_y
 _atom_site_fract_z
 _atom_site_occupancy
  Pr  Pr0  1  0.00000000  0.68898933  0.03746048  1
  Pr  Pr1  1  0.00000000  0.96253952  0.31101067  1
  Pr  Pr2  1  0.00000000  0.03746048  0.68898933  1
  Pr  Pr3  1  0.00000000  0.31101067  0.96253952  1
  Pr  Pr4  1  0.50000000  0.50000000  0.50000000  1
  In  In5  1  0.00000000  0.30350994  0.30350994  1
  In  In6  1  0.00000000  0.69649006  0.69649006  1
  In  In7  1  0.50000000  0.27410618  0.72589382  1
  In  In8  1  0.50000000  0.53730542  0.84744578  1
  In  In9  1  0.50000000  0.15994993  0.15994993  1
  In  In10  1  0.50000000  0.84005007  0.84005007  1
  In  In11  1  0.50000000  0.46269458  0.15255422  1
  In  In12  1  0.50000000  0.72589382  0.27410618  1
  In  In13  1  0.50000000  0.84744578  0.53730542  1
  In  In14  1  0.00000000  0.00000000  0.00000000  1
  In  In15  1  0.50000000  0.15255422  0.46269458  1
  Ni  Ni16  1  0.50000000  0.09388010  0.90611990  1
  Ni  Ni17  1  0.00000000  0.28067317  0.55628871  1
  Ni  Ni18  1  0.00000000  0.71932683  0.44371129  1
  Ni  Ni19  1  0.50000000  0.90611990  0.09388010  1
  Ni  Ni20  1  0.00000000  0.44371129  0.71932683  1
  Ni  Ni21  1  0.00000000  0.55628871  0.28067317  1
