# generated using pymatgen
data_ZnH4SeO6
_symmetry_space_group_name_H-M   'P 1'
_cell_length_a   9.09415954
_cell_length_b   10.53141653
_cell_length_c   10.33076091
_cell_angle_alpha   90.00000000
_cell_angle_beta   90.00000000
_cell_angle_gamma   90.00000000
_symmetry_Int_Tables_number   1
_chemical_formula_structural   ZnH4SeO6
_chemical_formula_sum   'Zn8 H32 Se8 O48'
_cell_volume   989.42224284
_cell_formula_units_Z   8
loop_
 _symmetry_equiv_pos_site_id
 _symmetry_equiv_pos_as_xyz
  1  'x, y, z'
loop_
 _atom_site_type_symbol
 _atom_site_label
 _atom_site_symmetry_multiplicity
 _atom_site_fract_x
 _atom_site_fract_y
 _atom_site_fract_z
 _atom_site_occupancy
  Zn  Zn0  1  0.83569858  0.66889346  0.87204767  1
  Zn  Zn1  1  0.66430142  0.16889346  0.87204767  1
  Zn  Zn2  1  0.16430142  0.16889346  0.62795233  1
  Zn  Zn3  1  0.33569858  0.66889346  0.62795233  1
  Zn  Zn4  1  0.16430142  0.33110654  0.12795233  1
  Zn  Zn5  1  0.66430142  0.33110654  0.37204767  1
  Zn  Zn6  1  0.83569858  0.83110654  0.37204767  1
  Zn  Zn7  1  0.33569858  0.83110654  0.12795233  1
  H  H8  1  0.33107234  0.08750300  0.82453250  1
  H  H9  1  0.85229903  0.51656116  0.43882352  1
  H  H10  1  0.38182571  0.09522538  0.46101418  1
  H  H11  1  0.30812026  0.67391817  0.87040300  1
  H  H12  1  0.66892766  0.91249700  0.17546750  1
  H  H13  1  0.83107234  0.08750300  0.67546750  1
  H  H14  1  0.16892766  0.58750300  0.82453250  1
  H  H15  1  0.35229903  0.51656116  0.06117648  1
  H  H16  1  0.64770097  0.48343884  0.93882352  1
  H  H17  1  0.33107234  0.41249700  0.32453250  1
  H  H18  1  0.80812026  0.82608183  0.12959700  1
  H  H19  1  0.19187974  0.17391817  0.87040300  1
  H  H20  1  0.88182571  0.40477462  0.53898582  1
  H  H21  1  0.83107234  0.41249700  0.17546750  1
  H  H22  1  0.14770097  0.48343884  0.56117648  1
  H  H23  1  0.38182571  0.40477462  0.96101418  1
  H  H24  1  0.30812026  0.82608183  0.37040300  1
  H  H25  1  0.66892766  0.58750300  0.67546750  1
  H  H26  1  0.64770097  0.01656116  0.43882352  1
  H  H27  1  0.80812026  0.67391817  0.62959700  1
  H  H28  1  0.19187974  0.32608183  0.37040300  1
  H  H29  1  0.61817429  0.59522538  0.03898582  1
  H  H30  1  0.69187974  0.32608183  0.12959700  1
  H  H31  1  0.69187974  0.17391817  0.62959700  1
  H  H32  1  0.14770097  0.01656116  0.06117648  1
  H  H33  1  0.16892766  0.91249700  0.32453250  1
  H  H34  1  0.35229903  0.98343884  0.56117648  1
  H  H35  1  0.11817429  0.59522538  0.46101418  1
  H  H36  1  0.85229903  0.98343884  0.93882352  1
  H  H37  1  0.11817429  0.90477462  0.96101418  1
  H  H38  1  0.88182571  0.09522538  0.03898582  1
  H  H39  1  0.61817429  0.90477462  0.53898582  1
  Se  Se40  1  0.96839596  0.13522507  0.34578458  1
  Se  Se41  1  0.46839596  0.13522507  0.15421542  1
  Se  Se42  1  0.03160404  0.86477493  0.65421542  1
  Se  Se43  1  0.53160404  0.63522507  0.34578458  1
  Se  Se44  1  0.03160404  0.63522507  0.15421542  1
  Se  Se45  1  0.46839596  0.36477493  0.65421542  1
  Se  Se46  1  0.53160404  0.86477493  0.84578458  1
  Se  Se47  1  0.96839596  0.36477493  0.84578458  1
  O  O48  1  0.85536316  0.42404918  0.44875302  1
  O  O49  1  0.35536316  0.42404918  0.05124698  1
  O  O50  1  0.50303437  0.81103103  0.69513303  1
  O  O51  1  0.91131144  0.78935890  0.55575920  1
  O  O52  1  0.08868856  0.21064110  0.44424080  1
  O  O53  1  0.99696563  0.31103103  0.69513303  1
  O  O54  1  0.14463684  0.92404918  0.05124698  1
  O  O55  1  0.77373665  0.89145334  0.19200507  1
  O  O56  1  0.49958951  0.47810004  0.35564082  1
  O  O57  1  0.41131144  0.78935890  0.94424080  1
  O  O58  1  0.27373665  0.89145334  0.30799493  1
  O  O59  1  0.85536316  0.07595082  0.94875302  1
  O  O60  1  0.79422229  0.15997255  0.39124949  1
  O  O61  1  0.58868856  0.21064110  0.05575920  1
  O  O62  1  0.41131144  0.71064110  0.44424080  1
  O  O63  1  0.72626335  0.39145334  0.19200507  1
  O  O64  1  0.00303437  0.81103103  0.80486697  1
  O  O65  1  0.29422229  0.34002745  0.60875051  1
  O  O66  1  0.77373665  0.60854666  0.69200507  1
  O  O67  1  0.35536316  0.07595082  0.55124698  1
  O  O68  1  0.20577771  0.84002745  0.60875051  1
  O  O69  1  0.20577771  0.65997255  0.10875051  1
  O  O70  1  0.50041049  0.52189996  0.64435918  1
  O  O71  1  0.29422229  0.15997255  0.10875051  1
  O  O72  1  0.49958951  0.02189996  0.85564082  1
  O  O73  1  0.91131144  0.71064110  0.05575920  1
  O  O74  1  0.49696563  0.18896897  0.30486697  1
  O  O75  1  0.70577771  0.84002745  0.89124949  1
  O  O76  1  0.64463684  0.92404918  0.44875302  1
  O  O77  1  0.22626335  0.39145334  0.30799493  1
  O  O78  1  0.72626335  0.10854666  0.69200507  1
  O  O79  1  0.50303437  0.68896897  0.19513303  1
  O  O80  1  0.00041049  0.52189996  0.85564082  1
  O  O81  1  0.00303437  0.68896897  0.30486697  1
  O  O82  1  0.64463684  0.57595082  0.94875302  1
  O  O83  1  0.50041049  0.97810004  0.14435918  1
  O  O84  1  0.70577771  0.65997255  0.39124949  1
  O  O85  1  0.27373665  0.60854666  0.80799493  1
  O  O86  1  0.08868856  0.28935890  0.94424080  1
  O  O87  1  0.22626335  0.10854666  0.80799493  1
  O  O88  1  0.79422229  0.34002745  0.89124949  1
  O  O89  1  0.49696563  0.31103103  0.80486697  1
  O  O90  1  0.14463684  0.57595082  0.55124698  1
  O  O91  1  0.99958951  0.47810004  0.14435918  1
  O  O92  1  0.99696563  0.18896897  0.19513303  1
  O  O93  1  0.00041049  0.97810004  0.35564082  1
  O  O94  1  0.58868856  0.28935890  0.55575920  1
  O  O95  1  0.99958951  0.02189996  0.64435918  1
