# generated using pymatgen
data_Ba(Cu5P2)2
_symmetry_space_group_name_H-M   'P 1'
_cell_length_a   3.88875517
_cell_length_b   9.54776858
_cell_length_c   11.83688585
_cell_angle_alpha   92.51403590
_cell_angle_beta   99.45449766
_cell_angle_gamma   89.99999822
_symmetry_Int_Tables_number   1
_chemical_formula_structural   Ba(Cu5P2)2
_chemical_formula_sum   'Ba2 Cu20 P8'
_cell_volume   433.09223648
_cell_formula_units_Z   2
loop_
 _symmetry_equiv_pos_site_id
 _symmetry_equiv_pos_as_xyz
  1  'x, y, z'
loop_
 _atom_site_type_symbol
 _atom_site_label
 _atom_site_symmetry_multiplicity
 _atom_site_fract_x
 _atom_site_fract_y
 _atom_site_fract_z
 _atom_site_occupancy
  Ba  Ba0  1  0.14327624  0.78262771  0.28655248  1
  Ba  Ba1  1  0.85672376  0.21737229  0.71344752  1
  Cu  Cu2  1  0.15088898  0.14764648  0.30177796  1
  Cu  Cu3  1  0.95122195  0.92755120  0.90244391  1
  Cu  Cu4  1  0.27663618  0.43167468  0.55327237  1
  Cu  Cu5  1  0.04877805  0.07244880  0.09755609  1
  Cu  Cu6  1  0.28733996  0.69845196  0.57467993  1
  Cu  Cu7  1  0.16661922  0.42761145  0.33323843  1
  Cu  Cu8  1  0.72336382  0.56832532  0.44672763  1
  Cu  Cu9  1  0.58583662  0.27241288  0.17167323  1
  Cu  Cu10  1  0.52600825  0.88210321  0.05201650  1
  Cu  Cu11  1  0.94287795  0.54794698  0.88575590  1
  Cu  Cu12  1  0.71370194  0.03516182  0.42740389  1
  Cu  Cu13  1  0.84911102  0.85235352  0.69822204  1
  Cu  Cu14  1  0.83338078  0.57238855  0.66676157  1
  Cu  Cu15  1  0.71266004  0.30154804  0.42532007  1
  Cu  Cu16  1  0.46652880  0.38172671  0.93305760  1
  Cu  Cu17  1  0.47399175  0.11789679  0.94798350  1
  Cu  Cu18  1  0.41416338  0.72758712  0.82832677  1
  Cu  Cu19  1  0.53347120  0.61827329  0.06694240  1
  Cu  Cu20  1  0.05712205  0.45205302  0.11424410  1
  Cu  Cu21  1  0.28629806  0.96483818  0.57259611  1
  P  P22  1  0.60758067  0.03668993  0.21516134  1
  P  P23  1  0.62230847  0.50182103  0.24461695  1
  P  P24  1  0.75325542  0.80957646  0.50651085  1
  P  P25  1  0.37769153  0.49817897  0.75538305  1
  P  P26  1  0.39241933  0.96331007  0.78483866  1
  P  P27  1  0.99215651  0.26615181  0.98431302  1
  P  P28  1  0.24674458  0.19042354  0.49348915  1
  P  P29  1  0.00784349  0.73384819  0.01568698  1
