# generated using pymatgen
data_BaV6O11
_symmetry_space_group_name_H-M   'P 1'
_cell_length_a   5.95874760
_cell_length_b   5.95874760
_cell_length_c   13.54160717
_cell_angle_alpha   90.00000000
_cell_angle_beta   90.00000000
_cell_angle_gamma   120.33964149
_symmetry_Int_Tables_number   1
_chemical_formula_structural   BaV6O11
_chemical_formula_sum   'Ba2 V12 O22'
_cell_volume   414.96768044
_cell_formula_units_Z   2
loop_
 _symmetry_equiv_pos_site_id
 _symmetry_equiv_pos_as_xyz
  1  'x, y, z'
loop_
 _atom_site_type_symbol
 _atom_site_label
 _atom_site_symmetry_multiplicity
 _atom_site_fract_x
 _atom_site_fract_y
 _atom_site_fract_z
 _atom_site_occupancy
  O  O0  1  0.67274674  0.32725326  0.08688426  1
  O  O1  1  0.32725326  0.67274674  0.58688426  1
  O  O2  1  0.67277779  0.32722221  0.41915031  1
  O  O3  1  0.32722221  0.67277779  0.91915031  1
  O  O4  1  0.85034692  0.70726248  0.25302734  1
  O  O5  1  0.15238166  0.84761834  0.75301065  1
  O  O6  1  0.70726248  0.85034692  0.75302734  1
  O  O7  1  0.29273752  0.14965308  0.25302734  1
  O  O8  1  0.84761834  0.15238166  0.25301065  1
  O  O9  1  0.14965308  0.29273752  0.75302734  1
  O  O10  1  0.83340825  0.65131716  0.58018780  1
  O  O11  1  0.17473951  0.82526049  0.07891614  1
  O  O12  1  0.65131716  0.83340825  0.08018780  1
  O  O13  1  0.34868284  0.16659175  0.58018780  1
  O  O14  1  0.16661313  0.34864587  0.42583615  1
  O  O15  1  0.82523354  0.17476646  0.92713164  1
  O  O16  1  0.34864587  0.16661313  0.92583615  1
  O  O17  1  0.65135413  0.83338687  0.42583615  1
  O  O18  1  0.17476646  0.82523354  0.42713164  1
  O  O19  1  0.83338687  0.65135413  0.92583615  1
  O  O20  1  0.16659175  0.34868284  0.08018780  1
  O  O21  1  0.82526049  0.17473951  0.57891614  1
  V  V22  1  0.66552948  0.33447052  0.25300554  1
  V  V23  1  0.33447052  0.66552948  0.75300554  1
  V  V24  1  0.00369742  -0.00369742  0.64967895  1
  V  V25  1  -0.00369742  0.00369742  0.14967895  1
  V  V26  1  0.00369044  -0.00369044  0.85635105  1
  V  V27  1  -0.00369044  0.00369044  0.35635105  1
  V  V28  1  0.49999009  0.00001097  0.00301388  1
  V  V29  1  0.50001436  0.49998564  0.50301321  1
  V  V30  1  0.00001097  0.49999009  0.50301388  1
  V  V31  1  0.99998903  0.50000991  0.00301388  1
  V  V32  1  0.49998564  0.50001436  0.00301321  1
  V  V33  1  0.50000991  0.99998903  0.50301388  1
  Ba  Ba34  1  0.67011102  0.32988898  0.75302789  1
  Ba  Ba35  1  0.32988898  0.67011102  0.25302789  1
