# generated using pymatgen
data_Mo4O11
_symmetry_space_group_name_H-M   'P 1'
_cell_length_a   5.54208678
_cell_length_b   6.86252925
_cell_length_c   24.96622108
_cell_angle_alpha   90.00000000
_cell_angle_beta   90.00000000
_cell_angle_gamma   90.00000000
_symmetry_Int_Tables_number   1
_chemical_formula_structural   Mo4O11
_chemical_formula_sum   'Mo16 O44'
_cell_volume   949.53361121
_cell_formula_units_Z   4
loop_
 _symmetry_equiv_pos_site_id
 _symmetry_equiv_pos_as_xyz
  1  'x, y, z'
loop_
 _atom_site_type_symbol
 _atom_site_label
 _atom_site_symmetry_multiplicity
 _atom_site_fract_x
 _atom_site_fract_y
 _atom_site_fract_z
 _atom_site_occupancy
  Mo  Mo0  1  0.26334960  0.12862433  0.79476079  1
  Mo  Mo1  1  0.76334960  0.87137567  0.20523921  1
  Mo  Mo2  1  0.26334960  0.37137567  0.29476079  1
  Mo  Mo3  1  0.76334960  0.62862433  0.70523921  1
  Mo  Mo4  1  0.74482242  0.80492739  0.85259294  1
  Mo  Mo5  1  0.24482242  0.19507261  0.14740706  1
  Mo  Mo6  1  0.74482242  0.69507261  0.35259294  1
  Mo  Mo7  1  0.24482242  0.30492739  0.64740706  1
  Mo  Mo8  1  0.24903931  0.48298290  0.91283360  1
  Mo  Mo9  1  0.74903931  0.51701710  0.08716640  1
  Mo  Mo10  1  0.24903931  0.01701710  0.41283360  1
  Mo  Mo11  1  0.74903931  0.98298290  0.58716640  1
  Mo  Mo12  1  0.74868328  0.15894566  0.97086200  1
  Mo  Mo13  1  0.24868328  0.84105434  0.02913800  1
  Mo  Mo14  1  0.74868328  0.34105434  0.47086200  1
  Mo  Mo15  1  0.24868328  0.65894566  0.52913800  1
  O  O16  1  0.98596066  0.99172159  0.00214114  1
  O  O17  1  0.48596066  0.00827841  0.99785886  1
  O  O18  1  0.98596066  0.50827841  0.50214114  1
  O  O19  1  0.48596066  0.49172159  0.49785886  1
  O  O20  1  0.24214534  0.34108761  0.83615812  1
  O  O21  1  0.74214534  0.65891239  0.16384188  1
  O  O22  1  0.24214534  0.15891239  0.33615812  1
  O  O23  1  0.74214534  0.84108761  0.66384188  1
  O  O24  1  0.73705670  0.67725933  0.77604457  1
  O  O25  1  0.23705670  0.32274067  0.22395543  1
  O  O26  1  0.73705670  0.82274067  0.27604457  1
  O  O27  1  0.23705670  0.17725933  0.72395543  1
  O  O28  1  0.01699849  0.31607316  0.93900005  1
  O  O29  1  0.51699849  0.68392684  0.06099995  1
  O  O30  1  0.01699849  0.18392684  0.43900005  1
  O  O31  1  0.51699849  0.81607316  0.56099995  1
  O  O32  1  0.01057585  0.66336917  0.06574244  1
  O  O33  1  0.51057585  0.33663083  0.93425756  1
  O  O34  1  0.01057585  0.83663083  0.56574244  1
  O  O35  1  0.51057585  0.16336917  0.43425756  1
  O  O36  1  0.97158137  0.64036771  0.87726948  1
  O  O37  1  0.47158137  0.35963229  0.12273052  1
  O  O38  1  0.97158137  0.85963229  0.37726948  1
  O  O39  1  0.47158137  0.14036771  0.62273052  1
  O  O40  1  0.97548646  0.32538224  0.12782077  1
  O  O41  1  0.47548646  0.67461776  0.87217923  1
  O  O42  1  0.97548646  0.17461776  0.62782077  1
  O  O43  1  0.47548646  0.82538224  0.37217923  1
  O  O44  1  0.03243623  0.96287287  0.81372286  1
  O  O45  1  0.53243623  0.03712713  0.18627714  1
  O  O46  1  0.03243623  0.53712713  0.31372286  1
  O  O47  1  0.53243623  0.46287287  0.68627714  1
  O  O48  1  0.04884829  0.98372378  0.19277449  1
  O  O49  1  0.54884829  0.01627622  0.80722551  1
  O  O50  1  0.04884829  0.51627622  0.69277449  1
  O  O51  1  0.54884829  0.48372378  0.30722551  1
  O  O52  1  0.24720785  0.65841919  0.96922432  1
  O  O53  1  0.74720785  0.34158081  0.03077568  1
  O  O54  1  0.24720785  0.84158081  0.46922432  1
  O  O55  1  0.74720785  0.15841919  0.53077568  1
  O  O56  1  0.75220814  0.98273097  0.90614637  1
  O  O57  1  0.25220814  0.01726903  0.09385363  1
  O  O58  1  0.75220814  0.51726903  0.40614637  1
  O  O59  1  0.25220814  0.48273097  0.59385363  1
