# generated using pymatgen
data_Sb2Mo10O31
_symmetry_space_group_name_H-M   'P 1'
_cell_length_a   7.40808002
_cell_length_b   8.19436415
_cell_length_c   20.43066705
_cell_angle_alpha   89.99921398
_cell_angle_beta   90.00000000
_cell_angle_gamma   90.00000000
_symmetry_Int_Tables_number   1
_chemical_formula_structural   Sb2Mo10O31
_chemical_formula_sum   'Sb4 Mo20 O62'
_cell_volume   1240.23353690
_cell_formula_units_Z   2
loop_
 _symmetry_equiv_pos_site_id
 _symmetry_equiv_pos_as_xyz
  1  'x, y, z'
loop_
 _atom_site_type_symbol
 _atom_site_label
 _atom_site_symmetry_multiplicity
 _atom_site_fract_x
 _atom_site_fract_y
 _atom_site_fract_z
 _atom_site_occupancy
  Sb  Sb0  1  0.67928849  0.72837288  0.74996762  1
  Sb  Sb1  1  0.67231809  0.26003122  0.75003375  1
  Sb  Sb2  1  0.67231809  0.73996878  0.24996625  1
  Sb  Sb3  1  0.67928849  0.27162712  0.25003238  1
  Mo  Mo4  1  0.99553156  0.20603870  0.58933860  1
  Mo  Mo5  1  0.00386025  0.70610656  0.58964449  1
  Mo  Mo6  1  0.49808326  0.71077362  0.08859405  1
  Mo  Mo7  1  0.22363733  0.29366144  0.75000845  1
  Mo  Mo8  1  0.00390511  0.70611102  0.91033913  1
  Mo  Mo9  1  0.99548265  0.20604063  0.91068386  1
  Mo  Mo10  1  0.00386025  0.29389344  0.41035551  1
  Mo  Mo11  1  0.00390511  0.29388898  0.08966087  1
  Mo  Mo12  1  0.23192672  0.79368368  0.75000306  1
  Mo  Mo13  1  0.50624054  0.78873519  0.91024920  1
  Mo  Mo14  1  0.50621838  0.21128745  0.41024880  1
  Mo  Mo15  1  0.49808199  0.28923653  0.58858402  1
  Mo  Mo16  1  0.99553156  0.79396130  0.41066140  1
  Mo  Mo17  1  0.49808199  0.71076347  0.41141598  1
  Mo  Mo18  1  0.23192672  0.20631632  0.24999694  1
  Mo  Mo19  1  0.50624054  0.21126481  0.08975080  1
  Mo  Mo20  1  0.99548265  0.79395937  0.08931614  1
  Mo  Mo21  1  0.49808326  0.28922638  0.91140595  1
  Mo  Mo22  1  0.50621838  0.78871255  0.58975120  1
  Mo  Mo23  1  0.22363733  0.70633856  0.24999155  1
  O  O24  1  0.73945863  0.26244346  0.62067706  1
  O  O25  1  0.93229839  0.74199559  0.00015701  1
  O  O26  1  0.45158694  0.74533348  0.81126949  1
  O  O27  1  0.07063887  0.23772462  0.31612839  1
  O  O28  1  0.74248593  0.72781096  0.87949441  1
  O  O29  1  0.73940918  0.73753861  0.12070920  1
  O  O30  1  0.25844251  0.23011754  0.57374302  1
  O  O31  1  0.97375276  0.99420875  0.59195970  1
  O  O32  1  0.22848811  0.50702392  0.75000188  1
  O  O33  1  0.25710112  0.99381102  0.25000148  1
  O  O34  1  0.01949576  0.50540749  0.40669901  1
  O  O35  1  0.97375276  0.00579125  0.40804030  1
  O  O36  1  0.52240969  0.99984524  0.40461112  1
  O  O37  1  0.97375938  0.99424692  0.90804448  1
  O  O38  1  0.97375938  0.00575308  0.09195552  1
  O  O39  1  0.25990550  0.23117907  0.07371065  1
  O  O40  1  0.44651628  0.73460758  0.18855461  1
  O  O41  1  0.74245017  0.72783284  0.62053981  1
  O  O42  1  0.71557612  0.50589269  0.24999918  1
  O  O43  1  0.45155775  0.74533841  0.68870613  1
  O  O44  1  0.01950064  0.50544797  0.09330792  1
  O  O45  1  0.25988910  0.23114876  0.42628117  1
  O  O46  1  0.73940918  0.26246139  0.87929080  1
  O  O47  1  0.07067550  0.76227125  0.81613726  1
  O  O48  1  0.06644506  0.75230064  0.31588933  1
  O  O49  1  0.52240969  0.00015476  0.59538888  1
  O  O50  1  0.25990550  0.76882093  0.92628935  1
  O  O51  1  0.47940061  0.49936975  0.08622795  1
  O  O52  1  0.25844251  0.76988246  0.42625698  1
  O  O53  1  0.22848811  0.49297608  0.24999812  1
  O  O54  1  0.93229839  0.25800441  0.99984299  1
  O  O55  1  0.45155775  0.25466159  0.31129387  1
  O  O56  1  0.44654298  0.26538214  0.68858430  1
  O  O57  1  0.44654298  0.73461786  0.31141570  1
  O  O58  1  0.93229457  0.74201999  0.49984564  1
  O  O59  1  0.01949576  0.49459251  0.59330099  1
  O  O60  1  0.56605469  0.24477506  0.50002943  1
  O  O61  1  0.47940061  0.50063025  0.91377205  1
  O  O62  1  0.06644506  0.24769936  0.68411067  1
  O  O63  1  0.47940418  0.49936999  0.41377020  1
  O  O64  1  0.01950064  0.49455203  0.90669208  1
  O  O65  1  0.06641148  0.75230623  0.18411684  1
  O  O66  1  0.25988910  0.76885124  0.57371883  1
  O  O67  1  0.07063887  0.76227538  0.68387161  1
  O  O68  1  0.74245017  0.27216716  0.37946019  1
  O  O69  1  0.25841714  0.76985257  0.07374291  1
  O  O70  1  0.52239743  0.99984504  0.09538454  1
  O  O71  1  0.25710112  0.00618898  0.74999852  1
  O  O72  1  0.71557612  0.49410731  0.75000082  1
  O  O73  1  0.06641148  0.24769377  0.81588316  1
  O  O74  1  0.47940418  0.50063001  0.58622980  1
  O  O75  1  0.56605917  0.24484428  0.99995313  1
  O  O76  1  0.44651628  0.26539242  0.81144539  1
  O  O77  1  0.56605917  0.75515572  0.00004687  1
  O  O78  1  0.73945863  0.73755654  0.37932294  1
  O  O79  1  0.93229457  0.25798001  0.50015436  1
  O  O80  1  0.25841714  0.23014743  0.92625709  1
  O  O81  1  0.74248593  0.27218904  0.12050559  1
  O  O82  1  0.56605469  0.75522494  0.49997057  1
  O  O83  1  0.45158694  0.25466652  0.18873051  1
  O  O84  1  0.07067550  0.23772875  0.18386274  1
  O  O85  1  0.52239743  0.00015496  0.90461546  1
