# generated using pymatgen
data_InAg(WO4)2
_symmetry_space_group_name_H-M   'P 1'
_cell_length_a   5.16928169
_cell_length_b   5.94101822
_cell_length_c   10.41253098
_cell_angle_alpha   90.00000000
_cell_angle_beta   90.99413138
_cell_angle_gamma   90.00000000
_symmetry_Int_Tables_number   1
_chemical_formula_structural   InAg(WO4)2
_chemical_formula_sum   'In2 Ag2 W4 O16'
_cell_volume   319.72898887
_cell_formula_units_Z   2
loop_
 _symmetry_equiv_pos_site_id
 _symmetry_equiv_pos_as_xyz
  1  'x, y, z'
loop_
 _atom_site_type_symbol
 _atom_site_label
 _atom_site_symmetry_multiplicity
 _atom_site_fract_x
 _atom_site_fract_y
 _atom_site_fract_z
 _atom_site_occupancy
  In  In0  1  0.75000000  0.32025849  0.50000000  1
  In  In1  1  0.25000000  0.67974151  0.50000000  1
  Ag  Ag2  1  0.75000000  0.32163812  0.00000000  1
  Ag  Ag3  1  0.25000000  0.67836188  0.00000000  1
  W  W4  1  0.25687917  0.17007204  0.26113153  1
  W  W5  1  0.24312083  0.17007204  0.73886847  1
  W  W6  1  0.74312083  0.82992796  0.73886847  1
  W  W7  1  0.75687917  0.82992796  0.26113153  1
  O  O8  1  0.05081997  0.89489049  0.63046049  1
  O  O9  1  0.12777736  0.36407408  0.14747508  1
  O  O10  1  0.94918003  0.10510951  0.36953951  1
  O  O11  1  0.92959651  0.09687698  0.82706197  1
  O  O12  1  0.60115527  0.62545784  0.61394649  1
  O  O13  1  0.07040349  0.90312302  0.17293803  1
  O  O14  1  0.57040349  0.09687698  0.17293803  1
  O  O15  1  0.42959651  0.90312302  0.82706197  1
  O  O16  1  0.44918003  0.89489049  0.36953951  1
  O  O17  1  0.55081997  0.10510951  0.63046049  1
  O  O18  1  0.62777736  0.63592592  0.14747508  1
  O  O19  1  0.10115527  0.37454216  0.61394649  1
  O  O20  1  0.39884473  0.37454216  0.38605351  1
  O  O21  1  0.89884473  0.62545784  0.38605351  1
  O  O22  1  0.87222264  0.63592592  0.85252492  1
  O  O23  1  0.37222264  0.36407408  0.85252492  1
