# generated using pymatgen
data_H9BrO4
_symmetry_space_group_name_H-M   'P 1'
_cell_length_a   7.17138006
_cell_length_b   11.56621472
_cell_length_c   7.53598798
_cell_angle_alpha   88.41960695
_cell_angle_beta   110.20015529
_cell_angle_gamma   86.62050342
_symmetry_Int_Tables_number   1
_chemical_formula_structural   H9BrO4
_chemical_formula_sum   'H36 Br4 O16'
_cell_volume   584.84352714
_cell_formula_units_Z   4
loop_
 _symmetry_equiv_pos_site_id
 _symmetry_equiv_pos_as_xyz
  1  'x, y, z'
loop_
 _atom_site_type_symbol
 _atom_site_label
 _atom_site_symmetry_multiplicity
 _atom_site_fract_x
 _atom_site_fract_y
 _atom_site_fract_z
 _atom_site_occupancy
  H  H0  1  0.33376299  0.17215616  0.95828210  1
  H  H1  1  0.35450448  0.30801387  0.99255761  1
  H  H2  1  0.66830303  0.85423155  0.02354983  1
  H  H3  1  0.83665257  0.76541009  0.01226904  1
  H  H4  1  0.97328620  0.17917503  0.14464839  1
  H  H5  1  0.79639712  0.25066712  0.93312274  1
  H  H6  1  0.06400412  0.25592467  0.02192992  1
  H  H7  1  0.99731439  0.68769041  0.84527536  1
  H  H8  1  0.13485929  0.76291983  0.00121972  1
  H  H9  1  0.59691649  0.16431425  0.81337476  1
  H  H10  1  0.65950655  0.25296642  0.67921628  1
  H  H11  1  0.46542905  0.79228420  0.17738419  1
  H  H12  1  0.43362550  0.65963616  0.18447795  1
  H  H13  1  0.63072665  0.32273749  0.37288843  1
  H  H14  1  0.82859928  0.24551735  0.48963359  1
  H  H15  1  0.14534271  0.74330308  0.48537146  1
  H  H16  1  0.33471932  0.74188098  0.39630418  1
  H  H17  1  0.36616142  0.66095659  0.59240209  1
  H  H18  1  0.12399725  0.16020224  0.54088420  1
  H  H19  1  0.13515936  0.24442944  0.70775013  1
  H  H20  1  0.85351078  0.75502599  0.29199055  1
  H  H21  1  0.90261063  0.66550645  0.48043915  1
  H  H22  1  0.33365260  0.44417811  0.54145224  1
  H  H23  1  0.18457429  0.33141002  0.49340005  1
  H  H24  1  0.65807689  0.89387086  0.64378715  1
  H  H25  1  0.79900879  0.84188086  0.52483007  1
  H  H26  1  0.61094516  0.53123358  0.69259133  1
  H  H27  1  0.47596831  0.52499570  0.82065991  1
  H  H28  1  0.57133070  0.13981260  0.36722967  1
  H  H29  1  0.60291782  0.99318054  0.41009054  1
  H  H30  1  0.37025722  0.05747014  0.31033146  1
  H  H31  1  0.86905470  0.50805472  0.16971740  1
  H  H32  1  0.01224348  0.51156200  0.05195045  1
  H  H33  1  0.14574978  0.44607867  0.32473660  1
  H  H34  1  0.00154528  0.02712172  0.93604409  1
  H  H35  1  0.92086123  0.00001125  0.72473278  1
  Br  Br36  1  0.92473508  0.51345579  0.71015833  1
  Br  Br37  1  0.08604625  0.01806977  0.29460963  1
  Br  Br38  1  0.53627036  0.47701295  0.13355069  1
  Br  Br39  1  0.47380669  0.00491380  0.83778202  1
  O  O40  1  0.25850830  0.24799675  0.95091436  1
  O  O41  1  0.73530285  0.77684040  0.07697117  1
  O  O42  1  0.94782632  0.25560088  0.06844614  1
  O  O43  1  0.00149582  0.76373699  0.90257758  1
  O  O44  1  0.63786207  0.24631677  0.80342106  1
  O  O45  1  0.37911405  0.73739550  0.20521843  1
  O  O46  1  0.68012019  0.25109249  0.45558606  1
  O  O47  1  0.30248152  0.73782508  0.51871764  1
  O  O48  1  0.08607394  0.23993840  0.56638332  1
  O  O49  1  0.92812681  0.74270850  0.43678048  1
  O  O50  1  0.25331347  0.39364670  0.43921435  1
  O  O51  1  0.71414328  0.90885693  0.54453441  1
  O  O52  1  0.46815995  0.53879577  0.68674649  1
  O  O53  1  0.51437170  0.06322066  0.31600240  1
  O  O54  1  0.00853236  0.52011416  0.18114147  1
  O  O55  1  0.96905556  0.06299156  0.80880656  1
