# generated using pymatgen
data_Tb(HO)3
_symmetry_space_group_name_H-M   'P 1'
_cell_length_a   6.33259458
_cell_length_b   6.52480570
_cell_length_c   3.51565815
_cell_angle_alpha   90.00000000
_cell_angle_beta   90.00000000
_cell_angle_gamma   119.90332076
_symmetry_Int_Tables_number   1
_chemical_formula_structural   Tb(HO)3
_chemical_formula_sum   'Tb2 H6 O6'
_cell_volume   125.92408596
_cell_formula_units_Z   2
loop_
 _symmetry_equiv_pos_site_id
 _symmetry_equiv_pos_as_xyz
  1  'x, y, z'
loop_
 _atom_site_type_symbol
 _atom_site_label
 _atom_site_symmetry_multiplicity
 _atom_site_fract_x
 _atom_site_fract_y
 _atom_site_fract_z
 _atom_site_occupancy
  Tb  Tb0  1  0.33291673  0.67410759  0.25000000  1
  Tb  Tb1  1  0.66708327  0.32589241  0.75000000  1
  H  H2  1  0.83983697  0.69761909  0.25000000  1
  H  H3  1  0.86769696  0.13674989  0.25000000  1
  H  H4  1  0.27060391  0.14130680  0.25000000  1
  H  H5  1  0.16016303  0.30238091  0.75000000  1
  H  H6  1  0.13230304  0.86325011  0.75000000  1
  H  H7  1  0.72939609  0.85869320  0.75000000  1
  O  O8  1  0.90886312  0.59344275  0.25000000  1
  O  O9  1  0.69392196  0.08510684  0.25000000  1
  O  O10  1  0.39533321  0.30725933  0.25000000  1
  O  O11  1  0.09113688  0.40655725  0.75000000  1
  O  O12  1  0.30607804  0.91489316  0.75000000  1
  O  O13  1  0.60466679  0.69274067  0.75000000  1
