# generated using pymatgen
data_H9BrO4
_symmetry_space_group_name_H-M   'P 1'
_cell_length_a   7.09684287
_cell_length_b   11.65268633
_cell_length_c   7.19948266
_cell_angle_alpha   90.00000000
_cell_angle_beta   108.28310500
_cell_angle_gamma   90.00000000
_symmetry_Int_Tables_number   1
_chemical_formula_structural   H9BrO4
_chemical_formula_sum   'H36 Br4 O16'
_cell_volume   565.32182085
_cell_formula_units_Z   4
loop_
 _symmetry_equiv_pos_site_id
 _symmetry_equiv_pos_as_xyz
  1  'x, y, z'
loop_
 _atom_site_type_symbol
 _atom_site_label
 _atom_site_symmetry_multiplicity
 _atom_site_fract_x
 _atom_site_fract_y
 _atom_site_fract_z
 _atom_site_occupancy
  H  H0  1  0.22048423  0.25146830  0.82635758  1
  H  H1  1  0.35110574  0.32924831  0.00278555  1
  H  H2  1  0.64889426  0.82924831  0.99721445  1
  H  H3  1  0.77951577  0.75146830  0.17364242  1
  H  H4  1  0.97801453  0.18370964  0.15583245  1
  H  H5  1  0.83038105  0.25976800  0.96914584  1
  H  H6  1  0.09355543  0.26564386  0.03512852  1
  H  H7  1  0.02198547  0.68370964  0.84416755  1
  H  H8  1  0.90644457  0.76564386  0.96487148  1
  H  H9  1  0.16961895  0.75976800  0.03085416  1
  H  H10  1  0.67077889  0.25731346  0.68480713  1
  H  H11  1  0.58375559  0.17721286  0.81821656  1
  H  H12  1  0.32922111  0.75731346  0.31519287  1
  H  H13  1  0.41624441  0.67721286  0.18178344  1
  H  H14  1  0.68789044  0.32164609  0.38574554  1
  H  H15  1  0.64187805  0.18517538  0.39094500  1
  H  H16  1  0.31210956  0.82164609  0.61425446  1
  H  H17  1  0.35812195  0.68517538  0.60905500  1
  H  H18  1  0.14047745  0.15529096  0.51836122  1
  H  H19  1  0.96914962  0.23729888  0.53517789  1
  H  H20  1  0.85952255  0.65529096  0.48163878  1
  H  H21  1  0.03085038  0.73729888  0.46482211  1
  H  H22  1  0.36717489  0.38934386  0.38081949  1
  H  H23  1  0.20637536  0.33555890  0.47991102  1
  H  H24  1  0.63282511  0.88934386  0.61918051  1
  H  H25  1  0.79362464  0.83555890  0.52008898  1
  H  H26  1  0.53526194  0.55933295  0.83176853  1
  H  H27  1  0.40102494  0.50680889  0.63372857  1
  H  H28  1  0.46473806  0.05933295  0.16823147  1
  H  H29  1  0.59897506  0.00680889  0.36627143  1
  H  H30  1  0.86934476  0.50900068  0.18502469  1
  H  H31  1  0.01068815  0.51410420  0.04258893  1
  H  H32  1  0.11465147  0.46981046  0.28850294  1
  H  H33  1  0.13065524  0.00900068  0.81497531  1
  H  H34  1  0.98931185  0.01410420  0.95741107  1
  H  H35  1  0.88534853  0.96981046  0.71149706  1
  Br  Br36  1  0.99428220  0.51011616  0.74978181  1
  Br  Br37  1  0.00571780  0.01011616  0.25021819  1
  Br  Br38  1  0.56448187  0.48183420  0.17899498  1
  Br  Br39  1  0.43551813  0.98183420  0.82100502  1
  O  O40  1  0.26490606  0.26078839  0.97156545  1
  O  O41  1  0.73509394  0.76078839  0.02843455  1
  O  O42  1  0.96798485  0.26111617  0.08826487  1
  O  O43  1  0.03201515  0.76111617  0.91173513  1
  O  O44  1  0.64690101  0.25225001  0.81507326  1
  O  O45  1  0.35309899  0.75225001  0.18492674  1
  O  O46  1  0.72067332  0.25259627  0.46929808  1
  O  O47  1  0.27932668  0.75259627  0.53070192  1
  O  O48  1  0.11839290  0.22987871  0.57303163  1
  O  O49  1  0.88160710  0.72987871  0.42696837  1
  O  O50  1  0.25750003  0.40787855  0.43142019  1
  O  O51  1  0.74249997  0.90787855  0.56857981  1
  O  O52  1  0.48407760  0.57369460  0.69138076  1
  O  O53  1  0.51592240  0.07369460  0.30861924  1
  O  O54  1  0.00910748  0.52534326  0.18421389  1
  O  O55  1  0.99089252  0.02534326  0.81578611  1
