# generated using pymatgen
data_NaNb3O8
_symmetry_space_group_name_H-M   'P 1'
_cell_length_a   3.82816536
_cell_length_b   8.93745825
_cell_length_c   10.32927448
_cell_angle_alpha   90.00000000
_cell_angle_beta   90.00000000
_cell_angle_gamma   90.00000000
_symmetry_Int_Tables_number   1
_chemical_formula_structural   NaNb3O8
_chemical_formula_sum   'Na2 Nb6 O16'
_cell_volume   353.40650027
_cell_formula_units_Z   2
loop_
 _symmetry_equiv_pos_site_id
 _symmetry_equiv_pos_as_xyz
  1  'x, y, z'
loop_
 _atom_site_type_symbol
 _atom_site_label
 _atom_site_symmetry_multiplicity
 _atom_site_fract_x
 _atom_site_fract_y
 _atom_site_fract_z
 _atom_site_occupancy
  Na  Na0  1  0.75000000  0.25000000  0.92617179  1
  Na  Na1  1  0.25000000  0.75000000  0.07382821  1
  Nb  Nb2  1  0.25000000  0.25000000  0.48362976  1
  Nb  Nb3  1  0.75000000  0.75000000  0.51637024  1
  Nb  Nb4  1  0.75000000  0.05734354  0.24571868  1
  Nb  Nb5  1  0.25000000  0.55734354  0.75428132  1
  Nb  Nb6  1  0.25000000  0.94265646  0.75428132  1
  Nb  Nb7  1  0.75000000  0.44265646  0.24571868  1
  O  O8  1  0.75000000  0.92140545  0.12004259  1
  O  O9  1  0.25000000  0.40714822  0.59747574  1
  O  O10  1  0.75000000  0.58995041  0.70051624  1
  O  O11  1  0.25000000  0.09285178  0.59747574  1
  O  O12  1  0.25000000  0.75000000  0.57623823  1
  O  O13  1  0.25000000  0.75000000  0.84977342  1
  O  O14  1  0.75000000  0.90714822  0.40252426  1
  O  O15  1  0.75000000  0.57859455  0.12004259  1
  O  O16  1  0.75000000  0.59285178  0.40252426  1
  O  O17  1  0.75000000  0.25000000  0.15022658  1
  O  O18  1  0.75000000  0.25000000  0.42376177  1
  O  O19  1  0.25000000  0.42140545  0.87995741  1
  O  O20  1  0.75000000  0.91004959  0.70051624  1
  O  O21  1  0.25000000  0.08995041  0.29948376  1
  O  O22  1  0.25000000  0.07859455  0.87995741  1
  O  O23  1  0.25000000  0.41004959  0.29948376  1
