# generated using pymatgen
data_K2Ba3Sb4
_symmetry_space_group_name_H-M   'P 1'
_cell_length_a   9.46589466
_cell_length_b   11.32349967
_cell_length_c   29.58191800
_cell_angle_alpha   88.58790881
_cell_angle_beta   89.82245531
_cell_angle_gamma   96.94231252
_symmetry_Int_Tables_number   1
_chemical_formula_structural   K2Ba3Sb4
_chemical_formula_sum   'K16 Ba24 Sb32'
_cell_volume   3146.53661164
_cell_formula_units_Z   8
loop_
 _symmetry_equiv_pos_site_id
 _symmetry_equiv_pos_as_xyz
  1  'x, y, z'
loop_
 _atom_site_type_symbol
 _atom_site_label
 _atom_site_symmetry_multiplicity
 _atom_site_fract_x
 _atom_site_fract_y
 _atom_site_fract_z
 _atom_site_occupancy
  Ba  Ba0  1  0.03833527  0.90460665  0.20029777  1
  Ba  Ba1  1  0.98877242  0.88866390  0.56130753  1
  Ba  Ba2  1  0.17140020  0.32128728  0.69152126  1
  Ba  Ba3  1  0.33891306  0.80362837  0.29565103  1
  Ba  Ba4  1  0.32890249  0.79998486  0.45678369  1
  Ba  Ba5  1  0.33062583  0.82773343  0.80039674  1
  Ba  Ba6  1  0.29441257  0.78589799  0.94810177  1
  Ba  Ba7  1  0.50527855  0.39482546  0.30714030  1
  Ba  Ba8  1  0.50610235  0.38603683  0.44222051  1
  Ba  Ba9  1  0.52904421  0.32872013  0.92622374  1
  Ba  Ba10  1  0.46195037  0.63435176  0.06177863  1
  Ba  Ba11  1  0.49140018  0.63220671  0.68682373  1
  Ba  Ba12  1  0.70791305  0.21302948  0.05064710  1
  Ba  Ba13  1  0.65407926  0.19204705  0.20733330  1
  Ba  Ba14  1  0.64969898  0.17138516  0.54587888  1
  Ba  Ba15  1  0.66080463  0.18944494  0.70615164  1
  Ba  Ba16  1  0.82908890  0.67641877  0.30314316  1
  Ba  Ba17  1  0.81179324  0.66158828  0.80292626  1
  Ba  Ba18  1  0.80047257  0.67027725  0.95367930  1
  Ba  Ba19  1  0.82784261  0.67588614  0.44711830  1
  Ba  Ba20  1  0.97905229  0.07658404  0.79944460  1
  Ba  Ba21  1  0.97219296  0.09233843  0.30695296  1
  Ba  Ba22  1  0.96292161  0.07781204  0.44068699  1
  Ba  Ba23  1  0.06288158  0.09961364  0.93527140  1
  K  K24  1  0.97095388  0.89432561  0.05980181  1
  K  K25  1  0.01540900  0.88563623  0.69632264  1
  K  K26  1  0.12359248  0.49133542  0.37482687  1
  K  K27  1  0.14675621  0.47440981  0.86373477  1
  K  K28  1  0.19136081  0.31546544  0.05463127  1
  K  K29  1  0.19589564  0.32511630  0.20008686  1
  K  K30  1  0.17108017  0.31580245  0.54323682  1
  K  K31  1  0.36539006  0.03333491  0.10977713  1
  K  K32  1  0.34572075  0.03192732  0.64074622  1
  K  K33  1  0.51051984  0.37151826  0.80143536  1
  K  K34  1  0.50980458  0.64703255  0.18858286  1
  K  K35  1  0.50592118  0.64102740  0.55931047  1
  K  K36  1  0.56233086  0.00066218  0.38017200  1
  K  K37  1  0.64866532  0.95961859  0.88528943  1
  K  K38  1  0.88105514  0.50524292  0.13627818  1
  K  K39  1  0.87108826  0.49439542  0.62267092  1
  Sb  Sb40  1  0.06202513  0.83382911  0.37235529  1
  Sb  Sb41  1  0.01208064  0.83153132  0.87650569  1
  Sb  Sb42  1  0.13352583  0.61849889  0.21685268  1
  Sb  Sb43  1  0.11986611  0.61832916  0.53951725  1
  Sb  Sb44  1  0.12746860  0.61208139  0.71519178  1
  Sb  Sb45  1  0.09682495  0.61558415  0.04157287  1
  Sb  Sb46  1  0.26231408  0.20477299  0.37499442  1
  Sb  Sb47  1  0.34170551  0.11041928  0.85575664  1
  Sb  Sb48  1  0.20716048  0.73454647  0.12685248  1
  Sb  Sb49  1  0.22243916  0.73003633  0.62464264  1
  Sb  Sb50  1  0.39007559  0.07141481  0.99254612  1
  Sb  Sb51  1  0.33673776  0.11608720  0.28415646  1
  Sb  Sb52  1  0.32426939  0.11051276  0.46691109  1
  Sb  Sb53  1  0.31315947  0.11641820  0.75645181  1
  Sb  Sb54  1  0.51597417  0.37758197  0.12433451  1
  Sb  Sb55  1  0.49634727  0.36340770  0.62505058  1
  Sb  Sb56  1  0.51158217  0.64352979  0.37538625  1
  Sb  Sb57  1  0.50308690  0.62263023  0.87790865  1
  Sb  Sb58  1  0.69648451  0.90016542  0.24252177  1
  Sb  Sb59  1  0.68276427  0.89452867  0.50107984  1
  Sb  Sb60  1  0.67746594  0.88718015  0.73936523  1
  Sb  Sb61  1  0.61908206  0.91912426  0.00677111  1
  Sb  Sb62  1  0.76506172  0.26987520  0.37408499  1
  Sb  Sb63  1  0.81867945  0.25846855  0.86998562  1
  Sb  Sb64  1  0.71091982  0.94443794  0.14265135  1
  Sb  Sb65  1  0.69829735  0.93592109  0.63730212  1
  Sb  Sb66  1  0.90973613  0.37419327  0.95568184  1
  Sb  Sb67  1  0.87538484  0.37996667  0.28775393  1
  Sb  Sb68  1  0.86768697  0.36741433  0.46106527  1
  Sb  Sb69  1  0.89516794  0.37711814  0.78026066  1
  Sb  Sb70  1  0.95136453  0.13717528  0.13347011  1
  Sb  Sb71  1  0.93583786  0.13199988  0.62663476  1
