# generated using pymatgen
data_SiO2
_symmetry_space_group_name_H-M   'P 1'
_cell_length_a   8.99493869
_cell_length_b   9.28613370
_cell_length_c   16.22765095
_cell_angle_alpha   90.00000000
_cell_angle_beta   90.00000000
_cell_angle_gamma   90.00000000
_symmetry_Int_Tables_number   1
_chemical_formula_structural   SiO2
_chemical_formula_sum   'Si24 O48'
_cell_volume   1355.46652761
_cell_formula_units_Z   24
loop_
 _symmetry_equiv_pos_site_id
 _symmetry_equiv_pos_as_xyz
  1  'x, y, z'
loop_
 _atom_site_type_symbol
 _atom_site_label
 _atom_site_symmetry_multiplicity
 _atom_site_fract_x
 _atom_site_fract_y
 _atom_site_fract_z
 _atom_site_occupancy
  Si  Si0  1  0.15468271  0.86024251  0.38919279  1
  Si  Si1  1  0.84531729  0.13975749  0.88919279  1
  Si  Si2  1  0.34531729  0.86024251  0.88919279  1
  Si  Si3  1  0.65468271  0.13975749  0.38919279  1
  Si  Si4  1  0.04521144  0.64372187  0.07240967  1
  Si  Si5  1  0.95478856  0.35627813  0.57240967  1
  Si  Si6  1  0.45478856  0.64372187  0.57240967  1
  Si  Si7  1  0.54521144  0.35627813  0.07240967  1
  Si  Si8  1  0.19929937  0.41741470  0.34207764  1
  Si  Si9  1  0.80070063  0.58258530  0.84207764  1
  Si  Si10  1  0.30070063  0.41741470  0.84207764  1
  Si  Si11  1  0.69929937  0.58258530  0.34207764  1
  Si  Si12  1  0.98446066  0.33295828  0.76226914  1
  Si  Si13  1  0.01553934  0.66704172  0.26226914  1
  Si  Si14  1  0.51553934  0.33295828  0.26226914  1
  Si  Si15  1  0.48446066  0.66704172  0.76226914  1
  Si  Si16  1  0.14984277  0.59844281  0.50160496  1
  Si  Si17  1  0.85015723  0.40155719  0.00160496  1
  Si  Si18  1  0.35015723  0.59844281  0.00160496  1
  Si  Si19  1  0.64984277  0.40155719  0.50160496  1
  Si  Si20  1  0.00717797  0.17014631  0.41445486  1
  Si  Si21  1  0.99282203  0.82985369  0.91445486  1
  Si  Si22  1  0.49282203  0.17014631  0.91445486  1
  Si  Si23  1  0.50717797  0.82985369  0.41445486  1
  O  O24  1  0.33550095  0.85614649  0.38711493  1
  O  O25  1  0.66449905  0.14385351  0.88711493  1
  O  O26  1  0.16449905  0.85614649  0.88711493  1
  O  O27  1  0.83550095  0.14385351  0.38711493  1
  O  O28  1  0.09134896  0.74579486  0.45776651  1
  O  O29  1  0.90865104  0.25420514  0.95776651  1
  O  O30  1  0.40865104  0.74579486  0.95776651  1
  O  O31  1  0.59134896  0.25420514  0.45776651  1
  O  O32  1  0.08994704  0.81422125  0.29885868  1
  O  O33  1  0.91005296  0.18577875  0.79885868  1
  O  O34  1  0.41005296  0.81422125  0.79885868  1
  O  O35  1  0.58994704  0.18577875  0.29885868  1
  O  O36  1  0.09791925  0.01978835  0.41291108  1
  O  O37  1  0.90208075  0.98021165  0.91291108  1
  O  O38  1  0.40208075  0.01978835  0.91291108  1
  O  O39  1  0.59791925  0.98021165  0.41291108  1
  O  O40  1  0.14193598  0.36207521  0.80838024  1
  O  O41  1  0.85806402  0.63792479  0.30838024  1
  O  O42  1  0.35806402  0.36207521  0.30838024  1
  O  O43  1  0.64193598  0.63792479  0.80838024  1
  O  O44  1  0.87071113  0.46704552  0.77774515  1
  O  O45  1  0.12928887  0.53295448  0.27774515  1
  O  O46  1  0.62928887  0.46704552  0.27774515  1
  O  O47  1  0.37071113  0.53295448  0.77774515  1
  O  O48  1  0.01214374  0.31428663  0.66397241  1
  O  O49  1  0.98785626  0.68571337  0.16397241  1
  O  O50  1  0.48785626  0.31428663  0.16397241  1
  O  O51  1  0.51214374  0.68571337  0.66397241  1
  O  O52  1  0.98490484  0.76364459  0.00741606  1
  O  O53  1  0.01509516  0.23635541  0.50741606  1
  O  O54  1  0.51509516  0.76364459  0.50741606  1
  O  O55  1  0.48490484  0.23635541  0.00741606  1
  O  O56  1  0.22630280  0.64022148  0.07069576  1
  O  O57  1  0.77369720  0.35977852  0.57069576  1
  O  O58  1  0.27369720  0.64022148  0.57069576  1
  O  O59  1  0.72630280  0.35977852  0.07069576  1
  O  O60  1  0.98650792  0.48335494  0.04671189  1
  O  O61  1  0.01349208  0.51664506  0.54671189  1
  O  O62  1  0.51349208  0.48335494  0.54671189  1
  O  O63  1  0.48650792  0.51664506  0.04671189  1
  O  O64  1  0.08497548  0.28256274  0.35053501  1
  O  O65  1  0.91502452  0.71743726  0.85053501  1
  O  O66  1  0.41502452  0.28256274  0.85053501  1
  O  O67  1  0.58497548  0.71743726  0.35053501  1
  O  O68  1  0.22432670  0.49321363  0.43198324  1
  O  O69  1  0.77567330  0.50678637  0.93198324  1
  O  O70  1  0.27567330  0.49321363  0.93198324  1
  O  O71  1  0.72432670  0.50678637  0.43198324  1
