# generated using pymatgen
data_ReH3O5
_symmetry_space_group_name_H-M   'P 1'
_cell_length_a   8.22099468
_cell_length_b   7.76407095
_cell_length_c   7.86387508
_cell_angle_alpha   138.18559546
_cell_angle_beta   139.28912423
_cell_angle_gamma   59.29299529
_symmetry_Int_Tables_number   1
_chemical_formula_structural   ReH3O5
_chemical_formula_sum   'Re2 H6 O10'
_cell_volume   216.56585885
_cell_formula_units_Z   2
loop_
 _symmetry_equiv_pos_site_id
 _symmetry_equiv_pos_as_xyz
  1  'x, y, z'
loop_
 _atom_site_type_symbol
 _atom_site_label
 _atom_site_symmetry_multiplicity
 _atom_site_fract_x
 _atom_site_fract_y
 _atom_site_fract_z
 _atom_site_occupancy
  Re  Re0  1  0.37943226  0.14195554  0.26712406  1
  Re  Re1  1  0.59710528  0.89437579  0.73593253  1
  H  H2  1  0.02415497  0.49321721  0.32514685  1
  H  H3  1  0.85116529  0.60587130  0.11205483  1
  H  H4  1  0.73345645  0.57762874  0.18600883  1
  H  H5  1  0.18808347  0.51844855  0.00948702  1
  H  H6  1  0.04809466  0.22056941  0.64175169  1
  H  H7  1  0.24991996  0.35261374  0.76383074  1
  O  O8  1  0.89014494  0.62639300  0.28124910  1
  O  O9  1  0.10873376  0.38597619  0.75394784  1
  O  O10  1  0.68203048  0.31258523  0.61845285  1
  O  O11  1  0.25383357  0.10268770  0.93508587  1
  O  O12  1  0.54737928  0.21224407  0.86771401  1
  O  O13  1  0.79301653  0.77039839  0.65433710  1
  O  O14  1  0.30619299  0.68709890  0.36006344  1
  O  O15  1  0.74863137  0.90445548  0.06115587  1
  O  O16  1  0.39873249  0.83523384  0.14451538  1
  O  O17  1  0.18474123  0.32163290  0.37215698  1
