# generated using pymatgen
data_Li2Ni(PO4)2
_symmetry_space_group_name_H-M   'P 1'
_cell_length_a   8.21512699
_cell_length_b   5.34770250
_cell_length_c   6.34882336
_cell_angle_alpha   90.00000000
_cell_angle_beta   90.28957832
_cell_angle_gamma   90.00000000
_symmetry_Int_Tables_number   1
_chemical_formula_structural   Li2Ni(PO4)2
_chemical_formula_sum   'Li4 Ni2 P4 O16'
_cell_volume   278.91329564
_cell_formula_units_Z   2
loop_
 _symmetry_equiv_pos_site_id
 _symmetry_equiv_pos_as_xyz
  1  'x, y, z'
loop_
 _atom_site_type_symbol
 _atom_site_label
 _atom_site_symmetry_multiplicity
 _atom_site_fract_x
 _atom_site_fract_y
 _atom_site_fract_z
 _atom_site_occupancy
  Li  Li0  1  0.75163428  0.75000000  0.49364127  1
  Li  Li1  1  0.42386570  0.75000000  0.73758944  1
  Li  Li2  1  0.25155683  0.25000000  0.49286866  1
  Li  Li3  1  0.92478501  0.25000000  0.73545374  1
  Ni  Ni4  1  0.25158002  0.25000000  0.00350185  1
  Ni  Ni5  1  0.75178196  0.75000000  0.00377442  1
  P  P6  1  0.10680552  0.75000000  0.76217983  1
  P  P7  1  0.60682680  0.25000000  0.76156717  1
  P  P8  1  0.39301901  0.75000000  0.23614152  1
  P  P9  1  0.89344959  0.25000000  0.23543674  1
  O  O10  1  0.71941403  0.48324023  0.76325480  1
  O  O11  1  0.99625951  0.25000000  0.44037040  1
  O  O12  1  0.50313114  0.75000000  0.03639025  1
  O  O13  1  0.00304995  0.25000000  0.03510092  1
  O  O14  1  0.28333544  0.51531223  0.23715375  1
  O  O15  1  0.99553127  0.75000000  0.95923755  1
  O  O16  1  0.28333544  0.98468777  0.23715375  1
  O  O17  1  0.99523368  0.75000000  0.56583387  1
  O  O18  1  0.21922594  0.98326469  0.76316193  1
  O  O19  1  0.71941403  0.01675977  0.76325480  1
  O  O20  1  0.49649959  0.25000000  0.56384541  1
  O  O21  1  0.49540006  0.25000000  0.95841565  1
  O  O22  1  0.21922594  0.51673531  0.76316193  1
  O  O23  1  0.78358722  0.01544908  0.23704732  1
  O  O24  1  0.78358722  0.48455092  0.23704732  1
  O  O25  1  0.49528081  0.75000000  0.44186669  1
