# generated using pymatgen
data_Ce4Sn25Pt12
_symmetry_space_group_name_H-M   'P 1'
_cell_length_a   10.70705230
_cell_length_b   10.70809616
_cell_length_c   10.70772894
_cell_angle_alpha   109.46407214
_cell_angle_beta   109.45712813
_cell_angle_gamma   109.45901212
_symmetry_Int_Tables_number   1
_chemical_formula_structural   Ce4Sn25Pt12
_chemical_formula_sum   'Ce4 Sn25 Pt12'
_cell_volume   945.44618998
_cell_formula_units_Z   1
loop_
 _symmetry_equiv_pos_site_id
 _symmetry_equiv_pos_as_xyz
  1  'x, y, z'
loop_
 _atom_site_type_symbol
 _atom_site_label
 _atom_site_symmetry_multiplicity
 _atom_site_fract_x
 _atom_site_fract_y
 _atom_site_fract_z
 _atom_site_occupancy
  Ce  Ce0  1  0.99997633  0.49998512  0.00000132  1
  Ce  Ce1  1  0.49997430  0.50001969  0.49998779  1
  Ce  Ce2  1  0.00001076  0.99998202  0.49998637  1
  Ce  Ce3  1  0.50001402  0.00002597  0.00001499  1
  Sn  Sn4  1  0.12681927  0.24982935  0.87697628  1
  Sn  Sn5  1  0.37345950  0.62018400  0.99359807  1
  Sn  Sn6  1  0.75014845  0.12301059  0.87319700  1
  Sn  Sn7  1  0.24966227  0.12276728  0.37276334  1
  Sn  Sn8  1  0.37336599  0.37975491  0.75328220  1
  Sn  Sn9  1  0.00003947  0.00001419  0.00000871  1
  Sn  Sn10  1  0.12275864  0.37274027  0.24965979  1
  Sn  Sn11  1  0.12305199  0.87320877  0.75019743  1
  Sn  Sn12  1  0.87694444  0.12679195  0.24980527  1
  Sn  Sn13  1  0.87723260  0.62724058  0.75033079  1
  Sn  Sn14  1  0.00643135  0.62658577  0.37983100  1
  Sn  Sn15  1  0.62723672  0.75038284  0.87726426  1
  Sn  Sn16  1  0.62020662  0.24669869  0.62660715  1
  Sn  Sn17  1  0.37977840  0.75327721  0.37338748  1
  Sn  Sn18  1  0.87318405  0.75018173  0.12300995  1
  Sn  Sn19  1  0.99357406  0.37343064  0.62017929  1
  Sn  Sn20  1  0.24984509  0.87700012  0.12680898  1
  Sn  Sn21  1  0.37982171  0.00639658  0.62657858  1
  Sn  Sn22  1  0.37275191  0.24961292  0.12272782  1
  Sn  Sn23  1  0.62015647  0.99359106  0.37341035  1
  Sn  Sn24  1  0.75327675  0.37339032  0.37978399  1
  Sn  Sn25  1  0.24672042  0.62663166  0.62021718  1
  Sn  Sn26  1  0.75034041  0.87724067  0.62723037  1
  Sn  Sn27  1  0.62656870  0.37979216  0.00638859  1
  Sn  Sn28  1  0.62663301  0.62021779  0.24671149  1
  Pt  Pt29  1  0.68064864  0.84829652  0.16761757  1
  Pt  Pt30  1  0.68071966  0.51305151  0.83252308  1
  Pt  Pt31  1  0.51305406  0.83257819  0.68078379  1
  Pt  Pt32  1  0.16740755  0.31922717  0.48694365  1
  Pt  Pt33  1  0.31929358  0.48693971  0.16747160  1
  Pt  Pt34  1  0.84827795  0.16758689  0.68062984  1
  Pt  Pt35  1  0.83234133  0.31930298  0.15174785  1
  Pt  Pt36  1  0.16767265  0.68070491  0.84828995  1
  Pt  Pt37  1  0.83256698  0.68074505  0.51305113  1
  Pt  Pt38  1  0.48695082  0.16745209  0.31921944  1
  Pt  Pt39  1  0.15172641  0.83243298  0.31939214  1
  Pt  Pt40  1  0.31935668  0.15169715  0.83238414  1
