# generated using pymatgen
data_Ti2SCl12
_symmetry_space_group_name_H-M   'P 1'
_cell_length_a   14.42191751
_cell_length_b   14.42191754
_cell_length_c   14.42191770
_cell_angle_alpha   103.99954816
_cell_angle_beta   103.99954816
_cell_angle_gamma   103.99954635
_symmetry_Int_Tables_number   1
_chemical_formula_structural   Ti2SCl12
_chemical_formula_sum   'Ti12 S6 Cl72'
_cell_volume   2676.44089579
_cell_formula_units_Z   6
loop_
 _symmetry_equiv_pos_site_id
 _symmetry_equiv_pos_as_xyz
  1  'x, y, z'
loop_
 _atom_site_type_symbol
 _atom_site_label
 _atom_site_symmetry_multiplicity
 _atom_site_fract_x
 _atom_site_fract_y
 _atom_site_fract_z
 _atom_site_occupancy
  Ti  Ti0  1  0.14462136  0.32281786  0.99003896  1
  Ti  Ti1  1  0.85537864  0.67718214  0.00996104  1
  Ti  Ti2  1  0.82142131  0.65258104  0.49115166  1
  Ti  Ti3  1  0.49115166  0.82142131  0.65258104  1
  Ti  Ti4  1  0.34741896  0.50884834  0.17857869  1
  Ti  Ti5  1  0.17857869  0.34741896  0.50884834  1
  Ti  Ti6  1  0.32281786  0.99003896  0.14462136  1
  Ti  Ti7  1  0.00996104  0.85537864  0.67718214  1
  Ti  Ti8  1  0.50884834  0.17857869  0.34741896  1
  Ti  Ti9  1  0.99003896  0.14462136  0.32281786  1
  Ti  Ti10  1  0.67718214  0.00996104  0.85537864  1
  Ti  Ti11  1  0.65258104  0.49115166  0.82142131  1
  S  S12  1  0.83887010  0.44783512  0.17141676  1
  S  S13  1  0.82858324  0.16112990  0.55216488  1
  S  S14  1  0.55216488  0.82858324  0.16112990  1
  S  S15  1  0.16112990  0.55216488  0.82858324  1
  S  S16  1  0.17141676  0.83887010  0.44783512  1
  S  S17  1  0.44783512  0.17141676  0.83887010  1
  Cl  Cl18  1  0.05187242  0.84996442  0.35150070  1
  Cl  Cl19  1  0.81270710  0.63554749  0.32814609  1
  Cl  Cl20  1  0.12173303  0.28986806  0.32187901  1
  Cl  Cl21  1  0.13329228  0.83185705  0.78774048  1
  Cl  Cl22  1  0.53810640  0.01796898  0.71219768  1
  Cl  Cl23  1  0.49076850  0.82417313  0.49784546  1
  Cl  Cl24  1  0.28424527  0.95676977  0.45443473  1
  Cl  Cl25  1  0.46189360  0.98203102  0.28780232  1
  Cl  Cl26  1  0.96868452  0.96196956  0.78566646  1
  Cl  Cl27  1  0.10972273  0.96823043  0.62640265  1
  Cl  Cl28  1  0.98203102  0.28780232  0.46189360  1
  Cl  Cl29  1  0.28986806  0.32187901  0.12173303  1
  Cl  Cl30  1  0.01796898  0.71219768  0.53810640  1
  Cl  Cl31  1  0.78774048  0.13329228  0.83185705  1
  Cl  Cl32  1  0.19871793  0.72100421  0.36414770  1
  Cl  Cl33  1  0.63375078  0.47564364  0.66148082  1
  Cl  Cl34  1  0.37359735  0.89027727  0.03176957  1
  Cl  Cl35  1  0.54556527  0.71575473  0.04323023  1
  Cl  Cl36  1  0.96196956  0.78566646  0.96868452  1
  Cl  Cl37  1  0.50923150  0.17582687  0.50215454  1
  Cl  Cl38  1  0.63585230  0.80128207  0.27899579  1
  Cl  Cl39  1  0.27899579  0.63585230  0.80128207  1
  Cl  Cl40  1  0.36414770  0.19871793  0.72100421  1
  Cl  Cl41  1  0.46945786  0.13714504  0.16159626  1
  Cl  Cl42  1  0.36445251  0.67185391  0.18729290  1
  Cl  Cl43  1  0.21433354  0.03131548  0.03803044  1
  Cl  Cl44  1  0.17582687  0.50215454  0.50923150  1
  Cl  Cl45  1  0.62640265  0.10972273  0.96823043  1
  Cl  Cl46  1  0.53054214  0.86285496  0.83840374  1
  Cl  Cl47  1  0.36624922  0.52435636  0.33851918  1
  Cl  Cl48  1  0.95676977  0.45443473  0.28424527  1
  Cl  Cl49  1  0.72100421  0.36414770  0.19871793  1
  Cl  Cl50  1  0.78566646  0.96868452  0.96196956  1
  Cl  Cl51  1  0.16814295  0.21225952  0.86670772  1
  Cl  Cl52  1  0.89027727  0.03176957  0.37359735  1
  Cl  Cl53  1  0.32814609  0.81270710  0.63554749  1
  Cl  Cl54  1  0.71013194  0.67812099  0.87826697  1
  Cl  Cl55  1  0.63554749  0.32814609  0.81270710  1
  Cl  Cl56  1  0.82417313  0.49784546  0.49076850  1
  Cl  Cl57  1  0.49784546  0.49076850  0.82417313  1
  Cl  Cl58  1  0.18729290  0.36445251  0.67185391  1
  Cl  Cl59  1  0.45443473  0.28424527  0.95676977  1
  Cl  Cl60  1  0.87826697  0.71013194  0.67812099  1
  Cl  Cl61  1  0.67812099  0.87826697  0.71013194  1
  Cl  Cl62  1  0.83840374  0.53054214  0.86285496  1
  Cl  Cl63  1  0.52435636  0.33851918  0.36624922  1
  Cl  Cl64  1  0.28780232  0.46189360  0.98203102  1
  Cl  Cl65  1  0.47564364  0.66148082  0.63375078  1
  Cl  Cl66  1  0.21225952  0.86670772  0.16814295  1
  Cl  Cl67  1  0.66148082  0.63375078  0.47564364  1
  Cl  Cl68  1  0.33851918  0.36624922  0.52435636  1
  Cl  Cl69  1  0.83185705  0.78774048  0.13329228  1
  Cl  Cl70  1  0.03176957  0.37359735  0.89027727  1
  Cl  Cl71  1  0.15003558  0.64849930  0.94812758  1
  Cl  Cl72  1  0.86670772  0.16814295  0.21225952  1
  Cl  Cl73  1  0.71575473  0.04323023  0.54556527  1
  Cl  Cl74  1  0.03803044  0.21433354  0.03131548  1
  Cl  Cl75  1  0.32187901  0.12173303  0.28986806  1
  Cl  Cl76  1  0.35150070  0.05187242  0.84996442  1
  Cl  Cl77  1  0.67185391  0.18729290  0.36445251  1
  Cl  Cl78  1  0.96823043  0.62640265  0.10972273  1
  Cl  Cl79  1  0.03131548  0.03803044  0.21433354  1
  Cl  Cl80  1  0.80128207  0.27899579  0.63585230  1
  Cl  Cl81  1  0.94812758  0.15003558  0.64849930  1
  Cl  Cl82  1  0.04323023  0.54556527  0.71575473  1
  Cl  Cl83  1  0.71219768  0.53810640  0.01796898  1
  Cl  Cl84  1  0.86285496  0.83840374  0.53054214  1
  Cl  Cl85  1  0.13714504  0.16159626  0.46945786  1
  Cl  Cl86  1  0.16159626  0.46945786  0.13714504  1
  Cl  Cl87  1  0.64849930  0.94812758  0.15003558  1
  Cl  Cl88  1  0.50215454  0.50923150  0.17582687  1
  Cl  Cl89  1  0.84996442  0.35150070  0.05187242  1
