# generated using pymatgen
data_Pr6Fe13Ge
_symmetry_space_group_name_H-M   'P 1'
_cell_length_a   8.06215949
_cell_length_b   8.05130085
_cell_length_c   12.93869515
_cell_angle_alpha   108.25658319
_cell_angle_beta   108.10552403
_cell_angle_gamma   89.99242100
_symmetry_Int_Tables_number   1
_chemical_formula_structural   Pr6Fe13Ge
_chemical_formula_sum   'Pr12 Fe26 Ge2'
_cell_volume   753.68383902
_cell_formula_units_Z   2
loop_
 _symmetry_equiv_pos_site_id
 _symmetry_equiv_pos_as_xyz
  1  'x, y, z'
loop_
 _atom_site_type_symbol
 _atom_site_label
 _atom_site_symmetry_multiplicity
 _atom_site_fract_x
 _atom_site_fract_y
 _atom_site_fract_z
 _atom_site_occupancy
  Pr  Pr0  1  0.98109587  0.47677206  0.62319130  1
  Pr  Pr1  1  0.64773383  0.14662280  0.62190576  1
  Pr  Pr2  1  0.85738896  0.02212977  0.37652294  1
  Pr  Pr3  1  0.89123814  0.89015956  0.78347090  1
  Pr  Pr4  1  0.39445075  0.38992200  0.78385671  1
  Pr  Pr5  1  0.10834629  0.10693394  0.21427259  1
  Pr  Pr6  1  0.60706537  0.60907451  0.21645665  1
  Pr  Pr7  1  0.52230271  0.35477291  0.37758490  1
  Pr  Pr8  1  0.01910114  0.51898389  0.37601112  1
  Pr  Pr9  1  0.35297651  0.85599093  0.37738781  1
  Pr  Pr10  1  0.47559202  0.64515686  0.62273901  1
  Pr  Pr11  1  0.14591025  0.97535837  0.62198960  1
  Fe  Fe12  1  0.20649055  0.48027189  0.18880815  1
  Fe  Fe13  1  0.93379749  0.79040261  -0.00046147  1
  Fe  Fe14  1  0.79087191  0.06623158  -0.00002150  1
  Fe  Fe15  1  0.56655482  0.28970677  0.99959973  1
  Fe  Fe16  1  0.73864754  0.88010484  0.11844201  1
  Fe  Fe17  1  0.12104085  0.61763103  0.88151632  1
  Fe  Fe18  1  0.70747141  0.20705558  0.19038639  1
  Fe  Fe19  1  0.87994695  0.37975787  0.11826398  1
  Fe  Fe20  1  0.28994158  0.43165883  -0.00093330  1
  Fe  Fe21  1  0.01778463  0.29139439  0.80948186  1
  Fe  Fe22  1  0.29369962  0.79049902  0.81070278  1
  Fe  Fe23  1  0.38170315  0.23716172  0.11777968  1
  Fe  Fe24  1  0.48311062  0.98293007  0.19004423  1
  Fe  Fe25  1  0.79353044  0.51662867  0.81057649  1
  Fe  Fe26  1  0.00130630  0.49761939  -0.00019271  1
  Fe  Fe27  1  0.23894467  0.73663436  0.11861177  1
  Fe  Fe28  1  0.98245941  0.70683241  0.18899419  1
  Fe  Fe29  1  0.62015267  0.76023413  0.88186794  1
  Fe  Fe30  1  0.51905360  0.01610104  0.81020772  1
  Fe  Fe31  1  0.21175063  0.93171094  -0.00033522  1
  Fe  Fe32  1  0.43478846  0.70833337  0.00051907  1
  Fe  Fe33  1  0.71045728  0.56571628  0.00044755  1
  Fe  Fe34  1  0.49900148  -0.00105709  0.00014062  1
  Fe  Fe35  1  0.06680554  0.20810596  -0.00068314  1
  Fe  Fe36  1  0.76381757  0.26104911  0.88183093  1
  Fe  Fe37  1  0.26255168  0.11681834  0.88040525  1
  Ge  Ge38  1  0.75148106  0.75141060  0.50029331  1
  Ge  Ge39  1  0.25051523  0.25008871  0.49881410  1
