# generated using pymatgen
data_NaInH8(NF3)2
_symmetry_space_group_name_H-M   'P 1'
_cell_length_a   6.19948270
_cell_length_b   6.19948270
_cell_length_c   6.19948408
_cell_angle_alpha   59.99998230
_cell_angle_beta   59.99999442
_cell_angle_gamma   60.00001151
_symmetry_Int_Tables_number   1
_chemical_formula_structural   NaInH8(NF3)2
_chemical_formula_sum   'Na1 In1 H8 N2 F6'
_cell_volume   168.48118862
_cell_formula_units_Z   1
loop_
 _symmetry_equiv_pos_site_id
 _symmetry_equiv_pos_as_xyz
  1  'x, y, z'
loop_
 _atom_site_type_symbol
 _atom_site_label
 _atom_site_symmetry_multiplicity
 _atom_site_fract_x
 _atom_site_fract_y
 _atom_site_fract_z
 _atom_site_occupancy
  Na  Na0  1  0.49999998  0.49999999  0.50000001  1
  In  In1  1  0.99999994  0.00000002  0.00000003  1
  H  H2  1  0.95337330  0.68220888  0.68220894  1
  H  H3  1  0.68220902  0.68220895  0.95337317  1
  H  H4  1  0.68220888  0.95337336  0.68220888  1
  H  H5  1  0.68220890  0.68220883  0.68220875  1
  H  H6  1  0.04662648  0.31779119  0.31779115  1
  H  H7  1  0.31779096  0.31779106  0.04662690  1
  H  H8  1  0.31779114  0.04662661  0.31779114  1
  H  H9  1  0.31779112  0.31779117  0.31779128  1
  N  N10  1  0.75000015  0.74999986  0.75000020  1
  N  N11  1  0.25000015  0.25000009  0.24999961  1
  F  F12  1  0.24174307  0.75825741  0.75825726  1
  F  F13  1  0.24174228  0.24174227  0.75825731  1
  F  F14  1  0.24174251  0.75825707  0.24174264  1
  F  F15  1  0.75825704  0.24174253  0.24174263  1
  F  F16  1  0.75825763  0.75825772  0.24174269  1
  F  F17  1  0.75825744  0.24174299  0.75825742  1
