# generated using pymatgen
data_Cr3Pb5F19
_symmetry_space_group_name_H-M   'P 1'
_cell_length_a   7.72902375
_cell_length_b   11.28193732
_cell_length_c   11.27393612
_cell_angle_alpha   83.25031835
_cell_angle_beta   69.98092596
_cell_angle_gamma   69.87941867
_symmetry_Int_Tables_number   1
_chemical_formula_structural   Cr3Pb5F19
_chemical_formula_sum   'Cr6 Pb10 F38'
_cell_volume   867.29952336
_cell_formula_units_Z   2
loop_
 _symmetry_equiv_pos_site_id
 _symmetry_equiv_pos_as_xyz
  1  'x, y, z'
loop_
 _atom_site_type_symbol
 _atom_site_label
 _atom_site_symmetry_multiplicity
 _atom_site_fract_x
 _atom_site_fract_y
 _atom_site_fract_z
 _atom_site_occupancy
  Cr  Cr0  1  0.32379854  0.49994309  0.82444010  1
  Cr  Cr1  1  0.82177927  0.82496059  0.50006669  1
  Cr  Cr2  1  0.14839016  0.17597113  0.50103798  1
  Cr  Cr3  1  0.64946841  0.49885351  0.17630030  1
  Cr  Cr4  1  0.68843309  0.00020057  0.00025056  1
  Cr  Cr5  1  0.18777048  0.00032887  0.00142449  1
  Pb  Pb6  1  0.15930648  0.50157507  0.49973310  1
  Pb  Pb7  1  0.78066790  0.16237361  0.30920768  1
  Pb  Pb8  1  0.94291024  0.30894387  0.83780903  1
  Pb  Pb9  1  0.65883495  0.49994607  0.50235664  1
  Pb  Pb10  1  0.58949290  0.16216605  0.69319275  1
  Pb  Pb11  1  0.24815291  0.83896982  0.69035689  1
  Pb  Pb12  1  0.44247542  0.83647796  0.30722627  1
  Pb  Pb13  1  0.28073213  0.30692680  0.16319324  1
  Pb  Pb14  1  0.08909907  0.69062597  0.16171955  1
  Pb  Pb15  1  0.75077223  0.69249389  0.83841345  1
  F  F16  1  0.92020698  0.50121653  0.71648896  1
  F  F17  1  0.44806942  0.63258129  0.77893445  1
  F  F18  1  0.07947959  0.77951711  0.36757254  1
  F  F19  1  0.42521893  0.63363370  0.15579313  1
  F  F20  1  0.84871688  0.64599056  0.50056443  1
  F  F21  1  0.58165875  0.36748702  0.77901825  1
  F  F22  1  0.59954171  0.98216040  0.18165099  1
  F  F23  1  0.58639591  0.18146218  0.01831956  1
  F  F24  1  0.36017757  0.22088621  0.36807505  1
  F  F25  1  0.94547716  0.78080559  0.63332280  1
  F  F26  1  0.71282998  0.84593803  0.36446814  1
  F  F27  1  0.10723258  0.18083891  0.97881328  1
  F  F28  1  0.28305738  0.97740791  0.82085651  1
  F  F29  1  0.07855120  0.63488334  0.84643507  1
  F  F30  1  0.28804695  0.99342826  0.49967759  1
  F  F31  1  0.28355210  0.49993262  0.00648599  1
  F  F32  1  0.21493565  0.36471443  0.84626369  1
  F  F33  1  0.86273497  0.36622799  0.22003512  1
  F  F34  1  0.34929879  0.49943228  0.64583037  1
  F  F35  1  0.26854949  0.81977467  0.02473629  1
  F  F36  1  0.93460425  0.00025987  0.00814454  1
  F  F37  1  0.41841184  0.71517435  0.49955832  1
  F  F38  1  0.78871366  0.81902688  0.98171834  1
  F  F39  1  0.99607812  0.35521572  0.50243498  1
  F  F40  1  0.78124794  0.00683804  0.49993312  1
  F  F41  1  0.56128512  0.36412471  0.15448529  1
  F  F42  1  0.13595734  0.49930247  0.28423897  1
  F  F43  1  0.57648079  0.84723791  0.63451320  1
  F  F44  1  0.44188052  0.00019274  0.99379626  1
  F  F45  1  0.92529271  0.15407337  0.63574761  1
  F  F46  1  0.78941557  0.49994136  0.99418497  1
  F  F47  1  0.22920935  0.21888244  0.63404065  1
  F  F48  1  0.72873973  0.63166988  0.22096694  1
  F  F49  1  0.05774442  0.15627912  0.36681573  1
  F  F50  1  0.09205592  0.02351872  0.18178156  1
  F  F51  1  0.49824622  0.49791709  0.35519234  1
  F  F52  1  0.63579293  0.28343619  0.50154202  1
  F  F53  1  0.77427744  0.01892424  0.81933220  1
