# generated using pymatgen
data_GdMn12
_symmetry_space_group_name_H-M   'P 1'
_cell_length_a   4.62510282
_cell_length_b   6.31724270
_cell_length_c   6.32143481
_cell_angle_alpha   82.22255681
_cell_angle_beta   68.52672725
_cell_angle_gamma   68.50599179
_symmetry_Int_Tables_number   1
_chemical_formula_structural   GdMn12
_chemical_formula_sum   'Gd1 Mn12'
_cell_volume   159.92547227
_cell_formula_units_Z   1
loop_
 _symmetry_equiv_pos_site_id
 _symmetry_equiv_pos_as_xyz
  1  'x, y, z'
loop_
 _atom_site_type_symbol
 _atom_site_label
 _atom_site_symmetry_multiplicity
 _atom_site_fract_x
 _atom_site_fract_y
 _atom_site_fract_z
 _atom_site_occupancy
  Gd  Gd0  1  0.00626675  0.99956430  0.99819159  1
  Mn  Mn1  1  0.00619507  0.36104260  0.63704693  1
  Mn  Mn2  1  0.50641123  0.22658473  0.77123441  1
  Mn  Mn3  1  0.27652749  0.22867403  0.22759793  1
  Mn  Mn4  1  0.73497787  0.77107753  0.77005968  1
  Mn  Mn5  1  0.50515829  0.99973538  0.50010497  1
  Mn  Mn6  1  0.50626557  0.77180803  0.22607196  1
  Mn  Mn7  1  0.36699218  0.63789446  0.63681215  1
  Mn  Mn8  1  0.00541397  0.63664785  0.36208268  1
  Mn  Mn9  1  0.50753298  0.49951040  0.99533239  1
  Mn  Mn10  1  0.64246764  0.36330911  0.36261259  1
  Mn  Mn11  1  0.00792137  0.49950956  0.99546519  1
  Mn  Mn12  1  0.00521059  -0.00005699  0.50003152  1
