# generated using pymatgen
data_KFeCo3(PO4)3
_symmetry_space_group_name_H-M   'P 1'
_cell_length_a   6.22966863
_cell_length_b   9.79101616
_cell_length_c   16.82079498
_cell_angle_alpha   90.00000000
_cell_angle_beta   90.00000000
_cell_angle_gamma   90.00000000
_symmetry_Int_Tables_number   1
_chemical_formula_structural   KFeCo3(PO4)3
_chemical_formula_sum   'K4 Fe4 Co12 P12 O48'
_cell_volume   1025.98079399
_cell_formula_units_Z   4
loop_
 _symmetry_equiv_pos_site_id
 _symmetry_equiv_pos_as_xyz
  1  'x, y, z'
loop_
 _atom_site_type_symbol
 _atom_site_label
 _atom_site_symmetry_multiplicity
 _atom_site_fract_x
 _atom_site_fract_y
 _atom_site_fract_z
 _atom_site_occupancy
  K  K0  1  0.50000000  0.20475503  0.53501317  1
  K  K1  1  0.00000000  0.29524497  0.03501317  1
  K  K2  1  0.50000000  0.79524497  0.46498683  1
  K  K3  1  0.00000000  0.70475503  0.96498683  1
  Fe  Fe4  1  0.00000000  0.01234311  0.63922015  1
  Fe  Fe5  1  0.00000000  0.98765689  0.36077985  1
  Fe  Fe6  1  0.50000000  0.48765689  0.13922015  1
  Fe  Fe7  1  0.50000000  0.51234311  0.86077985  1
  Co  Co8  1  0.50000000  0.03428404  0.09079548  1
  Co  Co9  1  0.25096134  0.74893515  0.70212183  1
  Co  Co10  1  0.25096134  0.25106485  0.29787817  1
  Co  Co11  1  0.75096134  0.24893515  0.79787817  1
  Co  Co12  1  0.24903866  0.75106485  0.20212183  1
  Co  Co13  1  0.50000000  0.96571596  0.90920452  1
  Co  Co14  1  0.00000000  0.53428404  0.40920452  1
  Co  Co15  1  0.74903866  0.25106485  0.29787817  1
  Co  Co16  1  0.00000000  0.46571596  0.59079548  1
  Co  Co17  1  0.75096134  0.75106485  0.20212183  1
  Co  Co18  1  0.24903866  0.24893515  0.79787817  1
  Co  Co19  1  0.74903866  0.74893515  0.70212183  1
  P  P20  1  0.00000000  0.21078318  0.46323300  1
  P  P21  1  0.00000000  0.45674878  0.21746142  1
  P  P22  1  0.00000000  0.95760058  0.83454831  1
  P  P23  1  0.50000000  0.54239942  0.33454831  1
  P  P24  1  0.00000000  0.54325122  0.78253858  1
  P  P25  1  0.50000000  0.45760058  0.66545169  1
  P  P26  1  0.50000000  0.71078318  0.03676700  1
  P  P27  1  0.50000000  0.04325122  0.71746142  1
  P  P28  1  0.00000000  0.04239942  0.16545169  1
  P  P29  1  0.50000000  0.28921682  0.96323300  1
  P  P30  1  0.00000000  0.78921682  0.53676700  1
  P  P31  1  0.50000000  0.95674878  0.28253858  1
  O  O32  1  0.69789695  0.33376448  0.91148899  1
  O  O33  1  0.20195637  0.08707055  0.12068332  1
  O  O34  1  0.79481662  0.40139353  0.17820476  1
  O  O35  1  0.80210305  0.16623552  0.41148899  1
  O  O36  1  0.50000000  0.35900581  0.04371678  1
  O  O37  1  0.50000000  0.61676023  0.67732774  1
  O  O38  1  0.50000000  0.89176824  0.19573530  1
  O  O39  1  0.00000000  0.85900581  0.45628322  1
  O  O40  1  0.69789695  0.66623552  0.08851101  1
  O  O41  1  0.30210305  0.33376448  0.91148899  1
  O  O42  1  0.00000000  0.38405540  0.77571340  1
  O  O43  1  0.29481662  0.90139353  0.32179524  1
  O  O44  1  0.00000000  0.61594460  0.22428660  1
  O  O45  1  0.29804363  0.58707055  0.37931668  1
  O  O46  1  0.30210305  0.66623552  0.08851101  1
  O  O47  1  0.50000000  0.11594460  0.27571340  1
  O  O48  1  0.00000000  0.36811647  0.47855769  1
  O  O49  1  0.50000000  0.38541572  0.75122425  1
  O  O50  1  0.50000000  0.86811647  0.02144231  1
  O  O51  1  0.70518338  0.90139353  0.32179524  1
  O  O52  1  0.29481662  0.09860647  0.67820476  1
  O  O53  1  0.50000000  0.64099419  0.95628322  1
  O  O54  1  0.19789695  0.83376448  0.58851101  1
  O  O55  1  0.70195637  0.58707055  0.37931668  1
  O  O56  1  0.80210305  0.83376448  0.58851101  1
  O  O57  1  0.00000000  0.88323977  0.17732774  1
  O  O58  1  0.00000000  0.88541572  0.74877575  1
  O  O59  1  0.50000000  0.88405540  0.72428660  1
  O  O60  1  0.20518338  0.59860647  0.82179524  1
  O  O61  1  0.79481662  0.59860647  0.82179524  1
  O  O62  1  0.00000000  0.11676023  0.82267226  1
  O  O63  1  0.70195637  0.41292945  0.62068332  1
  O  O64  1  0.50000000  0.38323977  0.32267226  1
  O  O65  1  0.20195637  0.91292945  0.87931668  1
  O  O66  1  0.29804363  0.41292945  0.62068332  1
  O  O67  1  0.79804363  0.08707055  0.12068332  1
  O  O68  1  0.50000000  0.61458428  0.24877575  1
  O  O69  1  0.00000000  0.11458428  0.25122425  1
  O  O70  1  0.00000000  0.14099419  0.54371678  1
  O  O71  1  0.00000000  0.39176824  0.30426470  1
  O  O72  1  0.00000000  0.63188353  0.52144231  1
  O  O73  1  0.19789695  0.16623552  0.41148899  1
  O  O74  1  0.20518338  0.40139353  0.17820476  1
  O  O75  1  0.50000000  0.13188353  0.97855769  1
  O  O76  1  0.50000000  0.10823176  0.80426470  1
  O  O77  1  0.00000000  0.60823176  0.69573530  1
  O  O78  1  0.79804363  0.91292945  0.87931668  1
  O  O79  1  0.70518338  0.09860647  0.67820476  1
