# generated using pymatgen
data_FeSiO3
_symmetry_space_group_name_H-M   'P 1'
_cell_length_a   6.78252342
_cell_length_b   7.53881616
_cell_length_c   20.89394729
_cell_angle_alpha   84.02021313
_cell_angle_beta   81.30658602
_cell_angle_gamma   84.17981391
_symmetry_Int_Tables_number   1
_chemical_formula_structural   FeSiO3
_chemical_formula_sum   'Fe18 Si18 O54'
_cell_volume   1046.33847292
_cell_formula_units_Z   18
loop_
 _symmetry_equiv_pos_site_id
 _symmetry_equiv_pos_as_xyz
  1  'x, y, z'
loop_
 _atom_site_type_symbol
 _atom_site_label
 _atom_site_symmetry_multiplicity
 _atom_site_fract_x
 _atom_site_fract_y
 _atom_site_fract_z
 _atom_site_occupancy
  Fe  Fe0  1  0.14605492  0.32072725  0.64922456  1
  Fe  Fe1  1  0.79363994  0.69576221  0.51290008  1
  Fe  Fe2  1  0.20636006  0.30423779  0.48709992  1
  Fe  Fe3  1  0.38086976  0.20507204  0.33911122  1
  Fe  Fe4  1  0.20960650  0.60452389  0.88281121  1
  Fe  Fe5  1  0.61913024  0.79492796  0.66088878  1
  Fe  Fe6  1  0.88247183  0.35313213  0.96805916  1
  Fe  Fe7  1  0.02830345  0.35229498  0.80377317  1
  Fe  Fe8  1  0.94979809  0.03629605  0.58060613  1
  Fe  Fe9  1  0.29335116  0.90409972  0.11143281  1
  Fe  Fe10  1  0.80334319  0.05781849  0.73984929  1
  Fe  Fe11  1  0.85394508  0.67927275  0.35077544  1
  Fe  Fe12  1  0.70664884  0.09590028  0.88856719  1
  Fe  Fe13  1  0.97169655  0.64770502  0.19622683  1
  Fe  Fe14  1  0.19665681  0.94218151  0.26015071  1
  Fe  Fe15  1  0.11752817  0.64686787  0.03194084  1
  Fe  Fe16  1  0.05020191  0.96370395  0.41939387  1
  Fe  Fe17  1  0.79039350  0.39547611  0.11718879  1
  Si  Si18  1  0.54077539  0.43752728  0.79385751  1
  Si  Si19  1  0.81981809  0.99285310  0.08894042  1
  Si  Si20  1  0.33624463  0.59433426  0.35394231  1
  Si  Si21  1  0.26313312  0.29581208  0.13451619  1
  Si  Si22  1  0.23166103  0.68532156  0.55173978  1
  Si  Si23  1  0.10449232  0.71807897  0.69345587  1
  Si  Si24  1  0.89550768  0.28192103  0.30654413  1
  Si  Si25  1  0.76833897  0.31467844  0.44826022  1
  Si  Si26  1  0.73686688  0.70418792  0.86548381  1
  Si  Si27  1  0.37414784  0.26887008  0.98450958  1
  Si  Si28  1  0.18018191  0.00714690  0.91105958  1
  Si  Si29  1  0.49187000  0.15578415  0.56799162  1
  Si  Si30  1  0.66375537  0.40566574  0.64605769  1
  Si  Si31  1  0.70528177  0.01845618  0.23823567  1
  Si  Si32  1  0.50813000  0.84421585  0.43200838  1
  Si  Si33  1  0.45922461  0.56247272  0.20614249  1
  Si  Si34  1  0.29471823  0.98154382  0.76176433  1
  Si  Si35  1  0.62585216  0.73112992  0.01549042  1
  O  O36  1  0.95397175  0.48418854  0.28444115  1
  O  O37  1  0.25469318  0.12471234  0.57174438  1
  O  O38  1  0.94943261  0.17926003  0.47608369  1
  O  O39  1  0.74530682  0.87528766  0.42825562  1
  O  O40  1  0.68060045  0.91965743  0.04057352  1
  O  O41  1  0.56406294  0.49313468  0.71429370  1
  O  O42  1  0.21545288  0.78636599  0.75054239  1
  O  O43  1  0.31433293  0.97972444  0.83932720  1
  O  O44  1  0.39858565  0.70872442  0.05147362  1
  O  O45  1  0.08335685  0.45385180  0.12525646  1
  O  O46  1  0.35119796  0.01578625  0.42130932  1
  O  O47  1  0.28310380  0.41016149  0.39738795  1
  O  O48  1  0.08218048  0.13935433  0.32544866  1
  O  O49  1  0.85018299  0.24916919  0.64770654  1
  O  O50  1  0.51856697  0.69391479  0.37695009  1
  O  O51  1  0.05056739  0.82073997  0.52391631  1
  O  O52  1  0.16960842  0.48233774  0.55642164  1
  O  O53  1  0.19986115  0.42928786  0.97077921  1
  O  O54  1  0.04602825  0.51581146  0.71555885  1
  O  O55  1  0.57322010  0.61937400  0.82841568  1
  O  O56  1  0.99501322  0.15883577  0.89941666  1
  O  O57  1  0.68566707  0.02027556  0.16067280  1
  O  O58  1  0.28472612  0.72613639  0.19754944  1
  O  O59  1  0.27292862  0.72313642  0.62559681  1
  O  O60  1  0.72707138  0.27686358  0.37440319  1
  O  O61  1  0.68742687  0.59729083  0.17625312  1
  O  O62  1  0.71527388  0.27386361  0.80245056  1
  O  O63  1  0.91664315  0.54614820  0.87474354  1
  O  O64  1  0.61950274  0.76240927  0.93655109  1
  O  O65  1  0.38049726  0.23759073  0.06344891  1
  O  O66  1  0.44141487  0.72656415  0.50281543  1
  O  O67  1  0.52011082  0.98593850  0.72210029  1
  O  O68  1  0.71689620  0.58983851  0.60261205  1
  O  O69  1  0.60141435  0.29127558  0.94852638  1
  O  O70  1  0.55858513  0.27343585  0.49718457  1
  O  O71  1  0.91781952  0.86064567  0.67455134  1
  O  O72  1  0.47988918  0.01406150  0.27789971  1
  O  O73  1  0.42677990  0.38062600  0.17158432  1
  O  O74  1  0.87240998  0.86002032  0.26074663  1
  O  O75  1  0.48143303  0.30608521  0.62304991  1
  O  O76  1  0.87458119  0.19314925  0.05915228  1
  O  O77  1  0.79805843  0.89586205  0.82831785  1
  O  O78  1  0.31939955  0.08034257  0.95942648  1
  O  O79  1  0.14981701  0.75083081  0.35229346  1
  O  O80  1  0.43593706  0.50686532  0.28570630  1
  O  O81  1  0.12541881  0.80685075  0.94084772  1
  O  O82  1  0.64880204  0.98421375  0.57869068  1
  O  O83  1  0.83039158  0.51766226  0.44357836  1
  O  O84  1  0.20194157  0.10413795  0.17168215  1
  O  O85  1  0.78454712  0.21363401  0.24945761  1
  O  O86  1  0.80013885  0.57071214  0.02922079  1
  O  O87  1  0.31257313  0.40270917  0.82374688  1
  O  O88  1  0.12759002  0.13997968  0.73925337  1
  O  O89  1  0.00498678  0.84116423  0.10058334  1
