# generated using pymatgen
data_Li2Cu(PO3)4
_symmetry_space_group_name_H-M   'P 1'
_cell_length_a   7.12714553
_cell_length_b   7.58517646
_cell_length_c   4.92512804
_cell_angle_alpha   81.92011097
_cell_angle_beta   110.28003384
_cell_angle_gamma   115.70011639
_symmetry_Int_Tables_number   1
_chemical_formula_structural   Li2Cu(PO3)4
_chemical_formula_sum   'Li2 Cu1 P4 O12'
_cell_volume   225.02913839
_cell_formula_units_Z   1
loop_
 _symmetry_equiv_pos_site_id
 _symmetry_equiv_pos_as_xyz
  1  'x, y, z'
loop_
 _atom_site_type_symbol
 _atom_site_label
 _atom_site_symmetry_multiplicity
 _atom_site_fract_x
 _atom_site_fract_y
 _atom_site_fract_z
 _atom_site_occupancy
  Li  Li0  1  0.76239803  0.55436646  0.00975940  1
  Li  Li1  1  0.23760197  0.44563354  0.99024060  1
  Cu  Cu2  1  0.00000000  0.00000000  0.00000000  1
  P  P3  1  0.18950556  0.78589959  0.55679922  1
  P  P4  1  0.40362127  0.21651300  0.56263046  1
  P  P5  1  0.59637873  0.78348700  0.43736954  1
  P  P6  1  0.81049444  0.21410041  0.44320078  1
  O  O7  1  0.75946320  0.79111292  0.73739937  1
  O  O8  1  0.45643370  0.36731267  0.77245610  1
  O  O9  1  0.24053680  0.20888708  0.26260063  1
  O  O10  1  0.68412774  0.99785961  0.29357428  1
  O  O11  1  0.31587226  0.00214039  0.70642572  1
  O  O12  1  0.01479472  0.79289839  0.27509560  1
  O  O13  1  0.54356630  0.63268733  0.22754390  1
  O  O14  1  0.88188077  0.36015053  0.22493155  1
  O  O15  1  0.98520528  0.20710161  0.72490440  1
  O  O16  1  0.37229498  0.76170062  0.46908197  1
  O  O17  1  0.62770502  0.23829938  0.53091803  1
  O  O18  1  0.11811923  0.63984947  0.77506745  1
