# generated using pymatgen
data_Y4Zr3O12
_symmetry_space_group_name_H-M   'P 1'
_cell_length_a   6.49641696
_cell_length_b   6.43462657
_cell_length_c   12.92540688
_cell_angle_alpha   99.37376862
_cell_angle_beta   99.13454393
_cell_angle_gamma   99.30500219
_symmetry_Int_Tables_number   1
_chemical_formula_structural   Y4Zr3O12
_chemical_formula_sum   'Y8 Zr6 O24'
_cell_volume   516.48594940
_cell_formula_units_Z   2
loop_
 _symmetry_equiv_pos_site_id
 _symmetry_equiv_pos_as_xyz
  1  'x, y, z'
loop_
 _atom_site_type_symbol
 _atom_site_label
 _atom_site_symmetry_multiplicity
 _atom_site_fract_x
 _atom_site_fract_y
 _atom_site_fract_z
 _atom_site_occupancy
  Y  Y0  1  0.13593735  0.61171066  0.65246792  1
  Y  Y1  1  0.39005874  0.68833082  0.93125712  1
  Y  Y2  1  0.38992438  0.70265767  0.43127075  1
  Y  Y3  1  0.30666787  0.14096357  0.30279694  1
  Y  Y4  1  0.60994126  0.31166918  0.56874288  1
  Y  Y5  1  0.69333213  0.85903643  0.19720306  1
  Y  Y6  1  0.61007562  0.29734233  0.06872925  1
  Y  Y7  1  0.86406265  0.38828934  0.84753208  1
  Zr  Zr8  1  0.00656224  0.00855388  0.50333708  1
  Zr  Zr9  1  0.14387189  0.60763463  0.15635272  1
  Zr  Zr10  1  0.99343776  0.99144612  0.99666292  1
  Zr  Zr11  1  0.32451433  0.14527266  0.80311618  1
  Zr  Zr12  1  0.67548567  0.85472734  0.69688382  1
  Zr  Zr13  1  0.85612811  0.39236537  0.34364728  1
  O  O14  1  0.05569812  0.67979099  0.96344841  1
  O  O15  1  0.10795218  0.96673896  0.66088625  1
  O  O16  1  0.03679410  0.68387307  0.45327069  1
  O  O17  1  0.07841808  0.92252443  0.15519019  1
  O  O18  1  0.18088497  0.40898978  0.78696783  1
  O  O19  1  0.42536509  0.82669242  0.78397047  1
  O  O20  1  0.30445236  0.07541687  0.95699971  1
  O  O21  1  0.16875136  0.43306088  0.28668854  1
  O  O22  1  0.43448851  0.59432460  0.59231342  1
  O  O23  1  0.40501919  0.81393882  0.27956353  1
  O  O24  1  0.31701629  0.07505385  0.47218655  1
  O  O25  1  0.56551149  0.40567540  0.90768658  1
  O  O26  1  0.41488314  0.57235027  0.09201972  1
  O  O27  1  0.69554764  0.92458313  0.54300029  1
  O  O28  1  0.57463491  0.17330758  0.71602953  1
  O  O29  1  0.58511686  0.42764973  0.40798028  1
  O  O30  1  0.81911503  0.59101022  0.71303217  1
  O  O31  1  0.68298371  0.92494615  0.02781345  1
  O  O32  1  0.59498081  0.18606118  0.22043647  1
  O  O33  1  0.83124864  0.56693912  0.21331146  1
  O  O34  1  0.89204782  0.03326104  0.83911375  1
  O  O35  1  0.94430188  0.32020901  0.53655159  1
  O  O36  1  0.92158192  0.07747557  0.34480981  1
  O  O37  1  0.96320590  0.31612693  0.04672931  1
