# generated using pymatgen
data_CuAg7As4ClO14
_symmetry_space_group_name_H-M   'P 1'
_cell_length_a   6.95063308
_cell_length_b   6.95066885
_cell_length_c   16.77058424
_cell_angle_alpha   86.09049816
_cell_angle_beta   86.09053571
_cell_angle_gamma   82.05284007
_symmetry_Int_Tables_number   1
_chemical_formula_structural   CuAg7As4ClO14
_chemical_formula_sum   'Cu2 Ag14 As8 Cl2 O28'
_cell_volume   799.14782169
_cell_formula_units_Z   2
loop_
 _symmetry_equiv_pos_site_id
 _symmetry_equiv_pos_as_xyz
  1  'x, y, z'
loop_
 _atom_site_type_symbol
 _atom_site_label
 _atom_site_symmetry_multiplicity
 _atom_site_fract_x
 _atom_site_fract_y
 _atom_site_fract_z
 _atom_site_occupancy
  Cu  Cu0  1  0.28657558  0.27653018  0.84098701  1
  Cu  Cu1  1  0.27653233  0.28657272  0.34098758  1
  Ag  Ag2  1  0.50493068  0.98402230  0.00918267  1
  Ag  Ag3  1  0.40433475  0.88403309  0.51635947  1
  Ag  Ag4  1  0.88297142  0.66813183  0.84306715  1
  Ag  Ag5  1  0.14624576  0.61417524  0.67816739  1
  Ag  Ag6  1  0.66813102  0.88296954  0.34306734  1
  Ag  Ag7  1  0.05753281  0.94292548  -0.00001491  1
  Ag  Ag8  1  0.98402209  0.50493140  0.50918277  1
  Ag  Ag9  1  0.48544240  0.63214972  0.18526677  1
  Ag  Ag10  1  0.88403290  0.40433659  0.01635937  1
  Ag  Ag11  1  0.61417518  0.14624675  0.17816731  1
  Ag  Ag12  1  0.94292394  0.05753351  0.49998522  1
  Ag  Ag13  1  0.05120955  0.58333518  0.18019056  1
  Ag  Ag14  1  0.58333500  0.05121016  0.68019050  1
  Ag  Ag15  1  0.63214931  0.48544330  0.68526686  1
  As  As16  1  0.81131615  0.15984518  0.84292517  1
  As  As17  1  0.15984233  0.81131857  0.34292456  1
  As  As18  1  0.37712733  0.47606850  0.00301470  1
  As  As19  1  0.75275647  0.38692490  0.34477302  1
  As  As20  1  0.47606792  0.37712809  0.50301478  1
  As  As21  1  0.09983178  0.12837017  0.68453182  1
  As  As22  1  0.12837182  0.09983138  0.18453312  1
  As  As23  1  0.38692565  0.75275717  0.84477357  1
  Cl  Cl24  1  0.75787935  0.82411869  0.10822403  1
  Cl  Cl25  1  0.82412152  0.75787473  0.60822446  1
  O  O26  1  0.54708549  0.41820168  0.07266356  1
  O  O27  1  0.58234450  0.76018445  0.77840391  1
  O  O28  1  0.97402895  0.26913565  0.37112950  1
  O  O29  1  0.27510565  0.35600267  0.45093820  1
  O  O30  1  0.94652636  0.32396055  0.87638014  1
  O  O31  1  0.23156401  0.59049725  0.82506514  1
  O  O32  1  0.35600247  0.27510189  0.95093812  1
  O  O33  1  0.49520613  0.64603694  0.93682306  1
  O  O34  1  0.02710802  0.94648185  0.26231368  1
  O  O35  1  0.15382871  0.58612805  0.03606459  1
  O  O36  1  0.26913780  0.97402521  0.87112949  1
  O  O37  1  0.23034043  0.28513099  0.72797332  1
  O  O38  1  0.28513328  0.23034405  0.22797372  1
  O  O39  1  0.78659850  0.97273028  0.91283052  1
  O  O40  1  0.60435776  0.26280919  0.79768696  1
  O  O41  1  0.76018491  0.58234814  0.27840323  1
  O  O42  1  0.97273473  0.78660068  0.41282866  1
  O  O43  1  0.26280837  0.60435847  0.29768649  1
  O  O44  1  0.32396651  0.94653112  0.37638074  1
  O  O45  1  0.59049998  0.23157068  0.32506669  1
  O  O46  1  0.25207320  0.93244305  0.65124928  1
  O  O47  1  0.58612982  0.15382968  0.53606410  1
  O  O48  1  0.64603574  0.49520583  0.43682330  1
  O  O49  1  0.25135059  0.94873856  0.11683141  1
  O  O50  1  0.94648144  0.02710685  0.76231339  1
  O  O51  1  0.94874066  0.25134943  0.61683134  1
  O  O52  1  0.93244293  0.25207208  0.15124999  1
  O  O53  1  0.41819802  0.54709037  0.57266516  1
