# generated using pymatgen
data_Ca10Mg7Al6Si17O60
_symmetry_space_group_name_H-M   'P 1'
_cell_length_a   5.31594259
_cell_length_b   6.63168245
_cell_length_c   33.15328909
_cell_angle_alpha   84.33781679
_cell_angle_beta   78.28742793
_cell_angle_gamma   78.15416298
_symmetry_Int_Tables_number   1
_chemical_formula_structural   Ca10Mg7Al6Si17O60
_chemical_formula_sum   'Ca10 Mg7 Al6 Si17 O60'
_cell_volume   1118.08342936
_cell_formula_units_Z   1
loop_
 _symmetry_equiv_pos_site_id
 _symmetry_equiv_pos_as_xyz
  1  'x, y, z'
loop_
 _atom_site_type_symbol
 _atom_site_label
 _atom_site_symmetry_multiplicity
 _atom_site_fract_x
 _atom_site_fract_y
 _atom_site_fract_z
 _atom_site_occupancy
  Ca  Ca0  1  0.24549322  0.70005169  0.05963373  1
  Ca  Ca1  1  0.25020069  0.69925963  0.26088889  1
  Ca  Ca2  1  0.25088547  0.70001905  0.46094850  1
  Ca  Ca3  1  0.74905686  0.30008920  0.14032224  1
  Ca  Ca4  1  0.24896896  0.70203764  0.66200501  1
  Ca  Ca5  1  0.75026842  0.30115790  0.34029273  1
  Ca  Ca6  1  0.24890421  0.68542064  0.86118233  1
  Ca  Ca7  1  0.75254192  0.29913918  0.53979390  1
  Ca  Ca8  1  0.75246987  0.29973655  0.73821380  1
  Ca  Ca9  1  0.74275540  0.31814455  0.93715328  1
  Mg  Mg10  1  0.24932378  0.08914135  0.18165262  1
  Mg  Mg11  1  0.25025677  0.09053194  0.38175829  1
  Mg  Mg12  1  0.25506867  0.09036060  0.58201912  1
  Mg  Mg13  1  0.74617802  0.90955093  0.01615034  1
  Mg  Mg14  1  0.74924973  0.90624015  0.21853819  1
  Mg  Mg15  1  0.75031472  0.90706371  0.41860204  1
  Mg  Mg16  1  0.75935898  0.91141753  0.62055876  1
  Al  Al17  1  0.25119319  0.09510310  0.78229456  1
  Al  Al18  1  0.25152529  0.09904378  0.98013686  1
  Al  Al19  1  0.72197037  0.80862526  0.72582731  1
  Al  Al20  1  0.78181585  0.38054163  0.83731114  1
  Al  Al21  1  0.75072816  0.90226671  0.81864176  1
  Al  Al22  1  0.71346945  0.81920926  0.92190605  1
  Si  Si23  1  0.26512278  0.19313193  0.07481861  1
  Si  Si24  1  0.22828703  0.61903947  0.16132619  1
  Si  Si25  1  0.26867092  0.19191084  0.27588807  1
  Si  Si26  1  0.23101383  0.61959223  0.36152274  1
  Si  Si27  1  0.27013434  0.19229747  0.47565317  1
  Si  Si28  1  0.77301431  0.37945674  0.03766490  1
  Si  Si29  1  0.23373701  0.61974152  0.56172900  1
  Si  Si30  1  0.27987124  0.19116933  0.67722635  1
  Si  Si31  1  0.72704527  0.80759322  0.12340698  1
  Si  Si32  1  0.76862503  0.37921967  0.23833488  1
  Si  Si33  1  0.22442667  0.60893934  0.76121499  1
  Si  Si34  1  0.27484808  0.19513400  0.87786841  1
  Si  Si35  1  0.73056616  0.80760991  0.32391179  1
  Si  Si36  1  0.76933020  0.38020179  0.43810781  1
  Si  Si37  1  0.21996249  0.61982459  0.96057750  1
  Si  Si38  1  0.73235887  0.80746159  0.52423878  1
  Si  Si39  1  0.77717816  0.38076155  0.63837162  1
  O  O40  1  0.99922500  0.37364656  0.06684683  1
  O  O41  1  0.17800436  0.10620353  0.12125859  1
  O  O42  1  0.00524910  0.37067686  0.26569780  1
  O  O43  1  0.34302214  0.03632421  0.03737283  1
  O  O44  1  0.14059974  0.79529764  0.19438392  1
  O  O45  1  0.17506032  0.11078089  0.32243243  1
  O  O46  1  0.00596890  0.37079425  0.46559157  1
  O  O47  1  0.32156381  0.38390509  0.17670641  1
  O  O48  1  0.35845168  0.02689884  0.24030155  1
  O  O49  1  0.50630838  0.32613545  0.07195089  1
  O  O50  1  0.14160490  0.79597868  0.39449956  1
  O  O51  1  0.17852022  0.11073403  0.52231076  1
  O  O52  1  0.49318704  0.66674231  0.12560431  1
  O  O53  1  0.01003882  0.36129205  0.66764938  1
  O  O54  1  0.32514691  0.38473271  0.37691298  1
  O  O55  1  0.35933837  0.02736417  0.44016017  1
  O  O56  1  0.67411004  0.61352811  0.02202262  1
  O  O57  1  0.50466801  0.33050106  0.27376720  1
  O  O58  1  0.88308234  0.20008122  0.00451842  1
  O  O59  1  0.14837501  0.79719881  0.59457622  1
  O  O60  1  0.20096456  0.12011951  0.72594431  1
  O  O61  1  0.49504308  0.66917897  0.32560221  1
  O  O62  1  0.01785032  0.36859442  0.86912914  1
  O  O63  1  0.32907439  0.38534151  0.57732971  1
  O  O64  1  0.64015326  0.97263008  0.15872231  1
  O  O65  1  0.36630983  0.02520064  0.64222319  1
  O  O66  1  0.67409078  0.61264786  0.22176245  1
  O  O67  1  0.50527386  0.33152407  0.47350008  1
  O  O68  1  0.81524371  0.88651037  0.07619165  1
  O  O69  1  0.85812001  0.20226459  0.20510974  1
  O  O70  1  0.13058836  0.80334421  0.79298051  1
  O  O71  1  0.17710569  0.10988714  0.92594170  1
  O  O72  1  0.49737937  0.66855237  0.52565286  1
  O  O73  1  0.31644163  0.37440484  0.78126219  1
  O  O74  1  0.64177295  0.97353244  0.35892173  1
  O  O75  1  0.36312797  0.02933588  0.84066821  1
  O  O76  1  0.67503917  0.61347690  0.42152488  1
  O  O77  1  0.99398749  0.63096019  0.13302242  1
  O  O78  1  0.51004376  0.33390784  0.67368592  1
  O  O79  1  0.82458825  0.88665216  0.27683425  1
  O  O80  1  0.85911988  0.20281872  0.40507967  1
  O  O81  1  0.14524838  0.80806641  0.99317777  1
  O  O82  1  0.48131724  0.65439338  0.72675070  1
  O  O83  1  0.30563187  0.38293186  0.97992891  1
  O  O84  1  0.64454697  0.97279081  0.55947152  1
  O  O85  1  0.68736899  0.61662819  0.62351348  1
  O  O86  1  0.99621484  0.62972092  0.33337904  1
  O  O87  1  0.50815260  0.32521911  0.87604378  1
  O  O88  1  0.82493385  0.88702183  0.47718853  1
  O  O89  1  0.86456419  0.20867456  0.60458727  1
  O  O90  1  0.47719755  0.65925510  0.92554948  1
  O  O91  1  0.61105681  0.97808821  0.76730337  1
  O  O92  1  0.67628305  0.63791335  0.82210696  1
  O  O93  1  0.99852939  0.62954695  0.53365534  1
  O  O94  1  0.84192952  0.91140673  0.67802968  1
  O  O95  1  0.89067909  0.17606127  0.80336050  1
  O  O96  1  0.60495373  -0.00307911  0.96100359  1
  O  O97  1  0.99249741  0.60752360  0.73562055  1
  O  O98  1  0.82618506  0.89093109  0.87077498  1
  O  O99  1  0.98367570  0.62996736  0.93520773  1
