# generated using pymatgen
data_Bi12PbO20
_symmetry_space_group_name_H-M   'P 1'
_cell_length_a   9.03244999
_cell_length_b   9.03244054
_cell_length_c   9.03243687
_cell_angle_alpha   109.47112599
_cell_angle_beta   109.47119032
_cell_angle_gamma   109.47105561
_symmetry_Int_Tables_number   1
_chemical_formula_structural   Bi12PbO20
_chemical_formula_sum   'Bi12 Pb1 O20'
_cell_volume   567.27713038
_cell_formula_units_Z   1
loop_
 _symmetry_equiv_pos_site_id
 _symmetry_equiv_pos_as_xyz
  1  'x, y, z'
loop_
 _atom_site_type_symbol
 _atom_site_label
 _atom_site_symmetry_multiplicity
 _atom_site_fract_x
 _atom_site_fract_y
 _atom_site_fract_z
 _atom_site_occupancy
  Bi  Bi0  1  0.30584248  0.80793827  0.14119221  1
  Bi  Bi1  1  0.69416041  0.83535145  0.50209653  1
  Bi  Bi2  1  0.66674757  0.16464870  0.85880867  1
  Bi  Bi3  1  0.16464836  0.85880901  0.66674720  1
  Bi  Bi4  1  0.83535175  0.50209780  0.69416067  1
  Bi  Bi5  1  0.14119451  0.30584575  0.80793986  1
  Bi  Bi6  1  0.50209826  0.69415989  0.83535218  1
  Bi  Bi7  1  0.49790107  0.33325201  0.19206000  1
  Bi  Bi8  1  0.85880778  0.66674680  0.16464938  1
  Bi  Bi9  1  0.19206085  0.49790194  0.33325321  1
  Bi  Bi10  1  0.33325169  0.19206005  0.49790147  1
  Bi  Bi11  1  0.80793965  0.14119347  0.30584393  1
  Pb  Pb12  1  -0.00000266  -0.00000512  -0.00000511  1
  O  O13  1  0.24471115  0.35919949  0.62335503  1
  O  O14  1  0.75528891  0.37864293  0.11448851  1
  O  O15  1  0.76640129  0.76640182  0.76640026  1
  O  O16  1  0.23359691  -0.00000092  -0.00000085  1
  O  O17  1  0.88551079  0.26415819  0.64080075  1
  O  O18  1  0.64080064  0.88551051  0.26415681  1
  O  O19  1  0.37864358  0.11448802  0.75529021  1
  O  O20  1  0.26415687  0.64080076  0.88551031  1
  O  O21  1  0.63513890  0.99999988  -0.00000013  1
  O  O22  1  0.62135721  0.37664727  0.73584527  1
  O  O23  1  0.35919850  0.62335546  0.24471054  1
  O  O24  1  0.11448910  0.75528948  0.37864552  1
  O  O25  1  -0.00000060  0.63513741  0.00000010  1
  O  O26  1  -0.00000078  0.23359889  -0.00000034  1
  O  O27  1  0.37664711  0.73584463  0.62135731  1
  O  O28  1  0.00000008  -0.00000005  0.23359839  1
  O  O29  1  0.36485912  0.36485882  0.36485889  1
  O  O30  1  0.00000030  0.00000014  0.63513750  1
  O  O31  1  0.73584438  0.62135684  0.37664727  1
  O  O32  1  0.62335483  0.24471040  0.35919845  1
