# generated using pymatgen
data_Na5Lu(SiO3)4
_symmetry_space_group_name_H-M   'P 1'
_cell_length_a   13.48506429
_cell_length_b   13.48506382
_cell_length_c   13.48506368
_cell_angle_alpha   110.61858841
_cell_angle_beta   110.61858765
_cell_angle_gamma   110.61858855
_symmetry_Int_Tables_number   1
_chemical_formula_structural   Na5Lu(SiO3)4
_chemical_formula_sum   'Na30 Lu6 Si24 O72'
_cell_volume   1803.07978300
_cell_formula_units_Z   6
loop_
 _symmetry_equiv_pos_site_id
 _symmetry_equiv_pos_as_xyz
  1  'x, y, z'
loop_
 _atom_site_type_symbol
 _atom_site_label
 _atom_site_symmetry_multiplicity
 _atom_site_fract_x
 _atom_site_fract_y
 _atom_site_fract_z
 _atom_site_occupancy
  Na  Na0  1  0.60656911  0.65796454  0.12762853  1
  Na  Na1  1  0.82971458  0.35074710  0.85942926  1
  Na  Na2  1  0.35074710  0.85942926  0.82971458  1
  Na  Na3  1  0.25938106  0.25938106  0.25938106  1
  Na  Na4  1  0.66852308  0.66669842  0.47118781  1
  Na  Na5  1  0.34203546  0.39343089  0.87237147  1
  Na  Na6  1  0.00000000  0.72045473  0.27954527  1
  Na  Na7  1  0.14057074  0.64925290  0.17028542  1
  Na  Na8  1  0.81462850  0.82003503  0.02839341  1
  Na  Na9  1  0.47118781  0.66852308  0.66669842  1
  Na  Na10  1  0.17996497  0.18537150  0.97160659  1
  Na  Na11  1  0.64925290  0.17028542  0.14057074  1
  Na  Na12  1  0.18537150  0.97160659  0.17996497  1
  Na  Na13  1  0.97160659  0.17996497  0.18537150  1
  Na  Na14  1  0.33147692  0.52881219  0.33330158  1
  Na  Na15  1  0.66669842  0.47118781  0.66852308  1
  Na  Na16  1  0.17028542  0.14057074  0.64925290  1
  Na  Na17  1  0.82003503  0.02839341  0.81462850  1
  Na  Na18  1  0.52881219  0.33330158  0.33147692  1
  Na  Na19  1  0.65796454  0.12762853  0.60656911  1
  Na  Na20  1  0.12762853  0.60656911  0.65796454  1
  Na  Na21  1  0.87237147  0.34203546  0.39343089  1
  Na  Na22  1  0.27954527  0.00000000  0.72045473  1
  Na  Na23  1  0.72045473  0.27954527  1.00000000  1
  Na  Na24  1  0.39343089  0.87237147  0.34203546  1
  Na  Na25  1  0.85942926  0.82971458  0.35074710  1
  Na  Na26  1  0.33330158  0.33147692  0.52881219  1
  Na  Na27  1  0.00000000  0.00000000  0.00000000  1
  Na  Na28  1  0.74061894  0.74061894  0.74061894  1
  Na  Na29  1  0.02839341  0.81462850  0.82003503  1
  Lu  Lu30  1  1.00000000  0.25162611  0.74837389  1
  Lu  Lu31  1  0.25203754  0.74796246  0.50000000  1
  Lu  Lu32  1  0.74796246  0.50000000  0.25203754  1
  Lu  Lu33  1  0.50000000  0.25203754  0.74796246  1
  Lu  Lu34  1  0.74837389  1.00000000  0.25162611  1
  Lu  Lu35  1  0.25162611  0.74837389  0.00000000  1
  Si  Si36  1  0.81153080  0.53079469  0.53710468  1
  Si  Si37  1  0.51198564  0.05796375  0.25514594  1
  Si  Si38  1  0.74485406  0.94203625  0.48801436  1
  Si  Si39  1  0.03705576  0.31045022  0.04093295  1
  Si  Si40  1  0.53710468  0.81153080  0.53079469  1
  Si  Si41  1  0.94203625  0.48801436  0.74485406  1
  Si  Si42  1  0.53079469  0.53710468  0.81153080  1
  Si  Si43  1  0.75450109  0.55362367  0.00901267  1
  Si  Si44  1  0.25514594  0.51198564  0.05796375  1
  Si  Si45  1  0.95906705  0.68954978  0.96294424  1
  Si  Si46  1  0.31045022  0.04093295  0.03705576  1
  Si  Si47  1  0.68954978  0.96294424  0.95906705  1
  Si  Si48  1  0.05796375  0.25514594  0.51198564  1
  Si  Si49  1  0.44637633  0.24549891  0.99098733  1
  Si  Si50  1  0.55362367  0.00901267  0.75450109  1
  Si  Si51  1  0.96294424  0.95906705  0.68954978  1
  Si  Si52  1  0.04093295  0.03705576  0.31045022  1
  Si  Si53  1  0.00901267  0.75450109  0.55362367  1
  Si  Si54  1  0.24549891  0.99098733  0.44637633  1
  Si  Si55  1  0.99098733  0.44637633  0.24549891  1
  Si  Si56  1  0.18846920  0.46289532  0.46920531  1
  Si  Si57  1  0.46920531  0.18846920  0.46289532  1
  Si  Si58  1  0.46289532  0.46920531  0.18846920  1
  Si  Si59  1  0.48801436  0.74485406  0.94203625  1
  O  O60  1  0.77943345  0.92906027  0.92169717  1
  O  O61  1  0.94688391  0.24689572  0.88991577  1
  O  O62  1  0.33754331  0.04759123  0.39814123  1
  O  O63  1  0.90937506  0.69763264  0.40714541  1
  O  O64  1  0.10212128  0.95730309  0.35220084  1
  O  O65  1  0.22056655  0.07830283  0.07093973  1
  O  O66  1  0.92169717  0.77943345  0.92906027  1
  O  O67  1  0.11112268  0.16972254  0.45038207  1
  O  O68  1  0.64241322  0.08890555  0.26269203  1
  O  O69  1  0.08890555  0.26269203  0.64241322  1
  O  O70  1  0.26269203  0.64241322  0.08890555  1
  O  O71  1  0.38604182  0.75191009  0.44212958  1
  O  O72  1  0.80491575  0.08670561  0.59338430  1
  O  O73  1  0.95730309  0.35220084  0.10212128  1
  O  O74  1  0.54961793  0.83027746  0.88887732  1
  O  O75  1  0.41192517  0.22444710  0.85436421  1
  O  O76  1  0.57079913  0.72297191  0.56878511  1
  O  O77  1  0.60185877  0.95240877  0.66245669  1
  O  O78  1  0.61395818  0.55787042  0.24808991  1
  O  O79  1  0.55787042  0.24808991  0.61395818  1
  O  O80  1  0.24689572  0.88991577  0.94688391  1
  O  O81  1  0.54642588  0.14787171  0.40040267  1
  O  O82  1  0.64779916  0.04269691  0.89787872  1
  O  O83  1  0.35220084  0.10212128  0.95730309  1
  O  O84  1  0.85436421  0.41192517  0.22444710  1
  O  O85  1  0.58807483  0.14563579  0.77555290  1
  O  O86  1  0.40040267  0.54642588  0.14787171  1
  O  O87  1  0.72297191  0.56878511  0.57079913  1
  O  O88  1  0.44212958  0.38604182  0.75191009  1
  O  O89  1  0.04269691  0.89787872  0.64779916  1
  O  O90  1  0.14563579  0.77555290  0.58807483  1
  O  O91  1  0.83027746  0.88887732  0.54961793  1
  O  O92  1  0.73730797  0.91109445  0.35758678  1
  O  O93  1  0.35758678  0.73730797  0.91109445  1
  O  O94  1  0.27702809  0.42920087  0.43121489  1
  O  O95  1  0.75191009  0.44212958  0.38604182  1
  O  O96  1  0.91109445  0.35758678  0.73730797  1
  O  O97  1  0.59285459  0.30236736  0.09062494  1
  O  O98  1  0.40661570  0.91329439  0.19508425  1
  O  O99  1  0.40714541  0.90937506  0.69763264  1
  O  O100  1  0.22444710  0.85436421  0.41192517  1
  O  O101  1  0.75310428  0.05311609  0.11008423  1
  O  O102  1  0.77555290  0.58807483  0.14563579  1
  O  O103  1  0.42920087  0.43121489  0.27702809  1
  O  O104  1  0.95240877  0.66245669  0.60185877  1
  O  O105  1  0.88887732  0.54961793  0.83027746  1
  O  O106  1  0.07830283  0.07093973  0.22056655  1
  O  O107  1  0.30236736  0.09062494  0.59285459  1
  O  O108  1  0.59338430  0.80491575  0.08670561  1
  O  O109  1  0.66245669  0.60185877  0.95240877  1
  O  O110  1  0.69763264  0.40714541  0.90937506  1
  O  O111  1  0.11008423  0.75310428  0.05311609  1
  O  O112  1  0.45038207  0.11112268  0.16972254  1
  O  O113  1  0.09062494  0.59285459  0.30236736  1
  O  O114  1  0.16972254  0.45038207  0.11112268  1
  O  O115  1  0.56878511  0.57079913  0.72297191  1
  O  O116  1  0.89787872  0.64779916  0.04269691  1
  O  O117  1  0.43121489  0.27702809  0.42920087  1
  O  O118  1  0.04759123  0.39814123  0.33754331  1
  O  O119  1  0.08670561  0.59338430  0.80491575  1
  O  O120  1  0.05311609  0.11008423  0.75310428  1
  O  O121  1  0.24808991  0.61395818  0.55787042  1
  O  O122  1  0.07093973  0.22056655  0.07830283  1
  O  O123  1  0.19508425  0.40661570  0.91329439  1
  O  O124  1  0.39814123  0.33754331  0.04759123  1
  O  O125  1  0.59959733  0.85212829  0.45357412  1
  O  O126  1  0.14787171  0.40040267  0.54642588  1
  O  O127  1  0.91329439  0.19508425  0.40661570  1
  O  O128  1  0.45357412  0.59959733  0.85212829  1
  O  O129  1  0.85212829  0.45357412  0.59959733  1
  O  O130  1  0.88991577  0.94688391  0.24689572  1
  O  O131  1  0.92906027  0.92169717  0.77943345  1
