# generated using pymatgen
data_La4C5Cl2
_symmetry_space_group_name_H-M   'P 1'
_cell_length_a   11.50829403
_cell_length_b   11.50829403
_cell_length_c   10.26626465
_cell_angle_alpha   84.73108184
_cell_angle_beta   95.26891816
_cell_angle_gamma   160.38467378
_symmetry_Int_Tables_number   1
_chemical_formula_structural   La4C5Cl2
_chemical_formula_sum   'La8 C10 Cl4'
_cell_volume   454.46052667
_cell_formula_units_Z   2
loop_
 _symmetry_equiv_pos_site_id
 _symmetry_equiv_pos_as_xyz
  1  'x, y, z'
loop_
 _atom_site_type_symbol
 _atom_site_label
 _atom_site_symmetry_multiplicity
 _atom_site_fract_x
 _atom_site_fract_y
 _atom_site_fract_z
 _atom_site_occupancy
  La  La0  1  0.82541502  0.17458498  0.97647335  1
  La  La1  1  0.17458498  0.82541502  0.02352665  1
  La  La2  1  0.38249480  0.61750520  0.64660672  1
  La  La3  1  0.61750520  0.38249480  0.35339328  1
  La  La4  1  0.72520035  0.27479965  0.66629826  1
  La  La5  1  0.27479965  0.72520035  0.33370174  1
  La  La6  1  0.04625984  0.95374016  0.65062309  1
  La  La7  1  0.95374016  0.04625984  0.34937691  1
  C  C8  1  0.85567386  0.14432614  0.45259586  1
  C  C9  1  0.14432614  0.85567386  0.54740414  1
  C  C10  1  0.29688697  0.70311303  0.79669850  1
  C  C11  1  0.70311303  0.29688697  0.20330150  1
  C  C12  1  0.81033399  0.18966601  0.52381760  1
  C  C13  1  0.18966601  0.81033399  0.47618240  1
  C  C14  1  0.74921269  0.25078731  0.13298928  1
  C  C15  1  0.25078731  0.74921269  0.86701072  1
  C  C16  1  0.47641794  0.52358206  0.53456150  1
  C  C17  1  0.52358206  0.47641794  0.46543850  1
  Cl  Cl18  1  0.94274691  0.05725309  0.83602396  1
  Cl  Cl19  1  0.05725309  0.94274691  0.16397604  1
  Cl  Cl20  1  0.39734011  0.60265989  0.14996804  1
  Cl  Cl21  1  0.60265989  0.39734011  0.85003196  1
