# generated using pymatgen
data_Nd10Se19
_symmetry_space_group_name_H-M   'P 1'
_cell_length_a   8.34978581
_cell_length_b   20.82485297
_cell_length_c   9.51315855
_cell_angle_alpha   64.04927068
_cell_angle_beta   90.00705505
_cell_angle_gamma   89.98911031
_symmetry_Int_Tables_number   1
_chemical_formula_structural   Nd10Se19
_chemical_formula_sum   'Nd20 Se38'
_cell_volume   1487.38752229
_cell_formula_units_Z   2
loop_
 _symmetry_equiv_pos_site_id
 _symmetry_equiv_pos_as_xyz
  1  'x, y, z'
loop_
 _atom_site_type_symbol
 _atom_site_label
 _atom_site_symmetry_multiplicity
 _atom_site_fract_x
 _atom_site_fract_y
 _atom_site_fract_z
 _atom_site_occupancy
  Nd  Nd0  1  0.99405045  0.24435064  0.28079591  1
  Nd  Nd1  1  0.00330950  0.44331607  0.27861609  1
  Nd  Nd2  1  0.00497232  0.64591056  0.27833632  1
  Nd  Nd3  1  0.99392092  0.84351815  0.27705333  1
  Nd  Nd4  1  0.25607908  0.85648185  0.72294667  1
  Nd  Nd5  1  0.24502768  0.05408944  0.72166368  1
  Nd  Nd6  1  0.24669050  0.25668393  0.72138391  1
  Nd  Nd7  1  0.25594955  0.45564936  0.71920409  1
  Nd  Nd8  1  0.25522464  0.65554327  0.72278015  1
  Nd  Nd9  1  0.51056375  0.44611114  0.26101628  1
  Nd  Nd10  1  0.49372797  0.24102776  0.27251510  1
  Nd  Nd11  1  0.51175793  0.64954503  0.25992257  1
  Nd  Nd12  1  0.49345980  0.85040680  0.26985475  1
  Nd  Nd13  1  0.50375526  0.04660870  0.26615010  1
  Nd  Nd14  1  0.75654020  0.84959320  0.73014525  1
  Nd  Nd15  1  0.73824207  0.05045497  0.74007743  1
  Nd  Nd16  1  0.73943625  0.25388886  0.73898372  1
  Nd  Nd17  1  0.75627203  0.45897224  0.72748490  1
  Nd  Nd18  1  0.74624474  0.65339130  0.73384990  1
  Nd  Nd19  1  0.99477536  0.04445673  0.27721985  1
  Se  Se20  1  0.00010200  0.99914468  0.00124011  1
  Se  Se21  1  0.00111018  0.20102010  0.00207572  1
  Se  Se22  1  0.02315363  0.40543111  0.99814622  1
  Se  Se23  1  0.99397809  0.97191101  0.63400529  1
  Se  Se24  1  -0.00020250  0.17162817  0.64110574  1
  Se  Se25  1  0.02362498  0.79551979  0.99857035  1
  Se  Se26  1  0.00478607  0.57600110  0.63529462  1
  Se  Se27  1  0.00515784  0.77076481  0.63407685  1
  Se  Se28  1  0.24888982  0.49897990  0.99792428  1
  Se  Se29  1  0.25280483  0.32576791  0.36536175  1
  Se  Se30  1  0.22684637  0.29456889  0.00185378  1
  Se  Se31  1  0.25020250  0.52837183  0.35889426  1
  Se  Se32  1  0.24989800  0.70085532  0.99875989  1
  Se  Se33  1  0.25602191  0.72808899  0.36599471  1
  Se  Se34  1  0.24484216  0.92923519  0.36592315  1
  Se  Se35  1  0.22637502  0.90448021  0.00142965  1
  Se  Se36  1  0.24521393  0.12399890  0.36470538  1
  Se  Se37  1  0.46528737  0.19237301  0.99893917  1
  Se  Se38  1  0.49956828  0.97337273  0.62933384  1
  Se  Se39  1  0.46300755  0.00796948  0.99945539  1
  Se  Se40  1  0.51250899  0.38978423  0.00021832  1
  Se  Se41  1  0.49409498  0.17228317  0.63500750  1
  Se  Se42  1  0.48425294  0.60029242  0.99735650  1
  Se  Se43  1  0.49988720  0.37601610  0.62501547  1
  Se  Se44  1  0.51330827  0.80960074  0.00057943  1
  Se  Se45  1  0.50157303  0.57449768  0.62619303  1
  Se  Se46  1  0.50067458  0.77450411  0.63138052  1
  Se  Se47  1  0.76574706  0.09970758  0.00264350  1
  Se  Se48  1  0.75011280  0.32398390  0.37498453  1
  Se  Se49  1  0.73749101  0.31021577  0.99978168  1
  Se  Se50  1  0.75590502  0.52771683  0.36499250  1
  Se  Se51  1  0.78471263  0.50762699  0.00106083  1
  Se  Se52  1  0.78699245  0.69203052  0.00054461  1
  Se  Se53  1  0.73669173  0.89039926  0.99942057  1
  Se  Se54  1  0.75043172  0.72662727  0.37066616  1
  Se  Se55  1  0.74932542  0.92549589  0.36861948  1
  Se  Se56  1  0.74842697  0.12550232  0.37380697  1
  Se  Se57  1  0.99719517  0.37423209  0.63463825  1
