# generated using pymatgen
data_LiSb(PO3)4
_symmetry_space_group_name_H-M   'P 1'
_cell_length_a   13.47690188
_cell_length_b   8.34477592
_cell_length_c   9.92278329
_cell_angle_alpha   90.00000000
_cell_angle_beta   90.00000000
_cell_angle_gamma   90.00000000
_symmetry_Int_Tables_number   1
_chemical_formula_structural   LiSb(PO3)4
_chemical_formula_sum   'Li4 Sb4 P16 O48'
_cell_volume   1115.93333834
_cell_formula_units_Z   4
loop_
 _symmetry_equiv_pos_site_id
 _symmetry_equiv_pos_as_xyz
  1  'x, y, z'
loop_
 _atom_site_type_symbol
 _atom_site_label
 _atom_site_symmetry_multiplicity
 _atom_site_fract_x
 _atom_site_fract_y
 _atom_site_fract_z
 _atom_site_occupancy
  Li  Li0  1  0.50000000  0.48621088  0.75000000  1
  Li  Li1  1  0.00000000  0.01378912  0.25000000  1
  Li  Li2  1  0.50000000  0.51378912  0.25000000  1
  Li  Li3  1  0.00000000  0.98621088  0.75000000  1
  Sb  Sb4  1  0.50000000  0.12519879  0.25000000  1
  Sb  Sb5  1  0.00000000  0.62519879  0.25000000  1
  Sb  Sb6  1  0.50000000  0.87480121  0.75000000  1
  Sb  Sb7  1  0.00000000  0.37480121  0.75000000  1
  P  P8  1  0.34205719  0.03707111  0.50891280  1
  P  P9  1  0.86151681  0.17224801  0.99679056  1
  P  P10  1  0.34205719  0.96292889  0.00891280  1
  P  P11  1  0.86151681  0.82775199  0.49679056  1
  P  P12  1  0.15794281  0.46292889  0.00891280  1
  P  P13  1  0.36151681  0.32775199  0.00320944  1
  P  P14  1  0.36151681  0.67224801  0.50320944  1
  P  P15  1  0.13848319  0.17224801  0.50320944  1
  P  P16  1  0.65794281  0.03707111  0.99108720  1
  P  P17  1  0.15794281  0.53707111  0.50891280  1
  P  P18  1  0.13848319  0.82775199  0.00320944  1
  P  P19  1  0.63848319  0.32775199  0.49679056  1
  P  P20  1  0.84205719  0.46292889  0.49108720  1
  P  P21  1  0.84205719  0.53707111  0.99108720  1
  P  P22  1  0.63848319  0.67224801  0.99679056  1
  P  P23  1  0.65794281  0.96292889  0.49108720  1
  O  O24  1  0.13796660  0.62804251  0.38047322  1
  O  O25  1  0.41924399  0.94729976  0.11873219  1
  O  O26  1  0.13796660  0.37195749  0.88047322  1
  O  O27  1  0.08075601  0.44729976  0.11873219  1
  O  O28  1  0.26205154  0.40561153  0.06858084  1
  O  O29  1  0.60697033  0.40365303  0.62522974  1
  O  O30  1  0.06705451  0.17177948  0.62258521  1
  O  O31  1  0.73794846  0.40561153  0.43141916  1
  O  O32  1  0.93294549  0.17177948  0.87741479  1
  O  O33  1  0.82272944  0.35253774  0.02661065  1
  O  O34  1  0.67727056  0.85253774  0.02661065  1
  O  O35  1  0.76205154  0.09438847  0.93141916  1
  O  O36  1  0.36203340  0.12804251  0.38047322  1
  O  O37  1  0.82272944  0.64746226  0.52661065  1
  O  O38  1  0.91924399  0.44729976  0.38126781  1
  O  O39  1  0.58075601  0.05270024  0.88126781  1
  O  O40  1  0.91924399  0.55270024  0.88126781  1
  O  O41  1  0.60697033  0.59634697  0.12522974  1
  O  O42  1  0.86203340  0.37195749  0.61952678  1
  O  O43  1  0.58075601  0.94729976  0.38126781  1
  O  O44  1  0.23794846  0.90561153  0.06858084  1
  O  O45  1  0.39302967  0.40365303  0.87477026  1
  O  O46  1  0.06705451  0.82822052  0.12258521  1
  O  O47  1  0.43294549  0.32822052  0.12258521  1
  O  O48  1  0.32272944  0.85253774  0.47338935  1
  O  O49  1  0.08075601  0.55270024  0.61873219  1
  O  O50  1  0.63796660  0.12804251  0.11952678  1
  O  O51  1  0.23794846  0.09438847  0.56858084  1
  O  O52  1  0.56705451  0.67177948  0.87741479  1
  O  O53  1  0.63796660  0.87195749  0.61952678  1
  O  O54  1  0.73794846  0.59438847  0.93141916  1
  O  O55  1  0.43294549  0.67177948  0.62258521  1
  O  O56  1  0.56705451  0.32822052  0.37741479  1
  O  O57  1  0.36203340  0.87195749  0.88047322  1
  O  O58  1  0.41924399  0.05270024  0.61873219  1
  O  O59  1  0.26205154  0.59438847  0.56858084  1
  O  O60  1  0.76205154  0.90561153  0.43141916  1
  O  O61  1  0.10697033  0.90365303  0.87477026  1
  O  O62  1  0.32272944  0.14746226  0.97338935  1
  O  O63  1  0.89302967  0.90365303  0.62522974  1
  O  O64  1  0.86203340  0.62804251  0.11952678  1
  O  O65  1  0.89302967  0.09634697  0.12522974  1
  O  O66  1  0.10697033  0.09634697  0.37477026  1
  O  O67  1  0.17727056  0.64746226  0.97338935  1
  O  O68  1  0.67727056  0.14746226  0.52661065  1
  O  O69  1  0.39302967  0.59634697  0.37477026  1
  O  O70  1  0.93294549  0.82822052  0.37741479  1
  O  O71  1  0.17727056  0.35253774  0.47338935  1
