# generated using pymatgen
data_Bi2Pb2S5
_symmetry_space_group_name_H-M   'P 1'
_cell_length_a   4.08702962
_cell_length_b   19.67637802
_cell_length_c   24.46415753
_cell_angle_alpha   90.00000000
_cell_angle_beta   90.00000000
_cell_angle_gamma   90.00000000
_symmetry_Int_Tables_number   1
_chemical_formula_structural   Bi2Pb2S5
_chemical_formula_sum   'Bi16 Pb16 S40'
_cell_volume   1967.35714707
_cell_formula_units_Z   8
loop_
 _symmetry_equiv_pos_site_id
 _symmetry_equiv_pos_as_xyz
  1  'x, y, z'
loop_
 _atom_site_type_symbol
 _atom_site_label
 _atom_site_symmetry_multiplicity
 _atom_site_fract_x
 _atom_site_fract_y
 _atom_site_fract_z
 _atom_site_occupancy
  Bi  Bi0  1  0.25000000  0.09490598  0.30099746  1
  Bi  Bi1  1  0.25000000  0.98302574  0.15300393  1
  Bi  Bi2  1  0.75000000  0.48302574  0.34699607  1
  Bi  Bi3  1  0.75000000  0.18671418  0.17001525  1
  Bi  Bi4  1  0.75000000  0.59490598  0.19900254  1
  Bi  Bi5  1  0.75000000  0.09723778  0.00815167  1
  Bi  Bi6  1  0.25000000  0.90276222  0.99184833  1
  Bi  Bi7  1  0.25000000  0.81328582  0.82998475  1
  Bi  Bi8  1  0.75000000  0.40276222  0.50815167  1
  Bi  Bi9  1  0.25000000  0.59723778  0.49184833  1
  Bi  Bi10  1  0.75000000  0.31328582  0.67001525  1
  Bi  Bi11  1  0.25000000  0.51697426  0.65300393  1
  Bi  Bi12  1  0.75000000  0.90509402  0.69900254  1
  Bi  Bi13  1  0.25000000  0.40509402  0.80099746  1
  Bi  Bi14  1  0.25000000  0.68671418  0.32998475  1
  Bi  Bi15  1  0.75000000  0.01697426  0.84699607  1
  Pb  Pb16  1  0.75000000  0.60880602  0.79889824  1
  Pb  Pb17  1  0.75000000  0.79493160  0.13015846  1
  Pb  Pb18  1  0.75000000  0.70506840  0.63015846  1
  Pb  Pb19  1  0.25000000  0.10880602  0.70110176  1
  Pb  Pb20  1  0.75000000  0.89119398  0.29889824  1
  Pb  Pb21  1  0.25000000  0.96618118  0.56456625  1
  Pb  Pb22  1  0.75000000  0.71776636  0.95941920  1
  Pb  Pb23  1  0.25000000  0.53381882  0.06456625  1
  Pb  Pb24  1  0.25000000  0.28223364  0.04058080  1
  Pb  Pb25  1  0.75000000  0.46618118  0.93543375  1
  Pb  Pb26  1  0.75000000  0.78223364  0.45941920  1
  Pb  Pb27  1  0.25000000  0.21776636  0.54058080  1
  Pb  Pb28  1  0.25000000  0.20506840  0.86984154  1
  Pb  Pb29  1  0.75000000  0.03381882  0.43543375  1
  Pb  Pb30  1  0.25000000  0.39119398  0.20110176  1
  Pb  Pb31  1  0.25000000  0.29493160  0.36984154  1
  S  S32  1  0.75000000  0.87729070  0.91549324  1
  S  S33  1  0.25000000  0.43949357  0.42550862  1
  S  S34  1  0.75000000  0.91015282  0.50111451  1
  S  S35  1  0.75000000  0.30652701  0.12535890  1
  S  S36  1  0.75000000  0.13787450  0.80127961  1
  S  S37  1  0.25000000  0.96928754  0.77820631  1
  S  S38  1  0.25000000  0.63787450  0.69872039  1
  S  S39  1  0.75000000  0.58984718  0.00111451  1
  S  S40  1  0.75000000  0.19347299  0.62535890  1
  S  S41  1  0.25000000  0.69347299  0.87464110  1
  S  S42  1  0.25000000  0.84522954  0.64325433  1
  S  S43  1  0.25000000  0.41015282  0.99888549  1
  S  S44  1  0.25000000  0.65477046  0.14325433  1
  S  S45  1  0.75000000  0.46928754  0.72179369  1
  S  S46  1  0.25000000  0.22295585  0.23512155  1
  S  S47  1  0.75000000  0.02687845  0.64933176  1
  S  S48  1  0.25000000  0.97312155  0.35066824  1
  S  S49  1  0.75000000  0.47312155  0.14933176  1
  S  S50  1  0.25000000  0.12270930  0.08450676  1
  S  S51  1  0.75000000  0.36212550  0.30127961  1
  S  S52  1  0.25000000  0.52687845  0.85066824  1
  S  S53  1  0.75000000  0.21615712  0.96356933  1
  S  S54  1  0.25000000  0.53071246  0.27820631  1
  S  S55  1  0.75000000  0.72295585  0.26487845  1
  S  S56  1  0.75000000  0.77704415  0.76487845  1
  S  S57  1  0.25000000  0.80652701  0.37464110  1
  S  S58  1  0.25000000  0.71615712  0.53643067  1
  S  S59  1  0.25000000  0.06050643  0.92550862  1
  S  S60  1  0.75000000  0.03071246  0.22179369  1
  S  S61  1  0.75000000  0.56050643  0.57449138  1
  S  S62  1  0.75000000  0.93949357  0.07449138  1
  S  S63  1  0.75000000  0.62270930  0.41549324  1
  S  S64  1  0.25000000  0.86212550  0.19872039  1
  S  S65  1  0.75000000  0.28384288  0.46356933  1
  S  S66  1  0.25000000  0.08984718  0.49888549  1
  S  S67  1  0.25000000  0.27704415  0.73512155  1
  S  S68  1  0.25000000  0.78384288  0.03643067  1
  S  S69  1  0.75000000  0.15477046  0.35674567  1
  S  S70  1  0.25000000  0.37729070  0.58450676  1
  S  S71  1  0.75000000  0.34522954  0.85674567  1
