# generated using pymatgen
data_Yb15Mg5Ge16
_symmetry_space_group_name_H-M   'P 1'
_cell_length_a   7.20616176
_cell_length_b   7.79948883
_cell_length_c   30.39678394
_cell_angle_alpha   90.00000000
_cell_angle_beta   90.09917207
_cell_angle_gamma   90.00000000
_symmetry_Int_Tables_number   1
_chemical_formula_structural   Yb15Mg5Ge16
_chemical_formula_sum   'Yb30 Mg10 Ge32'
_cell_volume   1708.42978005
_cell_formula_units_Z   2
loop_
 _symmetry_equiv_pos_site_id
 _symmetry_equiv_pos_as_xyz
  1  'x, y, z'
loop_
 _atom_site_type_symbol
 _atom_site_label
 _atom_site_symmetry_multiplicity
 _atom_site_fract_x
 _atom_site_fract_y
 _atom_site_fract_z
 _atom_site_occupancy
  Yb  Yb0  1  0.01029083  0.81234339  0.04612935  1
  Yb  Yb1  1  0.01377800  0.82897207  0.20263680  1
  Yb  Yb2  1  0.01849662  0.82217890  0.54752275  1
  Yb  Yb3  1  0.00889917  0.81206698  0.70117853  1
  Yb  Yb4  1  0.17108892  0.33084517  0.06300153  1
  Yb  Yb5  1  0.17589310  0.32685935  0.18521418  1
  Yb  Yb6  1  0.18041776  0.30797803  0.56340942  1
  Yb  Yb7  1  0.16702503  0.31660305  0.68632881  1
  Yb  Yb8  1  0.33018904  0.81726682  0.31528567  1
  Yb  Yb9  1  0.32415002  0.81927717  0.81432955  1
  Yb  Yb10  1  0.33591081  0.82538948  0.93775193  1
  Yb  Yb11  1  0.49407401  0.32685105  0.30035003  1
  Yb  Yb12  1  0.49103631  0.33048543  0.45188965  1
  Yb  Yb13  1  0.49528532  0.31576593  0.95090501  1
  Yb  Yb14  1  0.47935577  0.32236794  0.79761179  1
  Yb  Yb15  1  0.51849662  0.67782110  0.04752275  1
  Yb  Yb16  1  0.50889917  0.68793302  0.20117853  1
  Yb  Yb17  1  0.51029083  0.68765661  0.54612935  1
  Yb  Yb18  1  0.51377800  0.67102793  0.70263680  1
  Yb  Yb19  1  0.68041776  0.19202197  0.06340942  1
  Yb  Yb20  1  0.66702503  0.18339695  0.18632881  1
  Yb  Yb21  1  0.67108892  0.16915483  0.56300153  1
  Yb  Yb22  1  0.67589310  0.17314065  0.68521418  1
  Yb  Yb23  1  0.82415002  0.68072283  0.31432955  1
  Yb  Yb24  1  0.83591081  0.67461052  0.43775193  1
  Yb  Yb25  1  0.83018904  0.68273318  0.81528567  1
  Yb  Yb26  1  0.97935577  0.17763206  0.29761179  1
  Yb  Yb27  1  0.99528532  0.18423407  0.45090501  1
  Yb  Yb28  1  0.99407401  0.17314895  0.80035003  1
  Yb  Yb29  1  0.99103631  0.16951457  0.95188965  1
  Mg  Mg30  1  0.15549927  0.47556738  0.37119119  1
  Mg  Mg31  1  0.14962529  0.48326520  0.88248618  1
  Mg  Mg32  1  0.31111631  0.80575111  0.43639849  1
  Mg  Mg33  1  0.34554421  0.98016341  0.11668148  1
  Mg  Mg34  1  0.34431492  0.96671356  0.63121134  1
  Mg  Mg35  1  0.64962529  0.01673480  0.38248618  1
  Mg  Mg36  1  0.65549927  0.02443262  0.87119119  1
  Mg  Mg37  1  0.81111631  0.69424889  0.93639849  1
  Mg  Mg38  1  0.84431492  0.53328644  0.13121134  1
  Mg  Mg39  1  0.84554421  0.51983659  0.61668148  1
  Ge  Ge40  1  0.02687048  0.90810398  0.37636888  1
  Ge  Ge41  1  0.02182457  0.90184531  0.87732691  1
  Ge  Ge42  1  0.15531142  0.52704673  0.26825674  1
  Ge  Ge43  1  0.16643741  0.52920625  0.48534373  1
  Ge  Ge44  1  0.15221215  0.53437658  0.76621369  1
  Ge  Ge45  1  0.15669260  0.52245938  0.97858255  1
  Ge  Ge46  1  0.22158266  0.64335225  0.12463815  1
  Ge  Ge47  1  0.22375299  0.62804628  0.62460799  1
  Ge  Ge48  1  0.27611045  0.13092265  0.37335640  1
  Ge  Ge49  1  0.27584334  0.13233818  0.87666191  1
  Ge  Ge50  1  0.33668749  0.04938564  0.23842604  1
  Ge  Ge51  1  0.34240836  0.02355158  0.73221666  1
  Ge  Ge52  1  0.34565050  0.03223501  0.01888941  1
  Ge  Ge53  1  0.33893839  0.02708301  0.50855439  1
  Ge  Ge54  1  0.47840537  0.41833410  0.12395672  1
  Ge  Ge55  1  0.47928013  0.40724156  0.62508816  1
  Ge  Ge56  1  0.52182457  0.59815469  0.37732691  1
  Ge  Ge57  1  0.52687048  0.59189602  0.87636888  1
  Ge  Ge58  1  0.65669260  0.97754062  0.47858255  1
  Ge  Ge59  1  0.66643741  0.97079375  0.98534373  1
  Ge  Ge60  1  0.65221215  0.96562342  0.26621369  1
  Ge  Ge61  1  0.65531142  0.97295327  0.76825674  1
  Ge  Ge62  1  0.72375299  0.87195372  0.12460799  1
  Ge  Ge63  1  0.72158266  0.85664775  0.62463815  1
  Ge  Ge64  1  0.77584334  0.36766182  0.37666191  1
  Ge  Ge65  1  0.77611045  0.36907735  0.87335640  1
  Ge  Ge66  1  0.83893839  0.47291699  0.00855439  1
  Ge  Ge67  1  0.84240836  0.47644842  0.23221666  1
  Ge  Ge68  1  0.83668749  0.45061436  0.73842604  1
  Ge  Ge69  1  0.84565050  0.46776499  0.51888941  1
  Ge  Ge70  1  0.97928013  0.09275844  0.12508816  1
  Ge  Ge71  1  0.97840537  0.08166590  0.62395672  1
