# generated using pymatgen
data_Ti5(B6O13)2
_symmetry_space_group_name_H-M   'P 1'
_cell_length_a   11.29920024
_cell_length_b   11.29919996
_cell_length_c   13.69260060
_cell_angle_alpha   114.36841961
_cell_angle_beta   114.36841898
_cell_angle_gamma   89.99999976
_symmetry_Int_Tables_number   1
_chemical_formula_structural   Ti5(B6O13)2
_chemical_formula_sum   'Ti20 B48 O104'
_cell_volume   1419.69427959
_cell_formula_units_Z   4
loop_
 _symmetry_equiv_pos_site_id
 _symmetry_equiv_pos_as_xyz
  1  'x, y, z'
loop_
 _atom_site_type_symbol
 _atom_site_label
 _atom_site_symmetry_multiplicity
 _atom_site_fract_x
 _atom_site_fract_y
 _atom_site_fract_z
 _atom_site_occupancy
  Ti  Ti0  1  0.47196278  0.38399894  0.58475714  1
  Ti  Ti1  1  0.70075820  0.47196278  0.08475714  1
  Ti  Ti2  1  0.02803722  0.79924180  0.41524286  1
  Ti  Ti3  1  0.29924180  0.52803722  0.91524286  1
  Ti  Ti4  1  0.79924180  0.38720565  0.91524286  1
  Ti  Ti5  1  0.38399894  0.11279435  0.08475714  1
  Ti  Ti6  1  0.61279435  0.88399894  0.58475714  1
  Ti  Ti7  1  0.38720565  0.11600106  0.41524286  1
  Ti  Ti8  1  0.62500000  0.87500000  0.25000000  1
  Ti  Ti9  1  0.61600106  0.88720565  0.91524286  1
  Ti  Ti10  1  0.11279435  0.70075820  0.58475714  1
  Ti  Ti11  1  0.20075820  0.61279435  0.08475714  1
  Ti  Ti12  1  0.11600106  0.02803722  0.91524286  1
  Ti  Ti13  1  0.37500000  0.12500000  0.75000000  1
  Ti  Ti14  1  0.88399894  0.97196278  0.08475714  1
  Ti  Ti15  1  0.87500000  0.62500000  0.75000000  1
  Ti  Ti16  1  0.52803722  0.61600106  0.41524286  1
  Ti  Ti17  1  0.97196278  0.20075820  0.58475714  1
  Ti  Ti18  1  0.88720565  0.29924180  0.41524286  1
  Ti  Ti19  1  0.12500000  0.37500000  0.25000000  1
  B  B20  1  0.32124292  0.91097918  0.49756758  1
  B  B21  1  0.89827873  0.83695858  0.66514328  1
  B  B22  1  0.06609147  0.98934188  0.66539701  1
  B  B23  1  0.41097918  0.82124292  0.99756758  1
  B  B24  1  0.01065812  0.40069447  0.83460299  1
  B  B25  1  0.08902082  0.82367534  0.00243242  1
  B  B26  1  0.90069447  0.51065812  0.33460299  1
  B  B27  1  0.08658840  0.32124292  0.99756758  1
  B  B28  1  0.56609147  0.67605513  0.66539701  1
  B  B29  1  0.82818471  0.26686456  0.16514328  1
  B  B30  1  0.17632466  0.08658840  0.49756758  1
  B  B31  1  0.23313544  0.67181529  0.33485672  1
  B  B32  1  0.91341160  0.67875708  0.00243242  1
  B  B33  1  0.17875708  0.41341160  0.50243242  1
  B  B34  1  0.17181529  0.73313544  0.83485672  1
  B  B35  1  0.82367534  0.91341160  0.50243242  1
  B  B36  1  0.16304142  0.23313544  0.83485672  1
  B  B37  1  0.73313544  0.66304142  0.33485672  1
  B  B38  1  0.10172127  0.16304142  0.33485672  1
  B  B39  1  0.67632466  0.41097918  0.49756758  1
  B  B40  1  0.83695858  0.76686456  0.16514328  1
  B  B41  1  0.40069447  0.82394487  0.33460299  1
  B  B42  1  0.26686456  0.33695858  0.66514328  1
  B  B43  1  0.33695858  0.39827873  0.16514328  1
  B  B44  1  0.82124292  0.58658840  0.49756758  1
  B  B45  1  0.76686456  0.32818471  0.66514328  1
  B  B46  1  0.51065812  0.43390853  0.83460299  1
  B  B47  1  0.93390853  0.01065812  0.33460299  1
  B  B48  1  0.41341160  0.32367534  0.00243242  1
  B  B49  1  0.43390853  0.32394487  0.33460299  1
  B  B50  1  0.32818471  0.89827873  0.16514328  1
  B  B51  1  0.67181529  0.10172127  0.83485672  1
  B  B52  1  0.98934188  0.59930553  0.16539701  1
  B  B53  1  0.66304142  0.60172127  0.83485672  1
  B  B54  1  0.32367534  0.58902082  0.50243242  1
  B  B55  1  0.58658840  0.67632466  0.99756758  1
  B  B56  1  0.67605513  0.09930553  0.16539701  1
  B  B57  1  0.39827873  0.82818471  0.66514328  1
  B  B58  1  0.59930553  0.17605513  0.66539701  1
  B  B59  1  0.82394487  0.93390853  0.83460299  1
  B  B60  1  0.09930553  0.48934188  0.66539701  1
  B  B61  1  0.58902082  0.17875708  0.00243242  1
  B  B62  1  0.60172127  0.17181529  0.33485672  1
  B  B63  1  0.17605513  0.06609147  0.16539701  1
  B  B64  1  0.32394487  0.90069447  0.83460299  1
  B  B65  1  0.91097918  0.17632466  0.99756758  1
  B  B66  1  0.48934188  0.56609147  0.16539701  1
  B  B67  1  0.67875708  0.08902082  0.50243242  1
  O  O68  1  0.48544837  0.21271459  0.59077306  1
  O  O69  1  0.71048041  0.98127932  0.76683766  1
  O  O70  1  0.28951959  0.01872068  0.23316234  1
  O  O71  1  0.63889962  0.07026679  0.24777625  1
  O  O72  1  0.37785563  0.29120012  0.08358529  1
  O  O73  1  0.13053468  0.51670665  0.57987841  1
  O  O74  1  0.11734483  0.83612960  0.90891789  1
  O  O75  1  0.92721171  0.70842694  0.59108211  1
  O  O76  1  0.37805847  0.60532469  0.09077306  1
  O  O77  1  0.89467531  0.12194153  0.40922694  1
  O  O78  1  0.78728541  0.89467531  0.90922694  1
  O  O79  1  0.60532469  0.71271459  0.59077306  1
  O  O80  1  0.94364275  0.71444166  0.23316234  1
  O  O81  1  0.89112337  0.42973321  0.75222375  1
  O  O82  1  0.83612960  0.79157306  0.40891789  1
  O  O83  1  0.28728541  0.01455163  0.90922694  1
  O  O84  1  0.88265517  0.16387040  0.09108211  1
  O  O85  1  0.29157306  0.33612960  0.90891789  1
  O  O86  1  0.60887663  0.67750946  0.24777625  1
  O  O87  1  0.51670665  0.44934373  0.07987841  1
  O  O88  1  0.48329335  0.55065627  0.92012159  1
  O  O89  1  0.21444166  0.44364275  0.73316234  1
  O  O90  1  0.17750946  0.10887663  0.74777625  1
  O  O91  1  0.70842694  0.66387040  0.09108211  1
  O  O92  1  0.07278829  0.29157306  0.40891789  1
  O  O93  1  0.78951959  0.21444166  0.23316234  1
  O  O94  1  0.43682825  0.86946532  0.92012159  1
  O  O95  1  0.20879988  0.12214437  0.41641471  1
  O  O96  1  0.67750946  0.63889962  0.74777625  1
  O  O97  1  0.66387040  0.38265517  0.59108211  1
  O  O98  1  0.92973321  0.39112337  0.25222375  1
  O  O99  1  0.71271459  0.98544837  0.09077306  1
  O  O100  1  0.86946532  0.48329335  0.42012159  1
  O  O101  1  0.20572966  0.79120012  0.08358529  1
  O  O102  1  0.29120012  0.70572966  0.58358529  1
  O  O103  1  0.70572966  0.29238517  0.08358529  1
  O  O104  1  0.93682825  0.05065627  0.92012159  1
  O  O105  1  0.61734483  0.07278829  0.90891789  1
  O  O106  1  0.28555834  0.71048041  0.26683766  1
  O  O107  1  0.21271459  0.10532469  0.09077306  1
  O  O108  1  0.55635725  0.48127932  0.76683766  1
  O  O109  1  0.79120012  0.87785563  0.58358529  1
  O  O110  1  0.05065627  0.98329335  0.42012159  1
  O  O111  1  0.87785563  0.79238517  0.08358529  1
  O  O112  1  0.28084700  0.03084700  0.56169399  1
  O  O113  1  0.46915300  0.21915300  0.93830601  1
  O  O114  1  0.39467531  0.28728541  0.40922694  1
  O  O115  1  0.56317175  0.13053468  0.07987841  1
  O  O116  1  0.79157306  0.57278829  0.90891789  1
  O  O117  1  0.10887663  0.57026679  0.24777625  1
  O  O118  1  0.12194153  0.51455163  0.90922694  1
  O  O119  1  0.13889962  0.17750946  0.24777625  1
  O  O120  1  0.62194153  0.39467531  0.90922694  1
  O  O121  1  0.70761483  0.62214437  0.41641471  1
  O  O122  1  0.51872068  0.78951959  0.73316234  1
  O  O123  1  0.63053468  0.06317175  0.57987841  1
  O  O124  1  0.33612960  0.61734483  0.40891789  1
  O  O125  1  0.48127932  0.21048041  0.26683766  1
  O  O126  1  0.01455163  0.62194153  0.40922694  1
  O  O127  1  0.98329335  0.36946532  0.92012159  1
  O  O128  1  0.12214437  0.20761483  0.91641471  1
  O  O129  1  0.16387040  0.20842694  0.59108211  1
  O  O130  1  0.44934373  0.56317175  0.57987841  1
  O  O131  1  0.29427034  0.70761483  0.91641471  1
  O  O132  1  0.29238517  0.37785563  0.58358529  1
  O  O133  1  0.62214437  0.70879988  0.91641471  1
  O  O134  1  0.57278829  0.11734483  0.40891789  1
  O  O135  1  0.20842694  0.42721171  0.09108211  1
  O  O136  1  0.57026679  0.13889962  0.74777625  1
  O  O137  1  0.42721171  0.88265517  0.59108211  1
  O  O138  1  0.82249054  0.89112337  0.25222375  1
  O  O139  1  0.01670665  0.63053468  0.07987841  1
  O  O140  1  0.07026679  0.60887663  0.74777625  1
  O  O141  1  0.36110038  0.92973321  0.75222375  1
  O  O142  1  0.71915300  0.96915300  0.43830601  1
  O  O143  1  0.44364275  0.51872068  0.23316234  1
  O  O144  1  0.94934373  0.01670665  0.57987841  1
  O  O145  1  0.79238517  0.20572966  0.58358529  1
  O  O146  1  0.38265517  0.92721171  0.09108211  1
  O  O147  1  0.87805847  0.48544837  0.09077306  1
  O  O148  1  0.42973321  0.86110038  0.25222375  1
  O  O149  1  0.03084700  0.28084700  0.06169399  1
  O  O150  1  0.10532469  0.87805847  0.59077306  1
  O  O151  1  0.70879988  0.29427034  0.41641471  1
  O  O152  1  0.39112337  0.32249054  0.75222375  1
  O  O153  1  0.32249054  0.36110038  0.25222375  1
  O  O154  1  0.98544837  0.37805847  0.59077306  1
  O  O155  1  0.21915300  0.46915300  0.43830601  1
  O  O156  1  0.20761483  0.79427034  0.41641471  1
  O  O157  1  0.79427034  0.20879988  0.91641471  1
  O  O158  1  0.51455163  0.78728541  0.40922694  1
  O  O159  1  0.55065627  0.43682825  0.42012159  1
  O  O160  1  0.71444166  0.28951959  0.73316234  1
  O  O161  1  0.98127932  0.05635725  0.26683766  1
  O  O162  1  0.78555834  0.55635725  0.26683766  1
  O  O163  1  0.78084700  0.53084700  0.56169399  1
  O  O164  1  0.36946532  0.93682825  0.42012159  1
  O  O165  1  0.96915300  0.71915300  0.93830601  1
  O  O166  1  0.05635725  0.28555834  0.76683766  1
  O  O167  1  0.21048041  0.78555834  0.76683766  1
  O  O168  1  0.86110038  0.82249054  0.75222375  1
  O  O169  1  0.01872068  0.94364275  0.73316234  1
  O  O170  1  0.53084700  0.78084700  0.06169399  1
  O  O171  1  0.06317175  0.94934373  0.07987841  1
