# generated using pymatgen
data_In4Cu9
_symmetry_space_group_name_H-M   'P 1'
_cell_length_a   9.18776907
_cell_length_b   9.18775643
_cell_length_c   9.18777501
_cell_angle_alpha   90.00051236
_cell_angle_beta   90.00028019
_cell_angle_gamma   89.99948315
_symmetry_Int_Tables_number   1
_chemical_formula_structural   In4Cu9
_chemical_formula_sum   'In16 Cu36'
_cell_volume   775.58588365
_cell_formula_units_Z   4
loop_
 _symmetry_equiv_pos_site_id
 _symmetry_equiv_pos_as_xyz
  1  'x, y, z'
loop_
 _atom_site_type_symbol
 _atom_site_label
 _atom_site_symmetry_multiplicity
 _atom_site_fract_x
 _atom_site_fract_y
 _atom_site_fract_z
 _atom_site_occupancy
  In  In0  1  0.19174388  0.53577484  0.19174166  1
  In  In1  1  0.80825569  0.53577700  0.80825655  1
  In  In2  1  0.19174431  0.80825505  0.46422317  1
  In  In3  1  0.87307205  0.12692461  0.87307218  1
  In  In4  1  0.80825659  0.19174307  0.46422258  1
  In  In5  1  0.19174116  0.19174317  0.53577960  1
  In  In6  1  0.80825590  0.80825678  0.53577801  1
  In  In7  1  0.46422316  0.80825550  0.19174297  1
  In  In8  1  0.53577348  0.19174303  0.19173865  1
  In  In9  1  0.46422019  0.19174259  0.80825754  1
  In  In10  1  0.12692596  0.12692809  0.12693915  1
  In  In11  1  0.80825534  0.46422555  0.19174065  1
  In  In12  1  0.53577571  0.80825577  0.80825546  1
  In  In13  1  0.12692673  0.87307052  0.87306935  1
  In  In14  1  0.19174287  0.46422083  0.80825475  1
  In  In15  1  0.87307163  0.87307650  0.12693196  1
  Cu  Cu16  1  0.67925722  0.96822698  0.32074490  1
  Cu  Cu17  1  0.32073250  0.67926272  0.96822803  1
  Cu  Cu18  1  0.35858623  0.00000253  0.99999861  1
  Cu  Cu19  1  0.50000163  0.50000000  0.85707734  1
  Cu  Cu20  1  0.33034251  0.33034391  0.33034124  1
  Cu  Cu21  1  0.03177652  0.32074151  0.32074140  1
  Cu  Cu22  1  0.40203258  0.40202722  0.59796334  1
  Cu  Cu23  1  0.03177697  0.67926448  0.67926465  1
  Cu  Cu24  1  0.83109527  0.16890511  0.16890680  1
  Cu  Cu25  1  0.40203553  0.59795687  0.40203111  1
  Cu  Cu26  1  0.49999980  0.85707459  0.50000048  1
  Cu  Cu27  1  0.50000237  0.14293473  0.50000286  1
  Cu  Cu28  1  0.67926214  0.03178270  0.67925987  1
  Cu  Cu29  1  0.66966624  0.33033339  0.66966453  1
  Cu  Cu30  1  0.67926324  0.67926834  0.03177368  1
  Cu  Cu31  1  0.16889249  0.16888886  0.83110747  1
  Cu  Cu32  1  0.67926493  0.32073374  0.96822251  1
  Cu  Cu33  1  0.85707686  0.50000234  0.49999466  1
  Cu  Cu34  1  0.49999723  0.49999937  0.14291531  1
  Cu  Cu35  1  0.32074595  0.03177486  0.32074804  1
  Cu  Cu36  1  0.59796774  0.59795685  0.59795567  1
  Cu  Cu37  1  0.00000085  0.00000257  0.35859403  1
  Cu  Cu38  1  0.64140953  -0.00000211  0.99999671  1
  Cu  Cu39  1  0.96822591  0.67926218  0.32073923  1
  Cu  Cu40  1  -0.00000261  0.64140899  0.99999824  1
  Cu  Cu41  1  0.66966627  0.66966853  0.33033147  1
  Cu  Cu42  1  0.16889718  0.83110232  0.16889934  1
  Cu  Cu43  1  0.59797598  0.40202979  0.40202352  1
  Cu  Cu44  1  0.32073943  0.96822015  0.67925909  1
  Cu  Cu45  1  0.00000396  0.00000203  0.64141089  1
  Cu  Cu46  1  0.32073099  0.32073454  0.03177262  1
  Cu  Cu47  1  0.14292797  0.50000142  0.50000319  1
  Cu  Cu48  1  0.00000164  0.35859356  0.00000391  1
  Cu  Cu49  1  0.33034159  0.66965916  0.66966183  1
  Cu  Cu50  1  0.96822137  0.32073954  0.67925922  1
  Cu  Cu51  1  0.83109932  0.83110331  0.83110001  1
