# generated using pymatgen
data_Na3Zr2Si2PO12
_symmetry_space_group_name_H-M   'P 1'
_cell_length_a   9.40378714
_cell_length_b   9.34918952
_cell_length_c   9.35798833
_cell_angle_alpha   58.86062053
_cell_angle_beta   58.87579172
_cell_angle_gamma   58.77138240
_symmetry_Int_Tables_number   1
_chemical_formula_structural   Na3Zr2Si2PO12
_chemical_formula_sum   'Na6 Zr4 Si4 P2 O24'
_cell_volume   566.29722928
_cell_formula_units_Z   2
loop_
 _symmetry_equiv_pos_site_id
 _symmetry_equiv_pos_as_xyz
  1  'x, y, z'
loop_
 _atom_site_type_symbol
 _atom_site_label
 _atom_site_symmetry_multiplicity
 _atom_site_fract_x
 _atom_site_fract_y
 _atom_site_fract_z
 _atom_site_occupancy
  Na  Na0  1  0.10818860  0.39166630  0.75659412  1
  Na  Na1  1  0.37844359  0.75138699  0.12023138  1
  Na  Na2  1  0.75832355  0.10282877  0.36622677  1
  Na  Na3  1  0.48353443  0.50262078  0.52549401  1
  Na  Na4  1  0.17609523  0.95795617  0.79492027  1
  Na  Na5  1  0.89092609  0.63964541  0.24334396  1
  Zr  Zr6  1  0.15082556  0.14746333  0.14226185  1
  Zr  Zr7  1  0.35440643  0.35261987  0.34636814  1
  Zr  Zr8  1  0.64449515  0.64330229  0.65616614  1
  Zr  Zr9  1  0.85067649  0.85502857  0.85238412  1
  Si  Si10  1  0.03819567  0.74392456  0.46420249  1
  Si  Si11  1  0.46495720  0.04458627  0.74477853  1
  Si  Si12  1  0.74948058  0.46445251  0.04660360  1
  Si  Si13  1  0.25248974  0.54248184  0.94853817  1
  P  P14  1  0.54278701  0.94950500  0.25275244  1
  P  P15  1  0.95860226  0.25205512  0.53886559  1
  O  O16  1  0.11904206  0.28066621  0.51791062  1
  O  O17  1  0.28647450  0.50423757  0.12382542  1
  O  O18  1  0.07546997  0.91937485  0.29259608  1
  O  O19  1  0.50665757  0.10667837  0.29830245  1
  O  O20  1  0.21938867  0.56984580  0.43606303  1
  O  O21  1  0.00072406  0.75048333  0.65268880  1
  O  O22  1  0.28457350  0.06508664  0.92043968  1
  O  O23  1  0.42929462  0.22481107  0.57511326  1
  O  O24  1  0.57447772  0.42967180  0.22106512  1
  O  O25  1  0.21395448  0.37429607  0.98183909  1
  O  O26  1  0.07576037  0.72356841  0.93658896  1
  O  O27  1  0.38257457  0.98293528  0.21723485  1
  O  O28  1  0.64361875  0.01349956  0.75891086  1
  O  O29  1  0.92057378  0.28482631  0.07874656  1
  O  O30  1  0.76136856  0.64175339  0.02879783  1
  O  O31  1  0.42181005  0.57252047  0.76689456  1
  O  O32  1  0.57262220  0.77274769  0.41048151  1
  O  O33  1  0.71239121  0.93179628  0.08885946  1
  O  O34  1  0.99950716  0.22062907  0.37271362  1
  O  O35  1  0.79304107  0.42233324  0.54807667  1
  O  O36  1  0.48619176  0.86883496  0.72416131  1
  O  O37  1  0.93352337  0.08865965  0.70656874  1
  O  O38  1  0.73456032  0.50131618  0.86226460  1
  O  O39  1  0.86597210  0.72710400  0.47682533  1
