# generated using pymatgen
data_Na11Zr8Si7P5O48
_symmetry_space_group_name_H-M   'P 1'
_cell_length_a   9.14653014
_cell_length_b   9.16047091
_cell_length_c   18.58518568
_cell_angle_alpha   60.91382870
_cell_angle_beta   60.74267776
_cell_angle_gamma   60.23518050
_symmetry_Int_Tables_number   1
_chemical_formula_structural   Na11Zr8Si7P5O48
_chemical_formula_sum   'Na11 Zr8 Si7 P5 O48'
_cell_volume   1116.69326035
_cell_formula_units_Z   1
loop_
 _symmetry_equiv_pos_site_id
 _symmetry_equiv_pos_as_xyz
  1  'x, y, z'
loop_
 _atom_site_type_symbol
 _atom_site_label
 _atom_site_symmetry_multiplicity
 _atom_site_fract_x
 _atom_site_fract_y
 _atom_site_fract_z
 _atom_site_occupancy
  Na  Na0  1  0.24176956  0.09420115  0.15615931  1
  Na  Na1  1  0.51665176  0.00445267  0.26144591  1
  Na  Na2  1  0.61593147  0.40335232  0.11995473  1
  Na  Na3  1  0.24857555  0.08238961  0.65934150  1
  Na  Na4  1  0.38214221  0.61121519  0.37749611  1
  Na  Na5  1  0.51786480  0.00162020  0.75729590  1
  Na  Na6  1  0.92732222  0.72352083  0.07272002  1
  Na  Na7  1  0.59892459  0.40190545  0.62397824  1
  Na  Na8  1  0.37026631  0.61018262  0.88294709  1
  Na  Na9  1  0.00686479  0.48046105  0.48754894  1
  Na  Na10  1  0.91848514  0.75406010  0.58876223  1
  Zr  Zr11  1  0.14763776  0.64860171  0.28117423  1
  Zr  Zr12  1  0.65271962  0.14744310  0.02631894  1
  Zr  Zr13  1  0.14421495  0.64691418  0.78397153  1
  Zr  Zr14  1  0.34916881  0.85579404  0.46969611  1
  Zr  Zr15  1  0.64722236  0.15097252  0.52387068  1
  Zr  Zr16  1  0.84839321  0.34611462  0.22459213  1
  Zr  Zr17  1  0.34726624  0.85270173  0.97226114  1
  Zr  Zr18  1  0.85198336  0.35130998  0.72317894  1
  Si  Si19  1  0.25372645  0.46285975  0.12296839  1
  Si  Si20  1  0.04853515  0.95004413  0.37543157  1
  Si  Si21  1  0.45985446  0.25237035  0.36759850  1
  Si  Si22  1  0.53088493  0.75321907  0.13095850  1
  Si  Si23  1  0.25244069  0.46375700  0.62141742  1
  Si  Si24  1  0.05346340  0.95685044  0.87282578  1
  Si  Si25  1  0.53613773  0.74808117  0.62923367  1
  P  P26  1  0.95500425  0.03954205  0.12661026  1
  P  P27  1  0.74654752  0.53510070  0.38184195  1
  P  P28  1  0.46790395  0.24825987  0.86762133  1
  P  P29  1  0.95588975  0.04184883  0.62691885  1
  P  P30  1  0.74332468  0.53995262  0.87931210  1
  O  O31  1  0.11130772  0.00168872  0.04407069  1
  O  O32  1  0.00506407  0.11355061  0.28875992  1
  O  O33  1  0.07105105  0.42987373  0.14931281  1
  O  O34  1  0.26883759  0.63073813  0.03016351  1
  O  O35  1  0.11043576  0.00355905  0.54461311  1
  O  O36  1  0.42390567  0.27890301  0.11335025  1
  O  O37  1  0.25364164  0.51551903  0.19519601  1
  O  O38  1  0.06239366  0.76104233  0.37856168  1
  O  O39  1  0.00955587  0.12323782  0.78665907  1
  O  O40  1  0.27432403  0.42365030  0.36751246  1
  O  O41  1  0.43442072  0.07052556  0.38929522  1
  O  O42  1  0.06990057  0.43247691  0.64292400  1
  O  O43  1  0.48229939  0.76266204  0.05431705  1
  O  O44  1  0.77630621  0.06849459  0.12182057  1
  O  O45  1  0.35716715  0.74787422  0.22031440  1
  O  O46  1  0.61692331  0.28990691  0.27392229  1
  O  O47  1  0.24132602  0.92331668  0.37445234  1
  O  O48  1  0.51567898  0.24008964  0.44347374  1
  O  O49  1  0.26774714  0.62908688  0.52954435  1
  O  O50  1  0.56411944  0.93618668  0.10532750  1
  O  O51  1  0.71282803  0.58490380  0.14185598  1
  O  O52  1  0.42079514  0.27570413  0.61771564  1
  O  O53  1  0.94136360  0.21020693  0.13139401  1
  O  O54  1  0.23916634  0.51985034  0.69596487  1
  O  O55  1  0.75894334  0.47749808  0.31259105  1
  O  O56  1  0.07446002  0.77015506  0.87107225  1
  O  O57  1  0.58372072  0.70893618  0.38381806  1
  O  O58  1  0.29818448  0.41340838  0.86094097  1
  O  O59  1  0.43943162  0.07863830  0.88852716  1
  O  O60  1  0.71345084  0.38858450  0.47248460  1
  O  O61  1  0.48437475  0.75778203  0.55404420  1
  O  O62  1  0.77711601  0.06216954  0.62612387  1
  O  O63  1  0.36787173  0.73169138  0.72045700  1
  O  O64  1  0.62072518  0.27590686  0.77877088  1
  O  O65  1  0.24439192  0.93278004  0.87280160  1
  O  O66  1  0.51932749  0.23759811  0.93909424  1
  O  O67  1  0.91667880  0.56373731  0.36084542  1
  O  O68  1  0.56859111  0.92882599  0.60820382  1
  O  O69  1  0.72353202  0.57918613  0.63461225  1
  O  O70  1  0.98844434  0.87948362  0.20753237  1
  O  O71  1  0.93958887  0.22031631  0.62700874  1
  O  O72  1  0.74746730  0.48759582  0.80929477  1
  O  O73  1  0.58262420  0.71544062  0.88275985  1
  O  O74  1  0.88707915  0.99743031  0.46315895  1
  O  O75  1  0.71038306  0.39178025  0.96788592  1
  O  O76  1  0.91711872  0.56653450  0.85273436  1
  O  O77  1  0.99575948  0.88850211  0.70853900  1
  O  O78  1  0.88905807  0.99787147  0.96072522  1
