# generated using pymatgen
data_Ce9YO20
_symmetry_space_group_name_H-M   'P 1'
_cell_length_a   7.71143587
_cell_length_b   19.30864113
_cell_length_c   10.21513736
_cell_angle_alpha   19.07174104
_cell_angle_beta   55.46745306
_cell_angle_gamma   59.94443371
_symmetry_Int_Tables_number   1
_chemical_formula_structural   Ce9YO20
_chemical_formula_sum   'Ce9 Y1 O20'
_cell_volume   405.96435829
_cell_formula_units_Z   1
loop_
 _symmetry_equiv_pos_site_id
 _symmetry_equiv_pos_as_xyz
  1  'x, y, z'
loop_
 _atom_site_type_symbol
 _atom_site_label
 _atom_site_symmetry_multiplicity
 _atom_site_fract_x
 _atom_site_fract_y
 _atom_site_fract_z
 _atom_site_occupancy
  Ce  Ce0  1  0.00004856  0.19933744  0.99978428  1
  Ce  Ce1  1  0.99981589  0.40064795  0.00024697  1
  Ce  Ce2  1  0.50000000  0.00000000  0.00000000  1
  Ce  Ce3  1  0.50192056  0.19943075  0.99955013  1
  Ce  Ce4  1  0.99995144  0.80066256  0.00021572  1
  Ce  Ce5  1  0.49816314  0.39847455  0.00392557  1
  Ce  Ce6  1  0.50183686  0.60152545  0.99607443  1
  Ce  Ce7  1  0.49807944  0.80056925  0.00044987  1
  Ce  Ce8  1  0.00018411  0.59935205  0.99975303  1
  Y  Y9  1  0.00000000  0.00000000  0.00000000  1
  O  O10  1  0.12539954  0.14993449  0.24982444  1
  O  O11  1  0.12628017  0.35232584  0.24475172  1
  O  O12  1  0.12533931  0.55014876  0.24970655  1
  O  O13  1  0.37767397  0.05038066  0.74807199  1
  O  O14  1  0.62478453  0.14974605  0.25038132  1
  O  O15  1  0.37516417  0.25049376  0.74906428  1
  O  O16  1  0.12595670  0.74844401  0.25126501  1
  O  O17  1  0.62462476  0.35044853  0.24935070  1
  O  O18  1  0.87419956  0.05013390  0.74850400  1
  O  O19  1  0.62457829  0.55029333  0.24969117  1
  O  O20  1  0.37542171  0.44970667  0.75030883  1
  O  O21  1  0.12580044  0.94986610  0.25149600  1
  O  O22  1  0.87404330  0.25155599  0.74873499  1
  O  O23  1  0.62483583  0.74950624  0.25093572  1
  O  O24  1  0.37537524  0.64955147  0.75064930  1
  O  O25  1  0.62232603  0.94961934  0.25192801  1
  O  O26  1  0.87466069  0.44985124  0.75029345  1
  O  O27  1  0.37521547  0.85025395  0.74961868  1
  O  O28  1  0.87371983  0.64767416  0.75524828  1
  O  O29  1  0.87460046  0.85006551  0.75017556  1
