# generated using pymatgen
data_KNa3Al4(SiO4)4
_symmetry_space_group_name_H-M   'P 1'
_cell_length_a   10.17826656
_cell_length_b   10.12572822
_cell_length_c   8.50737671
_cell_angle_alpha   90.18438170
_cell_angle_beta   89.87276240
_cell_angle_gamma   120.37014354
_symmetry_Int_Tables_number   1
_chemical_formula_structural   KNa3Al4(SiO4)4
_chemical_formula_sum   'K2 Na6 Al8 Si8 O32'
_cell_volume   756.47064615
_cell_formula_units_Z   2
loop_
 _symmetry_equiv_pos_site_id
 _symmetry_equiv_pos_as_xyz
  1  'x, y, z'
loop_
 _atom_site_type_symbol
 _atom_site_label
 _atom_site_symmetry_multiplicity
 _atom_site_fract_x
 _atom_site_fract_y
 _atom_site_fract_z
 _atom_site_occupancy
  K  K0  1  0.00494098  0.00935689  0.98711756  1
  K  K1  1  0.00167627  0.00847814  0.48820713  1
  Na  Na2  1  0.99573478  0.54591582  0.48875706  1
  Na  Na3  1  0.56536242  0.00904647  0.49197133  1
  Na  Na4  1  0.43944293  0.43711837  0.49964143  1
  Na  Na5  1  0.55251086  0.54552835  0.99143699  1
  Na  Na6  1  0.44839006  0.00454841  0.99612093  1
  Na  Na7  1  0.99951231  0.44128766  0.99374508  1
  Al  Al8  1  0.09099546  0.33234934  0.67686318  1
  Al  Al9  1  0.33531631  0.67079738  0.18545769  1
  Al  Al10  1  0.33358108  0.24441464  0.18464545  1
  Al  Al11  1  0.33489028  0.24206791  0.80105291  1
  Al  Al12  1  0.66700038  0.75980549  0.67946832  1
  Al  Al13  1  0.66917779  0.33344195  0.68517937  1
  Al  Al14  1  0.90482102  0.66497306  0.18074048  1
  Al  Al15  1  0.75961700  0.09160394  0.17792751  1
  Si  Si16  1  0.23868374  0.90384951  0.68014866  1
  Si  Si17  1  0.23613064  0.90270843  0.31147622  1
  Si  Si18  1  0.09391741  0.33538734  0.30620362  1
  Si  Si19  1  0.33004222  0.66817657  0.79386837  1
  Si  Si20  1  0.66534875  0.75943284  0.30560822  1
  Si  Si21  1  0.66648715  0.32901969  0.29295237  1
  Si  Si22  1  0.90876173  0.66561042  0.80646346  1
  Si  Si23  1  0.76001496  0.09348870  0.80753641  1
  O  O24  1  0.05451486  0.78038752  0.68813448  1
  O  O25  1  0.05703019  0.76959638  0.31216028  1
  O  O26  1  0.27846023  0.96482857  0.49768489  1
  O  O27  1  0.02368742  0.32435895  0.48265196  1
  O  O28  1  0.16304189  0.50989614  0.24092321  1
  O  O29  1  0.16929941  0.52511451  0.73508477  1
  O  O30  1  0.34898844  0.83934099  0.26257415  1
  O  O31  1  0.34263601  0.82524756  0.71496990  1
  O  O32  1  0.33383757  0.68937479  0.98207424  1
  O  O33  1  0.22450536  0.28654797  0.31516209  1
  O  O34  1  0.20960041  0.25633450  0.67204571  1
  O  O35  1  0.47496944  0.65445620  0.73572138  1
  O  O36  1  0.49137608  0.65331795  0.24048914  1
  O  O37  1  0.31509513  0.28906103  0.99357144  1
  O  O38  1  0.71377819  0.94100304  0.31030818  1
  O  O39  1  0.26552510  0.04477621  0.20092419  1
  O  O40  1  0.73806688  0.95875790  0.68448101  1
  O  O41  1  0.28466130  0.04308654  0.80159169  1
  O  O42  1  0.67765778  0.70693182  0.48448335  1
  O  O43  1  0.52211556  0.36183261  0.74030752  1
  O  O44  1  0.52558737  0.35404205  0.24263701  1
  O  O45  1  0.77986736  0.73697883  0.18702565  1
  O  O46  1  0.78287420  0.71987204  0.80084921  1
  O  O47  1  0.67347961  0.31706108  0.48145572  1
  O  O48  1  0.64261595  0.16901946  0.21741551  1
  O  O49  1  0.64956401  0.15911247  0.75395503  1
  O  O50  1  0.82849575  0.47254366  0.23113259  1
  O  O51  1  0.84681839  0.49380852  0.73890104  1
  O  O52  1  0.97232391  0.68350833  0.98538052  1
  O  O53  1  0.71114926  0.02114515  0.98452302  1
  O  O54  1  0.93858612  0.23023744  0.80931976  1
  O  O55  1  0.95743428  0.22001247  0.18587160  1
