# generated using pymatgen
data_Na3LaTi2Nb2O12
_symmetry_space_group_name_H-M   'P 1'
_cell_length_a   11.14723688
_cell_length_b   7.83687764
_cell_length_c   7.78049524
_cell_angle_alpha   90.02219728
_cell_angle_beta   90.01560792
_cell_angle_gamma   45.32913973
_symmetry_Int_Tables_number   1
_chemical_formula_structural   Na3LaTi2Nb2O12
_chemical_formula_sum   'Na6 La2 Ti4 Nb4 O24'
_cell_volume   483.37375408
_cell_formula_units_Z   2
loop_
 _symmetry_equiv_pos_site_id
 _symmetry_equiv_pos_as_xyz
  1  'x, y, z'
loop_
 _atom_site_type_symbol
 _atom_site_label
 _atom_site_symmetry_multiplicity
 _atom_site_fract_x
 _atom_site_fract_y
 _atom_site_fract_z
 _atom_site_occupancy
  Na  Na0  1  0.99525800  0.50474200  0.25000000  1
  Na  Na1  1  0.49882919  0.00117081  0.25000000  1
  Na  Na2  1  0.00117081  0.99882919  0.75000000  1
  Na  Na3  1  0.50474200  0.49525800  0.75000000  1
  Na  Na4  1  0.50834539  0.49165461  0.25000000  1
  Na  Na5  1  0.99165461  0.50834539  0.75000000  1
  La  La6  1  0.00846323  0.99153677  0.25000000  1
  La  La7  1  0.49153677  0.00846323  0.75000000  1
  Ti  Ti8  1  0.25000000  0.50000000  0.00000000  1
  Ti  Ti9  1  0.25000000  0.00000000  0.50000000  1
  Ti  Ti10  1  0.75000000  0.50000000  0.00000000  1
  Ti  Ti11  1  0.75000000  0.00000000  0.50000000  1
  Nb  Nb12  1  0.25000000  0.00000000  0.00000000  1
  Nb  Nb13  1  0.25000000  0.50000000  0.50000000  1
  Nb  Nb14  1  0.75000000  0.00000000  0.00000000  1
  Nb  Nb15  1  0.75000000  0.50000000  0.50000000  1
  O  O16  1  0.99788619  0.25333499  0.03284009  1
  O  O17  1  0.00255700  0.24840641  0.46701167  1
  O  O18  1  0.23120396  0.07313089  0.74751024  1
  O  O19  1  0.26662848  0.23551194  0.04183854  1
  O  O20  1  0.26662849  0.23123109  0.45816146  1
  O  O21  1  0.23120396  0.46446119  0.75248976  1
  O  O22  1  0.26879604  0.53553881  0.24751024  1
  O  O23  1  0.23337151  0.76876891  0.54183854  1
  O  O24  1  0.23337152  0.76448806  0.95816146  1
  O  O25  1  0.49744300  0.25351941  0.96701167  1
  O  O26  1  0.50211381  0.24910737  0.53284009  1
  O  O27  1  0.26879604  0.92686911  0.25248976  1
  O  O28  1  0.77308186  0.02092263  0.74786511  1
  O  O29  1  0.49744300  0.75159359  0.53298833  1
  O  O30  1  0.50211381  0.74666501  0.96715991  1
  O  O31  1  0.75608689  0.24635165  0.05368664  1
  O  O32  1  0.75608689  0.24147456  0.44631336  1
  O  O33  1  0.77308186  0.43291364  0.75213489  1
  O  O34  1  0.72691814  0.56708636  0.24786511  1
  O  O35  1  0.74391311  0.75852544  0.55368664  1
  O  O36  1  0.74391311  0.75364835  0.94631336  1
  O  O37  1  0.72691814  0.97907737  0.25213489  1
  O  O38  1  0.99788619  0.75089263  0.46715991  1
  O  O39  1  0.00255700  0.74648059  0.03298833  1
