# generated using pymatgen
data_Ca2TiAlSi2O9F
_symmetry_space_group_name_H-M   'P 1'
_cell_length_a   5.43629486
_cell_length_b   10.88464214
_cell_length_c   7.07749608
_cell_angle_alpha   104.42004635
_cell_angle_beta   104.37941070
_cell_angle_gamma   105.80403173
_symmetry_Int_Tables_number   1
_chemical_formula_structural   Ca2TiAlSi2O9F
_chemical_formula_sum   'Ca4 Ti2 Al2 Si4 O18 F2'
_cell_volume   367.11740337
_cell_formula_units_Z   2
loop_
 _symmetry_equiv_pos_site_id
 _symmetry_equiv_pos_as_xyz
  1  'x, y, z'
loop_
 _atom_site_type_symbol
 _atom_site_label
 _atom_site_symmetry_multiplicity
 _atom_site_fract_x
 _atom_site_fract_y
 _atom_site_fract_z
 _atom_site_occupancy
  Ca  Ca0  1  0.16177608  0.91556818  0.74863369  1
  Ca  Ca1  1  0.16946308  0.41849663  0.75160687  1
  Ca  Ca2  1  0.83822392  0.58443182  0.25136631  1
  Ca  Ca3  1  0.83053692  0.08150337  0.24839313  1
  Ti  Ti4  1  0.50000000  0.25000000  0.50000000  1
  Ti  Ti5  1  0.50000000  0.25000000  0.00000000  1
  Al  Al6  1  0.50000000  0.75000000  0.50000000  1
  Al  Al7  1  0.50000000  0.75000000  0.00000000  1
  Si  Si8  1  0.18162617  0.90186589  0.24598896  1
  Si  Si9  1  0.18910598  0.41366499  0.25454997  1
  Si  Si10  1  0.81837383  0.59813411  0.75401104  1
  Si  Si11  1  0.81089402  0.08633501  0.74545003  1
  O  O12  1  0.13059059  0.63292131  0.90643792  1
  O  O13  1  0.19781384  0.80036109  0.38574278  1
  O  O14  1  0.11509028  0.12232539  0.91119434  1
  O  O15  1  0.25955878  0.56746038  0.41218693  1
  O  O16  1  0.39236710  0.89866695  0.11165865  1
  O  O17  1  0.18495121  0.30577275  0.38218701  1
  O  O18  1  0.60763290  0.60133305  0.88834135  1
  O  O19  1  0.74044122  0.93253962  0.58781307  1
  O  O20  1  0.42685922  0.28372351  0.74948590  1
  O  O21  1  0.25318406  0.05616469  0.40610652  1
  O  O22  1  0.39840007  0.41083552  0.12151857  1
  O  O23  1  0.80218616  0.69963891  0.61425722  1
  O  O24  1  0.60159993  0.08916448  0.87848143  1
  O  O25  1  0.74681594  0.44383531  0.59389348  1
  O  O26  1  0.86940941  0.86707869  0.09356208  1
  O  O27  1  0.57314078  0.21627649  0.25051410  1
  O  O28  1  0.81504879  0.19422725  0.61781299  1
  O  O29  1  0.88490972  0.37767461  0.08880566  1
  F  F30  1  0.43411940  0.78574037  0.75065979  1
  F  F31  1  0.56588060  0.71425963  0.24934021  1
