# generated using pymatgen
data_K2Na2Sb2H6O3F10
_symmetry_space_group_name_H-M   'P 1'
_cell_length_a   6.15535340
_cell_length_b   17.90251944
_cell_length_c   6.15382847
_cell_angle_alpha   90.00000000
_cell_angle_beta   90.60891377
_cell_angle_gamma   90.00000000
_symmetry_Int_Tables_number   1
_chemical_formula_structural   K2Na2Sb2H6O3F10
_chemical_formula_sum   'K4 Na4 Sb4 H12 O6 F20'
_cell_volume   678.09104186
_cell_formula_units_Z   2
loop_
 _symmetry_equiv_pos_site_id
 _symmetry_equiv_pos_as_xyz
  1  'x, y, z'
loop_
 _atom_site_type_symbol
 _atom_site_label
 _atom_site_symmetry_multiplicity
 _atom_site_fract_x
 _atom_site_fract_y
 _atom_site_fract_z
 _atom_site_occupancy
  K  K0  1  0.24032877  0.00016615  0.24277925  1
  K  K1  1  0.75967123  0.50016615  0.75722075  1
  K  K2  1  0.75967123  0.99983385  0.75722075  1
  K  K3  1  0.24032877  0.49983385  0.24277925  1
  Na  Na4  1  0.25916847  0.88492991  0.74700223  1
  Na  Na5  1  0.74083153  0.38492991  0.25299777  1
  Na  Na6  1  0.74083153  0.11507009  0.25299777  1
  Na  Na7  1  0.25916847  0.61507009  0.74700223  1
  Sb  Sb8  1  0.74225671  0.86960157  0.25671340  1
  Sb  Sb9  1  0.25774329  0.36960157  0.74328660  1
  Sb  Sb10  1  0.25774329  0.13039843  0.74328660  1
  Sb  Sb11  1  0.74225671  0.63039843  0.25671340  1
  H  H12  1  0.45796251  0.75000000  0.71490620  1
  H  H13  1  0.54203749  0.25000000  0.28509380  1
  H  H14  1  0.26456499  0.75000000  0.54519477  1
  H  H15  1  0.73543501  0.25000000  0.45480523  1
  H  H16  1  0.85603323  0.79344239  0.77409444  1
  H  H17  1  0.14396677  0.29344239  0.22590556  1
  H  H18  1  0.14396677  0.20655761  0.22590556  1
  H  H19  1  0.85603323  0.70655761  0.77409444  1
  H  H20  1  0.21014964  0.79352934  0.17381231  1
  H  H21  1  0.78985036  0.29352934  0.82618769  1
  H  H22  1  0.78985036  0.20647066  0.82618769  1
  H  H23  1  0.21014964  0.70647066  0.17381231  1
  O  O24  1  0.29792860  0.75000000  0.70439766  1
  O  O25  1  0.70207140  0.25000000  0.29560234  1
  O  O26  1  0.76802464  0.75000000  0.73188351  1
  O  O27  1  0.23197536  0.25000000  0.26811649  1
  O  O28  1  0.24998105  0.75000000  0.26125192  1
  O  O29  1  0.75001895  0.25000000  0.73874808  1
  F  F30  1  0.78187603  0.98143194  0.22243145  1
  F  F31  1  0.21812397  0.48143194  0.77756855  1
  F  F32  1  0.21812397  0.01856806  0.77756855  1
  F  F33  1  0.78187603  0.51856806  0.22243145  1
  F  F34  1  0.50910296  0.89707453  0.01680384  1
  F  F35  1  0.49089704  0.39707453  0.98319616  1
  F  F36  1  0.49089704  0.10292547  0.98319616  1
  F  F37  1  0.50910296  0.60292547  0.01680384  1
  F  F38  1  0.98378042  0.89368979  0.49298904  1
  F  F39  1  0.01621958  0.39368979  0.50701096  1
  F  F40  1  0.01621958  0.10631021  0.50701096  1
  F  F41  1  0.98378042  0.60631021  0.49298904  1
  F  F42  1  0.51543749  0.90740123  0.48345206  1
  F  F43  1  0.48456251  0.40740123  0.51654794  1
  F  F44  1  0.48456251  0.09259877  0.51654794  1
  F  F45  1  0.51543749  0.59259877  0.48345206  1
  F  F46  1  0.99385185  0.87431452  0.01288925  1
  F  F47  1  0.00614815  0.37431452  0.98711075  1
  F  F48  1  0.00614815  0.12568548  0.98711075  1
  F  F49  1  0.99385185  0.62568548  0.01288925  1
