# generated using pymatgen
data_YbZr7Si7PO32
_symmetry_space_group_name_H-M   'P 1'
_cell_length_a   5.64581845
_cell_length_b   5.64581876
_cell_length_c   45.17511176
_cell_angle_alpha   106.58050723
_cell_angle_beta   106.58050821
_cell_angle_gamma   115.41471064
_symmetry_Int_Tables_number   1
_chemical_formula_structural   YbZr7Si7PO32
_chemical_formula_sum   'Yb2 Zr14 Si14 P2 O64'
_cell_volume   1099.53357289
_cell_formula_units_Z   2
loop_
 _symmetry_equiv_pos_site_id
 _symmetry_equiv_pos_as_xyz
  1  'x, y, z'
loop_
 _atom_site_type_symbol
 _atom_site_label
 _atom_site_symmetry_multiplicity
 _atom_site_fract_x
 _atom_site_fract_y
 _atom_site_fract_z
 _atom_site_occupancy
  Yb  Yb0  1  0.87742420  0.12742420  0.96935605  1
  Yb  Yb1  1  0.87257580  0.12257580  0.84314395  1
  Zr  Zr2  1  0.12500000  0.87500000  0.90625000  1
  Zr  Zr3  1  0.12560685  0.87560685  0.78140171  1
  Zr  Zr4  1  0.12527999  0.87527999  0.65632000  1
  Zr  Zr5  1  0.12496485  0.87496485  0.53124121  1
  Zr  Zr6  1  0.12500000  0.87500000  0.40625000  1
  Zr  Zr7  1  0.12503515  0.87503515  0.28125879  1
  Zr  Zr8  1  0.87436890  0.12436890  0.71859222  1
  Zr  Zr9  1  0.12472001  0.87472001  0.15618000  1
  Zr  Zr10  1  0.87498501  0.12498501  0.59374625  1
  Zr  Zr11  1  0.12439315  0.87439315  0.03109829  1
  Zr  Zr12  1  0.87497127  0.12497127  0.46874282  1
  Zr  Zr13  1  0.87502873  0.12502873  0.34375718  1
  Zr  Zr14  1  0.87501499  0.12501499  0.21875375  1
  Zr  Zr15  1  0.87563110  0.12563110  0.09390778  1
  Si  Si16  1  0.62500000  0.37500000  0.90625000  1
  Si  Si17  1  0.37567733  0.62567733  0.71891933  1
  Si  Si18  1  0.61997160  0.36997160  0.77999290  1
  Si  Si19  1  0.37481371  0.62481371  0.59370343  1
  Si  Si20  1  0.62455566  0.37455566  0.65613892  1
  Si  Si21  1  0.37491659  0.62491659  0.46872915  1
  Si  Si22  1  0.62483691  0.37483691  0.53120923  1
  Si  Si23  1  0.37508341  0.62508341  0.34377085  1
  Si  Si24  1  0.62500000  0.37500000  0.40625000  1
  Si  Si25  1  0.37518629  0.62518629  0.21879657  1
  Si  Si26  1  0.62516309  0.37516309  0.28129077  1
  Si  Si27  1  0.37432267  0.62432267  0.09358067  1
  Si  Si28  1  0.62544434  0.37544434  0.15636108  1
  Si  Si29  1  0.63002840  0.38002840  0.03250710  1
  P  P30  1  0.37416947  0.62416947  0.96854237  1
  P  P31  1  0.37583053  0.62583053  0.84395763  1
  O  O32  1  0.21933079  0.65132265  0.99144180  1
  O  O33  1  0.34719334  0.78015908  0.94576729  1
  O  O34  1  0.21894497  0.28597923  0.94576729  1
  O  O35  1  0.21984092  0.65280666  0.86673271  1
  O  O36  1  0.71220362  0.78021177  0.99144180  1
  O  O37  1  0.34867735  0.78066921  0.82105820  1
  O  O38  1  0.26350477  0.19137417  0.88404874  1
  O  O39  1  0.21978823  0.28779638  0.82105820  1
  O  O40  1  0.19451498  0.62887206  0.74165238  1
  O  O41  1  0.80862583  0.73649523  0.92845126  1
  O  O42  1  0.71402077  0.78105503  0.86673271  1
  O  O43  1  0.61898428  0.19111487  0.92845126  1
  O  O44  1  0.37121718  0.80355703  0.69586051  1
  O  O45  1  0.25697456  0.19536782  0.75723388  1
  O  O46  1  0.19566690  0.26332704  0.69586051  1
  O  O47  1  0.19481398  0.62771123  0.61658643  1
  O  O48  1  0.80888513  0.38101572  0.88404874  1
  O  O49  1  0.80926741  0.73138905  0.80227465  1
  O  O50  1  0.73870404  0.80434697  0.74165238  1
  O  O51  1  0.60892979  0.18680815  0.80227465  1
  O  O52  1  0.37221721  0.80481757  0.57090838  1
  O  O53  1  0.26218102  0.19489539  0.63335648  1
  O  O54  1  0.19504985  0.26244950  0.57090838  1
  O  O55  1  0.19492404  0.62770048  0.49158931  1
  O  O56  1  0.80089649  0.36250323  0.75723388  1
  O  O57  1  0.80461198  0.73704864  0.67896307  1
  O  O58  1  0.73787746  0.80498022  0.61658643  1
  O  O59  1  0.62709259  0.19465593  0.67896307  1
  O  O60  1  0.37228808  0.80497435  0.44591190  1
  O  O61  1  0.26237144  0.19501967  0.50841105  1
  O  O62  1  0.19500711  0.26232084  0.44591190  1
  O  O63  1  0.19502565  0.62771192  0.36658810  1
  O  O64  1  0.80467085  0.37195648  0.63335648  1
  O  O65  1  0.80500504  0.73780885  0.55408446  1
  O  O66  1  0.73779045  0.80501402  0.49158931  1
  O  O67  1  0.62767064  0.19486683  0.55408446  1
  O  O68  1  0.37229952  0.80507596  0.32091069  1
  O  O69  1  0.26226504  0.19499628  0.38341094  1
  O  O70  1  0.19498598  0.26220955  0.32091069  1
  O  O71  1  0.19518243  0.62778279  0.24159162  1
  O  O72  1  0.80491694  0.37226871  0.50841105  1
  O  O73  1  0.80500372  0.73773496  0.42908906  1
  O  O74  1  0.73767916  0.80499289  0.36658810  1
  O  O75  1  0.62770876  0.19497751  0.42908906  1
  O  O76  1  0.37228877  0.80518602  0.19591357  1
  O  O77  1  0.26219115  0.19499496  0.25841554  1
  O  O78  1  0.19501978  0.26212254  0.19591357  1
  O  O79  1  0.19644297  0.62878282  0.11663949  1
  O  O80  1  0.80502249  0.37229124  0.38341094  1
  O  O81  1  0.80498033  0.73762856  0.30408895  1
  O  O82  1  0.73755050  0.80495015  0.24159162  1
  O  O83  1  0.62773129  0.19508306  0.30408895  1
  O  O84  1  0.37112794  0.80548502  0.07084762  1
  O  O85  1  0.26295136  0.19538802  0.13353693  1
  O  O86  1  0.19565303  0.26129596  0.07084762  1
  O  O87  1  0.80513317  0.37232936  0.25841554  1
  O  O88  1  0.80510461  0.73781898  0.17914352  1
  O  O89  1  0.73667296  0.80433310  0.11663949  1
  O  O90  1  0.62804352  0.19532915  0.17914352  1
  O  O91  1  0.26861095  0.19073259  0.01022535  1
  O  O92  1  0.80534407  0.37290741  0.13353693  1
  O  O93  1  0.80463218  0.74302544  0.05526612  1
  O  O94  1  0.63749677  0.19910351  0.05526612  1
  O  O95  1  0.81319185  0.39107021  0.01022535  1
