# generated using pymatgen
data_BH11C4BrNF4
_symmetry_space_group_name_H-M   'P 1'
_cell_length_a   6.08387834
_cell_length_b   7.90845498
_cell_length_c   9.62135735
_cell_angle_alpha   90.00000000
_cell_angle_beta   104.00144815
_cell_angle_gamma   90.00000000
_symmetry_Int_Tables_number   1
_chemical_formula_structural   BH11C4BrNF4
_chemical_formula_sum   'B2 H22 C8 Br2 N2 F8'
_cell_volume   449.16912356
_cell_formula_units_Z   2
loop_
 _symmetry_equiv_pos_site_id
 _symmetry_equiv_pos_as_xyz
  1  'x, y, z'
loop_
 _atom_site_type_symbol
 _atom_site_label
 _atom_site_symmetry_multiplicity
 _atom_site_fract_x
 _atom_site_fract_y
 _atom_site_fract_z
 _atom_site_occupancy
  B  B0  1  0.05732805  0.75000000  0.76415627  1
  B  B1  1  0.94267195  0.25000000  0.23584373  1
  H  H2  1  0.35929258  0.25000000  0.96307047  1
  H  H3  1  0.49218725  0.01719842  0.20949333  1
  H  H4  1  0.18307219  0.13595105  0.81550173  1
  H  H5  1  0.74776646  0.08910294  0.75384296  1
  H  H6  1  0.64070742  0.75000000  0.03692953  1
  H  H7  1  0.30516284  0.89737742  0.07048063  1
  H  H8  1  0.49218725  0.48280158  0.20949333  1
  H  H9  1  0.26176336  0.13540039  0.58835277  1
  H  H10  1  0.25223354  0.58910294  0.24615704  1
  H  H11  1  0.25223354  0.91089706  0.24615704  1
  H  H12  1  0.73823664  0.86459961  0.41164723  1
  H  H13  1  0.69483716  0.39737742  0.92951937  1
  H  H14  1  0.50781275  0.51719842  0.79050667  1
  H  H15  1  0.81692781  0.63595105  0.18449827  1
  H  H16  1  0.81692781  0.86404895  0.18449827  1
  H  H17  1  0.69483716  0.10262258  0.92951937  1
  H  H18  1  0.18307219  0.36404895  0.81550173  1
  H  H19  1  0.73823664  0.63540039  0.41164723  1
  H  H20  1  0.26176336  0.36459961  0.58835277  1
  H  H21  1  0.50781275  0.98280158  0.79050667  1
  H  H22  1  0.30516284  0.60262258  0.07048063  1
  H  H23  1  0.74776646  0.41089706  0.75384296  1
  C  C24  1  0.38253281  0.59410351  0.18546430  1
  C  C25  1  0.28493963  0.25000000  0.84757645  1
  C  C26  1  0.36448650  0.25000000  0.61346929  1
  C  C27  1  0.61746719  0.09410351  0.81453570  1
  C  C28  1  0.71506037  0.75000000  0.15242355  1
  C  C29  1  0.38253281  0.90589649  0.18546430  1
  C  C30  1  0.61746719  0.40589649  0.81453570  1
  C  C31  1  0.63551350  0.75000000  0.38653071  1
  Br  Br32  1  0.58015129  0.25000000  0.49465051  1
  Br  Br33  1  0.41984871  0.75000000  0.50534949  1
  N  N34  1  0.52445171  0.75000000  0.22789795  1
  N  N35  1  0.47554829  0.25000000  0.77210205  1
  F  F36  1  0.91749735  0.75000000  0.86183746  1
  F  F37  1  0.01725949  0.60308197  0.67683929  1
  F  F38  1  0.28991947  0.75000000  0.84276996  1
  F  F39  1  0.71008053  0.25000000  0.15723004  1
  F  F40  1  0.08250265  0.25000000  0.13816254  1
  F  F41  1  0.98274051  0.39691803  0.32316071  1
  F  F42  1  0.98274051  0.10308197  0.32316071  1
  F  F43  1  0.01725949  0.89691803  0.67683929  1
