# generated using pymatgen
data_Sr4Fe4O11
_symmetry_space_group_name_H-M   'P 1'
_cell_length_a   22.27758211
_cell_length_b   9.64724183
_cell_length_c   5.59350437
_cell_angle_alpha   54.56327847
_cell_angle_beta   59.85669755
_cell_angle_gamma   29.99211730
_symmetry_Int_Tables_number   1
_chemical_formula_structural   Sr4Fe4O11
_chemical_formula_sum   'Sr8 Fe8 O22'
_cell_volume   489.60907350
_cell_formula_units_Z   2
loop_
 _symmetry_equiv_pos_site_id
 _symmetry_equiv_pos_as_xyz
  1  'x, y, z'
loop_
 _atom_site_type_symbol
 _atom_site_label
 _atom_site_symmetry_multiplicity
 _atom_site_fract_x
 _atom_site_fract_y
 _atom_site_fract_z
 _atom_site_occupancy
  Sr  Sr0  1  0.99720667  0.24714495  0.25054183  1
  Sr  Sr1  1  0.25279333  0.25285505  0.24945817  1
  Sr  Sr2  1  0.25279333  0.73597163  0.76634159  1
  Sr  Sr3  1  0.49720667  0.26402837  0.24945817  1
  Sr  Sr4  1  0.49720667  0.74714495  0.76634159  1
  Sr  Sr5  1  0.75279333  0.23597163  0.25054183  1
  Sr  Sr6  1  0.75279333  0.75285505  0.73365841  1
  Sr  Sr7  1  0.99720667  0.76402837  0.73365841  1
  Fe  Fe8  1  0.00296745  0.99406510  0.99754061  1
  Fe  Fe9  1  0.99152899  0.51694202  0.51977341  1
  Fe  Fe10  1  0.24703255  0.50593490  0.50245939  1
  Fe  Fe11  1  0.25847101  0.98305798  0.98022659  1
  Fe  Fe12  1  0.50296745  0.49406510  0.50245939  1
  Fe  Fe13  1  0.49152899  0.01694202  0.98022659  1
  Fe  Fe14  1  0.75847101  0.48305798  0.51977341  1
  Fe  Fe15  1  0.74703255  0.00593490  0.99754061  1
  O  O16  1  0.01214432  0.71403971  0.24188890  1
  O  O17  1  0.12500000  0.25000000  0.75000000  1
  O  O18  1  0.23785568  0.26261701  0.78145438  1
  O  O19  1  0.12500000  0.75000000  0.25000000  1
  O  O20  1  0.38228166  0.23543669  0.26241880  1
  O  O21  1  0.12500000  0.75000000  0.75000000  1
  O  O22  1  0.36963752  0.26072496  0.74862238  1
  O  O23  1  0.23785568  0.78596029  0.25811110  1
  O  O24  1  0.51214432  0.21403971  0.78145438  1
  O  O25  1  0.36771834  0.76456331  0.26241880  1
  O  O26  1  0.38036248  0.73927504  0.74862238  1
  O  O27  1  0.62500000  0.25000000  0.25000000  1
  O  O28  1  0.62500000  0.25000000  0.75000000  1
  O  O29  1  0.51214432  0.73738299  0.25811110  1
  O  O30  1  0.73785568  0.28596029  0.71854562  1
  O  O31  1  0.86771834  0.26456331  0.23758120  1
  O  O32  1  0.62500000  0.75000000  0.75000000  1
  O  O33  1  0.88036248  0.23927504  0.75137762  1
  O  O34  1  0.73785568  0.76261701  0.24188890  1
  O  O35  1  0.88228166  0.73543669  0.23758120  1
  O  O36  1  0.01214432  0.23738299  0.71854562  1
  O  O37  1  0.86963752  0.76072496  0.75137762  1
