# generated using pymatgen
data_Li7Mn16O32
_symmetry_space_group_name_H-M   'P 1'
_cell_length_a   23.51708122
_cell_length_b   8.38996269
_cell_length_c   10.21844343
_cell_angle_alpha   65.91058299
_cell_angle_beta   30.59334386
_cell_angle_gamma   44.67654369
_symmetry_Int_Tables_number   1
_chemical_formula_structural   Li7Mn16O32
_chemical_formula_sum   'Li7 Mn16 O32'
_cell_volume   592.82294336
_cell_formula_units_Z   1
loop_
 _symmetry_equiv_pos_site_id
 _symmetry_equiv_pos_as_xyz
  1  'x, y, z'
loop_
 _atom_site_type_symbol
 _atom_site_label
 _atom_site_symmetry_multiplicity
 _atom_site_fract_x
 _atom_site_fract_y
 _atom_site_fract_z
 _atom_site_occupancy
  Li  Li0  1  0.05429518  0.12856351  0.76234200  1
  Li  Li1  1  0.19420673  0.87553502  0.23552416  1
  Li  Li2  1  0.31198695  0.11944563  0.75211563  1
  Li  Li3  1  0.44099020  0.87188506  0.24532352  1
  Li  Li4  1  0.55529727  0.13039923  0.76047637  1
  Li  Li5  1  0.80836964  0.12731145  0.76095626  1
  Li  Li6  1  0.94326672  0.87320513  0.23966873  1
  Mn  Mn7  1  0.12563686  0.00603481  0.99378438  1
  Mn  Mn8  1  0.25094752  0.49797374  0.99799678  1
  Mn  Mn9  1  0.37272686  0.99557781  0.00247062  1
  Mn  Mn10  1  0.12717344  0.49910396  0.49498656  1
  Mn  Mn11  1  0.25144532  0.49967409  0.50101152  1
  Mn  Mn12  1  0.50332558  0.49386972  0.99906804  1
  Mn  Mn13  1  0.62564443  0.99602224  0.00582426  1
  Mn  Mn14  1  0.37803098  0.49543641  0.50024173  1
  Mn  Mn15  1  0.49403683  0.50938515  0.51291744  1
  Mn  Mn16  1  0.87661212  0.00054180  0.99672681  1
  Mn  Mn17  1  0.74470016  0.50789122  0.00950110  1
  Mn  Mn18  1  0.62071910  0.50318029  0.50834993  1
  Mn  Mn19  1  0.74842868  0.50637415  0.49725729  1
  Mn  Mn20  1  0.00344549  0.49961258  0.98967291  1
  Mn  Mn21  1  0.87163435  0.50641088  0.50065041  1
  Mn  Mn22  1  0.00496715  0.48563272  0.48914184  1
  O  O23  1  0.11542874  0.25803596  0.99460110  1
  O  O24  1  0.23999421  0.24365535  0.03600374  1
  O  O25  1  0.02339818  0.69883424  0.46166185  1
  O  O26  1  0.13838607  0.23310307  0.45573057  1
  O  O27  1  0.35477565  0.24750186  0.03219332  1
  O  O28  1  0.23061791  0.29059267  0.53009591  1
  O  O29  1  0.14218323  0.72528489  0.49395900  1
  O  O30  1  0.01742348  0.71980544  0.95964404  1
  O  O31  1  0.48860489  0.26190629  0.04304346  1
  O  O32  1  0.38908426  0.25384418  0.46822652  1
  O  O33  1  0.25943277  0.71080402  0.50429093  1
  O  O34  1  0.60261137  0.26164735  0.03648056  1
  O  O35  1  0.15195125  0.73383571  0.95572702  1
  O  O36  1  0.47457672  0.30245948  0.54015972  1
  O  O37  1  0.38938253  0.70708387  0.48719344  1
  O  O38  1  0.25890601  0.75603949  0.96135296  1
  O  O39  1  0.73083756  0.27702950  0.05048494  1
  O  O40  1  0.61081208  0.29094157  0.51422362  1
  O  O41  1  0.50384033  0.71995871  0.51106574  1
  O  O42  1  0.84262532  0.27544304  0.05212396  1
  O  O43  1  0.40245673  0.72350205  0.96533121  1
  O  O44  1  0.60815673  0.74358493  0.54367051  1
  O  O45  1  0.74542796  0.28396502  0.49385307  1
  O  O46  1  0.51306801  0.73448598  0.95913570  1
  O  O47  1  0.98407845  0.28173891  0.03518232  1
  O  O48  1  0.86162584  0.29066646  0.50232564  1
  O  O49  1  0.77366713  0.71214511  0.45694662  1
  O  O50  1  0.62700717  0.76529796  0.00971742  1
  O  O51  1  0.98833073  0.28533777  0.50127510  1
  O  O52  1  0.85874872  0.75144612  0.54226308  1
  O  O53  1  0.77070997  0.72197388  0.94615223  1
  O  O54  1  0.90646246  0.73398249  0.94987642  1
