# generated using pymatgen
data_LiFeP2O7
_symmetry_space_group_name_H-M   'P 1'
_cell_length_a   6.31771749
_cell_length_b   6.31928659
_cell_length_c   13.16914351
_cell_angle_alpha   78.51003761
_cell_angle_beta   78.43676292
_cell_angle_gamma   99.51249608
_symmetry_Int_Tables_number   1
_chemical_formula_structural   LiFeP2O7
_chemical_formula_sum   'Li4 Fe4 P8 O28'
_cell_volume   493.10137456
_cell_formula_units_Z   4
loop_
 _symmetry_equiv_pos_site_id
 _symmetry_equiv_pos_as_xyz
  1  'x, y, z'
loop_
 _atom_site_type_symbol
 _atom_site_label
 _atom_site_symmetry_multiplicity
 _atom_site_fract_x
 _atom_site_fract_y
 _atom_site_fract_z
 _atom_site_occupancy
  Li  Li0  1  0.60299696  0.01128413  0.63207896  1
  Li  Li1  1  0.84981107  0.76899997  0.12925120  1
  Li  Li2  1  0.39737407  0.98808696  0.36992735  1
  Li  Li3  1  0.14211017  0.23388878  0.86962368  1
  Fe  Fe4  1  0.25800801  0.12505280  0.14272273  1
  Fe  Fe5  1  0.76763157  0.40491011  0.35820383  1
  Fe  Fe6  1  0.73967263  0.87552178  0.85749458  1
  Fe  Fe7  1  0.23118830  0.59639725  0.64172727  1
  P  P8  1  0.11806713  0.09508015  0.63536721  1
  P  P9  1  0.24073422  0.42085354  0.42597749  1
  P  P10  1  0.34792214  0.66868442  0.07392669  1
  P  P11  1  0.76639165  0.24785839  0.13679960  1
  P  P12  1  0.75821747  0.58123807  0.57342290  1
  P  P13  1  0.23123286  0.75349571  0.86359066  1
  P  P14  1  0.88082860  0.90630667  0.36445291  1
  P  P15  1  0.65008923  0.33224384  0.92700065  1
  O  O16  1  0.32128784  0.43981769  0.14543651  1
  O  O17  1  0.81708831  0.42854980  0.19595902  1
  O  O18  1  0.43670979  0.33281062  0.37444837  1
  O  O19  1  0.90947914  0.78889094  0.47891722  1
  O  O20  1  0.30439878  0.61429300  0.47643629  1
  O  O21  1  0.40706932  0.21570780  0.97701033  1
  O  O22  1  0.45723651  0.91187645  0.81321500  1
  O  O23  1  0.59162116  0.78466678  0.02394998  1
  O  O24  1  0.67596837  0.56080198  0.85509082  1
  O  O25  1  0.17905670  0.57299364  0.80444837  1
  O  O26  1  0.26960286  0.93183655  0.61667017  1
  O  O27  1  0.20684625  0.81126253  0.12618702  1
  O  O28  1  0.76392739  0.38757039  0.02163141  1
  O  O29  1  0.79131537  0.18915142  0.87492528  1
  O  O30  1  0.08497113  0.46621409  0.35364436  1
  O  O31  1  0.09072265  0.21250582  0.52078272  1
  O  O32  1  0.23525977  0.61491317  0.97857321  1
  O  O33  1  0.91383323  0.53403254  0.64588691  1
  O  O34  1  0.12010888  0.01556147  0.30433005  1
  O  O35  1  0.94756070  0.11345840  0.11810304  1
  O  O36  1  0.56308616  0.67070999  0.62475677  1
  O  O37  1  0.54108379  0.08853985  0.18630273  1
  O  O38  1  0.72871768  0.06896598  0.38344256  1
  O  O39  1  0.87892921  0.98607451  0.69588013  1
  O  O40  1  0.05016123  0.88783819  0.88233392  1
  O  O41  1  0.69316359  0.38828152  0.52304965  1
  O  O42  1  0.76951459  0.72961924  0.31571323  1
  O  O43  1  0.22870554  0.27198205  0.68434521  1
