# generated using pymatgen
data_HClO4
_symmetry_space_group_name_H-M   'P 1'
_cell_length_a   9.15874405
_cell_length_b   16.18914023
_cell_length_c   8.85812922
_cell_angle_alpha   90.00000000
_cell_angle_beta   90.00000000
_cell_angle_gamma   90.00000000
_symmetry_Int_Tables_number   1
_chemical_formula_structural   HClO4
_chemical_formula_sum   'H16 Cl16 O64'
_cell_volume   1313.41423431
_cell_formula_units_Z   16
loop_
 _symmetry_equiv_pos_site_id
 _symmetry_equiv_pos_as_xyz
  1  'x, y, z'
loop_
 _atom_site_type_symbol
 _atom_site_label
 _atom_site_symmetry_multiplicity
 _atom_site_fract_x
 _atom_site_fract_y
 _atom_site_fract_z
 _atom_site_occupancy
  H  H0  1  0.23908575  0.98731021  0.86972166  1
  H  H1  1  0.76091425  0.01268979  0.36972166  1
  H  H2  1  0.26091425  0.98731021  0.36972166  1
  H  H3  1  0.73908575  0.01268979  0.86972166  1
  H  H4  1  0.51798960  0.23527949  0.66805658  1
  H  H5  1  0.48201040  0.76472051  0.16805658  1
  H  H6  1  0.98201040  0.23527949  0.16805658  1
  H  H7  1  0.01798960  0.76472051  0.66805658  1
  H  H8  1  0.48026627  0.26809389  0.17443921  1
  H  H9  1  0.51973373  0.73190611  0.67443921  1
  H  H10  1  0.01973373  0.26809389  0.67443921  1
  H  H11  1  0.98026627  0.73190611  0.17443921  1
  H  H12  1  0.26554909  0.49958814  0.10933147  1
  H  H13  1  0.73445091  0.50041186  0.60933147  1
  H  H14  1  0.23445091  0.49958814  0.60933147  1
  H  H15  1  0.76554909  0.50041186  0.10933147  1
  Cl  Cl16  1  0.04035857  0.00981410  0.74721966  1
  Cl  Cl17  1  0.95964143  0.99018590  0.24721966  1
  Cl  Cl18  1  0.45964143  0.00981410  0.24721966  1
  Cl  Cl19  1  0.54035857  0.99018590  0.74721966  1
  Cl  Cl20  1  0.71574041  0.24959741  0.53850316  1
  Cl  Cl21  1  0.28425959  0.75040259  0.03850316  1
  Cl  Cl22  1  0.78425959  0.24959741  0.03850316  1
  Cl  Cl23  1  0.21574041  0.75040259  0.53850316  1
  Cl  Cl24  1  0.29586103  0.25079341  0.02693080  1
  Cl  Cl25  1  0.70413897  0.74920659  0.52693080  1
  Cl  Cl26  1  0.20413897  0.25079341  0.52693080  1
  Cl  Cl27  1  0.79586103  0.74920659  0.02693080  1
  Cl  Cl28  1  0.45822162  0.51024385  0.24841674  1
  Cl  Cl29  1  0.54177838  0.48975615  0.74841674  1
  Cl  Cl30  1  0.04177838  0.51024385  0.74841674  1
  Cl  Cl31  1  0.95822162  0.48975615  0.24841674  1
  O  O32  1  0.14736126  0.01732349  0.89650730  1
  O  O33  1  0.85263874  0.98267651  0.39650730  1
  O  O34  1  0.35263874  0.01732349  0.39650730  1
  O  O35  1  0.64736126  0.98267651  0.89650730  1
  O  O36  1  0.00598775  0.92405800  0.73152254  1
  O  O37  1  0.99401225  0.07594200  0.23152254  1
  O  O38  1  0.49401225  0.92405800  0.23152254  1
  O  O39  1  0.50598775  0.07594200  0.73152254  1
  O  O40  1  0.12013408  0.04439688  0.62409186  1
  O  O41  1  0.87986592  0.95560312  0.12409186  1
  O  O42  1  0.37986592  0.04439688  0.12409186  1
  O  O43  1  0.62013408  0.95560312  0.62409186  1
  O  O44  1  0.91817836  0.05959940  0.79373293  1
  O  O45  1  0.08182164  0.94040060  0.29373293  1
  O  O46  1  0.58182164  0.05959940  0.29373293  1
  O  O47  1  0.41817836  0.94040060  0.79373293  1
  O  O48  1  0.61430469  0.26034073  0.69208617  1
  O  O49  1  0.38569531  0.73965927  0.19208617  1
  O  O50  1  0.88569531  0.26034073  0.19208617  1
  O  O51  1  0.11430469  0.73965927  0.69208617  1
  O  O52  1  0.75545411  0.16414132  0.53029351  1
  O  O53  1  0.24454589  0.83585868  0.03029351  1
  O  O54  1  0.74454589  0.16414132  0.03029351  1
  O  O55  1  0.25545411  0.83585868  0.53029351  1
  O  O56  1  0.83555946  0.30316345  0.57406712  1
  O  O57  1  0.16444054  0.69683655  0.07406712  1
  O  O58  1  0.66444054  0.30316345  0.07406712  1
  O  O59  1  0.33555946  0.69683655  0.57406712  1
  O  O60  1  0.62760307  0.27786826  0.41606907  1
  O  O61  1  0.37239693  0.72213174  0.91606907  1
  O  O62  1  0.87239693  0.27786826  0.91606907  1
  O  O63  1  0.12760307  0.72213174  0.41606907  1
  O  O64  1  0.38247792  0.24294881  0.19055843  1
  O  O65  1  0.61752208  0.75705119  0.69055843  1
  O  O66  1  0.11752208  0.24294881  0.69055843  1
  O  O67  1  0.88247792  0.75705119  0.19055843  1
  O  O68  1  0.16428232  0.20666600  0.06008778  1
  O  O69  1  0.83571768  0.79333400  0.56008778  1
  O  O70  1  0.33571768  0.20666600  0.56008778  1
  O  O71  1  0.66428232  0.79333400  0.06008778  1
  O  O72  1  0.27573434  0.33722368  0.99983356  1
  O  O73  1  0.72426566  0.66277632  0.49983356  1
  O  O74  1  0.22426566  0.33722368  0.49983356  1
  O  O75  1  0.77573434  0.66277632  0.99983356  1
  O  O76  1  0.38622292  0.21034940  0.91802841  1
  O  O77  1  0.61377708  0.78965060  0.41802841  1
  O  O78  1  0.11377708  0.21034940  0.41802841  1
  O  O79  1  0.88622292  0.78965060  0.91802841  1
  O  O80  1  0.36211001  0.52609537  0.09261272  1
  O  O81  1  0.63788999  0.47390463  0.59261272  1
  O  O82  1  0.13788999  0.52609537  0.59261272  1
  O  O83  1  0.86211001  0.47390463  0.09261272  1
  O  O84  1  0.47242266  0.42275999  0.26497792  1
  O  O85  1  0.52757734  0.57724001  0.76497792  1
  O  O86  1  0.02757734  0.42275999  0.76497792  1
  O  O87  1  0.97242266  0.57724001  0.26497792  1
  O  O88  1  0.38002151  0.54943674  0.36833531  1
  O  O89  1  0.61997849  0.45056326  0.86833531  1
  O  O90  1  0.11997849  0.54943674  0.86833531  1
  O  O91  1  0.88002151  0.45056326  0.36833531  1
  O  O92  1  0.59135117  0.55180559  0.20896608  1
  O  O93  1  0.40864883  0.44819441  0.70896608  1
  O  O94  1  0.90864883  0.55180559  0.70896608  1
  O  O95  1  0.09135117  0.44819441  0.20896608  1
