# generated using pymatgen
data_CoPO4
_symmetry_space_group_name_H-M   'P 1'
_cell_length_a   8.66022156
_cell_length_b   8.66015718
_cell_length_c   8.66015431
_cell_angle_alpha   108.18394741
_cell_angle_beta   108.18047781
_cell_angle_gamma   108.18043675
_symmetry_Int_Tables_number   1
_chemical_formula_structural   CoPO4
_chemical_formula_sum   'Co6 P6 O24'
_cell_volume   522.49639832
_cell_formula_units_Z   6
loop_
 _symmetry_equiv_pos_site_id
 _symmetry_equiv_pos_as_xyz
  1  'x, y, z'
loop_
 _atom_site_type_symbol
 _atom_site_label
 _atom_site_symmetry_multiplicity
 _atom_site_fract_x
 _atom_site_fract_y
 _atom_site_fract_z
 _atom_site_occupancy
  Co  Co0  1  0.76021579  0.94296756  0.52851835  1
  Co  Co1  1  0.23685327  0.04441288  0.45276977  1
  Co  Co2  1  0.04440889  0.45277425  0.23685402  1
  Co  Co3  1  0.94297721  0.52850413  0.76020359  1
  Co  Co4  1  0.52850610  0.76020115  0.94298526  1
  Co  Co5  1  0.45277674  0.23685151  0.04440684  1
  P  P6  1  0.79566960  0.57076331  0.38787254  1
  P  P7  1  0.38787588  0.79566909  0.57076979  1
  P  P8  1  0.08978991  0.28354609  0.87947642  1
  P  P9  1  0.28353898  0.87947467  0.08978263  1
  P  P10  1  0.87947889  0.08978095  0.28354307  1
  P  P11  1  0.57077181  0.38787829  0.79567042  1
  O  O12  1  0.90664979  0.61200108  0.58643160  1
  O  O13  1  0.70968888  0.38392697  0.71973137  1
  O  O14  1  0.91825773  0.58524290  0.28958261  1
  O  O15  1  0.73438235  0.99005543  0.08132580  1
  O  O16  1  0.37531318  0.28445557  0.63555860  1
  O  O17  1  0.58525570  0.28963599  0.91830181  1
  O  O18  1  0.58642063  0.90666710  0.61199298  1
  O  O19  1  0.38393572  0.71972984  0.70968944  1
  O  O20  1  0.40687370  0.78171257  0.08687136  1
  O  O21  1  0.08688069  0.40687359  0.78171685  1
  O  O22  1  0.61202660  0.58644918  0.90665745  1
  O  O23  1  0.08132553  0.73438629  0.99004868  1
  O  O24  1  0.33296007  0.00161897  0.28696212  1
  O  O25  1  0.63552996  0.37532044  0.28445971  1
  O  O26  1  0.71974319  0.70969291  0.38395759  1
  O  O27  1  0.99003336  0.08132709  0.73439807  1
  O  O28  1  0.78173913  0.08687321  0.40689218  1
  O  O29  1  0.00164721  0.28695926  0.33296702  1
  O  O30  1  0.31713467  0.99866186  0.99012557  1
  O  O31  1  0.28697807  0.33296078  0.00160142  1
  O  O32  1  0.28445650  0.63555354  0.37529356  1
  O  O33  1  0.99011296  0.31715203  0.99864612  1
  O  O34  1  0.28960623  0.91828180  0.58525290  1
  O  O35  1  0.99864809  0.99010071  0.31714547  1
