# generated using pymatgen
data_MgH2(CO2)2
_symmetry_space_group_name_H-M   'P 1'
_cell_length_a   10.06299481
_cell_length_b   11.50996519
_cell_length_c   14.86817065
_cell_angle_alpha   91.42253495
_cell_angle_beta   90.00000000
_cell_angle_gamma   90.00000000
_symmetry_Int_Tables_number   1
_chemical_formula_structural   MgH2(CO2)2
_chemical_formula_sum   'Mg12 H24 C24 O48'
_cell_volume   1721.57095599
_cell_formula_units_Z   12
loop_
 _symmetry_equiv_pos_site_id
 _symmetry_equiv_pos_as_xyz
  1  'x, y, z'
loop_
 _atom_site_type_symbol
 _atom_site_label
 _atom_site_symmetry_multiplicity
 _atom_site_fract_x
 _atom_site_fract_y
 _atom_site_fract_z
 _atom_site_occupancy
  Mg  Mg0  1  0.88676231  0.73999759  0.30879693  1
  Mg  Mg1  1  0.61323769  0.23999759  0.80879693  1
  Mg  Mg2  1  0.57785577  0.74403703  0.36519608  1
  Mg  Mg3  1  0.11323769  0.26000241  0.69120307  1
  Mg  Mg4  1  0.50000000  0.00000000  0.50000000  1
  Mg  Mg5  1  0.42214423  0.25596297  0.63480392  1
  Mg  Mg6  1  0.38676231  0.76000241  0.19120307  1
  Mg  Mg7  1  0.07785577  0.75596297  0.13480392  1
  Mg  Mg8  1  0.92214423  0.24403703  0.86519608  1
  Mg  Mg9  1  0.00000000  0.50000000  0.00000000  1
  Mg  Mg10  1  0.50000000  0.50000000  0.50000000  1
  Mg  Mg11  1  0.00000000  0.00000000  0.00000000  1
  H  H12  1  0.95960211  0.47131876  0.26995473  1
  H  H13  1  0.25361316  0.36533078  0.87286746  1
  H  H14  1  0.24638684  0.86533078  0.37286746  1
  H  H15  1  0.83700799  0.69138035  0.92495162  1
  H  H16  1  0.79757418  0.98288918  0.23491784  1
  H  H17  1  0.89262230  0.93626670  0.45912258  1
  H  H18  1  0.16299201  0.30861965  0.07504838  1
  H  H19  1  0.54039789  0.97131876  0.76995473  1
  H  H20  1  0.10737770  0.06373330  0.54087742  1
  H  H21  1  0.66299201  0.19138035  0.42495162  1
  H  H22  1  0.04039789  0.52868124  0.73004527  1
  H  H23  1  0.70242582  0.48288918  0.73491784  1
  H  H24  1  0.29510980  0.99989091  0.00974604  1
  H  H25  1  0.39262230  0.56373330  0.04087742  1
  H  H26  1  0.20242582  0.01711082  0.76508216  1
  H  H27  1  0.60737770  0.43626670  0.95912258  1
  H  H28  1  0.74638684  0.63466922  0.12713254  1
  H  H29  1  0.33700799  0.80861965  0.57504838  1
  H  H30  1  0.20489020  0.49989091  0.50974604  1
  H  H31  1  0.45960211  0.02868124  0.23004527  1
  H  H32  1  0.79510980  0.50010909  0.49025396  1
  H  H33  1  0.29757418  0.51711082  0.26508216  1
  H  H34  1  0.75361316  0.13466922  0.62713254  1
  H  H35  1  0.70489020  0.00010909  0.99025396  1
  C  C36  1  0.28489143  0.57924930  0.05058921  1
  C  C37  1  0.86977576  0.95157523  0.18342017  1
  C  C38  1  0.13022424  0.04842477  0.81657983  1
  C  C39  1  0.40086792  0.75693616  0.52877209  1
  C  C40  1  0.77470783  0.57091454  0.44337974  1
  C  C41  1  0.16705588  0.82897577  0.32908758  1
  C  C42  1  0.48337110  0.98012893  0.29139297  1
  C  C43  1  0.51662890  0.01987107  0.70860703  1
  C  C44  1  0.83294412  0.17102423  0.67091242  1
  C  C45  1  0.98337110  0.51987107  0.20860703  1
  C  C46  1  0.21510857  0.07924930  0.55058921  1
  C  C47  1  0.90086792  0.74306384  0.97122791  1
  C  C48  1  0.66705588  0.67102423  0.17091242  1
  C  C49  1  0.71510857  0.42075070  0.94941079  1
  C  C50  1  0.27470783  0.92908546  0.05662026  1
  C  C51  1  0.09913208  0.25693616  0.02877209  1
  C  C52  1  0.33294412  0.32897577  0.82908758  1
  C  C53  1  0.63022424  0.45157523  0.68342017  1
  C  C54  1  0.78489143  0.92075070  0.44941079  1
  C  C55  1  0.59913208  0.24306384  0.47122791  1
  C  C56  1  0.36977576  0.54842477  0.31657983  1
  C  C57  1  0.22529217  0.42908546  0.55662026  1
  C  C58  1  0.01662890  0.48012893  0.79139297  1
  C  C59  1  0.72529217  0.07091454  0.94337974  1
  O  O60  1  0.52577200  0.18433754  0.52501106  1
  O  O61  1  0.79527088  0.47830884  0.99683889  1
  O  O62  1  0.50050042  0.03587349  0.36366030  1
  O  O63  1  0.39559257  0.64876314  0.53202425  1
  O  O64  1  0.30141559  0.30531462  0.74679319  1
  O  O65  1  0.65226635  0.60249356  0.43660542  1
  O  O66  1  0.70472912  0.97830884  0.49683889  1
  O  O67  1  0.49949958  0.96412651  0.63633970  1
  O  O68  1  0.58119940  0.34988698  0.69582897  1
  O  O69  1  0.08119940  0.15011302  0.80417103  1
  O  O70  1  0.89559257  0.85123686  0.96797575  1
  O  O71  1  0.99100392  0.63103177  0.21865248  1
  O  O72  1  0.60456203  0.51657054  0.61975487  1
  O  O73  1  0.34773365  0.39750644  0.56339458  1
  O  O74  1  0.10456203  0.98342946  0.88024513  1
  O  O75  1  0.20472912  0.52169116  0.00316111  1
  O  O76  1  0.97422800  0.68433754  0.02501106  1
  O  O77  1  0.00050042  0.46412651  0.13633970  1
  O  O78  1  0.39543797  0.48342946  0.38024513  1
  O  O79  1  0.29527088  0.02169116  0.50316111  1
  O  O80  1  0.60440743  0.35123686  0.46797575  1
  O  O81  1  0.74589674  0.34350508  0.88856554  1
  O  O82  1  0.44556821  0.31476059  0.86338327  1
  O  O83  1  0.37108004  0.88704681  0.09824853  1
  O  O84  1  0.75410326  0.84350508  0.38856554  1
  O  O85  1  0.24589674  0.15649492  0.61143446  1
  O  O86  1  0.84773365  0.10249356  0.93660542  1
  O  O87  1  0.41880060  0.65011302  0.30417103  1
  O  O88  1  0.99949958  0.53587349  0.86366030  1
  O  O89  1  0.19858441  0.80531462  0.24679319  1
  O  O90  1  0.87108004  0.61295319  0.40175147  1
  O  O91  1  0.62891996  0.11295319  0.90175147  1
  O  O92  1  0.50899608  0.13103177  0.71865248  1
  O  O93  1  0.47422800  0.81566246  0.47498894  1
  O  O94  1  0.00899608  0.36896823  0.78134752  1
  O  O95  1  0.89543797  0.01657054  0.11975487  1
  O  O96  1  0.49100392  0.86896823  0.28134752  1
  O  O97  1  0.55443179  0.68523941  0.13661673  1
  O  O98  1  0.10440743  0.14876314  0.03202425  1
  O  O99  1  0.02577200  0.31566246  0.97498894  1
  O  O100  1  0.15226635  0.89750644  0.06339458  1
  O  O101  1  0.80141559  0.19468538  0.75320681  1
  O  O102  1  0.91880060  0.84988698  0.19582897  1
  O  O103  1  0.25410326  0.65649492  0.11143446  1
  O  O104  1  0.12891996  0.38704681  0.59824853  1
  O  O105  1  0.05443179  0.81476059  0.36338327  1
  O  O106  1  0.94556821  0.18523941  0.63661673  1
  O  O107  1  0.69858441  0.69468538  0.25320681  1
