# generated using pymatgen
data_CaH2I2O7
_symmetry_space_group_name_H-M   'P 1'
_cell_length_a   8.60601105
_cell_length_b   10.16259526
_cell_length_c   7.62754927
_cell_angle_alpha   90.00000000
_cell_angle_beta   95.07420378
_cell_angle_gamma   90.00000000
_symmetry_Int_Tables_number   1
_chemical_formula_structural   CaH2I2O7
_chemical_formula_sum   'Ca4 H8 I8 O28'
_cell_volume   664.48655974
_cell_formula_units_Z   4
loop_
 _symmetry_equiv_pos_site_id
 _symmetry_equiv_pos_as_xyz
  1  'x, y, z'
loop_
 _atom_site_type_symbol
 _atom_site_label
 _atom_site_symmetry_multiplicity
 _atom_site_fract_x
 _atom_site_fract_y
 _atom_site_fract_z
 _atom_site_occupancy
  Ca  Ca0  1  0.78734194  0.99194019  0.83644738  1
  Ca  Ca1  1  0.21265806  0.49194019  0.66355262  1
  Ca  Ca2  1  0.21265806  0.00805981  0.16355262  1
  Ca  Ca3  1  0.78734194  0.50805981  0.33644738  1
  H  H4  1  0.63108193  0.99476194  0.18128105  1
  H  H5  1  0.36891807  0.49476194  0.31871895  1
  H  H6  1  0.36891807  0.00523806  0.81871895  1
  H  H7  1  0.63108193  0.50523806  0.68128105  1
  H  H8  1  0.77871101  0.90199057  0.22077782  1
  H  H9  1  0.22128899  0.40199057  0.27922218  1
  H  H10  1  0.22128899  0.09800943  0.77922218  1
  H  H11  1  0.77871101  0.59800943  0.72077782  1
  I  I12  1  0.97197544  0.30991854  0.95674106  1
  I  I13  1  0.02802456  0.80991854  0.54325894  1
  I  I14  1  0.02802456  0.69008146  0.04325894  1
  I  I15  1  0.97197544  0.19008146  0.45674106  1
  I  I16  1  0.48520569  0.81350415  0.55433828  1
  I  I17  1  0.51479431  0.31350415  0.94566172  1
  I  I18  1  0.51479431  0.18649585  0.44566172  1
  I  I19  1  0.48520569  0.68649585  0.05433828  1
  O  O20  1  0.97812908  0.14034806  0.04214025  1
  O  O21  1  0.02187092  0.64034806  0.45785975  1
  O  O22  1  0.02187092  0.85965194  0.95785975  1
  O  O23  1  0.97812908  0.35965194  0.54214025  1
  O  O24  1  0.16986372  0.33014132  0.89597677  1
  O  O25  1  0.83013628  0.83014132  0.60402323  1
  O  O26  1  0.83013628  0.66985868  0.10402323  1
  O  O27  1  0.16986372  0.16985868  0.39597677  1
  O  O28  1  0.99150648  0.39773296  0.16894280  1
  O  O29  1  0.00849352  0.89773296  0.33105720  1
  O  O30  1  0.00849352  0.60226704  0.83105720  1
  O  O31  1  0.99150648  0.10226704  0.66894280  1
  O  O32  1  0.64980325  0.18665454  0.88523494  1
  O  O33  1  0.35019675  0.68665454  0.61476506  1
  O  O34  1  0.35019675  0.81334546  0.11476506  1
  O  O35  1  0.64980325  0.31334546  0.38523494  1
  O  O36  1  0.66145494  0.06323358  0.51966301  1
  O  O37  1  0.33854506  0.56323358  0.98033699  1
  O  O38  1  0.33854506  0.93676642  0.48033699  1
  O  O39  1  0.66145494  0.43676642  0.01966301  1
  O  O40  1  0.53868765  0.87784045  0.77734865  1
  O  O41  1  0.46131235  0.37784045  0.72265135  1
  O  O42  1  0.46131235  0.12215955  0.22265135  1
  O  O43  1  0.53868765  0.62215955  0.27734865  1
  O  O44  1  0.69629596  0.92806092  0.12974858  1
  O  O45  1  0.30370404  0.42806092  0.37025142  1
  O  O46  1  0.30370404  0.07193908  0.87025142  1
  O  O47  1  0.69629596  0.57193908  0.62974858  1
