# generated using pymatgen
data_KMn2Zn3(Si2O5)6
_symmetry_space_group_name_H-M   'P 1'
_cell_length_a   10.32653036
_cell_length_b   10.32653016
_cell_length_c   14.37569351
_cell_angle_alpha   90.00000000
_cell_angle_beta   90.00000000
_cell_angle_gamma   120.00000065
_symmetry_Int_Tables_number   1
_chemical_formula_structural   KMn2Zn3(Si2O5)6
_chemical_formula_sum   'K2 Mn4 Zn6 Si24 O60'
_cell_volume   1327.60316086
_cell_formula_units_Z   2
loop_
 _symmetry_equiv_pos_site_id
 _symmetry_equiv_pos_as_xyz
  1  'x, y, z'
loop_
 _atom_site_type_symbol
 _atom_site_label
 _atom_site_symmetry_multiplicity
 _atom_site_fract_x
 _atom_site_fract_y
 _atom_site_fract_z
 _atom_site_occupancy
  K  K0  1  0.00000000  0.00000000  0.24717186  1
  K  K1  1  0.00000000  0.00000000  0.74717186  1
  Mn  Mn2  1  0.33333300  0.66666700  0.25037123  1
  Mn  Mn3  1  0.33333300  0.66666700  0.75037123  1
  Mn  Mn4  1  0.66666700  0.33333300  0.25037123  1
  Mn  Mn5  1  0.66666700  0.33333300  0.75037123  1
  Zn  Zn6  1  0.00000000  0.50000000  0.75063403  1
  Zn  Zn7  1  0.50000000  0.00000000  0.25063403  1
  Zn  Zn8  1  0.50000000  0.00000000  0.75063403  1
  Zn  Zn9  1  0.50000000  0.50000000  0.75063403  1
  Zn  Zn10  1  0.00000000  0.50000000  0.25063403  1
  Zn  Zn11  1  0.50000000  0.50000000  0.25063403  1
  Si  Si12  1  0.23526330  0.88713327  0.38925583  1
  Si  Si13  1  0.23529015  0.34809292  0.11192623  1
  Si  Si14  1  0.88713327  0.23526330  0.88925583  1
  Si  Si15  1  0.65186997  0.88713327  0.88925583  1
  Si  Si16  1  0.34813003  0.23526330  0.38925583  1
  Si  Si17  1  0.76470985  0.65190708  0.11192623  1
  Si  Si18  1  0.76473670  0.11286673  0.38925583  1
  Si  Si19  1  0.65190708  0.76470985  0.61192623  1
  Si  Si20  1  0.65190708  0.88719724  0.11192623  1
  Si  Si21  1  0.88719724  0.23529015  0.11192623  1
  Si  Si22  1  0.23529015  0.88719724  0.61192623  1
  Si  Si23  1  0.11286673  0.76473670  0.88925583  1
  Si  Si24  1  0.11286673  0.34813003  0.38925583  1
  Si  Si25  1  0.34813003  0.11286673  0.88925583  1
  Si  Si26  1  0.34809292  0.11280276  0.11192623  1
  Si  Si27  1  0.23526330  0.34813003  0.88925583  1
  Si  Si28  1  0.65186997  0.76473670  0.38925583  1
  Si  Si29  1  0.34809292  0.23529015  0.61192623  1
  Si  Si30  1  0.11280276  0.34809292  0.61192623  1
  Si  Si31  1  0.88719724  0.65190708  0.61192623  1
  Si  Si32  1  0.76473670  0.65186997  0.88925583  1
  Si  Si33  1  0.11280276  0.76470985  0.11192623  1
  Si  Si34  1  0.88713327  0.65186997  0.38925583  1
  Si  Si35  1  0.76470985  0.11280276  0.61192623  1
  O  O36  1  0.87742592  0.62158562  0.50059583  1
  O  O37  1  0.27640568  0.05834132  0.36096131  1
  O  O38  1  0.74415971  0.62158562  0.00059583  1
  O  O39  1  0.50244824  0.65774794  0.67123781  1
  O  O40  1  0.65796414  0.15558816  0.32981393  1
  O  O41  1  0.34203586  0.84441184  0.32981393  1
  O  O42  1  0.21781381  0.94168691  0.14040632  1
  O  O43  1  0.49755176  0.15529971  0.17123781  1
  O  O44  1  0.78218619  0.72387310  0.64040632  1
  O  O45  1  0.37841438  0.12257408  0.00059583  1
  O  O46  1  0.27640568  0.21806435  0.86096131  1
  O  O47  1  0.74415971  0.12257408  0.50059583  1
  O  O48  1  0.25584029  0.87742592  0.50059583  1
  O  O49  1  0.21781381  0.27612690  0.64040632  1
  O  O50  1  0.62158562  0.74415971  0.50059583  1
  O  O51  1  0.21806435  0.94165868  0.86096131  1
  O  O52  1  0.65774794  0.15529971  0.67123781  1
  O  O53  1  0.84470029  0.50244824  0.67123781  1
  O  O54  1  0.15558816  0.49762402  0.32981393  1
  O  O55  1  0.05831309  0.27612690  0.14040632  1
  O  O56  1  0.15529971  0.49755176  0.67123781  1
  O  O57  1  0.62158562  0.87742592  0.00059583  1
  O  O58  1  0.27612690  0.05831309  0.64040632  1
  O  O59  1  0.27612690  0.21781381  0.14040632  1
  O  O60  1  0.72387310  0.78218619  0.14040632  1
  O  O61  1  0.15529971  0.65774794  0.17123781  1
  O  O62  1  0.34225206  0.49755176  0.17123781  1
  O  O63  1  0.84470029  0.34225206  0.17123781  1
  O  O64  1  0.37841438  0.25584029  0.50059583  1
  O  O65  1  0.94165868  0.21806435  0.36096131  1
  O  O66  1  0.21806435  0.27640568  0.36096131  1
  O  O67  1  0.72359432  0.78193565  0.86096131  1
  O  O68  1  0.94168691  0.21781381  0.64040632  1
  O  O69  1  0.94165868  0.72359432  0.86096131  1
  O  O70  1  0.34203586  0.49762402  0.82981393  1
  O  O71  1  0.15558816  0.65796414  0.82981393  1
  O  O72  1  0.72359432  0.94165868  0.36096131  1
  O  O73  1  0.78218619  0.05831309  0.14040632  1
  O  O74  1  0.49762402  0.15558816  0.82981393  1
  O  O75  1  0.25584029  0.37841438  0.00059583  1
  O  O76  1  0.78193565  0.72359432  0.36096131  1
  O  O77  1  0.34225206  0.84470029  0.67123781  1
  O  O78  1  0.05834132  0.78193565  0.36096131  1
  O  O79  1  0.94168691  0.72387310  0.14040632  1
  O  O80  1  0.84441184  0.34203586  0.82981393  1
  O  O81  1  0.50244824  0.84470029  0.17123781  1
  O  O82  1  0.65774794  0.50244824  0.17123781  1
  O  O83  1  0.50237598  0.65796414  0.32981393  1
  O  O84  1  0.78193565  0.05834132  0.86096131  1
  O  O85  1  0.72387310  0.94168691  0.64040632  1
  O  O86  1  0.49755176  0.34225206  0.67123781  1
  O  O87  1  0.05831309  0.78218619  0.64040632  1
  O  O88  1  0.65796414  0.50237598  0.82981393  1
  O  O89  1  0.87742592  0.25584029  0.00059583  1
  O  O90  1  0.50237598  0.84441184  0.82981393  1
  O  O91  1  0.12257408  0.37841438  0.50059583  1
  O  O92  1  0.84441184  0.50237598  0.32981393  1
  O  O93  1  0.05834132  0.27640568  0.86096131  1
  O  O94  1  0.49762402  0.34203586  0.32981393  1
  O  O95  1  0.12257408  0.74415971  0.00059583  1
