# generated using pymatgen
data_Co2SnO4
_symmetry_space_group_name_H-M   'P 1'
_cell_length_a   6.22065567
_cell_length_b   6.19762940
_cell_length_c   30.43580307
_cell_angle_alpha   60.42314852
_cell_angle_beta   60.64573054
_cell_angle_gamma   60.99352438
_symmetry_Int_Tables_number   1
_chemical_formula_structural   Co2SnO4
_chemical_formula_sum   'Co20 Sn10 O40'
_cell_volume   842.55357201
_cell_formula_units_Z   10
loop_
 _symmetry_equiv_pos_site_id
 _symmetry_equiv_pos_as_xyz
  1  'x, y, z'
loop_
 _atom_site_type_symbol
 _atom_site_label
 _atom_site_symmetry_multiplicity
 _atom_site_fract_x
 _atom_site_fract_y
 _atom_site_fract_z
 _atom_site_occupancy
  Co  Co0  1  0.23896840  0.25124002  0.04877192  1
  Co  Co1  1  0.01235665  0.01502871  0.19740867  1
  Co  Co2  1  0.62001712  0.63819485  0.02482714  1
  Co  Co3  1  0.23295981  0.23578460  0.25430722  1
  Co  Co4  1  0.01243324  0.01100573  0.39844662  1
  Co  Co5  1  0.62147432  0.62741291  0.12503684  1
  Co  Co6  1  0.62270062  0.62613290  0.22533667  1
  Co  Co7  1  0.23429003  0.23566481  0.45392758  1
  Co  Co8  1  0.01276411  0.01009511  0.59841920  1
  Co  Co9  1  0.62383695  0.62423175  0.32551343  1
  Co  Co10  1  0.62386275  0.62390776  0.42566283  1
  Co  Co11  1  0.23458583  0.23272956  0.65402378  1
  Co  Co12  1  0.01288937  0.00232323  0.79980193  1
  Co  Co13  1  0.62390433  0.62343067  0.52570623  1
  Co  Co14  1  0.62479854  0.62109841  0.62584690  1
  Co  Co15  1  0.23587366  0.24871831  0.85137082  1
  Co  Co16  1  0.62558439  0.61960131  0.72580364  1
  Co  Co17  1  0.63343693  0.60722522  0.82657796  1
  Co  Co18  1  0.63083470  0.13672773  0.92131250  1
  Co  Co19  1  0.63160350  0.62744418  0.92100276  1
  O  O20  1  0.37433319  0.38389022  0.07784449  1
  O  O21  1  0.37081634  0.84909864  0.07882920  1
  O  O22  1  0.37379964  0.37858737  0.17227305  1
  O  O23  1  0.83765010  0.38286649  0.07812395  1
  O  O24  1  0.37721441  0.37854226  0.27774766  1
  O  O25  1  0.40933014  0.87511299  0.17095240  1
  O  O26  1  0.87480078  0.88049496  0.07622140  1
  O  O27  1  0.87077375  0.41315158  0.17104117  1
  O  O28  1  0.37701860  0.84227939  0.27778356  1
  O  O29  1  0.37680556  0.37667017  0.37148316  1
  O  O30  1  0.84054260  0.37923228  0.27771396  1
  O  O31  1  0.87002592  0.87675884  0.17148447  1
  O  O32  1  0.40778954  0.87189463  0.37168541  1
  O  O33  1  0.37745744  0.37758836  0.47787385  1
  O  O34  1  0.87378568  0.87471895  0.27828413  1
  O  O35  1  0.87242740  0.40741105  0.37170669  1
  O  O36  1  0.37721157  0.84178062  0.47785541  1
  O  O37  1  0.37705385  0.37611504  0.57157828  1
  O  O38  1  0.84142609  0.37775066  0.47788796  1
  O  O39  1  0.87389561  0.87365868  0.37193230  1
  O  O40  1  0.40774819  0.87088945  0.57192309  1
  O  O41  1  0.37954401  0.37254795  0.67794330  1
  O  O42  1  0.87303934  0.40605501  0.57183045  1
  O  O43  1  0.87279917  0.87283136  0.47893480  1
  O  O44  1  0.37800406  0.83918401  0.67789249  1
  O  O45  1  0.38137903  0.37522729  0.77045183  1
  O  O46  1  0.84247806  0.37311434  0.67804407  1
  O  O47  1  0.87381252  0.87235602  0.57220050  1
  O  O48  1  0.41042234  0.86376903  0.77311875  1
  O  O49  1  0.37200205  0.37817842  0.87803774  1
  O  O50  1  0.87754412  0.39880749  0.77191028  1
  O  O51  1  0.87364439  0.86862806  0.67900995  1
  O  O52  1  0.37720142  0.85356137  0.87731002  1
  O  O53  1  0.36513048  0.39079945  0.97070280  1
  O  O54  1  0.84873077  0.37932978  0.87822164  1
  O  O55  1  0.87614009  0.86568448  0.77253800  1
  O  O56  1  0.41132927  0.86481893  0.97303470  1
  O  O57  1  0.87074867  0.86399379  0.88074756  1
  O  O58  1  0.86746453  0.40343712  0.97404754  1
  O  O59  1  0.87220599  0.86506459  0.97408768  1
  Sn  Sn60  1  0.02704462  0.01403384  0.99239042  1
  Sn  Sn61  1  0.12514528  0.62619358  0.12581943  1
  Sn  Sn62  1  0.62002570  0.13200585  0.12536956  1
  Sn  Sn63  1  0.12384331  0.62411704  0.32561300  1
  Sn  Sn64  1  0.62391797  0.12432118  0.32555909  1
  Sn  Sn65  1  0.12421444  0.62326543  0.52578905  1
  Sn  Sn66  1  0.62370487  0.12353750  0.52585111  1
  Sn  Sn67  1  0.12621528  0.61962074  0.72540324  1
  Sn  Sn68  1  0.62547982  0.11812860  0.72605826  1
  Sn  Sn69  1  0.13570677  0.63089734  0.92075248  1
