# generated using pymatgen
data_RbPH4O5
_symmetry_space_group_name_H-M   'P 1'
_cell_length_a   7.34085575
_cell_length_b   7.82936893
_cell_length_c   9.57589151
_cell_angle_alpha   90.00000000
_cell_angle_beta   104.07425006
_cell_angle_gamma   90.00000000
_symmetry_Int_Tables_number   1
_chemical_formula_structural   RbPH4O5
_chemical_formula_sum   'Rb4 P4 H16 O20'
_cell_volume   533.84609859
_cell_formula_units_Z   4
loop_
 _symmetry_equiv_pos_site_id
 _symmetry_equiv_pos_as_xyz
  1  'x, y, z'
loop_
 _atom_site_type_symbol
 _atom_site_label
 _atom_site_symmetry_multiplicity
 _atom_site_fract_x
 _atom_site_fract_y
 _atom_site_fract_z
 _atom_site_occupancy
  Rb  Rb0  1  0.81997638  0.22429163  0.46446777  1
  Rb  Rb1  1  0.18002362  0.72429163  0.03553223  1
  Rb  Rb2  1  0.18002362  0.77570837  0.53553223  1
  Rb  Rb3  1  0.81997638  0.27570837  0.96446777  1
  P  P4  1  0.36562846  0.21100745  0.15771236  1
  P  P5  1  0.63437154  0.71100745  0.34228764  1
  P  P6  1  0.63437154  0.78899255  0.84228764  1
  P  P7  1  0.36562846  0.28899255  0.65771236  1
  H  H8  1  0.57404949  0.99816520  0.16909837  1
  H  H9  1  0.42595051  0.49816520  0.33090163  1
  H  H10  1  0.42595051  0.00183480  0.83090163  1
  H  H11  1  0.57404949  0.50183480  0.66909837  1
  H  H12  1  0.93220882  0.98047275  0.78127886  1
  H  H13  1  0.06779118  0.48047275  0.71872114  1
  H  H14  1  0.06779118  0.01952725  0.21872114  1
  H  H15  1  0.93220882  0.51952725  0.28127886  1
  H  H16  1  0.11859033  0.08131974  0.77456499  1
  H  H17  1  0.88140967  0.58131974  0.72543501  1
  H  H18  1  0.88140967  0.91868026  0.22543501  1
  H  H19  1  0.11859033  0.41868026  0.27456499  1
  H  H20  1  0.36002247  0.32237518  0.94873963  1
  H  H21  1  0.63997753  0.82237518  0.55126037  1
  H  H22  1  0.63997753  0.67762482  0.05126037  1
  H  H23  1  0.36002247  0.17762482  0.44873963  1
  O  O24  1  0.37685059  0.29530204  0.30436125  1
  O  O25  1  0.62314941  0.79530204  0.19563875  1
  O  O26  1  0.62314941  0.70469796  0.69563875  1
  O  O27  1  0.37685059  0.20469796  0.80436125  1
  O  O28  1  0.35486943  0.36585304  0.04698129  1
  O  O29  1  0.64513057  0.86585304  0.45301871  1
  O  O30  1  0.64513057  0.63414696  0.95301871  1
  O  O31  1  0.35486943  0.13414696  0.54698129  1
  O  O32  1  0.56503715  0.12708108  0.15872858  1
  O  O33  1  0.43496285  0.62708108  0.34127142  1
  O  O34  1  0.43496285  0.87291892  0.84127142  1
  O  O35  1  0.56503715  0.37291892  0.65872858  1
  O  O36  1  0.20640258  0.08556218  0.10910754  1
  O  O37  1  0.79359742  0.58556218  0.39089246  1
  O  O38  1  0.79359742  0.91443782  0.89089246  1
  O  O39  1  0.20640258  0.41443782  0.60910754  1
  O  O40  1  0.00731163  0.02465225  0.71532538  1
  O  O41  1  0.99268837  0.52465225  0.78467462  1
  O  O42  1  0.99268837  0.97534775  0.28467462  1
  O  O43  1  0.00731163  0.47534775  0.21532538  1
