# generated using pymatgen
data_Li2Co(PO3)4
_symmetry_space_group_name_H-M   'P 1'
_cell_length_a   9.42744265
_cell_length_b   10.28333780
_cell_length_c   9.23189684
_cell_angle_alpha   90.00000000
_cell_angle_beta   92.20869486
_cell_angle_gamma   90.00000000
_symmetry_Int_Tables_number   1
_chemical_formula_structural   Li2Co(PO3)4
_chemical_formula_sum   'Li8 Co4 P16 O48'
_cell_volume   894.32666213
_cell_formula_units_Z   4
loop_
 _symmetry_equiv_pos_site_id
 _symmetry_equiv_pos_as_xyz
  1  'x, y, z'
loop_
 _atom_site_type_symbol
 _atom_site_label
 _atom_site_symmetry_multiplicity
 _atom_site_fract_x
 _atom_site_fract_y
 _atom_site_fract_z
 _atom_site_occupancy
  Li  Li0  1  0.49386555  0.31726737  0.90129805  1
  Li  Li1  1  0.00426792  0.82170850  0.40437792  1
  Li  Li2  1  0.49573208  0.32170850  0.59562208  1
  Li  Li3  1  0.50426792  0.67829150  0.40437792  1
  Li  Li4  1  0.00613445  0.81726737  0.09870195  1
  Li  Li5  1  0.99386555  0.18273263  0.90129805  1
  Li  Li6  1  0.50613445  0.68273263  0.09870195  1
  Li  Li7  1  0.99573208  0.17829150  0.59562208  1
  Co  Co8  1  0.51740508  0.30228985  0.25186599  1
  Co  Co9  1  0.01740508  0.19771015  0.25186599  1
  Co  Co10  1  0.48259492  0.69771015  0.74813401  1
  Co  Co11  1  0.98259492  0.80228985  0.74813401  1
  P  P12  1  0.30247107  0.89359966  0.26885135  1
  P  P13  1  0.79212493  0.38865915  0.05104980  1
  P  P14  1  0.19752893  0.39359966  0.73114865  1
  P  P15  1  0.20787507  0.61134085  0.94895020  1
  P  P16  1  0.23031906  0.47065318  0.24208338  1
  P  P17  1  0.26968094  0.97065318  0.75791662  1
  P  P18  1  0.73031906  0.02934682  0.24208338  1
  P  P19  1  0.79358408  0.39624107  0.47772519  1
  P  P20  1  0.80247107  0.60640034  0.26885135  1
  P  P21  1  0.70641592  0.89624107  0.52227481  1
  P  P22  1  0.70787507  0.88865915  0.94895020  1
  P  P23  1  0.29358408  0.10375893  0.47772519  1
  P  P24  1  0.29212493  0.11134085  0.05104980  1
  P  P25  1  0.20641592  0.60375893  0.52227481  1
  P  P26  1  0.76968094  0.52934682  0.75791662  1
  P  P27  1  0.69752893  0.10640034  0.73114865  1
  O  O28  1  0.10059959  0.28008950  0.74813504  1
  O  O29  1  0.11291700  0.72920604  0.93672648  1
  O  O30  1  0.64515189  0.62617473  0.25231857  1
  O  O31  1  0.13375591  0.12615550  0.06370352  1
  O  O32  1  0.61291700  0.77079396  0.93672648  1
  O  O33  1  0.39030465  0.46285505  0.25014974  1
  O  O34  1  0.35484811  0.37382527  0.74768143  1
  O  O35  1  0.82740653  0.46126085  0.90413670  1
  O  O36  1  0.64460235  0.99123827  0.83442980  1
  O  O37  1  0.64584677  0.14926049  0.26299042  1
  O  O38  1  0.84201771  0.53895056  0.42340651  1
  O  O39  1  0.67259347  0.96126085  0.09586330  1
  O  O40  1  0.81944826  0.41690324  0.64849686  1
  O  O41  1  0.63644430  0.37865603  0.44204986  1
  O  O42  1  0.60469159  0.79137965  0.56440285  1
  O  O43  1  0.15798229  0.46104944  0.57659349  1
  O  O44  1  0.38708300  0.22920604  0.06327352  1
  O  O45  1  0.86624409  0.87384450  0.93629648  1
  O  O46  1  0.89030465  0.03714495  0.25014974  1
  O  O47  1  0.65798229  0.03895056  0.57659349  1
  O  O48  1  0.68055174  0.91690324  0.35150314  1
  O  O49  1  0.36624409  0.62615550  0.93629648  1
  O  O50  1  0.14460235  0.50876173  0.83442980  1
  O  O51  1  0.85484811  0.12617473  0.74768143  1
  O  O52  1  0.17259347  0.53873915  0.09586330  1
  O  O53  1  0.89940041  0.71991050  0.25186496  1
  O  O54  1  0.63375591  0.37384450  0.06370352  1
  O  O55  1  0.85415323  0.64926049  0.73700958  1
  O  O56  1  0.88708300  0.27079396  0.06327352  1
  O  O57  1  0.34201771  0.96104944  0.42340651  1
  O  O58  1  0.32740653  0.03873915  0.90413670  1
  O  O59  1  0.89530841  0.29137965  0.43559715  1
  O  O60  1  0.60969535  0.53714495  0.74985026  1
  O  O61  1  0.35415323  0.85073951  0.73700958  1
  O  O62  1  0.86355570  0.87865603  0.55795014  1
  O  O63  1  0.18055174  0.58309676  0.35150314  1
  O  O64  1  0.14515189  0.87382527  0.25231857  1
  O  O65  1  0.10469159  0.70862035  0.56440285  1
  O  O66  1  0.39530841  0.20862035  0.43559715  1
  O  O67  1  0.60059959  0.21991050  0.74813504  1
  O  O68  1  0.35539765  0.00876173  0.16557020  1
  O  O69  1  0.10969535  0.96285505  0.74985026  1
  O  O70  1  0.31944826  0.08309676  0.64849686  1
  O  O71  1  0.13644430  0.12134397  0.44204986  1
  O  O72  1  0.14584677  0.35073951  0.26299042  1
  O  O73  1  0.36355570  0.62134397  0.55795014  1
  O  O74  1  0.39940041  0.78008950  0.25186496  1
  O  O75  1  0.85539765  0.49123827  0.16557020  1
