# generated using pymatgen
data_CoSiO3
_symmetry_space_group_name_H-M   'P 1'
_cell_length_a   5.26525350
_cell_length_b   9.05063384
_cell_length_c   18.39869492
_cell_angle_alpha   90.00000000
_cell_angle_beta   90.00000000
_cell_angle_gamma   90.00000000
_symmetry_Int_Tables_number   1
_chemical_formula_structural   CoSiO3
_chemical_formula_sum   'Co16 Si16 O48'
_cell_volume   876.76922753
_cell_formula_units_Z   16
loop_
 _symmetry_equiv_pos_site_id
 _symmetry_equiv_pos_as_xyz
  1  'x, y, z'
loop_
 _atom_site_type_symbol
 _atom_site_label
 _atom_site_symmetry_multiplicity
 _atom_site_fract_x
 _atom_site_fract_y
 _atom_site_fract_z
 _atom_site_occupancy
  Co  Co0  1  0.62664154  0.15161303  0.62330991  1
  Co  Co1  1  0.85968437  0.00577666  0.37767795  1
  Co  Co2  1  0.64031563  0.00577666  0.87767795  1
  Co  Co3  1  0.14031563  0.49422334  0.87767795  1
  Co  Co4  1  0.14031563  0.99422334  0.62232205  1
  Co  Co5  1  0.37335846  0.34838697  0.12330991  1
  Co  Co6  1  0.37335846  0.84838697  0.37669009  1
  Co  Co7  1  0.35968437  0.99422334  0.12232205  1
  Co  Co8  1  0.85968437  0.50577666  0.12232205  1
  Co  Co9  1  0.62664154  0.65161303  0.87669009  1
  Co  Co10  1  0.87335846  0.65161303  0.37669009  1
  Co  Co11  1  0.64031563  0.50577666  0.62232205  1
  Co  Co12  1  0.87335846  0.15161303  0.12330991  1
  Co  Co13  1  0.12664154  0.34838697  0.62330991  1
  Co  Co14  1  0.35968437  0.49422334  0.37767795  1
  Co  Co15  1  0.12664154  0.84838697  0.87669009  1
  Si  Si16  1  0.55604036  0.16037133  0.27153756  1
  Si  Si17  1  0.29165916  0.66639991  0.02877829  1
  Si  Si18  1  0.70834084  0.33360009  0.97122171  1
  Si  Si19  1  0.05604036  0.83962867  0.22846244  1
  Si  Si20  1  0.79165916  0.33360009  0.47122171  1
  Si  Si21  1  0.55604036  0.66037133  0.22846244  1
  Si  Si22  1  0.94395964  0.16037133  0.77153756  1
  Si  Si23  1  0.20834084  0.16639991  0.97122171  1
  Si  Si24  1  0.44395964  0.33962867  0.77153756  1
  Si  Si25  1  0.05604036  0.33962867  0.27153756  1
  Si  Si26  1  0.79165916  0.83360009  0.02877829  1
  Si  Si27  1  0.70834084  0.83360009  0.52877829  1
  Si  Si28  1  0.29165916  0.16639991  0.47122171  1
  Si  Si29  1  0.94395964  0.66037133  0.72846244  1
  Si  Si30  1  0.44395964  0.83962867  0.72846244  1
  Si  Si31  1  0.20834084  0.66639991  0.52877829  1
  O  O32  1  0.79141856  0.83606472  0.93944757  1
  O  O33  1  0.04249411  0.83606447  0.31725542  1
  O  O34  1  0.90687871  0.19765184  0.94595106  1
  O  O35  1  0.04249411  0.33606447  0.18274458  1
  O  O36  1  0.54249411  0.16393553  0.18274458  1
  O  O37  1  0.70858144  0.83606472  0.43944757  1
  O  O38  1  0.82636585  0.73259036  0.19750387  1
  O  O39  1  0.09312129  0.80234816  0.05404894  1
  O  O40  1  0.45750589  0.33606447  0.68274458  1
  O  O41  1  0.59312129  0.19765184  0.44595106  1
  O  O42  1  0.93738564  0.49843204  0.69092796  1
  O  O43  1  0.68936107  0.48136659  0.43136262  1
  O  O44  1  0.40687871  0.80234816  0.55404894  1
  O  O45  1  0.29141856  0.66393528  0.93944757  1
  O  O46  1  0.67363415  0.23259036  0.80249613  1
  O  O47  1  0.17363415  0.26740964  0.80249613  1
  O  O48  1  0.43738564  0.00156796  0.69092796  1
  O  O49  1  0.31063893  0.51863341  0.56863738  1
  O  O50  1  0.56261436  0.49843204  0.19092796  1
  O  O51  1  0.67363415  0.73259036  0.69750387  1
  O  O52  1  0.81063893  0.48136659  0.93136262  1
  O  O53  1  0.93738564  0.99843204  0.80907204  1
  O  O54  1  0.59312129  0.69765184  0.05404894  1
  O  O55  1  0.90687871  0.69765184  0.55404894  1
  O  O56  1  0.95750589  0.66393553  0.81725542  1
  O  O57  1  0.70858144  0.33606472  0.06055243  1
  O  O58  1  0.81063893  0.98136659  0.56863738  1
  O  O59  1  0.06261436  0.50156796  0.30907204  1
  O  O60  1  0.56261436  0.99843204  0.30907204  1
  O  O61  1  0.17363415  0.76740964  0.69750387  1
  O  O62  1  0.20858144  0.16393528  0.06055243  1
  O  O63  1  0.54249411  0.66393553  0.31725542  1
  O  O64  1  0.43738564  0.50156796  0.80907204  1
  O  O65  1  0.40687871  0.30234816  0.94595106  1
  O  O66  1  0.29141856  0.16393528  0.56055243  1
  O  O67  1  0.82636585  0.23259036  0.30249613  1
  O  O68  1  0.18936107  0.01863341  0.43136262  1
  O  O69  1  0.06261436  0.00156796  0.19092796  1
  O  O70  1  0.45750589  0.83606447  0.81725542  1
  O  O71  1  0.32636585  0.76740964  0.19750387  1
  O  O72  1  0.79141856  0.33606472  0.56055243  1
  O  O73  1  0.32636585  0.26740964  0.30249613  1
  O  O74  1  0.68936107  0.98136659  0.06863738  1
  O  O75  1  0.18936107  0.51863341  0.06863738  1
  O  O76  1  0.95750589  0.16393553  0.68274458  1
  O  O77  1  0.09312129  0.30234816  0.44595106  1
  O  O78  1  0.20858144  0.66393528  0.43944757  1
  O  O79  1  0.31063893  0.01863341  0.93136262  1
