# generated using pymatgen
data_ZnPH7C2N4O5
_symmetry_space_group_name_H-M   'P 1'
_cell_length_a   13.81910858
_cell_length_b   5.15398879
_cell_length_c   10.73243682
_cell_angle_alpha   90.00000000
_cell_angle_beta   96.02247134
_cell_angle_gamma   90.00000000
_symmetry_Int_Tables_number   1
_chemical_formula_structural   ZnPH7C2N4O5
_chemical_formula_sum   'Zn4 P4 H28 C8 N16 O20'
_cell_volume   760.18317343
_cell_formula_units_Z   4
loop_
 _symmetry_equiv_pos_site_id
 _symmetry_equiv_pos_as_xyz
  1  'x, y, z'
loop_
 _atom_site_type_symbol
 _atom_site_label
 _atom_site_symmetry_multiplicity
 _atom_site_fract_x
 _atom_site_fract_y
 _atom_site_fract_z
 _atom_site_occupancy
  Zn  Zn0  1  0.99931781  0.79629836  0.35788610  1
  Zn  Zn1  1  0.00068219  0.29629836  0.14211390  1
  Zn  Zn2  1  0.00068219  0.20370164  0.64211390  1
  Zn  Zn3  1  0.99931781  0.70370164  0.85788610  1
  P  P4  1  0.12580155  0.77497661  0.11849963  1
  P  P5  1  0.87419845  0.27497661  0.38150037  1
  P  P6  1  0.87419845  0.22502339  0.88150037  1
  P  P7  1  0.12580155  0.72502339  0.61849963  1
  H  H8  1  0.44624498  0.00251012  0.06946136  1
  H  H9  1  0.55375502  0.50251012  0.43053864  1
  H  H10  1  0.55375502  0.99748988  0.93053864  1
  H  H11  1  0.44624498  0.49748988  0.56946136  1
  H  H12  1  0.34001941  0.84449716  0.11381156  1
  H  H13  1  0.65998059  0.34449716  0.38618844  1
  H  H14  1  0.65998059  0.15550284  0.88618844  1
  H  H15  1  0.34001941  0.65550284  0.61381156  1
  H  H16  1  0.26922965  0.54670291  0.01545696  1
  H  H17  1  0.73077035  0.04670291  0.48454304  1
  H  H18  1  0.73077035  0.45329709  0.98454304  1
  H  H19  1  0.26922965  0.95329709  0.51545696  1
  H  H20  1  0.34861917  0.09854088  0.73170228  1
  H  H21  1  0.65138083  0.59854088  0.76829772  1
  H  H22  1  0.65138083  0.90145912  0.26829772  1
  H  H23  1  0.34861917  0.40145912  0.23170228  1
  H  H24  1  0.42547618  0.36275123  0.78829118  1
  H  H25  1  0.57452382  0.86275123  0.71170882  1
  H  H26  1  0.57452382  0.63724877  0.21170882  1
  H  H27  1  0.42547618  0.13724877  0.28829118  1
  H  H28  1  0.20998161  0.01926309  0.81926433  1
  H  H29  1  0.79001839  0.51926309  0.68073567  1
  H  H30  1  0.79001839  0.98073691  0.18073567  1
  H  H31  1  0.20998161  0.48073691  0.31926433  1
  H  H32  1  0.17225718  0.22848154  0.93708241  1
  H  H33  1  0.82774282  0.72848154  0.56291759  1
  H  H34  1  0.82774282  0.77151846  0.06291759  1
  H  H35  1  0.17225718  0.27151846  0.43708241  1
  C  C36  1  0.39849841  0.68855329  0.96250289  1
  C  C37  1  0.60150159  0.18855329  0.53749711  1
  C  C38  1  0.60150159  0.31144671  0.03749711  1
  C  C39  1  0.39849841  0.81144671  0.46250289  1
  C  C40  1  0.30207154  0.31481833  0.87099634  1
  C  C41  1  0.69792846  0.81481833  0.62900366  1
  C  C42  1  0.69792846  0.68518167  0.12900366  1
  C  C43  1  0.30207154  0.18518167  0.37099634  1
  N  N44  1  0.39711633  0.85346476  0.05915817  1
  N  N45  1  0.60288367  0.35346476  0.44084183  1
  N  N46  1  0.60288367  0.14653524  0.94084183  1
  N  N47  1  0.39711633  0.64653524  0.55915817  1
  N  N48  1  0.32055011  0.51320167  0.95419605  1
  N  N49  1  0.67944989  0.01320167  0.54580395  1
  N  N50  1  0.67944989  0.48679833  0.04580395  1
  N  N51  1  0.32055011  0.98679833  0.45419605  1
  N  N52  1  0.36474218  0.25233675  0.78978487  1
  N  N53  1  0.63525782  0.75233675  0.71021513  1
  N  N54  1  0.63525782  0.74766325  0.21021513  1
  N  N55  1  0.36474218  0.24766325  0.28978487  1
  N  N56  1  0.22112481  0.17861553  0.87646530  1
  N  N57  1  0.77887519  0.67861553  0.62353470  1
  N  N58  1  0.77887519  0.82138447  0.12353470  1
  N  N59  1  0.22112481  0.32138447  0.37646530  1
  O  O60  1  0.89268820  0.57004684  0.39167726  1
  O  O61  1  0.10731180  0.07004684  0.10832274  1
  O  O62  1  0.10731180  0.42995316  0.60832274  1
  O  O63  1  0.89268820  0.92995316  0.89167726  1
  O  O64  1  0.04951438  0.64930946  0.20307893  1
  O  O65  1  0.95048562  0.14930946  0.29692107  1
  O  O66  1  0.95048562  0.35069054  0.79692107  1
  O  O67  1  0.04951438  0.85069054  0.70307893  1
  O  O68  1  0.10668309  0.85778611  0.48756534  1
  O  O69  1  0.89331691  0.35778611  0.01243466  1
  O  O70  1  0.89331691  0.14221389  0.51243466  1
  O  O71  1  0.10668309  0.64221389  0.98756534  1
  O  O72  1  0.22957532  0.70920481  0.17523695  1
  O  O73  1  0.77042468  0.20920481  0.32476305  1
  O  O74  1  0.77042468  0.29079519  0.82476305  1
  O  O75  1  0.22957532  0.79079519  0.67523695  1
  O  O76  1  0.46195100  0.68769017  0.88701520  1
  O  O77  1  0.53804900  0.18769017  0.61298480  1
  O  O78  1  0.53804900  0.31230983  0.11298480  1
  O  O79  1  0.46195100  0.81230983  0.38701520  1
