# generated using pymatgen
data_NaCa4Si8H16O28F
_symmetry_space_group_name_H-M   'P 1'
_cell_length_a   8.94976318
_cell_length_b   8.95426540
_cell_length_c   16.02831291
_cell_angle_alpha   90.00000000
_cell_angle_beta   90.00000000
_cell_angle_gamma   90.00000000
_symmetry_Int_Tables_number   1
_chemical_formula_structural   NaCa4Si8H16O28F
_chemical_formula_sum   'Na2 Ca8 Si16 H32 O56 F2'
_cell_volume   1284.48583218
_cell_formula_units_Z   2
loop_
 _symmetry_equiv_pos_site_id
 _symmetry_equiv_pos_as_xyz
  1  'x, y, z'
loop_
 _atom_site_type_symbol
 _atom_site_label
 _atom_site_symmetry_multiplicity
 _atom_site_fract_x
 _atom_site_fract_y
 _atom_site_fract_z
 _atom_site_occupancy
  Na  Na0  1  0.50000000  0.50000000  0.00000000  1
  Na  Na1  1  0.00000000  0.00000000  0.50000000  1
  Ca  Ca2  1  0.61546923  0.25287703  0.50000000  1
  Ca  Ca3  1  0.38453077  0.74712297  0.50000000  1
  Ca  Ca4  1  0.11546923  0.24712297  0.00000000  1
  Ca  Ca5  1  0.88453077  0.75287703  0.00000000  1
  Ca  Ca6  1  0.24876547  0.38113914  0.50000000  1
  Ca  Ca7  1  0.75123453  0.61886086  0.50000000  1
  Ca  Ca8  1  0.74876547  0.11886086  0.00000000  1
  Ca  Ca9  1  0.25123453  0.88113914  0.00000000  1
  Si  Si10  1  0.73169413  0.41563426  0.68829208  1
  Si  Si11  1  0.26830587  0.58436574  0.68829208  1
  Si  Si12  1  0.23169413  0.08436574  0.81170792  1
  Si  Si13  1  0.76830587  0.91563426  0.81170792  1
  Si  Si14  1  0.26830587  0.58436574  0.31170792  1
  Si  Si15  1  0.73169413  0.41563426  0.31170792  1
  Si  Si16  1  0.76830587  0.91563426  0.18829208  1
  Si  Si17  1  0.23169413  0.08436574  0.18829208  1
  Si  Si18  1  0.91587030  0.22933514  0.81201235  1
  Si  Si19  1  0.08412970  0.77066486  0.81201235  1
  Si  Si20  1  0.41587030  0.27066486  0.68798765  1
  Si  Si21  1  0.58412970  0.72933514  0.68798765  1
  Si  Si22  1  0.08412970  0.77066486  0.18798765  1
  Si  Si23  1  0.91587030  0.22933514  0.18798765  1
  Si  Si24  1  0.58412970  0.72933514  0.31201235  1
  Si  Si25  1  0.41587030  0.27066486  0.31201235  1
  H  H26  1  0.94453082  0.30816557  0.58618340  1
  H  H27  1  0.05546918  0.69183443  0.58618340  1
  H  H28  1  0.44453082  0.19183443  0.91381660  1
  H  H29  1  0.55546918  0.80816557  0.91381660  1
  H  H30  1  0.05546918  0.69183443  0.41381660  1
  H  H31  1  0.94453082  0.30816557  0.41381660  1
  H  H32  1  0.55546918  0.80816557  0.08618340  1
  H  H33  1  0.44453082  0.19183443  0.08618340  1
  H  H34  1  0.66576499  0.94357846  0.58553843  1
  H  H35  1  0.33423501  0.05642154  0.58553843  1
  H  H36  1  0.16576499  0.55642154  0.91446157  1
  H  H37  1  0.83423501  0.44357846  0.91446157  1
  H  H38  1  0.33423501  0.05642154  0.41446157  1
  H  H39  1  0.66576499  0.94357846  0.41446157  1
  H  H40  1  0.83423501  0.44357846  0.08553843  1
  H  H41  1  0.16576499  0.55642154  0.08553843  1
  H  H42  1  0.70468882  0.07374767  0.64639778  1
  H  H43  1  0.29531118  0.92625233  0.64639778  1
  H  H44  1  0.20468882  0.42625233  0.85360222  1
  H  H45  1  0.79531118  0.57374767  0.85360222  1
  H  H46  1  0.29531118  0.92625233  0.35360222  1
  H  H47  1  0.70468882  0.07374767  0.35360222  1
  H  H48  1  0.79531118  0.57374767  0.14639778  1
  H  H49  1  0.20468882  0.42625233  0.14639778  1
  H  H50  1  0.06708314  0.23592194  0.64381446  1
  H  H51  1  0.93291686  0.76407806  0.64381446  1
  H  H52  1  0.56708314  0.26407806  0.85618554  1
  H  H53  1  0.43291686  0.73592194  0.85618554  1
  H  H54  1  0.93291686  0.76407806  0.35618554  1
  H  H55  1  0.06708314  0.23592194  0.35618554  1
  H  H56  1  0.43291686  0.73592194  0.14381446  1
  H  H57  1  0.56708314  0.26407806  0.14381446  1
  O  O58  1  0.86846023  0.36772930  0.75077984  1
  O  O59  1  0.13153977  0.63227070  0.75077984  1
  O  O60  1  0.36846023  0.13227070  0.74922016  1
  O  O61  1  0.63153977  0.86772930  0.74922016  1
  O  O62  1  0.13153977  0.63227070  0.24922016  1
  O  O63  1  0.86846023  0.36772930  0.24922016  1
  O  O64  1  0.63153977  0.86772930  0.25077984  1
  O  O65  1  0.36846023  0.13227070  0.25077984  1
  O  O66  1  0.58964374  0.30723152  0.71442709  1
  O  O67  1  0.41035626  0.69276848  0.71442709  1
  O  O68  1  0.08964374  0.19276848  0.78557291  1
  O  O69  1  0.91035626  0.80723152  0.78557291  1
  O  O70  1  0.41035626  0.69276848  0.28557291  1
  O  O71  1  0.58964374  0.30723152  0.28557291  1
  O  O72  1  0.91035626  0.80723152  0.21442709  1
  O  O73  1  0.08964374  0.19276848  0.21442709  1
  O  O74  1  0.81046866  0.08727400  0.78454118  1
  O  O75  1  0.18953134  0.91272600  0.78454118  1
  O  O76  1  0.31046866  0.41272600  0.71545882  1
  O  O77  1  0.68953134  0.58727400  0.71545882  1
  O  O78  1  0.18953134  0.91272600  0.21545882  1
  O  O79  1  0.81046866  0.08727400  0.21545882  1
  O  O80  1  0.68953134  0.58727400  0.28454118  1
  O  O81  1  0.31046866  0.41272600  0.28454118  1
  O  O82  1  0.77539552  0.40028440  0.59112833  1
  O  O83  1  0.22460448  0.59971560  0.59112833  1
  O  O84  1  0.27539552  0.09971560  0.90887167  1
  O  O85  1  0.72460448  0.90028440  0.90887167  1
  O  O86  1  0.22460448  0.59971560  0.40887167  1
  O  O87  1  0.77539552  0.40028440  0.40887167  1
  O  O88  1  0.72460448  0.90028440  0.09112833  1
  O  O89  1  0.27539552  0.09971560  0.09112833  1
  O  O90  1  0.89971955  0.26903597  0.90975461  1
  O  O91  1  0.10028045  0.73096403  0.90975461  1
  O  O92  1  0.39971955  0.23096403  0.59024539  1
  O  O93  1  0.60028045  0.76903597  0.59024539  1
  O  O94  1  0.10028045  0.73096403  0.09024539  1
  O  O95  1  0.89971955  0.26903597  0.09024539  1
  O  O96  1  0.60028045  0.76903597  0.40975461  1
  O  O97  1  0.39971955  0.23096403  0.40975461  1
  O  O98  1  0.71145627  0.04677816  0.58720677  1
  O  O99  1  0.28854373  0.95322184  0.58720677  1
  O  O100  1  0.21145627  0.45322184  0.91279323  1
  O  O101  1  0.78854373  0.54677816  0.91279323  1
  O  O102  1  0.28854373  0.95322184  0.41279323  1
  O  O103  1  0.71145627  0.04677816  0.41279323  1
  O  O104  1  0.78854373  0.54677816  0.08720677  1
  O  O105  1  0.21145627  0.45322184  0.08720677  1
  O  O106  1  0.04311787  0.25321524  0.58500749  1
  O  O107  1  0.95688213  0.74678476  0.58500749  1
  O  O108  1  0.54311787  0.24678476  0.91499251  1
  O  O109  1  0.45688213  0.75321524  0.91499251  1
  O  O110  1  0.95688213  0.74678476  0.41499251  1
  O  O111  1  0.04311787  0.25321524  0.41499251  1
  O  O112  1  0.45688213  0.75321524  0.08500749  1
  O  O113  1  0.54311787  0.24678476  0.08500749  1
  F  F114  1  0.50000000  0.50000000  0.50000000  1
  F  F115  1  0.00000000  0.00000000  0.00000000  1
