# generated using pymatgen
data_Fe3O4
_symmetry_space_group_name_H-M   'P 1'
_cell_length_a   6.00711340
_cell_length_b   6.12170466
_cell_length_c   8.50923247
_cell_angle_alpha   90.50376355
_cell_angle_beta   90.00000000
_cell_angle_gamma   90.00000000
_symmetry_Int_Tables_number   1
_chemical_formula_structural   Fe3O4
_chemical_formula_sum   'Fe12 O16'
_cell_volume   312.90449766
_cell_formula_units_Z   4
loop_
 _symmetry_equiv_pos_site_id
 _symmetry_equiv_pos_as_xyz
  1  'x, y, z'
loop_
 _atom_site_type_symbol
 _atom_site_label
 _atom_site_symmetry_multiplicity
 _atom_site_fract_x
 _atom_site_fract_y
 _atom_site_fract_z
 _atom_site_occupancy
  Fe  Fe0  1  0.00000000  0.74454493  0.12827815  1
  Fe  Fe1  1  0.00000000  0.25545507  0.87172185  1
  Fe  Fe2  1  0.00000000  0.50000000  0.50000000  1
  Fe  Fe3  1  0.50000000  0.50000000  0.00000000  1
  Fe  Fe4  1  0.50000000  0.00000000  0.00000000  1
  Fe  Fe5  1  0.00000000  0.00000000  0.50000000  1
  Fe  Fe6  1  0.25332060  0.74866059  0.75190652  1
  Fe  Fe7  1  0.25332060  0.25133941  0.24809348  1
  Fe  Fe8  1  0.74667940  0.25133941  0.24809348  1
  Fe  Fe9  1  0.74667940  0.74866059  0.75190652  1
  Fe  Fe10  1  0.50000000  0.75800989  0.37609559  1
  Fe  Fe11  1  0.50000000  0.24199011  0.62390441  1
  O  O12  1  0.25853887  0.73848112  0.99205393  1
  O  O13  1  0.25853887  0.26151888  0.00794607  1
  O  O14  1  0.74146113  0.26151888  0.00794607  1
  O  O15  1  0.74146113  0.73848112  0.99205393  1
  O  O16  1  0.23944679  0.76177463  0.50641875  1
  O  O17  1  0.23944679  0.23822537  0.49358125  1
  O  O18  1  0.76055321  0.23822537  0.49358125  1
  O  O19  1  0.76055321  0.76177463  0.50641875  1
  O  O20  1  0.50000000  0.00980814  0.24374782  1
  O  O21  1  0.50000000  0.99019186  0.75625218  1
  O  O22  1  0.50000000  0.50252299  0.75850845  1
  O  O23  1  0.50000000  0.49747701  0.24149155  1
  O  O24  1  0.00000000  0.48880114  0.25401791  1
  O  O25  1  0.00000000  0.51119886  0.74598209  1
  O  O26  1  0.00000000  0.99084256  0.74360260  1
  O  O27  1  0.00000000  0.00915744  0.25639740  1
