# generated using pymatgen
data_Pr3Se4
_symmetry_space_group_name_H-M   'P 1'
_cell_length_a   7.80484651
_cell_length_b   7.80484651
_cell_length_c   7.80484651
_cell_angle_alpha   109.47122061
_cell_angle_beta   109.47122061
_cell_angle_gamma   109.47122067
_symmetry_Int_Tables_number   1
_chemical_formula_structural   Pr3Se4
_chemical_formula_sum   'Pr6 Se8'
_cell_volume   365.99167708
_cell_formula_units_Z   2
loop_
 _symmetry_equiv_pos_site_id
 _symmetry_equiv_pos_as_xyz
  1  'x, y, z'
loop_
 _atom_site_type_symbol
 _atom_site_label
 _atom_site_symmetry_multiplicity
 _atom_site_fract_x
 _atom_site_fract_y
 _atom_site_fract_z
 _atom_site_occupancy
  Se  Se0  1  0.64992075  0.64992075  0.64992075  1
  Se  Se1  1  0.35007925  0.50000000  0.00000000  1
  Se  Se2  1  0.50000000  0.00000000  0.35007925  1
  Se  Se3  1  0.00000000  0.35007925  0.50000000  1
  Se  Se4  1  0.50000000  0.00000000  0.85007925  1
  Se  Se5  1  0.00000000  0.85007925  0.50000000  1
  Se  Se6  1  0.14992075  0.14992075  0.14992075  1
  Se  Se7  1  0.85007925  0.50000000  0.00000000  1
  Pr  Pr8  1  0.75000000  0.87500000  0.12500000  1
  Pr  Pr9  1  0.62500000  0.37500000  0.25000000  1
  Pr  Pr10  1  0.87500000  0.12500000  0.75000000  1
  Pr  Pr11  1  0.12500000  0.75000000  0.87500000  1
  Pr  Pr12  1  0.37500000  0.25000000  0.62500000  1
  Pr  Pr13  1  0.25000000  0.62500000  0.37500000  1
