# generated using pymatgen
data_CaH8(ClO2)2
_symmetry_space_group_name_H-M   'P 1'
_cell_length_a   6.51560587
_cell_length_b   6.42707000
_cell_length_c   8.59198070
_cell_angle_alpha   97.85631872
_cell_angle_beta   92.38536061
_cell_angle_gamma   110.41019749
_symmetry_Int_Tables_number   1
_chemical_formula_structural   CaH8(ClO2)2
_chemical_formula_sum   'Ca2 H16 Cl4 O8'
_cell_volume   332.49819766
_cell_formula_units_Z   2
loop_
 _symmetry_equiv_pos_site_id
 _symmetry_equiv_pos_as_xyz
  1  'x, y, z'
loop_
 _atom_site_type_symbol
 _atom_site_label
 _atom_site_symmetry_multiplicity
 _atom_site_fract_x
 _atom_site_fract_y
 _atom_site_fract_z
 _atom_site_occupancy
  Ca  Ca0  1  0.87695761  0.01161540  0.74401925  1
  Ca  Ca1  1  0.12304239  0.98838460  0.25598075  1
  H  H2  1  0.32613569  0.18863763  0.92295645  1
  H  H3  1  0.67386431  0.81136237  0.07704355  1
  H  H4  1  0.20661754  0.34842518  0.99004495  1
  H  H5  1  0.79338246  0.65157482  0.00995505  1
  H  H6  1  0.92218884  0.55845207  0.67711027  1
  H  H7  1  0.07781116  0.44154793  0.32288973  1
  H  H8  1  0.10051496  0.70182457  0.81932621  1
  H  H9  1  0.89948504  0.29817543  0.18067379  1
  H  H10  1  0.45381409  0.59322834  0.65879233  1
  H  H11  1  0.54618591  0.40677166  0.34120767  1
  H  H12  1  0.46250845  0.70196229  0.83488319  1
  H  H13  1  0.53749155  0.29803771  0.16511681  1
  H  H14  1  0.59808554  0.24298321  0.59604004  1
  H  H15  1  0.40191446  0.75701679  0.40395996  1
  H  H16  1  0.77697406  0.23140983  0.47849547  1
  H  H17  1  0.22302594  0.76859017  0.52150453  1
  Cl  Cl18  1  0.70943549  0.29578420  0.95470058  1
  Cl  Cl19  1  0.29056451  0.70421580  0.04529942  1
  Cl  Cl20  1  0.25758986  0.22870840  0.57913248  1
  Cl  Cl21  1  0.74241014  0.77129160  0.42086752  1
  O  O22  1  0.18173265  0.18693779  0.95422486  1
  O  O23  1  0.81826735  0.81306221  0.04577514  1
  O  O24  1  0.02283763  0.71327507  0.72161206  1
  O  O25  1  0.97716237  0.28672493  0.27838794  1
  O  O26  1  0.52943372  0.73049567  0.73486459  1
  O  O27  1  0.47056628  0.26950433  0.26513541  1
  O  O28  1  0.75532950  0.26053221  0.59110754  1
  O  O29  1  0.24467050  0.73946779  0.40889246  1
