# generated using pymatgen
data_B2O3
_symmetry_space_group_name_H-M   'P 1'
_cell_length_a   4.66960477
_cell_length_b   7.87557639
_cell_length_c   4.16952670
_cell_angle_alpha   90.00000000
_cell_angle_beta   90.00000000
_cell_angle_gamma   90.00000000
_symmetry_Int_Tables_number   1
_chemical_formula_structural   B2O3
_chemical_formula_sum   'B8 O12'
_cell_volume   153.33780125
_cell_formula_units_Z   4
loop_
 _symmetry_equiv_pos_site_id
 _symmetry_equiv_pos_as_xyz
  1  'x, y, z'
loop_
 _atom_site_type_symbol
 _atom_site_label
 _atom_site_symmetry_multiplicity
 _atom_site_fract_x
 _atom_site_fract_y
 _atom_site_fract_z
 _atom_site_occupancy
  B  B0  1  0.34184396  0.83459841  0.43246885  1
  B  B1  1  0.65815604  0.16540159  0.93246885  1
  B  B2  1  0.65815604  0.83459841  0.93246885  1
  B  B3  1  0.34184396  0.16540159  0.43246885  1
  B  B4  1  0.84184396  0.33459841  0.43246885  1
  B  B5  1  0.15815604  0.66540159  0.93246885  1
  B  B6  1  0.15815604  0.33459841  0.93246885  1
  B  B7  1  0.84184396  0.66540159  0.43246885  1
  O  O8  1  0.75942292  0.50000000  0.49625438  1
  O  O9  1  0.24057708  0.50000000  0.99625438  1
  O  O10  1  0.62909618  0.21113850  0.58310346  1
  O  O11  1  0.37090382  0.78886150  0.08310346  1
  O  O12  1  0.37090382  0.21113850  0.08310346  1
  O  O13  1  0.62909618  0.78886150  0.58310346  1
  O  O14  1  0.25942292  -0.00000000  0.49625438  1
  O  O15  1  0.74057708  -0.00000000  0.99625438  1
  O  O16  1  0.12909618  0.71113850  0.58310346  1
  O  O17  1  0.87090382  0.28886150  0.08310346  1
  O  O18  1  0.87090382  0.71113850  0.08310346  1
  O  O19  1  0.12909618  0.28886150  0.58310346  1
