# generated using pymatgen
data_EuPH5CO7
_symmetry_space_group_name_H-M   'P 1'
_cell_length_a   6.70461233
_cell_length_b   7.08577685
_cell_length_c   7.92317125
_cell_angle_alpha   111.31674473
_cell_angle_beta   96.30125508
_cell_angle_gamma   90.16480039
_symmetry_Int_Tables_number   1
_chemical_formula_structural   EuPH5CO7
_chemical_formula_sum   'Eu2 P2 H10 C2 O14'
_cell_volume   348.16656519
_cell_formula_units_Z   2
loop_
 _symmetry_equiv_pos_site_id
 _symmetry_equiv_pos_as_xyz
  1  'x, y, z'
loop_
 _atom_site_type_symbol
 _atom_site_label
 _atom_site_symmetry_multiplicity
 _atom_site_fract_x
 _atom_site_fract_y
 _atom_site_fract_z
 _atom_site_occupancy
  Eu  Eu0  1  0.86901909  0.77794396  0.06344426  1
  Eu  Eu1  1  0.13098091  0.22205604  0.93655574  1
  P  P2  1  0.67488155  0.25036415  0.01812747  1
  P  P3  1  0.32511845  0.74963585  0.98187253  1
  H  H4  1  0.48829931  0.88449272  0.59018071  1
  H  H5  1  0.16546442  0.52131067  0.32691641  1
  H  H6  1  0.71890372  0.66844136  0.64274828  1
  H  H7  1  0.51940359  0.74089160  0.39374370  1
  H  H8  1  0.51170069  0.11550728  0.40981929  1
  H  H9  1  0.83453558  0.47868933  0.67308359  1
  H  H10  1  0.48059641  0.25910840  0.60625630  1
  H  H11  1  0.62839122  0.28744970  0.19627269  1
  H  H12  1  0.37160878  0.71255030  0.80372731  1
  H  H13  1  0.28109628  0.33155864  0.35725172  1
  C  C14  1  0.93998910  0.09327864  0.49825654  1
  C  C15  1  0.06001090  0.90672136  0.50174346  1
  O  O16  1  0.52297601  0.77601888  0.10619288  1
  O  O17  1  0.05364157  0.75682433  0.35278464  1
  O  O18  1  0.80043974  0.05782259  0.96037886  1
  O  O19  1  0.41342517  0.20089528  0.48138239  1
  O  O20  1  0.84599024  0.07819773  0.34699677  1
  O  O21  1  0.94635843  0.24317567  0.64721536  1
  O  O22  1  0.81709315  0.42566818  0.02619787  1
  O  O23  1  0.19956026  0.94217741  0.03962114  1
  O  O24  1  0.58657483  0.79910472  0.51861761  1
  O  O25  1  0.18290685  0.57433182  0.97380213  1
  O  O26  1  0.47702399  0.22398112  0.89380712  1
  O  O27  1  0.21657823  0.38516876  0.26601110  1
  O  O28  1  0.78342177  0.61483124  0.73398890  1
  O  O29  1  0.15400976  0.92180227  0.65300323  1
