# generated using pymatgen
data_P4S5
_symmetry_space_group_name_H-M   'P 1'
_cell_length_a   6.79224065
_cell_length_b   7.16303265
_cell_length_c   12.25714515
_cell_angle_alpha   90.00000000
_cell_angle_beta   90.00000000
_cell_angle_gamma   117.17628059
_symmetry_Int_Tables_number   1
_chemical_formula_structural   P4S5
_chemical_formula_sum   'P8 S10'
_cell_volume   530.51393651
_cell_formula_units_Z   2
loop_
 _symmetry_equiv_pos_site_id
 _symmetry_equiv_pos_as_xyz
  1  'x, y, z'
loop_
 _atom_site_type_symbol
 _atom_site_label
 _atom_site_symmetry_multiplicity
 _atom_site_fract_x
 _atom_site_fract_y
 _atom_site_fract_z
 _atom_site_occupancy
  P  P0  1  0.71097318  0.64121887  0.75000000  1
  P  P1  1  0.28902682  0.35878113  0.25000000  1
  P  P2  1  0.14438009  0.22811750  0.75000000  1
  P  P3  1  0.85561991  0.77188250  0.25000000  1
  P  P4  1  0.57204104  0.15328577  0.84537115  1
  P  P5  1  0.42795896  0.84671423  0.34537115  1
  P  P6  1  0.42795896  0.84671423  0.15462885  1
  P  P7  1  0.57204104  0.15328577  0.65462885  1
  S  S8  1  0.36545023  0.55767796  0.75000000  1
  S  S9  1  0.63454977  0.44232204  0.25000000  1
  S  S10  1  0.24114249  0.09093308  0.88023414  1
  S  S11  1  0.75885751  0.90906692  0.38023414  1
  S  S12  1  0.75885751  0.90906692  0.11976586  1
  S  S13  1  0.24114249  0.09093308  0.61976586  1
  S  S14  1  0.76924735  0.47604891  0.88022481  1
  S  S15  1  0.23075265  0.52395109  0.38022481  1
  S  S16  1  0.23075265  0.52395109  0.11977519  1
  S  S17  1  0.76924735  0.47604891  0.61977519  1
