# generated using pymatgen
data_Na2P2H14O13
_symmetry_space_group_name_H-M   'P 1'
_cell_length_a   7.89692065
_cell_length_b   7.89692065
_cell_length_c   13.52892340
_cell_angle_alpha   65.39001689
_cell_angle_beta   114.60998311
_cell_angle_gamma   127.24813807
_symmetry_Int_Tables_number   1
_chemical_formula_structural   Na2P2H14O13
_chemical_formula_sum   'Na4 P4 H28 O26'
_cell_volume   594.62550970
_cell_formula_units_Z   2
loop_
 _symmetry_equiv_pos_site_id
 _symmetry_equiv_pos_as_xyz
  1  'x, y, z'
loop_
 _atom_site_type_symbol
 _atom_site_label
 _atom_site_symmetry_multiplicity
 _atom_site_fract_x
 _atom_site_fract_y
 _atom_site_fract_z
 _atom_site_occupancy
  Na  Na0  1  0.85517437  0.38220843  0.73067136  1
  Na  Na1  1  0.38220843  0.85517437  0.76932864  1
  Na  Na2  1  0.14482563  0.61779157  0.26932864  1
  Na  Na3  1  0.61779157  0.14482563  0.23067136  1
  P  P4  1  0.85555906  0.85578579  0.63956435  1
  P  P5  1  0.85578579  0.85555906  0.86043565  1
  P  P6  1  0.14444094  0.14421421  0.36043565  1
  P  P7  1  0.14421421  0.14444094  0.13956435  1
  H  H8  1  0.14552341  0.71034989  0.56809096  1
  H  H9  1  0.71034989  0.14552341  0.93190904  1
  H  H10  1  0.85447659  0.28965011  0.43190904  1
  H  H11  1  0.28965011  0.85447659  0.06809096  1
  H  H12  1  0.65971298  0.08642635  0.60184726  1
  H  H13  1  0.08642635  0.65971298  0.89815274  1
  H  H14  1  0.34028702  0.91357365  0.39815274  1
  H  H15  1  0.91357365  0.34028702  0.10184726  1
  H  H16  1  0.46904942  0.46962603  0.61392991  1
  H  H17  1  0.46962603  0.46904942  0.88607009  1
  H  H18  1  0.53095058  0.53037397  0.38607009  1
  H  H19  1  0.53037397  0.53095058  0.11392991  1
  H  H20  1  0.21432997  0.53585674  0.62461473  1
  H  H21  1  0.53585674  0.21432997  0.87538527  1
  H  H22  1  0.78567003  0.46414326  0.37538527  1
  H  H23  1  0.46414326  0.78567003  0.12461473  1
  H  H24  1  0.26281037  0.37810247  0.51891233  1
  H  H25  1  0.37810247  0.26281037  0.98108767  1
  H  H26  1  0.73718963  0.62189753  0.48108767  1
  H  H27  1  0.62189753  0.73718963  0.01891233  1
  H  H28  1  0.44812365  0.09370920  0.55844297  1
  H  H29  1  0.09370920  0.44812365  0.94155703  1
  H  H30  1  0.55187635  0.90629080  0.44155703  1
  H  H31  1  0.90629080  0.55187635  0.05844297  1
  H  H32  1  0.19486201  0.14296137  0.65210508  1
  H  H33  1  0.14296137  0.19486201  0.84789492  1
  H  H34  1  0.80513799  0.85703863  0.34789492  1
  H  H35  1  0.85703863  0.80513799  0.15210508  1
  O  O36  1  0.78786302  0.01539441  0.55417670  1
  O  O37  1  0.01539441  0.78786302  0.94582330  1
  O  O38  1  0.21213698  0.98460559  0.44582330  1
  O  O39  1  0.98460559  0.21213698  0.05417670  1
  O  O40  1  0.76449700  0.64709887  0.60836330  1
  O  O41  1  0.64709887  0.76449700  0.89163670  1
  O  O42  1  0.23550300  0.35290113  0.39163670  1
  O  O43  1  0.35290113  0.23550300  0.10836330  1
  O  O44  1  0.11356672  0.97450570  0.68275264  1
  O  O45  1  0.97450570  0.11356672  0.81724736  1
  O  O46  1  0.88643328  0.02549430  0.31724736  1
  O  O47  1  0.02549430  0.88643328  0.18275264  1
  O  O48  1  0.76452814  0.76452814  0.75000000  1
  O  O49  1  0.23547186  0.23547186  0.25000000  1
  O  O50  1  0.16021824  0.60642641  0.63882599  1
  O  O51  1  0.60642641  0.16021824  0.86117401  1
  O  O52  1  0.83978176  0.39357359  0.36117401  1
  O  O53  1  0.39357359  0.83978176  0.13882599  1
  O  O54  1  0.57652153  0.11864461  0.62213529  1
  O  O55  1  0.11864461  0.57652153  0.87786471  1
  O  O56  1  0.42347847  0.88135539  0.37786471  1
  O  O57  1  0.88135539  0.42347847  0.12213529  1
  O  O58  1  0.30690275  0.38634543  0.59866671  1
  O  O59  1  0.38634543  0.30690275  0.90133329  1
  O  O60  1  0.69309725  0.61365457  0.40133329  1
  O  O61  1  0.61365457  0.69309725  0.09866671  1
