# generated using pymatgen
data_Fe3O4
_symmetry_space_group_name_H-M   'P 1'
_cell_length_a   6.01688559
_cell_length_b   6.10362288
_cell_length_c   8.52436691
_cell_angle_alpha   89.55849118
_cell_angle_beta   90.00000000
_cell_angle_gamma   90.00000000
_symmetry_Int_Tables_number   1
_chemical_formula_structural   Fe3O4
_chemical_formula_sum   'Fe12 O16'
_cell_volume   313.04637978
_cell_formula_units_Z   4
loop_
 _symmetry_equiv_pos_site_id
 _symmetry_equiv_pos_as_xyz
  1  'x, y, z'
loop_
 _atom_site_type_symbol
 _atom_site_label
 _atom_site_symmetry_multiplicity
 _atom_site_fract_x
 _atom_site_fract_y
 _atom_site_fract_z
 _atom_site_occupancy
  Fe  Fe0  1  0.00000000  0.00000000  0.50000000  1
  Fe  Fe1  1  0.00000000  0.50000000  0.50000000  1
  Fe  Fe2  1  0.50000000  0.00000000  0.00000000  1
  Fe  Fe3  1  0.50000000  0.50000000  0.00000000  1
  Fe  Fe4  1  0.00000000  0.24534198  0.87264393  1
  Fe  Fe5  1  0.00000000  0.75465802  0.12735707  1
  Fe  Fe6  1  0.50000000  0.25510732  0.62426430  1
  Fe  Fe7  1  0.50000000  0.74489268  0.37573570  1
  Fe  Fe8  1  0.74701317  0.75001906  0.75149636  1
  Fe  Fe9  1  0.74701317  0.24998194  0.24850364  1
  Fe  Fe10  1  0.25298683  0.24998194  0.24850364  1
  Fe  Fe11  1  0.25298683  0.75001906  0.75149636  1
  O  O12  1  0.76006951  0.73826755  0.50665395  1
  O  O13  1  0.76006951  0.26173245  0.49334605  1
  O  O14  1  0.23993049  0.26173245  0.49334605  1
  O  O15  1  0.23993049  0.73826755  0.50665395  1
  O  O16  1  0.00000000  0.49175493  0.25753862  1
  O  O17  1  0.00000000  0.50824507  0.74246138  1
  O  O18  1  0.00000000  0.98828480  0.74606193  1
  O  O19  1  0.00000000  0.01171520  0.25393807  1
  O  O20  1  0.74193400  0.76088487  0.99170046  1
  O  O21  1  0.74193400  0.23911513  0.00829954  1
  O  O22  1  0.25806600  0.23911513  0.00829954  1
  O  O23  1  0.25806600  0.76088487  0.99170046  1
  O  O24  1  0.50000000  0.49193915  0.24383193  1
  O  O25  1  0.50000000  0.50806085  0.75616807  1
  O  O26  1  0.50000000  0.99589991  0.75955630  1
  O  O27  1  0.50000000  0.00410009  0.24044370  1
