# generated using pymatgen
data_Na2GeH16Se3O8
_symmetry_space_group_name_H-M   'P 1'
_cell_length_a   9.93809098
_cell_length_b   11.88096989
_cell_length_c   12.31170624
_cell_angle_alpha   90.00000000
_cell_angle_beta   92.79915828
_cell_angle_gamma   90.00000000
_symmetry_Int_Tables_number   1
_chemical_formula_structural   Na2GeH16Se3O8
_chemical_formula_sum   'Na8 Ge4 H64 Se12 O32'
_cell_volume   1451.95990074
_cell_formula_units_Z   4
loop_
 _symmetry_equiv_pos_site_id
 _symmetry_equiv_pos_as_xyz
  1  'x, y, z'
loop_
 _atom_site_type_symbol
 _atom_site_label
 _atom_site_symmetry_multiplicity
 _atom_site_fract_x
 _atom_site_fract_y
 _atom_site_fract_z
 _atom_site_occupancy
  Na  Na0  1  0.56611674  0.33917124  0.85288939  1
  Na  Na1  1  0.43388326  0.83917124  0.64711061  1
  Na  Na2  1  0.43388326  0.66082876  0.14711061  1
  Na  Na3  1  0.56611674  0.16082876  0.35288939  1
  Na  Na4  1  0.64347487  0.14929211  0.67903475  1
  Na  Na5  1  0.35652513  0.64929211  0.82096525  1
  Na  Na6  1  0.35652513  0.85070789  0.32096525  1
  Na  Na7  1  0.64347487  0.35070789  0.17903475  1
  Ge  Ge8  1  0.11768595  0.09534193  0.98540286  1
  Ge  Ge9  1  0.88231405  0.59534193  0.51459714  1
  Ge  Ge10  1  0.88231405  0.90465807  0.01459714  1
  Ge  Ge11  1  0.11768595  0.40465807  0.48540286  1
  H  H12  1  0.72672275  0.12731100  0.90652063  1
  H  H13  1  0.27327725  0.62731100  0.59347937  1
  H  H14  1  0.27327725  0.87268900  0.09347937  1
  H  H15  1  0.72672275  0.37268900  0.40652063  1
  H  H16  1  0.83376565  0.22093970  0.88462410  1
  H  H17  1  0.16623435  0.72093970  0.61537590  1
  H  H18  1  0.16623435  0.77906030  0.11537590  1
  H  H19  1  0.83376565  0.27906030  0.38462410  1
  H  H20  1  0.34085990  0.43244971  0.72012656  1
  H  H21  1  0.65914010  0.93244971  0.77987344  1
  H  H22  1  0.65914010  0.56755029  0.27987344  1
  H  H23  1  0.34085990  0.06755029  0.22012656  1
  H  H24  1  0.28112335  0.39704172  0.83185841  1
  H  H25  1  0.71887665  0.89704172  0.66814159  1
  H  H26  1  0.71887665  0.60295828  0.16814159  1
  H  H27  1  0.28112335  0.10295828  0.33185841  1
  H  H28  1  0.40644177  0.10581986  0.53801865  1
  H  H29  1  0.59355823  0.60581986  0.96198135  1
  H  H30  1  0.59355823  0.89418014  0.46198135  1
  H  H31  1  0.40644177  0.39418014  0.03801865  1
  H  H32  1  0.42669783  0.23750032  0.52864304  1
  H  H33  1  0.57330217  0.73750032  0.97135696  1
  H  H34  1  0.57330217  0.76249968  0.47135696  1
  H  H35  1  0.42669783  0.26249968  0.02864304  1
  H  H36  1  0.62111921  0.39893317  0.61226450  1
  H  H37  1  0.37888079  0.89893317  0.88773550  1
  H  H38  1  0.37888079  0.60106683  0.38773550  1
  H  H39  1  0.62111921  0.10106683  0.11226450  1
  H  H40  1  0.75718029  0.37407515  0.67079364  1
  H  H41  1  0.24281971  0.87407515  0.82920636  1
  H  H42  1  0.24281971  0.62592485  0.32920636  1
  H  H43  1  0.75718029  0.12592485  0.17079364  1
  H  H44  1  0.43170175  0.12481841  0.85131121  1
  H  H45  1  0.56829825  0.62481841  0.64868879  1
  H  H46  1  0.56829825  0.87518159  0.14868879  1
  H  H47  1  0.43170175  0.37518159  0.35131121  1
  H  H48  1  0.35899312  0.17582086  0.74787097  1
  H  H49  1  0.64100688  0.67582086  0.75212903  1
  H  H50  1  0.64100688  0.82417914  0.25212903  1
  H  H51  1  0.35899312  0.32417914  0.24787097  1
  H  H52  1  0.91762127  0.16124100  0.57503274  1
  H  H53  1  0.08237873  0.66124100  0.92496726  1
  H  H54  1  0.08237873  0.83875900  0.42496726  1
  H  H55  1  0.91762127  0.33875900  0.07503274  1
  H  H56  1  0.91040420  0.05818031  0.65421398  1
  H  H57  1  0.08959580  0.55818031  0.84578602  1
  H  H58  1  0.08959580  0.94181969  0.34578602  1
  H  H59  1  0.91040420  0.44181969  0.15421398  1
  H  H60  1  0.76137591  0.53402113  0.87310986  1
  H  H61  1  0.23862409  0.03402113  0.62689014  1
  H  H62  1  0.23862409  0.46597887  0.12689014  1
  H  H63  1  0.76137591  0.96597887  0.37310986  1
  H  H64  1  0.77335389  0.46230821  0.98158158  1
  H  H65  1  0.22664611  0.96230821  0.51841842  1
  H  H66  1  0.22664611  0.53769179  0.01841842  1
  H  H67  1  0.77335389  0.03769179  0.48158158  1
  H  H68  1  0.15291602  0.19813617  0.61366924  1
  H  H69  1  0.84708398  0.69813617  0.88633076  1
  H  H70  1  0.84708398  0.80186383  0.38633076  1
  H  H71  1  0.15291602  0.30186383  0.11366924  1
  H  H72  1  0.12975429  0.20106398  0.74182213  1
  H  H73  1  0.87024571  0.70106398  0.75817787  1
  H  H74  1  0.87024571  0.79893602  0.25817787  1
  H  H75  1  0.12975429  0.29893602  0.24182213  1
  Se  Se76  1  0.98137529  0.04404061  0.14043288  1
  Se  Se77  1  0.01862471  0.54404061  0.35956712  1
  Se  Se78  1  0.01862471  0.95595939  0.85956712  1
  Se  Se79  1  0.98137529  0.45595939  0.64043288  1
  Se  Se80  1  0.06602178  0.27883261  0.92773989  1
  Se  Se81  1  0.93397822  0.77883261  0.57226011  1
  Se  Se82  1  0.93397822  0.72116739  0.07226011  1
  Se  Se83  1  0.06602178  0.22116739  0.42773989  1
  Se  Se84  1  0.34668026  0.05839368  0.02825569  1
  Se  Se85  1  0.65331974  0.55839368  0.47174431  1
  Se  Se86  1  0.65331974  0.94160632  0.97174431  1
  Se  Se87  1  0.34668026  0.44160632  0.52825569  1
  O  O88  1  0.73806493  0.20067599  0.87016112  1
  O  O89  1  0.26193507  0.70067599  0.62983888  1
  O  O90  1  0.26193507  0.79932401  0.12983888  1
  O  O91  1  0.73806493  0.29932401  0.37016112  1
  O  O92  1  0.35539329  0.43916811  0.80006096  1
  O  O93  1  0.64460671  0.93916811  0.69993904  1
  O  O94  1  0.64460671  0.56083189  0.19993904  1
  O  O95  1  0.35539329  0.06083189  0.30006096  1
  O  O96  1  0.47509035  0.16498758  0.52848496  1
  O  O97  1  0.52490965  0.66498758  0.97151504  1
  O  O98  1  0.52490965  0.83501242  0.47151504  1
  O  O99  1  0.47509035  0.33501242  0.02848496  1
  O  O100  1  0.66062166  0.35547888  0.67383942  1
  O  O101  1  0.33937834  0.85547888  0.82616058  1
  O  O102  1  0.33937834  0.64452112  0.32616058  1
  O  O103  1  0.66062166  0.14452112  0.17383942  1
  O  O104  1  0.44939422  0.16412149  0.78327078  1
  O  O105  1  0.55060578  0.66412149  0.71672922  1
  O  O106  1  0.55060578  0.83587851  0.21672922  1
  O  O107  1  0.44939422  0.33587851  0.28327078  1
  O  O108  1  0.85458548  0.10728289  0.60632093  1
  O  O109  1  0.14541452  0.60728289  0.89367907  1
  O  O110  1  0.14541452  0.89271711  0.39367907  1
  O  O111  1  0.85458548  0.39271711  0.10632093  1
  O  O112  1  0.70991746  0.48606271  0.92137929  1
  O  O113  1  0.29008254  0.98606271  0.57862071  1
  O  O114  1  0.29008254  0.51393729  0.07862071  1
  O  O115  1  0.70991746  0.01393729  0.42137929  1
  O  O116  1  0.18512461  0.16764172  0.68540160  1
  O  O117  1  0.81487539  0.66764172  0.81459840  1
  O  O118  1  0.81487539  0.83235828  0.31459840  1
  O  O119  1  0.18512461  0.33235828  0.18540160  1
