# generated using pymatgen
data_AlH18CS2N3O14
_symmetry_space_group_name_H-M   'P 1'
_cell_length_a   11.82631342
_cell_length_b   11.82630314
_cell_length_c   9.08027334
_cell_angle_alpha   89.99992068
_cell_angle_beta   90.00003963
_cell_angle_gamma   119.99997370
_symmetry_Int_Tables_number   1
_chemical_formula_structural   AlH18CS2N3O14
_chemical_formula_sum   'Al3 H54 C3 S6 N9 O42'
_cell_volume   1099.83632792
_cell_formula_units_Z   3
loop_
 _symmetry_equiv_pos_site_id
 _symmetry_equiv_pos_as_xyz
  1  'x, y, z'
loop_
 _atom_site_type_symbol
 _atom_site_label
 _atom_site_symmetry_multiplicity
 _atom_site_fract_x
 _atom_site_fract_y
 _atom_site_fract_z
 _atom_site_occupancy
  Al  Al0  1  0.00000000  0.99999971  0.99737748  1
  Al  Al1  1  0.66666318  0.33333172  0.05814309  1
  Al  Al2  1  0.33333682  0.66666855  0.05814309  1
  H  H3  1  0.80107285  0.88672059  0.50238999  1
  H  H4  1  0.08564836  0.19892721  0.50239034  1
  H  H5  1  0.11327915  0.91435189  0.50238986  1
  H  H6  1  0.19892715  0.08564774  0.50238999  1
  H  H7  1  0.88672085  0.80107274  0.50238986  1
  H  H8  1  0.91435164  0.11327885  0.50239034  1
  H  H9  1  0.43463907  0.86654356  0.55194537  1
  H  H10  1  0.43191166  0.56536560  0.55194611  1
  H  H11  1  0.13345482  0.56809306  0.55194553  1
  H  H12  1  0.56536093  0.43190449  0.55194537  1
  H  H13  1  0.86654518  0.43463823  0.55194553  1
  H  H14  1  0.56808834  0.13345394  0.55194611  1
  H  H15  1  0.53124571  0.79384732  0.55554266  1
  H  H16  1  0.26260701  0.46875562  0.55554258  1
  H  H17  1  0.20615486  0.73740043  0.55554259  1
  H  H18  1  0.46875429  0.26260161  0.55554266  1
  H  H19  1  0.79384514  0.53124557  0.55554259  1
  H  H20  1  0.73739299  0.20614862  0.55554258  1
  H  H21  1  0.79061677  0.91813953  0.84083781  1
  H  H22  1  0.12752281  0.20938425  0.84083866  1
  H  H23  1  0.08186072  0.87247654  0.84083801  1
  H  H24  1  0.20938323  0.12752276  0.84083781  1
  H  H25  1  0.91813928  0.79061583  0.84083801  1
  H  H26  1  0.87247719  0.08186144  0.84083866  1
  H  H27  1  0.79505745  0.87472508  0.16572703  1
  H  H28  1  0.07966779  0.20494337  0.16572653  1
  H  H29  1  0.12527517  0.92033139  0.16572739  1
  H  H30  1  0.20494255  0.07966763  0.16572703  1
  H  H31  1  0.87472483  0.79505623  0.16572739  1
  H  H32  1  0.92033221  0.12527559  0.16572653  1
  H  H33  1  0.53515384  0.79083923  0.89099098  1
  H  H34  1  0.25568880  0.46484954  0.89099231  1
  H  H35  1  0.20916186  0.74431213  0.89099113  1
  H  H36  1  0.46484616  0.25568539  0.89099098  1
  H  H37  1  0.79083814  0.53515027  0.89099113  1
  H  H38  1  0.74431120  0.20916074  0.89099231  1
  H  H39  1  0.46089093  0.87756676  0.89751763  1
  H  H40  1  0.41667772  0.53911167  0.89751699  1
  H  H41  1  0.12243516  0.58332456  0.89751661  1
  H  H42  1  0.53910907  0.41667583  0.89751763  1
  H  H43  1  0.87756484  0.46088940  0.89751661  1
  H  H44  1  0.58332228  0.12243395  0.89751699  1
  H  H45  1  0.54372911  0.74491096  0.21207461  1
  H  H46  1  0.20118283  0.45627309  0.21207454  1
  H  H47  1  0.25509134  0.79881728  0.21207394  1
  H  H48  1  0.45627089  0.20118186  0.21207461  1
  H  H49  1  0.74490866  0.54372594  0.21207394  1
  H  H50  1  0.79881717  0.25509026  0.21207454  1
  H  H51  1  0.45576042  0.58149820  0.21721594  1
  H  H52  1  0.12573885  0.54424008  0.21721400  1
  H  H53  1  0.41850325  0.87426186  0.21721515  1
  H  H54  1  0.54423958  0.12573778  0.21721594  1
  H  H55  1  0.58149675  0.45575861  0.21721515  1
  H  H56  1  0.87426115  0.41850124  0.21721400  1
  C  C57  1  0.00000000  0.00000089  0.50673619  1
  C  C58  1  0.66665371  0.33332645  0.55358869  1
  C  C59  1  0.33334629  0.66667273  0.55358869  1
  S  S60  1  0.34485197  -0.00000076  0.75669690  1
  S  S61  1  0.65514803  0.65514727  0.75669690  1
  S  S62  1  0.00000000  0.34485287  0.75670102  1
  S  S63  1  0.68075880  0.00000119  0.31385622  1
  S  S64  1  0.31924120  0.31924239  0.31385622  1
  S  S65  1  0.00000000  0.68075721  0.31385315  1
  N  N66  1  0.11298617  -0.00000009  0.50752375  1
  N  N67  1  0.88701383  0.88701373  0.50752375  1
  N  N68  1  0.00000000  0.11298491  0.50752360  1
  N  N69  1  0.21605207  0.65692886  0.55333782  1
  N  N70  1  0.44086177  0.78393361  0.55333877  1
  N  N71  1  0.34306863  0.55913176  0.55333815  1
  N  N72  1  0.78394793  0.44087680  0.55333782  1
  N  N73  1  0.65693137  0.21606313  0.55333815  1
  N  N74  1  0.55913823  0.34307184  0.55333877  1
  O  O75  1  0.45170992  0.99999944  0.84725847  1
  O  O76  1  0.54829008  0.54828952  0.84725847  1
  O  O77  1  1.00000000  0.45171189  0.84726077  1
  O  O78  1  0.55616428  0.99999977  0.28398475  1
  O  O79  1  0.44383572  0.44383549  0.28398475  1
  O  O80  1  0.00000000  0.55616466  0.28398356  1
  O  O81  1  0.37302540  -0.00000082  0.59749436  1
  O  O82  1  0.62697460  0.62697379  0.59749436  1
  O  O83  1  1.00000000  0.37302990  0.59749545  1
  O  O84  1  0.70320208  0.00000180  0.47400458  1
  O  O85  1  0.29679792  0.29679972  0.47400458  1
  O  O86  1  1.00000000  0.70319869  0.47400499  1
  O  O87  1  0.66086668  0.78094967  0.79564906  1
  O  O88  1  0.12008447  0.33913625  0.79564967  1
  O  O89  1  0.21904948  0.87991308  0.79565015  1
  O  O90  1  0.33913332  0.12008300  0.79564906  1
  O  O91  1  0.78095052  0.66086360  0.79565015  1
  O  O92  1  0.87991553  0.21905178  0.79564967  1
  O  O93  1  0.67344175  0.88125239  0.24445620  1
  O  O94  1  0.20781140  0.32656189  0.24445476  1
  O  O95  1  0.11874910  0.79218788  0.24445663  1
  O  O96  1  0.32655825  0.20781063  0.24445620  1
  O  O97  1  0.88125090  0.67343878  0.24445663  1
  O  O98  1  0.79218860  0.11875048  0.24445476  1
  O  O99  1  0.13412436  -0.00000045  0.11573312  1
  O  O100  1  0.86587564  0.86587519  0.11573312  1
  O  O101  1  0.00000000  0.13412351  0.11573359  1
  O  O102  1  0.86698491  0.00000031  0.88070617  1
  O  O103  1  0.13301509  0.13301540  0.88070617  1
  O  O104  1  1.00000000  0.86698681  0.88070396  1
  O  O105  1  0.19799898  0.66502636  0.94173159  1
  O  O106  1  0.46703346  0.80200531  0.94173481  1
  O  O107  1  0.33497617  0.53297236  0.94173312  1
  O  O108  1  0.80200102  0.46702738  0.94173159  1
  O  O109  1  0.66502383  0.19799619  0.94173312  1
  O  O110  1  0.53296654  0.33497186  0.94173481  1
  O  O111  1  0.33633827  0.80027046  0.17602229  1
  O  O112  1  0.46393543  0.66366370  0.17602341  1
  O  O113  1  0.19973209  0.53606791  0.17602228  1
  O  O114  1  0.66366173  0.46393218  0.17602229  1
  O  O115  1  0.80026791  0.33633582  0.17602228  1
  O  O116  1  0.53606457  0.19972826  0.17602341  1
