# generated using pymatgen
data_Sr2Re4H16C3(N2O7)3
_symmetry_space_group_name_H-M   'P 1'
_cell_length_a   17.91697251
_cell_length_b   10.64843729
_cell_length_c   7.84072422
_cell_angle_alpha   68.39761940
_cell_angle_beta   77.36101622
_cell_angle_gamma   85.37943122
_symmetry_Int_Tables_number   1
_chemical_formula_structural   Sr2Re4H16C3(N2O7)3
_chemical_formula_sum   'Sr4 Re8 H32 C6 N12 O42'
_cell_volume   1357.14021332
_cell_formula_units_Z   2
loop_
 _symmetry_equiv_pos_site_id
 _symmetry_equiv_pos_as_xyz
  1  'x, y, z'
loop_
 _atom_site_type_symbol
 _atom_site_label
 _atom_site_symmetry_multiplicity
 _atom_site_fract_x
 _atom_site_fract_y
 _atom_site_fract_z
 _atom_site_occupancy
  Sr  Sr0  1  0.99221080  0.79693423  0.46836076  1
  Sr  Sr1  1  0.49221080  0.70306577  0.51529499  1
  Sr  Sr2  1  0.50778920  0.29693423  0.71057157  1
  Sr  Sr3  1  0.00778920  0.20306577  0.25750580  1
  Re  Re4  1  0.31422435  0.97730549  0.50156659  1
  Re  Re5  1  0.45261819  0.86474569  0.97274167  1
  Re  Re6  1  0.95261819  0.63525431  0.08748636  1
  Re  Re7  1  0.81422435  0.52269451  0.72887108  1
  Re  Re8  1  0.18577565  0.47730549  0.06579094  1
  Re  Re9  1  0.04738181  0.36474569  0.67535886  1
  Re  Re10  1  0.54738181  0.13525431  0.29010455  1
  Re  Re11  1  0.68577565  0.02269451  0.79309644  1
  H  H12  1  0.06496747  0.98488672  0.91619712  1
  H  H13  1  0.11579351  0.97915656  0.70017655  1
  H  H14  1  0.73714320  0.93178790  0.29254874  1
  H  H15  1  0.23903817  0.84421587  0.03837845  1
  H  H16  1  0.15886908  0.82970429  0.50768427  1
  H  H17  1  0.80856163  0.82817609  0.39597611  1
  H  H18  1  0.63171285  0.81104559  0.59427070  1
  H  H19  1  0.14698786  0.77793493  0.14112244  1
  H  H20  1  0.64698786  0.72206507  0.16905637  1
  H  H21  1  0.13171285  0.68895441  0.65531728  1
  H  H22  1  0.30856163  0.67182391  0.47415120  1
  H  H23  1  0.65886908  0.67029571  0.58738856  1
  H  H24  1  0.73903817  0.65578413  0.13259432  1
  H  H25  1  0.23714320  0.56821210  0.47433764  1
  H  H26  1  0.61579351  0.52084344  0.92933311  1
  H  H27  1  0.56496747  0.51511328  0.15108485  1
  H  H28  1  0.43503253  0.48488672  0.23116459  1
  H  H29  1  0.38420649  0.47915656  0.06597006  1
  H  H30  1  0.76285680  0.43178790  0.27969294  1
  H  H31  1  0.26096183  0.34421587  0.52741662  1
  H  H32  1  0.34113092  0.32970429  0.91655336  1
  H  H33  1  0.69143837  0.32817609  0.45453773  1
  H  H34  1  0.86828715  0.31104559  0.47598354  1
  H  H35  1  0.35301214  0.27793493  0.53811030  1
  H  H36  1  0.85301214  0.22206507  0.06604423  1
  H  H37  1  0.36828715  0.18895441  0.03702913  1
  H  H38  1  0.19143837  0.17182391  0.03271283  1
  H  H39  1  0.84113092  0.17029571  0.49625765  1
  H  H40  1  0.76096183  0.15578413  0.12163249  1
  H  H41  1  0.26285680  0.06821210  0.96148084  1
  H  H42  1  0.88420649  0.02084344  0.79512663  1
  H  H43  1  0.93503253  0.01511228  0.96605131  1
  C  C44  1  0.15808628  0.97766247  0.10042529  1
  C  C45  1  0.65808628  0.52233753  0.32808676  1
  C  C46  1  0.50000000  0.50000000  0.97339472  1
  C  C47  1  0.34191372  0.47766247  0.50851057  1
  C  C48  1  0.84191372  0.02233753  0.23617304  1
  C  C49  1  1.00000000  1.00000000  0.72339472  1
  N  N50  1  0.06547174  0.98863318  0.78458439  1
  N  N51  1  0.79125191  0.92023294  0.31621965  1
  N  N52  1  0.18232718  0.85916567  0.08148611  1
  N  N53  1  0.68232718  0.64083433  0.19065078  1
  N  N54  1  0.29125191  0.57976706  0.48645258  1
  N  N55  1  0.56547174  0.51136682  0.02321657  1
  N  N56  1  0.43452826  0.48863318  0.10005512  1
  N  N57  1  0.70874809  0.42023294  0.35747056  1
  N  N58  1  0.31767282  0.35916567  0.51381329  1
  N  N59  1  0.81767282  0.14083433  0.12297796  1
  N  N60  1  0.20874809  0.07976706  0.02770449  1
  N  N61  1  0.93452826  0.01136682  0.83868831  1
  O  O62  1  0.08885467  0.99308158  0.17804648  1
  O  O63  1  0.67102349  0.97193973  0.03607067  1
  O  O64  1  0.21511811  0.96466833  0.52135737  1
  O  O65  1  0.51478930  0.96770728  0.38571372  1
  O  O66  1  0.64643630  0.89980033  0.74012450  1
  O  O67  1  0.35533877  0.86189275  0.07236821  1
  O  O68  1  0.35739923  0.81838897  0.52286493  1
  O  O69  1  0.46719367  0.78889960  0.80399282  1
  O  O70  1  0.50185082  0.77432660  0.15374778  1
  O  O71  1  0.12844479  0.75076856  0.52757621  1
  O  O72  1  0.62844479  0.74923144  0.52834477  1
  O  O73  1  0.00185082  0.72567340  0.17807438  1
  O  O74  1  0.96719367  0.71110040  0.84289242  1
  O  O75  1  0.85739923  0.68161103  0.59125390  1
  O  O76  1  0.85533877  0.63810725  0.18426096  1
  O  O77  1  0.14643630  0.60019967  0.88992483  1
  O  O78  1  0.01478930  0.53229272  0.60342100  1
  O  O79  1  0.71511811  0.53533167  0.73602670  1
  O  O80  1  0.17102349  0.52806027  0.25801040  1
  O  O81  1  0.58885467  0.50691842  0.42112806  1
  O  O82  1  0.50000000  0.50000000  0.80984851  1
  O  O83  1  0.41114533  0.49308158  0.51690115  1
  O  O84  1  0.82897651  0.47193973  0.95709416  1
  O  O85  1  0.28488189  0.46466833  0.98647548  1
  O  O86  1  0.98521070  0.46770728  0.15050302  1
  O  O87  1  0.85356370  0.39980033  0.63656080  1
  O  O88  1  0.14466123  0.36189275  0.67770698  1
  O  O89  1  0.14260077  0.31838897  0.13026316  1
  O  O90  1  0.03280633  0.28889960  0.52118649  1
  O  O91  1  0.99814918  0.27432660  0.90559960  1
  O  O92  1  0.37155521  0.25076856  0.90602200  1
  O  O93  1  0.87155521  0.24923144  0.40679056  1
  O  O94  1  0.49814918  0.22567340  0.42992620  1
  O  O95  1  0.53280633  0.21110040  0.06008610  1
  O  O96  1  0.64260077  0.18161103  0.69865313  1
  O  O97  1  0.64466123  0.13810725  0.28959973  1
  O  O98  1  0.35356370  0.10019967  0.28636113  1
  O  O99  1  0.48521070  0.03229272  0.86821030  1
  O  O100  1  0.78488189  0.03533167  0.70114481  1
  O  O101  1  0.32897651  0.02806027  0.67903389  1
  O  O102  1  0.91114533  0.00691842  0.25998273  1
  O  O103  1  1.00000000  1.00000000  0.55984851  1
