# generated using pymatgen
data_NaCa3AlFe3(SiO3)8
_symmetry_space_group_name_H-M   'P 1'
_cell_length_a   5.34806113
_cell_length_b   26.70577676
_cell_length_c   9.84431571
_cell_angle_alpha   42.50296137
_cell_angle_beta   73.52229291
_cell_angle_gamma   77.92961689
_symmetry_Int_Tables_number   1
_chemical_formula_structural   NaCa3AlFe3(SiO3)8
_chemical_formula_sum   'Na2 Ca6 Al2 Fe6 Si16 O48'
_cell_volume   910.92355673
_cell_formula_units_Z   2
loop_
 _symmetry_equiv_pos_site_id
 _symmetry_equiv_pos_as_xyz
  1  'x, y, z'
loop_
 _atom_site_type_symbol
 _atom_site_label
 _atom_site_symmetry_multiplicity
 _atom_site_fract_x
 _atom_site_fract_y
 _atom_site_fract_z
 _atom_site_occupancy
  Na  Na0  1  0.25000000  0.84940378  0.30119245  1
  Na  Na1  1  0.75000000  0.90059622  0.69880755  1
  Ca  Ca2  1  0.25000000  0.09765198  0.30469604  1
  Ca  Ca3  1  0.25000000  0.35115159  0.29769682  1
  Ca  Ca4  1  0.25000000  0.60496628  0.29006744  1
  Ca  Ca5  1  0.75000000  0.14503372  0.70993256  1
  Ca  Ca6  1  0.75000000  0.39884841  0.70230318  1
  Ca  Ca7  1  0.75000000  0.65234802  0.69530396  1
  Al  Al8  1  0.25000000  0.80313499  0.89373002  1
  Al  Al9  1  0.75000000  0.94686501  0.10626998  1
  Fe  Fe10  1  0.25000000  0.04085528  0.91828943  1
  Fe  Fe11  1  0.25000000  0.29538019  0.90923962  1
  Fe  Fe12  1  0.75000000  0.20031288  0.09937424  1
  Fe  Fe13  1  0.25000000  0.54968712  0.90062576  1
  Fe  Fe14  1  0.75000000  0.45461981  0.09076038  1
  Fe  Fe15  1  0.75000000  0.70914472  0.08171057  1
  Si  Si16  1  0.26346736  0.20272506  0.38433038  1
  Si  Si17  1  0.23653264  0.20272506  0.80476936  1
  Si  Si18  1  0.26368099  0.45452867  0.37997244  1
  Si  Si19  1  0.76558729  0.03973900  0.20550763  1
  Si  Si20  1  0.23631901  0.45452867  0.80191287  1
  Si  Si21  1  0.26558729  0.71026100  0.36446363  1
  Si  Si22  1  0.73441271  0.03973900  0.63553637  1
  Si  Si23  1  0.76368099  0.29547133  0.19808713  1
  Si  Si24  1  0.23441271  0.71026100  0.79449237  1
  Si  Si25  1  0.27306897  0.94936031  0.38883995  1
  Si  Si26  1  0.73631901  0.29547133  0.62002756  1
  Si  Si27  1  0.76346736  0.54727494  0.19523064  1
  Si  Si28  1  0.22693103  0.94936031  0.81371880  1
  Si  Si29  1  0.73653264  0.54727494  0.61566962  1
  Si  Si30  1  0.77306897  0.80063969  0.18628120  1
  Si  Si31  1  0.72693103  0.80063969  0.61116005  1
  O  O32  1  0.00597537  0.00333888  0.33353088  1
  O  O33  1  0.99557267  0.25730068  0.33719619  1
  O  O34  1  0.17696207  0.12490911  0.61752209  1
  O  O35  1  0.99507712  0.50857593  0.33497213  1
  O  O36  1  0.34602355  0.20260137  0.21314086  1
  O  O37  1  0.15397645  0.20260137  0.97645364  1
  O  O38  1  0.17614450  0.37596564  0.61095585  1
  O  O39  1  0.99045263  0.75902250  0.33800717  1
  O  O40  1  0.49402463  0.00333888  0.65311361  1
  O  O41  1  0.32303793  0.12490911  0.88284147  1
  O  O42  1  0.34750728  0.45603359  0.20587749  1
  O  O43  1  0.68863398  0.12073337  0.11152221  1
  O  O44  1  0.49507712  0.24142407  0.36927585  1
  O  O45  1  0.83946158  0.03268105  0.04652651  1
  O  O46  1  0.15249272  0.45603359  0.96998814  1
  O  O47  1  0.18863398  0.62926663  0.59445568  1
  O  O48  1  0.50442733  0.25730068  0.63360108  1
  O  O49  1  0.32385550  0.37596564  0.88518161  1
  O  O50  1  0.66053842  0.03268105  0.82274931  1
  O  O51  1  0.33946158  0.71731895  0.17725069  1
  O  O52  1  0.67614450  0.37403436  0.11481839  1
  O  O53  1  0.49557267  0.49269932  0.36639892  1
  O  O54  1  0.81136602  0.12073337  0.40554432  1
  O  O55  1  0.84750728  0.29396641  0.03001186  1
  O  O56  1  0.16053842  0.71731895  0.95347349  1
  O  O57  1  0.18879597  0.87133118  0.62448513  1
  O  O58  1  0.50492288  0.50857593  0.63072415  1
  O  O59  1  0.31136602  0.62926663  0.88847779  1
  O  O60  1  0.65249272  0.29396641  0.79412251  1
  O  O61  1  0.38659801  0.95242332  0.20937094  1
  O  O62  1  0.67696207  0.62509089  0.11715853  1
  O  O63  1  0.50597537  0.74666112  0.34688639  1
  O  O64  1  0.82385550  0.37403436  0.38904415  1
  O  O65  1  0.84602355  0.54739863  0.02354636  1
  O  O66  1  0.11340199  0.95242332  0.98093577  1
  O  O67  1  0.50954737  0.75902250  0.62590283  1
  O  O68  1  0.31120403  0.87133118  0.89019016  1
  O  O69  1  0.65397645  0.54739863  0.78685914  1
  O  O70  1  0.68879597  0.87866882  0.10980984  1
  O  O71  1  0.49045263  0.99097750  0.37409717  1
  O  O72  1  0.00492288  0.24142407  0.66502787  1
  O  O73  1  0.82303793  0.62509089  0.38247791  1
  O  O74  1  0.88659801  0.79757668  0.01906423  1
  O  O75  1  0.61340199  0.79757668  0.79062906  1
  O  O76  1  0.00442733  0.49269932  0.66280381  1
  O  O77  1  0.81120403  0.87866882  0.37551487  1
  O  O78  1  0.99402463  0.74666112  0.66646912  1
  O  O79  1  0.00954737  0.99097750  0.66199283  1
