# generated using pymatgen
data_Ba2SrI6
_symmetry_space_group_name_H-M   'P 1'
_cell_length_a   14.59259047
_cell_length_b   14.58866549
_cell_length_c   7.87813804
_cell_angle_alpha   90.02718831
_cell_angle_beta   90.00000000
_cell_angle_gamma   120.00889802
_symmetry_Int_Tables_number   1
_chemical_formula_structural   Ba2SrI6
_chemical_formula_sum   'Ba6 Sr3 I18'
_cell_volume   1452.32283776
_cell_formula_units_Z   3
loop_
 _symmetry_equiv_pos_site_id
 _symmetry_equiv_pos_as_xyz
  1  'x, y, z'
loop_
 _atom_site_type_symbol
 _atom_site_label
 _atom_site_symmetry_multiplicity
 _atom_site_fract_x
 _atom_site_fract_y
 _atom_site_fract_z
 _atom_site_occupancy
  Ba  Ba0  1  0.99998336  0.63884414  0.00008169  1
  Ba  Ba1  1  0.99997982  0.30510574  0.50022640  1
  Ba  Ba2  1  0.36113922  0.36115586  0.99991831  1
  Ba  Ba3  1  0.30504418  0.00000000  0.50000000  1
  Ba  Ba4  1  0.69487408  0.69489426  0.49977360  1
  Ba  Ba5  1  0.63890559  0.00000000  0.00000000  1
  Sr  Sr6  1  0.33334743  0.66664950  0.49478895  1
  Sr  Sr7  1  0.00003497  0.00000000  0.00000000  1
  Sr  Sr8  1  0.66669793  0.33335050  0.50521105  1
  I  I9  1  0.08479158  0.87049922  0.76174925  1
  I  I10  1  0.22831761  0.77524592  0.25171823  1
  I  I11  1  0.12235405  0.53747258  0.74084477  1
  I  I12  1  0.41516692  0.87784316  0.74066119  1
  I  I13  1  0.22460037  0.45297671  0.25161846  1
  I  I14  1  0.12937302  0.21420565  0.76168879  1
  I  I15  1  0.54684998  0.77167354  0.25138257  1
  I  I16  1  0.21429237  0.12950078  0.23825075  1
  I  I17  1  0.46261852  0.58490401  0.74066172  1
  I  I18  1  0.78587116  0.91517123  0.76161089  1
  I  I19  1  0.45307169  0.22475408  0.74828177  1
  I  I20  1  0.58488146  0.46252742  0.25915523  1
  I  I21  1  0.53732476  0.12215684  0.25933881  1
  I  I22  1  0.77162366  0.54702329  0.74838154  1
  I  I23  1  0.91516738  0.78579435  0.23831121  1
  I  I24  1  0.77517644  0.22832646  0.74861743  1
  I  I25  1  0.87771351  0.41509599  0.25933828  1
  I  I26  1  0.87069993  0.08482877  0.23838911  1
