# generated using pymatgen
data_Cr8Bi4O29
_symmetry_space_group_name_H-M   'P 1'
_cell_length_a   13.36490326
_cell_length_b   18.75398027
_cell_length_c   5.06886813
_cell_angle_alpha   93.40194825
_cell_angle_beta   89.08052368
_cell_angle_gamma   84.44659333
_symmetry_Int_Tables_number   1
_chemical_formula_structural   Cr8Bi4O29
_chemical_formula_sum   'Cr16 Bi8 O58'
_cell_volume   1261.99206208
_cell_formula_units_Z   2
loop_
 _symmetry_equiv_pos_site_id
 _symmetry_equiv_pos_as_xyz
  1  'x, y, z'
loop_
 _atom_site_type_symbol
 _atom_site_label
 _atom_site_symmetry_multiplicity
 _atom_site_fract_x
 _atom_site_fract_y
 _atom_site_fract_z
 _atom_site_occupancy
  Cr  Cr0  1  0.11071774  0.54163048  0.78395452  1
  Cr  Cr1  1  0.88928226  0.45836952  0.21604548  1
  Cr  Cr2  1  0.88754575  0.95200568  0.73656552  1
  Cr  Cr3  1  0.11245425  0.04799432  0.26343448  1
  Cr  Cr4  1  0.60862542  0.04339753  0.79903605  1
  Cr  Cr5  1  0.39137458  0.95660247  0.20096395  1
  Cr  Cr6  1  0.38890157  0.45417906  0.72497230  1
  Cr  Cr7  1  0.61109843  0.54582094  0.27502770  1
  Cr  Cr8  1  0.61774457  0.75560735  0.70099716  1
  Cr  Cr9  1  0.38225543  0.24439265  0.29900284  1
  Cr  Cr10  1  0.12049848  0.25691459  0.67856719  1
  Cr  Cr11  1  0.87950152  0.74308541  0.32143281  1
  Cr  Cr12  1  0.87817332  0.23323839  0.83008063  1
  Cr  Cr13  1  0.12182668  0.76676161  0.16991937  1
  Cr  Cr14  1  0.37873709  0.73189085  0.70544603  1
  Cr  Cr15  1  0.62126291  0.26810915  0.29455397  1
  Bi  Bi16  1  0.80681595  0.59689516  0.77554238  1
  Bi  Bi17  1  0.19318405  0.40310484  0.22445762  1
  Bi  Bi18  1  0.30539707  0.09810120  0.76301431  1
  Bi  Bi19  1  0.69460293  0.90189880  0.23698569  1
  Bi  Bi20  1  0.30195531  0.59115784  0.26952875  1
  Bi  Bi21  1  0.69804469  0.40884216  0.73047125  1
  Bi  Bi22  1  0.79612384  0.08986965  0.31296338  1
  Bi  Bi23  1  0.20387616  0.91013035  0.68703662  1
  O  O24  1  0.68149637  0.52347327  0.55268614  1
  O  O25  1  0.31850363  0.47652673  0.44731386  1
  O  O26  1  0.50134755  0.41794812  0.63294329  1
  O  O27  1  0.49865245  0.58205188  0.36705671  1
  O  O28  1  0.32909350  0.39955148  0.90305965  1
  O  O29  1  0.67090650  0.60044852  0.09694035  1
  O  O30  1  0.82258104  0.89888013  0.90989658  1
  O  O31  1  0.17741896  0.10111987  0.09010342  1
  O  O32  1  0.32171835  0.97087952  0.91778207  1
  O  O33  1  0.67828165  0.02912048  0.08221793  1
  O  O34  1  0.11055660  0.46242928  0.62080946  1
  O  O35  1  0.88944340  0.53757072  0.37919054  1
  O  O36  1  0.81568914  0.47298215  0.93572210  1
  O  O37  1  0.18431086  0.52701785  0.06427790  1
  O  O38  1  0.60896330  0.96453004  0.63535097  1
  O  O39  1  0.39103670  0.03546996  0.36464903  1
  O  O40  1  0.81831684  0.97617131  0.45381841  1
  O  O41  1  0.18168316  0.02382869  0.54618159  1
  O  O42  1  0.66296698  0.09842989  0.60992540  1
  O  O43  1  0.33703302  0.90157011  0.39007460  1
  O  O44  1  0.99939540  0.91321398  0.65108161  1
  O  O45  1  0.00060460  0.08678602  0.34891839  1
  O  O46  1  0.89756630  0.02601086  0.91805852  1
  O  O47  1  0.10243370  0.97398914  0.08194148  1
  O  O48  1  0.39809510  0.52886789  0.91094956  1
  O  O49  1  0.60190490  0.47113211  0.08905044  1
  O  O50  1  0.16319416  0.59707881  0.59667750  1
  O  O51  1  0.83680584  0.40292119  0.40332250  1
  O  O52  1  0.69120173  0.68203714  0.59899008  1
  O  O53  1  0.30879827  0.31796286  0.40100992  1
  O  O54  1  0.19538344  0.18252161  0.58707228  1
  O  O55  1  0.80461656  0.81747839  0.41292772  1
  O  O56  1  0.99552632  0.57387428  0.87001090  1
  O  O57  1  0.00447368  0.42612572  0.12998910  1
  O  O58  1  0.49354792  0.07791560  0.87540514  1
  O  O59  1  0.50645208  0.92208440  0.12459486  1
  O  O60  1  0.31107269  0.80652199  0.82408855  1
  O  O61  1  0.68892731  0.19347801  0.17591145  1
  O  O62  1  0.82234705  0.31675914  0.83018294  1
  O  O63  1  0.17765295  0.68324086  0.16981706  1
  O  O64  1  0.59724219  0.80777736  0.45816889  1
  O  O65  1  0.40275781  0.19222264  0.54183111  1
  O  O66  1  0.50388850  0.72925266  0.82040989  1
  O  O67  1  0.49611150  0.27074734  0.17959011  1
  O  O68  1  0.09343045  0.30315850  0.42124530  1
  O  O69  1  0.90656955  0.69684150  0.57875470  1
  O  O70  1  0.67068669  0.79957812  0.94112577  1
  O  O71  1  0.32931331  0.20042188  0.05887423  1
  O  O72  1  0.17228340  0.30877029  0.90000032  1
  O  O73  1  0.82771660  0.69122971  0.09999968  1
  O  O74  1  0.01562966  0.22822643  0.82465782  1
  O  O75  1  0.98437034  0.77177357  0.17534218  1
  O  O76  1  0.32948874  0.66081690  0.80336578  1
  O  O77  1  0.67051126  0.33918310  0.19663422  1
  O  O78  1  0.83472110  0.15516528  0.73133381  1
  O  O79  1  0.16527890  0.84483472  0.26866619  1
  O  O80  1  0.62317182  0.27319009  0.61431387  1
  O  O81  1  0.37682818  0.72680991  0.38568613  1
