# generated using pymatgen
data_MoH4O5
_symmetry_space_group_name_H-M   'P 1'
_cell_length_a   10.59816078
_cell_length_b   14.05839893
_cell_length_c   10.78253557
_cell_angle_alpha   90.00000000
_cell_angle_beta   91.58091010
_cell_angle_gamma   90.00000000
_symmetry_Int_Tables_number   1
_chemical_formula_structural   MoH4O5
_chemical_formula_sum   'Mo16 H64 O80'
_cell_volume   1605.91267456
_cell_formula_units_Z   16
loop_
 _symmetry_equiv_pos_site_id
 _symmetry_equiv_pos_as_xyz
  1  'x, y, z'
loop_
 _atom_site_type_symbol
 _atom_site_label
 _atom_site_symmetry_multiplicity
 _atom_site_fract_x
 _atom_site_fract_y
 _atom_site_fract_z
 _atom_site_occupancy
  Mo  Mo0  1  0.38264095  0.75130031  0.35572543  1
  Mo  Mo1  1  0.88264095  0.74869969  0.85572543  1
  Mo  Mo2  1  0.61735905  0.24869969  0.64427457  1
  Mo  Mo3  1  0.11735905  0.25130031  0.14427457  1
  Mo  Mo4  1  0.34886385  0.74635850  0.88258867  1
  Mo  Mo5  1  0.84886385  0.75364150  0.38258867  1
  Mo  Mo6  1  0.65113615  0.25364150  0.11741133  1
  Mo  Mo7  1  0.15113615  0.24635850  0.61741133  1
  Mo  Mo8  1  0.10946807  0.75558655  0.13897142  1
  Mo  Mo9  1  0.60946807  0.74441345  0.63897142  1
  Mo  Mo10  1  0.89053193  0.24441345  0.86102858  1
  Mo  Mo11  1  0.39053193  0.25558655  0.36102858  1
  Mo  Mo12  1  0.13825135  0.74894058  0.60438436  1
  Mo  Mo13  1  0.63825135  0.75105942  0.10438436  1
  Mo  Mo14  1  0.86174865  0.25105942  0.39561564  1
  Mo  Mo15  1  0.36174865  0.24894058  0.89561564  1
  H  H16  1  0.38576271  0.56331764  0.46472879  1
  H  H17  1  0.88576271  0.93668236  0.96472879  1
  H  H18  1  0.61423729  0.43668236  0.53527121  1
  H  H19  1  0.11423729  0.06331764  0.03527121  1
  H  H20  1  0.49890338  0.55931519  0.37374427  1
  H  H21  1  0.99890338  0.94068481  0.87374427  1
  H  H22  1  0.50109662  0.44068481  0.62625573  1
  H  H23  1  0.00109662  0.05931519  0.12625573  1
  H  H24  1  0.38279429  0.55777800  0.97865829  1
  H  H25  1  0.88279429  0.94222200  0.47865829  1
  H  H26  1  0.61720571  0.44222200  0.02134171  1
  H  H27  1  0.11720571  0.05777800  0.52134171  1
  H  H28  1  0.49193815  0.56441473  0.88164518  1
  H  H29  1  0.99193815  0.93558527  0.38164518  1
  H  H30  1  0.50806185  0.43558527  0.11835482  1
  H  H31  1  0.00806185  0.06441473  0.61835482  1
  H  H32  1  0.11712625  0.56413663  0.22393088  1
  H  H33  1  0.61712625  0.93586337  0.72393088  1
  H  H34  1  0.88287375  0.43586337  0.77606912  1
  H  H35  1  0.38287375  0.06413663  0.27606912  1
  H  H36  1  0.50220973  0.93652767  0.62869497  1
  H  H37  1  0.00220973  0.56347233  0.12869497  1
  H  H38  1  0.49779027  0.06347233  0.37130503  1
  H  H39  1  0.99779027  0.43652767  0.87130503  1
  H  H40  1  0.11557426  0.56442752  0.71868318  1
  H  H41  1  0.61557426  0.93557248  0.21868318  1
  H  H42  1  0.88442574  0.43557248  0.28131682  1
  H  H43  1  0.38442574  0.06442752  0.78131682  1
  H  H44  1  0.50106961  0.93412302  0.12291655  1
  H  H45  1  0.00106961  0.56587698  0.62291655  1
  H  H46  1  0.49893039  0.06587698  0.87708345  1
  H  H47  1  0.99893039  0.43412302  0.37708345  1
  H  H48  1  0.14194976  0.54582809  0.44239496  1
  H  H49  1  0.64194976  0.95417191  0.94239496  1
  H  H50  1  0.85805024  0.45417191  0.55760504  1
  H  H51  1  0.35805024  0.04582809  0.05760504  1
  H  H52  1  0.28912911  0.96125350  0.12415168  1
  H  H53  1  0.78912911  0.53874650  0.62415168  1
  H  H54  1  0.71087089  0.03874650  0.87584832  1
  H  H55  1  0.21087089  0.46125350  0.37584832  1
  H  H56  1  0.35849761  0.54604748  0.19052595  1
  H  H57  1  0.85849761  0.95395252  0.69052595  1
  H  H58  1  0.64150239  0.45395252  0.80947405  1
  H  H59  1  0.14150239  0.04604748  0.30947405  1
  H  H60  1  0.20960513  0.95763986  0.37118621  1
  H  H61  1  0.70960513  0.54236014  0.87118621  1
  H  H62  1  0.79039487  0.04236014  0.62881379  1
  H  H63  1  0.29039487  0.45763986  0.12881379  1
  H  H64  1  0.13636338  0.55182954  0.93620643  1
  H  H65  1  0.63636338  0.94817046  0.43620643  1
  H  H66  1  0.86363662  0.44817046  0.06379357  1
  H  H67  1  0.36363662  0.05182954  0.56379357  1
  H  H68  1  0.29588359  0.96364648  0.62304232  1
  H  H69  1  0.79588359  0.53635352  0.12304232  1
  H  H70  1  0.70411641  0.03635352  0.37695768  1
  H  H71  1  0.20411641  0.46364648  0.87695768  1
  H  H72  1  0.35506209  0.56159215  0.67510578  1
  H  H73  1  0.85506209  0.93840785  0.17510578  1
  H  H74  1  0.64493791  0.43840785  0.32489422  1
  H  H75  1  0.14493791  0.06159215  0.82489422  1
  H  H76  1  0.20482672  0.96517422  0.87314146  1
  H  H77  1  0.70482672  0.53482578  0.37314146  1
  H  H78  1  0.79517328  0.03482578  0.12685854  1
  H  H79  1  0.29517328  0.46517422  0.62685854  1
  O  O80  1  0.34523807  0.87192710  0.35968558  1
  O  O81  1  0.84523807  0.62807290  0.85968558  1
  O  O82  1  0.65476193  0.12807290  0.64031442  1
  O  O83  1  0.15476193  0.37192710  0.14031442  1
  O  O84  1  0.32468670  0.86853525  0.87098307  1
  O  O85  1  0.82468670  0.63146475  0.37098307  1
  O  O86  1  0.67531330  0.13146475  0.12901693  1
  O  O87  1  0.17531330  0.36853525  0.62901693  1
  O  O88  1  0.15987813  0.87309084  0.12430441  1
  O  O89  1  0.65987813  0.62690916  0.62430441  1
  O  O90  1  0.84012187  0.12690916  0.87569559  1
  O  O91  1  0.34012187  0.37309084  0.37569559  1
  O  O92  1  0.17398121  0.86965868  0.61223374  1
  O  O93  1  0.67398121  0.63034132  0.11223374  1
  O  O94  1  0.82601879  0.13034132  0.38776626  1
  O  O95  1  0.32601879  0.36965868  0.88776626  1
  O  O96  1  0.26768777  0.71193577  0.23197841  1
  O  O97  1  0.76768777  0.78806423  0.73197841  1
  O  O98  1  0.73231223  0.28806423  0.76802159  1
  O  O99  1  0.23231223  0.21193577  0.26802159  1
  O  O100  1  0.23647747  0.71110914  0.47860117  1
  O  O101  1  0.73647747  0.78889086  0.97860117  1
  O  O102  1  0.76352253  0.28889086  0.52139883  1
  O  O103  1  0.26352253  0.21110914  0.02139883  1
  O  O104  1  0.01577458  0.76082167  0.27696529  1
  O  O105  1  0.51577458  0.73917833  0.77696529  1
  O  O106  1  0.98422542  0.23917833  0.72303471  1
  O  O107  1  0.48422542  0.26082167  0.22303471  1
  O  O108  1  0.48329713  0.75252418  0.01929968  1
  O  O109  1  0.98329713  0.74747582  0.51929968  1
  O  O110  1  0.51670287  0.24747582  0.98070032  1
  O  O111  1  0.01670287  0.25252418  0.48070032  1
  O  O112  1  0.97971476  0.74808055  0.02131970  1
  O  O113  1  0.47971476  0.75191945  0.52131970  1
  O  O114  1  0.02028524  0.25191945  0.97868030  1
  O  O115  1  0.52028524  0.24808055  0.47868030  1
  O  O116  1  0.22751563  0.71250233  0.98807897  1
  O  O117  1  0.72751563  0.78749767  0.48807897  1
  O  O118  1  0.77248437  0.28749767  0.01192103  1
  O  O119  1  0.27248437  0.21250233  0.51192103  1
  O  O120  1  0.02473921  0.75367152  0.76810160  1
  O  O121  1  0.52473921  0.74632848  0.26810160  1
  O  O122  1  0.97526079  0.24632848  0.23189840  1
  O  O123  1  0.47526079  0.25367152  0.73189840  1
  O  O124  1  0.26843626  0.70703312  0.73333346  1
  O  O125  1  0.76843626  0.79296688  0.23333346  1
  O  O126  1  0.73156374  0.29296688  0.26666654  1
  O  O127  1  0.23156374  0.20703312  0.76666654  1
  O  O128  1  0.41432811  0.58907261  0.38431940  1
  O  O129  1  0.91432811  0.91092739  0.88431940  1
  O  O130  1  0.58567189  0.41092739  0.61568060  1
  O  O131  1  0.08567189  0.08907261  0.11568060  1
  O  O132  1  0.40504269  0.58700857  0.89794075  1
  O  O133  1  0.90504269  0.91299143  0.39794075  1
  O  O134  1  0.59495731  0.41299143  0.10205925  1
  O  O135  1  0.09495731  0.08700857  0.60205925  1
  O  O136  1  0.08747451  0.59251481  0.14372270  1
  O  O137  1  0.58747451  0.90748519  0.64372270  1
  O  O138  1  0.91252549  0.40748519  0.85627730  1
  O  O139  1  0.41252549  0.09251481  0.35627730  1
  O  O140  1  0.08932826  0.58967761  0.63559984  1
  O  O141  1  0.58932826  0.91032239  0.13559984  1
  O  O142  1  0.91067174  0.41032239  0.36440016  1
  O  O143  1  0.41067174  0.08967761  0.86440016  1
  O  O144  1  0.13575903  0.50301093  0.37062407  1
  O  O145  1  0.63575903  0.99698907  0.87062407  1
  O  O146  1  0.86424097  0.49698907  0.62937593  1
  O  O147  1  0.36424097  0.00301093  0.12937593  1
  O  O148  1  0.36363772  0.50073291  0.12177083  1
  O  O149  1  0.86363772  0.99926709  0.62177083  1
  O  O150  1  0.63636228  0.49926709  0.87822917  1
  O  O151  1  0.13636228  0.00073291  0.37822917  1
  O  O152  1  0.13007906  0.50619568  0.86759492  1
  O  O153  1  0.63007906  0.99380432  0.36759492  1
  O  O154  1  0.86992094  0.49380432  0.13240508  1
  O  O155  1  0.36992094  0.00619568  0.63240508  1
  O  O156  1  0.36613290  0.50958937  0.61543116  1
  O  O157  1  0.86613290  0.99041063  0.11543116  1
  O  O158  1  0.63386710  0.49041063  0.38456884  1
  O  O159  1  0.13386710  0.00958937  0.88456884  1
