# generated using pymatgen
data_WS2(NCl)3
_symmetry_space_group_name_H-M   'P 1'
_cell_length_a   7.79546071
_cell_length_b   9.56363044
_cell_length_c   11.52804591
_cell_angle_alpha   90.00000000
_cell_angle_beta   95.49095153
_cell_angle_gamma   90.00000000
_symmetry_Int_Tables_number   1
_chemical_formula_structural   WS2(NCl)3
_chemical_formula_sum   'W4 S8 N12 Cl12'
_cell_volume   855.50557992
_cell_formula_units_Z   4
loop_
 _symmetry_equiv_pos_site_id
 _symmetry_equiv_pos_as_xyz
  1  'x, y, z'
loop_
 _atom_site_type_symbol
 _atom_site_label
 _atom_site_symmetry_multiplicity
 _atom_site_fract_x
 _atom_site_fract_y
 _atom_site_fract_z
 _atom_site_occupancy
  W  W0  1  0.39878561  0.13079567  0.41276378  1
  W  W1  1  0.10121439  0.63079567  0.08723622  1
  W  W2  1  0.60121439  0.86920433  0.58723622  1
  W  W3  1  0.89878561  0.36920433  0.91276378  1
  S  S4  1  0.87425677  0.90866206  0.11626093  1
  S  S5  1  0.21372663  0.81055990  0.46895652  1
  S  S6  1  0.71372663  0.68944010  0.96895652  1
  S  S7  1  0.28627337  0.31055990  0.03104348  1
  S  S8  1  0.78627337  0.18944010  0.53104348  1
  S  S9  1  0.37425677  0.59133794  0.61626093  1
  S  S10  1  0.12574323  0.09133794  0.88373907  1
  S  S11  1  0.62574323  0.40866206  0.38373907  1
  N  N12  1  0.61794059  0.09167731  0.50614805  1
  N  N13  1  0.03333162  0.80168265  0.13094759  1
  N  N14  1  0.11794059  0.40832269  0.00614805  1
  N  N15  1  0.53333162  0.69831735  0.63094759  1
  N  N16  1  0.22581646  0.66425859  0.53081152  1
  N  N17  1  0.72581646  0.83574141  0.03081152  1
  N  N18  1  0.96666838  0.19831735  0.86905241  1
  N  N19  1  0.88205941  0.59167731  0.99385195  1
  N  N20  1  0.77418354  0.33574141  0.46918848  1
  N  N21  1  0.27418354  0.16425859  0.96918848  1
  N  N22  1  0.46666838  0.30168265  0.36905241  1
  N  N23  1  0.38205941  0.90832269  0.49385195  1
  Cl  Cl24  1  0.10954412  0.09911656  0.32784800  1
  Cl  Cl25  1  0.76782745  0.28815130  0.07622331  1
  Cl  Cl26  1  0.97733741  0.48479809  0.74680143  1
  Cl  Cl27  1  0.47733741  0.01520191  0.24680143  1
  Cl  Cl28  1  0.89045588  0.90088344  0.67215200  1
  Cl  Cl29  1  0.39045588  0.59911656  0.17215200  1
  Cl  Cl30  1  0.26782745  0.21184870  0.57622331  1
  Cl  Cl31  1  0.23217255  0.71184870  0.92377669  1
  Cl  Cl32  1  0.52266259  0.98479809  0.75319857  1
  Cl  Cl33  1  0.73217255  0.78815130  0.42377669  1
  Cl  Cl34  1  0.60954412  0.40088344  0.82784800  1
  Cl  Cl35  1  0.02266259  0.51520191  0.25319857  1
