# generated using pymatgen
data_Fe3P2(HO)16
_symmetry_space_group_name_H-M   'P 1'
_cell_length_a   9.04202400
_cell_length_b   8.42427990
_cell_length_c   9.04202400
_cell_angle_alpha   108.76426451
_cell_angle_beta   84.62786181
_cell_angle_gamma   148.44556306
_symmetry_Int_Tables_number   1
_chemical_formula_structural   Fe3P2(HO)16
_chemical_formula_sum   'Fe3 P2 H16 O16'
_cell_volume   317.82734577
_cell_formula_units_Z   1
loop_
 _symmetry_equiv_pos_site_id
 _symmetry_equiv_pos_as_xyz
  1  'x, y, z'
loop_
 _atom_site_type_symbol
 _atom_site_label
 _atom_site_symmetry_multiplicity
 _atom_site_fract_x
 _atom_site_fract_y
 _atom_site_fract_z
 _atom_site_occupancy
  Fe  Fe0  1  0.00000000  0.00000000  0.00000000  1
  Fe  Fe1  1  0.38988325  0.00000000  0.38988325  1
  Fe  Fe2  1  0.61011675  0.00000000  0.61011675  1
  P  P3  1  0.93766980  0.24925550  0.31158570  1
  P  P4  1  0.06233020  0.75074450  0.68841430  1
  H  H5  1  0.88243990  0.56353825  0.93950737  1
  H  H6  1  0.37596912  0.43646175  0.31890165  1
  H  H7  1  0.11756010  0.43646175  0.06049263  1
  H  H8  1  0.62403088  0.56353825  0.68109835  1
  H  H9  1  0.59032111  0.38022281  0.95640190  1
  H  H10  1  0.57617909  0.61977719  0.21009829  1
  H  H11  1  0.40967889  0.61977719  0.04359810  1
  H  H12  1  0.42382091  0.38022281  0.78990171  1
  H  H13  1  0.05130992  0.22363512  0.56640843  1
  H  H14  1  0.34277331  0.77636488  0.82767480  1
  H  H15  1  0.94869008  0.77636488  0.43359157  1
  H  H16  1  0.65722669  0.22363512  0.17232520  1
  H  H17  1  0.02289893  0.19819994  0.73779695  1
  H  H18  1  0.53959701  0.80180006  0.82469899  1
  H  H19  1  0.97710107  0.80180006  0.26220305  1
  H  H20  1  0.46040299  0.19819994  0.17530101  1
  O  O21  1  0.78902657  0.94596893  0.15694236  1
  O  O22  1  0.21097343  0.05403107  0.84305764  1
  O  O23  1  0.69496055  0.08424896  0.38928841  1
  O  O24  1  0.30503945  0.91575104  0.61071159  1
  O  O25  1  0.02535621  0.46395476  0.24437658  1
  O  O26  1  0.78042181  0.53604524  0.56140144  1
  O  O27  1  0.97464379  0.53604524  0.75562342  1
  O  O28  1  0.21957819  0.46395476  0.43859856  1
  O  O29  1  0.42052266  0.40514974  0.21937276  1
  O  O30  1  0.81422302  0.59485026  0.01537292  1
  O  O31  1  0.57947734  0.59485026  0.78062724  1
  O  O32  1  0.18577698  0.40514974  0.98462708  1
  O  O33  1  0.90677341  0.07952340  0.62013368  1
  O  O34  1  0.54061028  0.92047660  0.82725001  1
  O  O35  1  0.09322659  0.92047660  0.37986632  1
  O  O36  1  0.45938972  0.07952340  0.17274999  1
