# generated using pymatgen
data_Gd3YO6
_symmetry_space_group_name_H-M   'P 1'
_cell_length_a   6.82312074
_cell_length_b   6.82312063
_cell_length_c   6.82312074
_cell_angle_alpha   91.70979051
_cell_angle_beta   91.70978167
_cell_angle_gamma   91.70979012
_symmetry_Int_Tables_number   1
_chemical_formula_structural   Gd3YO6
_chemical_formula_sum   'Gd6 Y2 O12'
_cell_volume   317.21730851
_cell_formula_units_Z   2
loop_
 _symmetry_equiv_pos_site_id
 _symmetry_equiv_pos_as_xyz
  1  'x, y, z'
loop_
 _atom_site_type_symbol
 _atom_site_label
 _atom_site_symmetry_multiplicity
 _atom_site_fract_x
 _atom_site_fract_y
 _atom_site_fract_z
 _atom_site_occupancy
  Gd  Gd0  1  0.06282454  0.55650145  0.25185580  1
  Gd  Gd1  1  0.25185580  0.06282454  0.55650145  1
  Gd  Gd2  1  0.44349855  0.74814420  0.93717546  1
  Gd  Gd3  1  0.55650145  0.25185580  0.06282454  1
  Gd  Gd4  1  0.74814420  0.93717546  0.44349855  1
  Gd  Gd5  1  0.93717546  0.44349855  0.74814420  1
  Y  Y6  1  0.00000000  0.00000000  0.00000000  1
  Y  Y7  1  0.50000000  0.50000000  0.50000000  1
  O  O8  1  0.09269461  0.68601398  0.93115687  1
  O  O9  1  0.06884213  0.90730539  0.31398602  1
  O  O10  1  0.18440210  0.39995369  0.53145603  1
  O  O11  1  0.31398602  0.06884213  0.90730539  1
  O  O12  1  0.39995369  0.53145603  0.18440210  1
  O  O13  1  0.46854397  0.81559790  0.60004631  1
  O  O14  1  0.53145603  0.18440210  0.39995369  1
  O  O15  1  0.60004631  0.46854397  0.81559790  1
  O  O16  1  0.68601398  0.93115687  0.09269461  1
  O  O17  1  0.81559790  0.60004631  0.46854397  1
  O  O18  1  0.93115687  0.09269461  0.68601398  1
  O  O19  1  0.90730539  0.31398602  0.06884213  1
