# generated using pymatgen
data_Ca5Gd3Ti5Mn3O24
_symmetry_space_group_name_H-M   'P 1'
_cell_length_a   5.41523894
_cell_length_b   5.64092231
_cell_length_c   15.29679772
_cell_angle_alpha   90.12263731
_cell_angle_beta   89.90719033
_cell_angle_gamma   89.14574312
_symmetry_Int_Tables_number   1
_chemical_formula_structural   Ca5Gd3Ti5Mn3O24
_chemical_formula_sum   'Ca5 Gd3 Ti5 Mn3 O24'
_cell_volume   467.21675173
_cell_formula_units_Z   1
loop_
 _symmetry_equiv_pos_site_id
 _symmetry_equiv_pos_as_xyz
  1  'x, y, z'
loop_
 _atom_site_type_symbol
 _atom_site_label
 _atom_site_symmetry_multiplicity
 _atom_site_fract_x
 _atom_site_fract_y
 _atom_site_fract_z
 _atom_site_occupancy
  Ca  Ca0  1  0.01340668  0.95047407  0.37601351  1
  Ca  Ca1  1  0.01365335  0.94259674  0.87277999  1
  Ca  Ca2  1  0.49429759  0.44803467  0.37678621  1
  Ca  Ca3  1  0.50989620  0.54705659  0.12804703  1
  Ca  Ca4  1  0.99280186  0.04302435  0.12823572  1
  Gd  Gd5  1  0.48659901  0.43281411  0.87153935  1
  Gd  Gd6  1  0.51306234  0.56887778  0.62511082  1
  Gd  Gd7  1  0.98029566  0.06854889  0.62508363  1
  Ti  Ti8  1  0.98955917  0.48111423  0.00007497  1
  Ti  Ti9  1  0.01810195  0.50031991  0.25153217  1
  Ti  Ti10  1  0.00666615  0.50260711  0.49726396  1
  Ti  Ti11  1  0.51663271  0.00887464  0.24967164  1
  Ti  Ti12  1  0.50362728  0.97511441  0.99933780  1
  Mn  Mn13  1  0.00161692  0.50493054  0.75042353  1
  Mn  Mn14  1  0.49732688  -0.00024104  0.74981937  1
  Mn  Mn15  1  0.49545962  0.00488571  0.49882614  1
  O  O16  1  0.07912624  0.47605167  0.12458196  1
  O  O17  1  0.09940157  0.47388598  0.62458770  1
  O  O18  1  0.19294949  0.20216208  0.47829170  1
  O  O19  1  0.21087555  0.21795821  0.97525651  1
  O  O20  1  0.20245749  0.20964316  0.27122050  1
  O  O21  1  0.21406693  0.18601078  0.77550762  1
  O  O22  1  0.28946040  0.68472797  0.47870229  1
  O  O23  1  0.28433961  0.70251830  0.27057131  1
  O  O24  1  0.29646504  0.67927079  0.77280379  1
  O  O25  1  0.30366108  0.70865728  0.97555932  1
  O  O26  1  0.41626946  0.97827863  0.12438166  1
  O  O27  1  0.39404152  0.97496430  0.62123005  1
  O  O28  1  0.58020168  0.02440616  0.37472786  1
  O  O29  1  0.59310656  0.02933076  0.87828754  1
  O  O30  1  0.70869938  0.29994739  0.02027728  1
  O  O31  1  0.70405361  0.28213043  0.22801686  1
  O  O32  1  0.71072948  0.32060587  0.72616309  1
  O  O33  1  0.71385037  0.31278587  0.52895145  1
  O  O34  1  0.78289684  0.78721958  0.22806199  1
  O  O35  1  0.78464632  0.81802030  0.72078653  1
  O  O36  1  0.79424129  0.79573430  0.02342269  1
  O  O37  1  0.79519427  0.80005845  0.52623321  1
  O  O38  1  0.91233345  0.52644316  0.37437766  1
  O  O39  1  0.90392899  0.53015584  0.87745359  1
