# generated using pymatgen
data_Mn2Cu5P4(HO9)2
_symmetry_space_group_name_H-M   'P 1'
_cell_length_a   8.98285317
_cell_length_b   7.63339970
_cell_length_c   5.42870997
_cell_angle_alpha   101.85769272
_cell_angle_beta   95.60999730
_cell_angle_gamma   108.49260295
_symmetry_Int_Tables_number   1
_chemical_formula_structural   Mn2Cu5P4(HO9)2
_chemical_formula_sum   'Mn2 Cu5 P4 H2 O18'
_cell_volume   340.12563515
_cell_formula_units_Z   1
loop_
 _symmetry_equiv_pos_site_id
 _symmetry_equiv_pos_as_xyz
  1  'x, y, z'
loop_
 _atom_site_type_symbol
 _atom_site_label
 _atom_site_symmetry_multiplicity
 _atom_site_fract_x
 _atom_site_fract_y
 _atom_site_fract_z
 _atom_site_occupancy
  Mn  Mn0  1  0.98020539  0.28931168  0.54802807  1
  Mn  Mn1  1  0.01979461  0.71068832  0.45197193  1
  Cu  Cu2  1  0.00000000  0.00000000  0.00000000  1
  Cu  Cu3  1  0.49651180  0.89456766  0.72785695  1
  Cu  Cu4  1  0.50348820  0.10543234  0.27214305  1
  Cu  Cu5  1  0.61781541  0.53001158  0.76036235  1
  Cu  Cu6  1  0.38218459  0.46998842  0.23963765  1
  P  P7  1  0.19706217  0.71204333  0.00169029  1
  P  P8  1  0.80293783  0.28795667  0.99830971  1
  P  P9  1  0.26398027  0.15595563  0.65974899  1
  P  P10  1  0.73601973  0.84404437  0.34025101  1
  H  H11  1  0.34636793  0.55711869  0.66618249  1
  H  H12  1  0.65363207  0.44288131  0.33381751  1
  O  O13  1  0.44537358  0.61923341  0.60677871  1
  O  O14  1  0.55462642  0.38076659  0.39322129  1
  O  O15  1  0.77960770  0.41476915  0.82123024  1
  O  O16  1  0.22039230  0.58523085  0.17876976  1
  O  O17  1  0.37086405  0.05149783  0.53195625  1
  O  O18  1  0.62913595  0.94850217  0.46804375  1
  O  O19  1  0.92122825  0.19454951  0.88225737  1
  O  O20  1  0.07877175  0.80545049  0.11774263  1
  O  O21  1  0.12214079  0.59310320  0.72315521  1
  O  O22  1  0.87785921  0.40689680  0.27684479  1
  O  O23  1  0.80402981  0.75109079  0.53095150  1
  O  O24  1  0.19597019  0.24890921  0.46904850  1
  O  O25  1  0.64315757  0.13190871  0.00706995  1
  O  O26  1  0.35684243  0.86809129  0.99293005  1
  O  O27  1  0.12477110  0.99468303  0.72072699  1
  O  O28  1  0.87522890  0.00531697  0.27927301  1
  O  O29  1  0.36241809  0.30830694  0.90335183  1
  O  O30  1  0.63758191  0.69169306  0.09664817  1
