# generated using pymatgen
data_BaNa6O4
_symmetry_space_group_name_H-M   'P 1'
_cell_length_a   8.15108332
_cell_length_b   8.15095915
_cell_length_c   5.70658854
_cell_angle_alpha   90.00258765
_cell_angle_beta   89.99770865
_cell_angle_gamma   90.00005999
_symmetry_Int_Tables_number   1
_chemical_formula_structural   BaNa6O4
_chemical_formula_sum   'Ba2 Na12 O8'
_cell_volume   379.14087550
_cell_formula_units_Z   2
loop_
 _symmetry_equiv_pos_site_id
 _symmetry_equiv_pos_as_xyz
  1  'x, y, z'
loop_
 _atom_site_type_symbol
 _atom_site_label
 _atom_site_symmetry_multiplicity
 _atom_site_fract_x
 _atom_site_fract_y
 _atom_site_fract_z
 _atom_site_occupancy
  Ba  Ba0  1  0.25000722  0.75000357  0.24998548  1
  Ba  Ba1  1  0.75000130  0.25000177  0.74998086  1
  Na  Na2  1  0.03691188  0.53696236  0.74997683  1
  Na  Na3  1  0.03697055  0.96311064  0.75002558  1
  Na  Na4  1  0.25003282  0.25002352  0.72432733  1
  Na  Na5  1  0.24999850  0.24999912  0.22433105  1
  Na  Na6  1  0.46310162  0.53696291  0.74997442  1
  Na  Na7  1  0.46309860  0.96305286  0.74997500  1
  Na  Na8  1  0.53693391  0.03691368  0.24997813  1
  Na  Na9  1  0.53694495  0.46308282  0.24997790  1
  Na  Na10  1  0.74999837  0.74999918  0.27570696  1
  Na  Na11  1  0.75002593  0.75003317  0.77570466  1
  Na  Na12  1  0.96304304  0.03690246  0.24998384  1
  Na  Na13  1  0.96305357  0.46306921  0.24998037  1
  O  O14  1  0.01853240  0.24998354  0.98148622  1
  O  O15  1  0.25003700  0.01853795  0.48149309  1
  O  O16  1  0.25000112  0.48148608  0.48150490  1
  O  O17  1  0.48147757  0.25000121  0.98149948  1
  O  O18  1  0.51856441  0.75000175  0.01853040  1
  O  O19  1  0.74998393  0.98145707  0.51851713  1
  O  O20  1  0.75000028  0.51855352  0.51852968  1
  O  O21  1  0.98146302  0.75003961  0.01853070  1
