# generated using pymatgen
data_Li2BiO3
_symmetry_space_group_name_H-M   'P 1'
_cell_length_a   4.44114314
_cell_length_b   5.44275751
_cell_length_c   3.46386968
_cell_angle_alpha   90.00000000
_cell_angle_beta   90.00000000
_cell_angle_gamma   65.92158772
_symmetry_Int_Tables_number   1
_chemical_formula_structural   Li2BiO3
_chemical_formula_sum   'Li2 Bi1 O3'
_cell_volume   76.44346292
_cell_formula_units_Z   1
loop_
 _symmetry_equiv_pos_site_id
 _symmetry_equiv_pos_as_xyz
  1  'x, y, z'
loop_
 _atom_site_type_symbol
 _atom_site_label
 _atom_site_symmetry_multiplicity
 _atom_site_fract_x
 _atom_site_fract_y
 _atom_site_fract_z
 _atom_site_occupancy
  Li  Li0  1  0.65551928  0.68896144  0.50000000  1
  Li  Li1  1  0.34448072  0.31103856  0.50000000  1
  Bi  Bi2  1  0.00000000  0.00000000  -0.00000000  1
  O  O3  1  0.14753811  0.70492278  0.50000000  1
  O  O4  1  0.85246189  0.29507722  0.50000000  1
  O  O5  1  0.50000000  -0.00000000  -0.00000000  1
