# generated using pymatgen
data_Y3AlO6
_symmetry_space_group_name_H-M   'P 1'
_cell_length_a   7.13525009
_cell_length_b   7.13525009
_cell_length_c   5.40160357
_cell_angle_alpha   90.00000000
_cell_angle_beta   90.00000000
_cell_angle_gamma   77.21804266
_symmetry_Int_Tables_number   1
_chemical_formula_structural   Y3AlO6
_chemical_formula_sum   'Y6 Al2 O12'
_cell_volume   268.19044038
_cell_formula_units_Z   2
loop_
 _symmetry_equiv_pos_site_id
 _symmetry_equiv_pos_as_xyz
  1  'x, y, z'
loop_
 _atom_site_type_symbol
 _atom_site_label
 _atom_site_symmetry_multiplicity
 _atom_site_fract_x
 _atom_site_fract_y
 _atom_site_fract_z
 _atom_site_occupancy
  Y  Y0  1  0.29874377  0.91332459  0.46988869  1
  Y  Y1  1  0.08667541  0.70125623  0.96988869  1
  Y  Y2  1  0.39740359  0.39740359  0.42427121  1
  Y  Y3  1  0.60259641  0.60259641  0.92427121  1
  Y  Y4  1  0.70125623  0.08667541  0.96988869  1
  Y  Y5  1  0.91332459  0.29874377  0.46988869  1
  Al  Al6  1  0.19515663  0.19515663  0.00625783  1
  Al  Al7  1  0.80484337  0.80484337  0.50625783  1
  O  O8  1  0.35528470  0.67670161  0.19834877  1
  O  O9  1  0.32329839  0.64471530  0.69834877  1
  O  O10  1  0.11000183  0.41551298  0.17061601  1
  O  O11  1  0.58448702  0.88999817  0.67061601  1
  O  O12  1  0.04574195  0.04574195  0.12921580  1
  O  O13  1  0.21375004  0.21375004  0.67859621  1
  O  O14  1  0.78624996  0.78624996  0.17859621  1
  O  O15  1  0.95425805  0.95425805  0.62921580  1
  O  O16  1  0.41551298  0.11000183  0.17061601  1
  O  O17  1  0.88999817  0.58448702  0.67061601  1
  O  O18  1  0.64471530  0.32329839  0.69834877  1
  O  O19  1  0.67670161  0.35528470  0.19834877  1
