# generated using pymatgen
data_ScGaO3
_symmetry_space_group_name_H-M   'P 1'
_cell_length_a   3.32561384
_cell_length_b   3.32554557
_cell_length_c   11.86469013
_cell_angle_alpha   90.00030724
_cell_angle_beta   89.99945981
_cell_angle_gamma   120.00026949
_symmetry_Int_Tables_number   1
_chemical_formula_structural   ScGaO3
_chemical_formula_sum   'Sc2 Ga2 O6'
_cell_volume   113.63721326
_cell_formula_units_Z   2
loop_
 _symmetry_equiv_pos_site_id
 _symmetry_equiv_pos_as_xyz
  1  'x, y, z'
loop_
 _atom_site_type_symbol
 _atom_site_label
 _atom_site_symmetry_multiplicity
 _atom_site_fract_x
 _atom_site_fract_y
 _atom_site_fract_z
 _atom_site_occupancy
  Sc  Sc0  1  0.99996779  0.00013778  0.00000481  1
  Sc  Sc1  1  0.00000617  0.00002074  0.50000171  1
  Ga  Ga2  1  0.33334742  0.66665103  0.24999721  1
  Ga  Ga3  1  0.66666567  0.33332564  0.75000069  1
  O  O4  1  0.33332302  0.66670967  0.08355514  1
  O  O5  1  0.00000955  0.99998918  0.24999829  1
  O  O6  1  0.33334353  0.66665084  0.41644528  1
  O  O7  1  0.99999540  0.99999242  0.74999969  1
  O  O8  1  0.66667660  0.33333911  0.58354966  1
  O  O9  1  0.66666485  0.33338461  0.91644751  1
