# generated using pymatgen
data_Sr3Ir2O7
_symmetry_space_group_name_H-M   'P 1'
_cell_length_a   5.57120564
_cell_length_b   10.93457725
_cell_length_c   5.57264660
_cell_angle_alpha   90.00000000
_cell_angle_beta   90.00000000
_cell_angle_gamma   104.75887642
_symmetry_Int_Tables_number   1
_chemical_formula_structural   Sr3Ir2O7
_chemical_formula_sum   'Sr6 Ir4 O14'
_cell_volume   328.27822378
_cell_formula_units_Z   2
loop_
 _symmetry_equiv_pos_site_id
 _symmetry_equiv_pos_as_xyz
  1  'x, y, z'
loop_
 _atom_site_type_symbol
 _atom_site_label
 _atom_site_symmetry_multiplicity
 _atom_site_fract_x
 _atom_site_fract_y
 _atom_site_fract_z
 _atom_site_occupancy
  Sr  Sr0  1  0.50000000  0.00000000  0.00000000  1
  Sr  Sr1  1  0.68738858  0.37477815  0.00000000  1
  Sr  Sr2  1  0.31261142  0.62522185  0.00000000  1
  Sr  Sr3  1  0.81261142  0.62522185  0.50000000  1
  Sr  Sr4  1  0.18738858  0.37477815  0.50000000  1
  Sr  Sr5  1  0.00000000  0.00000000  0.50000000  1
  Ir  Ir6  1  0.90266829  0.80533559  0.00000000  1
  Ir  Ir7  1  0.09733171  0.19466441  0.00000000  1
  Ir  Ir8  1  0.59733171  0.19466441  0.50000000  1
  Ir  Ir9  1  0.40266829  0.80533559  0.50000000  1
  O  O10  1  0.80592896  0.61185692  0.00000000  1
  O  O11  1  0.90802092  0.19349034  0.31124795  1
  O  O12  1  0.40802092  0.19349034  0.18875205  1
  O  O13  1  0.00000000  0.00000000  0.00000000  1
  O  O14  1  0.19407104  0.38814308  0.00000000  1
  O  O15  1  0.59197908  0.80650966  0.18875205  1
  O  O16  1  0.69407104  0.38814308  0.50000000  1
  O  O17  1  0.50000000  0.00000000  0.50000000  1
  O  O18  1  0.78546943  0.19349034  0.81124795  1
  O  O19  1  0.71453057  0.80650966  0.68875205  1
  O  O20  1  0.30592896  0.61185692  0.50000000  1
  O  O21  1  0.28546943  0.19349034  0.68875205  1
  O  O22  1  0.09197908  0.80650966  0.31124795  1
  O  O23  1  0.21453057  0.80650966  0.81124795  1
