# generated using pymatgen
data_OsC4(ClO2)2
_symmetry_space_group_name_H-M   'P 1'
_cell_length_a   6.08941724
_cell_length_b   6.08941724
_cell_length_c   12.07405319
_cell_angle_alpha   90.00000000
_cell_angle_beta   90.00000000
_cell_angle_gamma   90.00000000
_symmetry_Int_Tables_number   1
_chemical_formula_structural   OsC4(ClO2)2
_chemical_formula_sum   'Os2 C8 Cl4 O8'
_cell_volume   447.71799438
_cell_formula_units_Z   2
loop_
 _symmetry_equiv_pos_site_id
 _symmetry_equiv_pos_as_xyz
  1  'x, y, z'
loop_
 _atom_site_type_symbol
 _atom_site_label
 _atom_site_symmetry_multiplicity
 _atom_site_fract_x
 _atom_site_fract_y
 _atom_site_fract_z
 _atom_site_occupancy
  Os  Os0  1  0.00000000  0.00000000  0.00000000  1
  Os  Os1  1  0.50000000  0.50000000  0.50000000  1
  C  C2  1  0.66056993  0.66056993  0.38380183  1
  C  C3  1  0.33943007  0.33943007  0.38380183  1
  C  C4  1  0.33943007  0.33943007  0.61619817  1
  C  C5  1  0.16056993  0.83943007  0.11619817  1
  C  C6  1  0.83943007  0.16056993  0.11619817  1
  C  C7  1  0.83943007  0.16056993  0.88380183  1
  C  C8  1  0.66056993  0.66056993  0.61619817  1
  C  C9  1  0.16056993  0.83943007  0.88380183  1
  Cl  Cl10  1  0.28339301  0.28339301  0.00000000  1
  Cl  Cl11  1  0.71660699  0.71660699  0.00000000  1
  Cl  Cl12  1  0.78339301  0.21660699  0.50000000  1
  Cl  Cl13  1  0.21660699  0.78339301  0.50000000  1
  O  O14  1  0.25104920  0.74895080  0.18610500  1
  O  O15  1  0.75104920  0.75104920  0.31389500  1
  O  O16  1  0.74895080  0.25104920  0.18610500  1
  O  O17  1  0.74895080  0.25104920  0.81389500  1
  O  O18  1  0.24895080  0.24895080  0.68610500  1
  O  O19  1  0.24895080  0.24895080  0.31389500  1
  O  O20  1  0.75104920  0.75104920  0.68610500  1
  O  O21  1  0.25104920  0.74895080  0.81389500  1
