# generated using pymatgen
data_SbO2F
_symmetry_space_group_name_H-M   'P 1'
_cell_length_a   5.27166750
_cell_length_b   5.31640186
_cell_length_c   5.27166722
_cell_angle_alpha   116.99678291
_cell_angle_beta   56.48235869
_cell_angle_gamma   116.99678441
_symmetry_Int_Tables_number   1
_chemical_formula_structural   SbO2F
_chemical_formula_sum   'Sb2 O4 F2'
_cell_volume   105.56613248
_cell_formula_units_Z   2
loop_
 _symmetry_equiv_pos_site_id
 _symmetry_equiv_pos_as_xyz
  1  'x, y, z'
loop_
 _atom_site_type_symbol
 _atom_site_label
 _atom_site_symmetry_multiplicity
 _atom_site_fract_x
 _atom_site_fract_y
 _atom_site_fract_z
 _atom_site_occupancy
  Sb  Sb0  1  0.00000000  0.00000000  0.00000000  1
  Sb  Sb1  1  0.50000000  0.50000000  0.50000000  1
  O  O2  1  0.24186887  0.74479072  0.88514698  1
  O  O3  1  0.61485302  0.75520928  0.25813113  1
  O  O4  1  0.38514698  0.24479072  0.74186887  1
  O  O5  1  0.75813113  0.25520928  0.11485302  1
  F  F6  1  0.11621238  0.25000000  0.38378762  1
  F  F7  1  0.88378762  0.75000000  0.61621238  1
