# generated using pymatgen
data_NiSnP2O9
_symmetry_space_group_name_H-M   'P 1'
_cell_length_a   6.43853726
_cell_length_b   7.94293109
_cell_length_c   14.16812265
_cell_angle_alpha   89.95865465
_cell_angle_beta   89.98434429
_cell_angle_gamma   90.26718429
_symmetry_Int_Tables_number   1
_chemical_formula_structural   NiSnP2O9
_chemical_formula_sum   'Ni4 Sn4 P8 O36'
_cell_volume   724.56185074
_cell_formula_units_Z   4
loop_
 _symmetry_equiv_pos_site_id
 _symmetry_equiv_pos_as_xyz
  1  'x, y, z'
loop_
 _atom_site_type_symbol
 _atom_site_label
 _atom_site_symmetry_multiplicity
 _atom_site_fract_x
 _atom_site_fract_y
 _atom_site_fract_z
 _atom_site_occupancy
  Ni  Ni0  1  0.49998505  0.99996971  -0.00001297  1
  Ni  Ni1  1  0.50007928  0.49996418  0.49999559  1
  Ni  Ni2  1  0.99991536  0.49997413  0.49998886  1
  Ni  Ni3  1  0.00001413  -0.00002317  0.00000446  1
  Sn  Sn4  1  0.74924244  0.34938625  0.87839468  1
  Sn  Sn5  1  0.25076253  0.65055204  0.12161003  1
  Sn  Sn6  1  0.24936955  0.85098687  0.62218233  1
  Sn  Sn7  1  0.75062966  0.14900856  0.37784664  1
  P  P8  1  0.24965672  0.34633143  0.93660347  1
  P  P9  1  0.75034736  0.65363120  0.06340201  1
  P  P10  1  0.74944539  0.84613556  0.56358511  1
  P  P11  1  0.25055192  0.15385075  0.43643775  1
  P  P12  1  0.74952993  0.39322571  0.68277551  1
  P  P13  1  0.25045712  0.60680338  0.31723188  1
  P  P14  1  0.24967847  0.89236594  0.81716196  1
  P  P15  1  0.75029238  0.10769591  0.18285181  1
  O  O16  1  0.04840248  0.59602081  0.37661275  1
  O  O17  1  0.54847284  0.40362858  0.62288270  1
  O  O18  1  0.95171654  0.09686413  0.12357392  1
  O  O19  1  0.45120239  0.90393180  0.87622439  1
  O  O20  1  0.95151465  0.40403761  0.62338825  1
  O  O21  1  0.45160010  0.59643285  0.37712897  1
  O  O22  1  0.04833490  0.90315643  0.87645377  1
  O  O23  1  0.54877801  0.09607384  0.12380662  1
  O  O24  1  0.25065624  0.33422965  0.47805514  1
  O  O25  1  0.74933954  0.66581383  0.52188341  1
  O  O26  1  0.75052225  0.83460824  0.02223243  1
  O  O27  1  0.24948202  0.16540501  0.97777967  1
  O  O28  1  0.74748153  0.13143038  0.95552249  1
  O  O29  1  0.25252124  0.86855379  0.04450952  1
  O  O30  1  0.24859788  0.63194809  0.54482114  1
  O  O31  1  0.75139243  0.36806280  0.45509728  1
  O  O32  1  0.74923897  0.22656004  0.74133131  1
  O  O33  1  0.25074416  0.77346568  0.25864192  1
  O  O34  1  0.24909546  0.72666562  0.75802593  1
  O  O35  1  0.75092107  0.27337120  0.24196775  1
  O  O36  1  0.43901925  0.13214013  0.37047911  1
  O  O37  1  0.93785414  0.86773774  0.62966559  1
  O  O38  1  0.56207799  0.63212987  0.12971331  1
  O  O39  1  0.06090872  0.36677707  0.87058111  1
  O  O40  1  0.56099267  0.86782317  0.62952413  1
  O  O41  1  0.06213259  0.13221581  0.37033681  1
  O  O42  1  0.43793508  0.36783085  0.87027073  1
  O  O43  1  0.93909625  0.63319488  0.12940053  1
  O  O44  1  0.75001693  0.96864015  0.26204160  1
  O  O45  1  0.24997295  0.03137623  0.73795167  1
  O  O46  1  0.24951867  0.46943235  0.23741263  1
  O  O47  1  0.75049915  0.53048850  0.76259991  1
  O  O48  1  0.75015396  0.97780832  0.48492153  1
  O  O49  1  0.24984870  0.02226185  0.51510700  1
  O  O50  1  0.24987800  0.47754096  0.01502096  1
  O  O51  1  0.75012296  0.52248530  0.98497190  1
