# generated using pymatgen
data_MgSb
_symmetry_space_group_name_H-M   'P 1'
_cell_length_a   11.49004233
_cell_length_b   3.20166062
_cell_length_c   5.44657566
_cell_angle_alpha   90.00000000
_cell_angle_beta   96.28258633
_cell_angle_gamma   90.00000000
_symmetry_Int_Tables_number   1
_chemical_formula_structural   MgSb
_chemical_formula_sum   'Mg4 Sb4'
_cell_volume   199.16101951
_cell_formula_units_Z   4
loop_
 _symmetry_equiv_pos_site_id
 _symmetry_equiv_pos_as_xyz
  1  'x, y, z'
loop_
 _atom_site_type_symbol
 _atom_site_label
 _atom_site_symmetry_multiplicity
 _atom_site_fract_x
 _atom_site_fract_y
 _atom_site_fract_z
 _atom_site_occupancy
  Mg  Mg0  1  0.87814932  0.50000000  0.71076514  1
  Mg  Mg1  1  0.62185068  -0.00000000  0.28923486  1
  Mg  Mg2  1  0.37814932  -0.00000000  0.71076514  1
  Mg  Mg3  1  0.12185068  0.50000000  0.28923486  1
  Sb  Sb4  1  0.62203783  0.50000000  0.78105863  1
  Sb  Sb5  1  0.87796217  -0.00000000  0.21894137  1
  Sb  Sb6  1  0.12203783  -0.00000000  0.78105863  1
  Sb  Sb7  1  0.37796217  0.50000000  0.21894137  1
