# generated using pymatgen
data_LiY4Ti4(S2O5)2
_symmetry_space_group_name_H-M   'P 1'
_cell_length_a   11.62896883
_cell_length_b   11.62896883
_cell_length_c   23.25808328
_cell_angle_alpha   160.72271518
_cell_angle_beta   161.02159232
_cell_angle_gamma   27.17887307
_symmetry_Int_Tables_number   1
_chemical_formula_structural   LiY4Ti4(S2O5)2
_chemical_formula_sum   'Li1 Y4 Ti4 S4 O10'
_cell_volume   337.55716509
_cell_formula_units_Z   1
loop_
 _symmetry_equiv_pos_site_id
 _symmetry_equiv_pos_as_xyz
  1  'x, y, z'
loop_
 _atom_site_type_symbol
 _atom_site_label
 _atom_site_symmetry_multiplicity
 _atom_site_fract_x
 _atom_site_fract_y
 _atom_site_fract_z
 _atom_site_occupancy
  Li  Li0  1  0.00000000  0.50000000  0.75000000  1
  Y  Y1  1  0.33135262  0.33393126  0.99850050  1
  Y  Y2  1  0.66306874  0.66564838  0.99850050  1
  Y  Y3  1  0.33693126  0.33435162  0.50149950  1
  Y  Y4  1  0.66864738  0.66606874  0.50149950  1
  Ti  Ti5  1  0.08237231  0.09238005  0.00510529  1
  Ti  Ti6  1  0.91783052  0.92783826  0.00510529  1
  Ti  Ti7  1  0.08216948  0.07216174  0.49489471  1
  Ti  Ti8  1  0.91762769  0.90761995  0.49489471  1
  S  S9  1  0.20507102  0.20227942  0.99900108  1
  S  S10  1  0.79572275  0.79293115  0.99900108  1
  S  S11  1  0.20427725  0.20706885  0.50099892  1
  S  S12  1  0.79492898  0.79772058  0.50099892  1
  O  O13  1  0.60055337  0.10055337  0.25000000  1
  O  O14  1  0.99987246  0.98404537  0.99195942  1
  O  O15  1  0.89897145  0.39897145  0.25000000  1
  O  O16  1  0.90547509  0.40547509  0.75000000  1
  O  O17  1  0.00012754  0.01595463  0.50804058  1
  O  O18  1  0.60064502  0.10064502  0.75000000  1
  O  O19  1  0.10102855  0.60102855  0.25000000  1
  O  O20  1  0.39944663  0.89944663  0.25000000  1
  O  O21  1  0.39935498  0.89935498  0.75000000  1
  O  O22  1  0.09452491  0.59452491  0.75000000  1
