# generated using pymatgen
data_CrH18I7N6
_symmetry_space_group_name_H-M   'P 1'
_cell_length_a   8.09886705
_cell_length_b   8.94123868
_cell_length_c   9.68455258
_cell_angle_alpha   114.89787955
_cell_angle_beta   65.28321172
_cell_angle_gamma   116.92951343
_symmetry_Int_Tables_number   1
_chemical_formula_structural   CrH18I7N6
_chemical_formula_sum   'Cr1 H18 I7 N6'
_cell_volume   544.24345571
_cell_formula_units_Z   1
loop_
 _symmetry_equiv_pos_site_id
 _symmetry_equiv_pos_as_xyz
  1  'x, y, z'
loop_
 _atom_site_type_symbol
 _atom_site_label
 _atom_site_symmetry_multiplicity
 _atom_site_fract_x
 _atom_site_fract_y
 _atom_site_fract_z
 _atom_site_occupancy
  Cr  Cr0  1  0.50000000  0.50000000  0.50000000  1
  H  H1  1  0.72921226  0.38852275  0.21290853  1
  H  H2  1  0.44640196  0.38852275  0.21290853  1
  H  H3  1  0.24391103  0.29480144  0.33220594  1
  H  H4  1  0.71868546  0.29480144  0.33220594  1
  H  H5  1  0.23546078  0.18238257  0.50954187  1
  H  H6  1  0.43737992  0.18238257  0.50954187  1
  H  H7  1  0.29988654  0.49814172  0.33915780  1
  H  H8  1  0.85909738  0.49814172  0.33915780  1
  H  H9  1  0.30123222  0.27689533  0.67443190  1
  H  H10  1  0.69876778  0.72310467  0.32556810  1
  H  H11  1  0.14090262  0.50185828  0.66084220  1
  H  H12  1  0.70011346  0.50185828  0.66084220  1
  H  H13  1  0.56262008  0.81761743  0.49045813  1
  H  H14  1  0.76453922  0.81761743  0.49045813  1
  H  H15  1  0.75608897  0.70519856  0.66779406  1
  H  H16  1  0.28131454  0.70519856  0.66779406  1
  H  H17  1  0.27078774  0.61147725  0.78709147  1
  H  H18  1  0.55359804  0.61147725  0.78709147  1
  I  I19  1  0.83650812  0.21902998  0.54601275  1
  I  I20  1  0.39739969  0.92404349  0.12924511  1
  I  I21  1  0.60260031  0.07595651  0.87075489  1
  I  I22  1  0.16349188  0.78097002  0.45398725  1
  I  I23  1  0.00000000  0.00000000  0.00000000  1
  I  I24  1  0.81275307  0.63439976  0.00889362  1
  I  I25  1  0.18724693  0.36560024  0.99110638  1
  N  N26  1  0.35795786  0.41029025  0.32729728  1
  N  N27  1  0.72503511  0.41029025  0.32729728  1
  N  N28  1  0.35322181  0.25994056  0.55349594  1
  N  N29  1  0.64677819  0.74005944  0.44650406  1
  N  N30  1  0.64204214  0.58970975  0.67270272  1
  N  N31  1  0.27496489  0.58970975  0.67270272  1
