# generated using pymatgen
data_Na2SnO3
_symmetry_space_group_name_H-M   'P 1'
_cell_length_a   5.59418211
_cell_length_b   5.59396566
_cell_length_c   11.18420238
_cell_angle_alpha   90.00013303
_cell_angle_beta   90.00038057
_cell_angle_gamma   60.00160764
_symmetry_Int_Tables_number   1
_chemical_formula_structural   Na2SnO3
_chemical_formula_sum   'Na8 Sn4 O12'
_cell_volume   303.10917328
_cell_formula_units_Z   4
loop_
 _symmetry_equiv_pos_site_id
 _symmetry_equiv_pos_as_xyz
  1  'x, y, z'
loop_
 _atom_site_type_symbol
 _atom_site_label
 _atom_site_symmetry_multiplicity
 _atom_site_fract_x
 _atom_site_fract_y
 _atom_site_fract_z
 _atom_site_occupancy
  Na  Na0  1  0.99999971  0.67786316  0.24999982  1
  Na  Na1  1  0.32215123  0.67786114  0.74999658  1
  Na  Na2  1  0.99999486  0.32213996  0.74999984  1
  Na  Na3  1  0.99996357  0.00002699  0.00000019  1
  Na  Na4  1  0.00003717  0.99998841  0.49999915  1
  Na  Na5  1  0.32215645  0.99997542  0.25000441  1
  Na  Na6  1  0.67784545  0.32213846  0.24999474  1
  Na  Na7  1  0.67784955  0.00001311  0.75000363  1
  Sn  Sn8  1  0.33330788  0.33335265  0.00000490  1
  Sn  Sn9  1  0.66664015  0.66668461  0.00000340  1
  Sn  Sn10  1  0.66669242  0.66665751  0.49999632  1
  Sn  Sn11  1  0.33336014  0.33332514  0.49999539  1
  O  O12  1  0.00002793  0.63148894  0.60546292  1
  O  O13  1  0.99997437  0.63151760  0.89453756  1
  O  O14  1  0.99997466  0.36852355  0.10545811  1
  O  O15  1  0.00002302  0.36849707  0.39454199  1
  O  O16  1  0.36848835  0.63151032  0.10545260  1
  O  O17  1  0.36854456  0.63147924  0.39454825  1
  O  O18  1  0.63151843  0.36849889  0.60545521  1
  O  O19  1  0.63145433  0.36853213  0.89454760  1
  O  O20  1  0.36854103  0.99998999  0.60545512  1
  O  O21  1  0.36847838  0.00001679  0.89454390  1
  O  O22  1  0.63146058  0.00002257  0.10545227  1
  O  O23  1  0.63151480  0.99999733  0.39454808  1
