# generated using pymatgen
data_Sm3NbO7
_symmetry_space_group_name_H-M   'P 1'
_cell_length_a   6.60119620
_cell_length_b   6.60119620
_cell_length_c   7.69286156
_cell_angle_alpha   90.00000000
_cell_angle_beta   90.00000000
_cell_angle_gamma   110.56582525
_symmetry_Int_Tables_number   1
_chemical_formula_structural   Sm3NbO7
_chemical_formula_sum   'Sm6 Nb2 O14'
_cell_volume   313.85853964
_cell_formula_units_Z   2
loop_
 _symmetry_equiv_pos_site_id
 _symmetry_equiv_pos_as_xyz
  1  'x, y, z'
loop_
 _atom_site_type_symbol
 _atom_site_label
 _atom_site_symmetry_multiplicity
 _atom_site_fract_x
 _atom_site_fract_y
 _atom_site_fract_z
 _atom_site_occupancy
  Sm  Sm0  1  0.05952868  0.51707464  0.25000000  1
  Sm  Sm1  1  0.48292536  0.94047132  0.75000000  1
  Sm  Sm2  1  0.00000000  0.00000000  0.00000000  1
  Sm  Sm3  1  0.00000000  0.00000000  0.50000000  1
  Sm  Sm4  1  0.94047132  0.48292536  0.75000000  1
  Sm  Sm5  1  0.51707464  0.05952868  0.25000000  1
  Nb  Nb6  1  0.50000000  0.50000000  0.00000000  1
  Nb  Nb7  1  0.50000000  0.50000000  0.50000000  1
  O  O8  1  0.15163829  0.88807107  0.25000000  1
  O  O9  1  0.11192893  0.84836171  0.75000000  1
  O  O10  1  0.18051378  0.43639457  0.53246567  1
  O  O11  1  0.56360543  0.81948622  0.03246567  1
  O  O12  1  0.56360543  0.81948622  0.46753433  1
  O  O13  1  0.18051378  0.43639457  0.96753433  1
  O  O14  1  0.56994167  0.56994167  0.75000000  1
  O  O15  1  0.43005833  0.43005833  0.25000000  1
  O  O16  1  0.43639457  0.18051378  0.53246567  1
  O  O17  1  0.43639457  0.18051378  0.96753433  1
  O  O18  1  0.81948622  0.56360543  0.03246567  1
  O  O19  1  0.81948622  0.56360543  0.46753433  1
  O  O20  1  0.88807107  0.15163829  0.25000000  1
  O  O21  1  0.84836171  0.11192893  0.75000000  1
