# generated using pymatgen
data_Sr3Li2Nb4O13
_symmetry_space_group_name_H-M   'P 1'
_cell_length_a   17.63339468
_cell_length_b   17.63339468
_cell_length_c   17.63339468
_cell_angle_alpha   166.80432162
_cell_angle_beta   166.80432162
_cell_angle_gamma   18.70322184
_symmetry_Int_Tables_number   1
_chemical_formula_structural   Sr3Li2Nb4O13
_chemical_formula_sum   'Sr3 Li2 Nb4 O13'
_cell_volume   285.68989896
_cell_formula_units_Z   1
loop_
 _symmetry_equiv_pos_site_id
 _symmetry_equiv_pos_as_xyz
  1  'x, y, z'
loop_
 _atom_site_type_symbol
 _atom_site_label
 _atom_site_symmetry_multiplicity
 _atom_site_fract_x
 _atom_site_fract_y
 _atom_site_fract_z
 _atom_site_occupancy
  Sr  Sr0  1  0.37705443  0.37705443  0.00000000  1
  Sr  Sr1  1  0.50000000  0.50000000  0.00000000  1
  Sr  Sr2  1  0.62294557  0.62294557  0.00000000  1
  Li  Li3  1  0.75000000  0.25000000  0.50000000  1
  Li  Li4  1  0.25000000  0.75000000  0.50000000  1
  Nb  Nb5  1  0.05907873  0.05907873  0.00000000  1
  Nb  Nb6  1  0.17930406  0.17930406  0.00000000  1
  Nb  Nb7  1  0.82069594  0.82069594  0.00000000  1
  Nb  Nb8  1  0.94092127  0.94092127  0.00000000  1
  O  O9  1  0.00000000  0.00000000  0.00000000  1
  O  O10  1  0.11710151  0.11710151  0.00000000  1
  O  O11  1  0.55791451  0.05791451  0.50000000  1
  O  O12  1  0.23385187  0.23385187  0.00000000  1
  O  O13  1  0.67269580  0.17269580  0.50000000  1
  O  O14  1  0.94208549  0.44208549  0.50000000  1
  O  O15  1  0.82730420  0.32730420  0.50000000  1
  O  O16  1  0.76614813  0.76614813  0.00000000  1
  O  O17  1  0.88289849  0.88289849  0.00000000  1
  O  O18  1  0.17269580  0.67269580  0.50000000  1
  O  O19  1  0.32730420  0.82730420  0.50000000  1
  O  O20  1  0.44208549  0.94208549  0.50000000  1
  O  O21  1  0.05791451  0.55791451  0.50000000  1
