# generated using pymatgen
data_Na7Ti13O26
_symmetry_space_group_name_H-M   'P 1'
_cell_length_a   10.75097648
_cell_length_b   5.15600915
_cell_length_c   11.35888228
_cell_angle_alpha   85.86391350
_cell_angle_beta   114.74271380
_cell_angle_gamma   99.09444780
_symmetry_Int_Tables_number   1
_chemical_formula_structural   Na7Ti13O26
_chemical_formula_sum   'Na7 Ti13 O26'
_cell_volume   564.64213226
_cell_formula_units_Z   1
loop_
 _symmetry_equiv_pos_site_id
 _symmetry_equiv_pos_as_xyz
  1  'x, y, z'
loop_
 _atom_site_type_symbol
 _atom_site_label
 _atom_site_symmetry_multiplicity
 _atom_site_fract_x
 _atom_site_fract_y
 _atom_site_fract_z
 _atom_site_occupancy
  Na  Na0  1  0.84575006  0.45850772  0.92286062  1
  Na  Na1  1  0.76840368  0.69869310  0.38478637  1
  Na  Na2  1  0.53928932  0.37822990  0.76905963  1
  Na  Na3  1  0.46194194  0.61841528  0.23098538  1
  Na  Na4  1  0.23249196  0.30467325  0.61570161  1
  Na  Na5  1  0.07520004  0.77224975  0.53814439  1
  Na  Na6  1  0.15384600  0.53846200  0.07692300  1
  Ti  Ti7  1  0.88625572  0.85175096  0.70100232  1
  Ti  Ti8  1  0.96216143  0.61060863  0.23389488  1
  Ti  Ti9  1  0.80804913  0.06894243  0.15242710  1
  Ti  Ti10  1  0.73105458  0.30910034  0.60533090  1
  Ti  Ti11  1  0.57663742  0.76782266  0.54851510  1
  Ti  Ti12  1  0.65384600  0.53846200  0.07692300  1
  Ti  Ti13  1  0.49964287  0.00798157  0.00141890  1
  Ti  Ti14  1  0.34553057  0.46631437  0.91995112  1
  Ti  Ti15  1  0.42143728  0.22517204  0.45284368  1
  Ti  Ti16  1  0.27051382  0.70156869  0.38965602  1
  Ti  Ti17  1  0.19403154  0.91707678  0.85032407  1
  Ti  Ti18  1  0.11366146  0.15984722  0.30352193  1
  Ti  Ti19  1  0.03717818  0.37535431  0.76418998  1
  O  O20  1  0.86884596  0.17181702  0.77601970  1
  O  O21  1  0.97493321  0.30612652  0.13943240  1
  O  O22  1  0.89980077  0.53965143  0.60264168  1
  O  O23  1  0.94723318  0.92878302  0.31978331  1
  O  O24  1  0.66886067  0.22841586  0.98826589  1
  O  O25  1  0.74431563  0.98136486  0.53299020  1
  O  O26  1  0.71567759  0.61103851  0.70571684  1
  O  O27  1  0.79349661  0.39698096  0.23835629  1
  O  O28  1  0.82234803  0.75822982  0.06837351  1
  O  O29  1  0.56337737  0.09555814  0.62085580  1
  O  O30  1  0.63883233  0.84850714  0.16558011  1
  O  O31  1  0.51419539  0.67994204  0.91548971  1
  O  O32  1  0.59201541  0.46588449  0.44812916  1
  O  O33  1  0.43884704  0.90510598  0.37782630  1
  O  O34  1  0.48534497  0.31869318  0.08547249  1
  O  O35  1  0.36045982  0.14814098  0.83406269  1
  O  O36  1  0.40789123  0.53727157  0.55120432  1
  O  O37  1  0.17830126  0.24706017  0.92905753  1
  O  O38  1  0.20453622  0.60924201  0.75361921  1
  O  O39  1  0.28367240  0.38595962  0.29462386  1
  O  O40  1  0.33275879  0.77079648  0.01441460  1
  O  O41  1  0.25275717  0.01216977  0.47299953  1
  O  O42  1  0.05493583  0.06475323  0.68084647  1
  O  O43  1  0.02401960  0.69096338  0.85922214  1
  O  O44  1  0.10315578  0.46768199  0.40022679  1
  O  O45  1  0.12939074  0.82986283  0.22478847  1
