# generated using pymatgen
data_ErAlO3
_symmetry_space_group_name_H-M   'P 1'
_cell_length_a   5.17637779
_cell_length_b   5.37965550
_cell_length_c   7.40977449
_cell_angle_alpha   90.00000000
_cell_angle_beta   90.00000000
_cell_angle_gamma   90.00000000
_symmetry_Int_Tables_number   1
_chemical_formula_structural   ErAlO3
_chemical_formula_sum   'Er4 Al4 O12'
_cell_volume   206.34094792
_cell_formula_units_Z   4
loop_
 _symmetry_equiv_pos_site_id
 _symmetry_equiv_pos_as_xyz
  1  'x, y, z'
loop_
 _atom_site_type_symbol
 _atom_site_label
 _atom_site_symmetry_multiplicity
 _atom_site_fract_x
 _atom_site_fract_y
 _atom_site_fract_z
 _atom_site_occupancy
  Er  Er0  1  0.01546744  0.94071573  0.75000000  1
  Er  Er1  1  0.48453256  0.44071573  0.75000000  1
  Er  Er2  1  0.51546744  0.55928427  0.25000000  1
  Er  Er3  1  0.98453256  0.05928427  0.25000000  1
  Al  Al4  1  0.00000000  0.50000000  0.00000000  1
  Al  Al5  1  0.00000000  0.50000000  0.50000000  1
  Al  Al6  1  0.50000000  0.00000000  0.00000000  1
  Al  Al7  1  0.50000000  0.00000000  0.50000000  1
  O  O8  1  0.09397201  0.47267894  0.25000000  1
  O  O9  1  0.20300320  0.20391602  0.54919030  1
  O  O10  1  0.20300320  0.20391602  0.95080970  1
  O  O11  1  0.29699680  0.70391602  0.95080970  1
  O  O12  1  0.29699680  0.70391602  0.54919030  1
  O  O13  1  0.40602799  0.97267894  0.25000000  1
  O  O14  1  0.59397201  0.02732106  0.75000000  1
  O  O15  1  0.70300320  0.29608398  0.04919030  1
  O  O16  1  0.70300320  0.29608398  0.45080970  1
  O  O17  1  0.79699680  0.79608398  0.04919030  1
  O  O18  1  0.79699680  0.79608398  0.45080970  1
  O  O19  1  0.90602799  0.52732106  0.75000000  1
