# generated using pymatgen
data_CsS2N3O4
_symmetry_space_group_name_H-M   'P 1'
_cell_length_a   8.50711394
_cell_length_b   9.36247205
_cell_length_c   10.76201009
_cell_angle_alpha   90.00000000
_cell_angle_beta   90.00000000
_cell_angle_gamma   109.68638262
_symmetry_Int_Tables_number   1
_chemical_formula_structural   CsS2N3O4
_chemical_formula_sum   'Cs4 S8 N12 O16'
_cell_volume   807.06750022
_cell_formula_units_Z   4
loop_
 _symmetry_equiv_pos_site_id
 _symmetry_equiv_pos_as_xyz
  1  'x, y, z'
loop_
 _atom_site_type_symbol
 _atom_site_label
 _atom_site_symmetry_multiplicity
 _atom_site_fract_x
 _atom_site_fract_y
 _atom_site_fract_z
 _atom_site_occupancy
  Cs  Cs0  1  0.10109741  0.79565892  0.92312909  1
  Cs  Cs1  1  0.39890259  0.20434108  0.42312909  1
  Cs  Cs2  1  0.89890259  0.20434108  0.07687091  1
  Cs  Cs3  1  0.60109741  0.79565892  0.57687091  1
  S  S4  1  0.26727538  0.54947377  0.26544855  1
  S  S5  1  0.23272462  0.45052623  0.76544855  1
  S  S6  1  0.93376700  0.27543042  0.49417209  1
  S  S7  1  0.56623300  0.72456958  0.99417209  1
  S  S8  1  0.73272462  0.45052623  0.73455145  1
  S  S9  1  0.43376700  0.27543042  0.00582791  1
  S  S10  1  0.76727538  0.54947377  0.23455145  1
  S  S11  1  0.06623300  0.72456958  0.50582791  1
  N  N12  1  0.02067761  0.13613344  0.71793575  1
  N  N13  1  0.42804238  0.04551324  0.71857880  1
  N  N14  1  0.52067761  0.13613344  0.78206425  1
  N  N15  1  0.61402364  0.23069654  0.84968219  1
  N  N16  1  0.88597636  0.76930346  0.34968219  1
  N  N17  1  0.57195762  0.95448676  0.28142120  1
  N  N18  1  0.47932239  0.86386656  0.21793575  1
  N  N19  1  0.92804238  0.04551324  0.78142120  1
  N  N20  1  0.38597636  0.76930346  0.15031781  1
  N  N21  1  0.97932239  0.86386656  0.28206425  1
  N  N22  1  0.11402364  0.23069654  0.65031781  1
  N  N23  1  0.07195762  0.95448676  0.21857880  1
  O  O24  1  0.40058594  0.56355566  0.35635658  1
  O  O25  1  0.48767245  0.76878131  0.88644352  1
  O  O26  1  0.59941406  0.43644434  0.64364342  1
  O  O27  1  0.75560763  0.43883736  0.33364538  1
  O  O28  1  0.72342959  0.83744431  0.03551072  1
  O  O29  1  0.09941406  0.43644434  0.85635658  1
  O  O30  1  0.25560763  0.43883736  0.16635462  1
  O  O31  1  0.51232755  0.23121869  0.11355648  1
  O  O32  1  0.77657041  0.16255569  0.53551072  1
  O  O33  1  0.90058594  0.56355566  0.14364342  1
  O  O34  1  0.24439237  0.56116264  0.66635462  1
  O  O35  1  0.74439237  0.56116264  0.83364538  1
  O  O36  1  0.27657041  0.16255569  0.96448928  1
  O  O37  1  0.98767245  0.76878131  0.61355648  1
  O  O38  1  0.22342959  0.83744431  0.46448928  1
  O  O39  1  0.01232755  0.23121869  0.38644352  1
