# generated using pymatgen
data_TbTaO4
_symmetry_space_group_name_H-M   'P 1'
_cell_length_a   7.62661553
_cell_length_b   5.37964351
_cell_length_c   7.63041068
_cell_angle_alpha   90.00000000
_cell_angle_beta   98.97218465
_cell_angle_gamma   90.00000000
_symmetry_Int_Tables_number   1
_chemical_formula_structural   TbTaO4
_chemical_formula_sum   'Tb4 Ta4 O16'
_cell_volume   309.23349720
_cell_formula_units_Z   4
loop_
 _symmetry_equiv_pos_site_id
 _symmetry_equiv_pos_as_xyz
  1  'x, y, z'
loop_
 _atom_site_type_symbol
 _atom_site_label
 _atom_site_symmetry_multiplicity
 _atom_site_fract_x
 _atom_site_fract_y
 _atom_site_fract_z
 _atom_site_occupancy
  Tb  Tb0  1  0.35443564  0.72049283  0.60844927  1
  Tb  Tb1  1  0.35443564  0.77950717  0.10844927  1
  Tb  Tb2  1  0.64556436  0.22049283  0.89155073  1
  Tb  Tb3  1  0.64556436  0.27950717  0.39155073  1
  Ta  Ta4  1  0.16538120  0.23236244  0.80745121  1
  Ta  Ta5  1  0.16538120  0.26763756  0.30745121  1
  Ta  Ta6  1  0.83461880  0.73236244  0.69254879  1
  Ta  Ta7  1  0.83461880  0.76763756  0.19254879  1
  O  O8  1  0.06287222  0.90292437  0.69397551  1
  O  O9  1  0.06287222  0.59707563  0.19397551  1
  O  O10  1  0.17310736  0.36779546  0.56021393  1
  O  O11  1  0.17310736  0.13220454  0.06021393  1
  O  O12  1  0.32681245  0.50316288  0.87859914  1
  O  O13  1  0.38895377  0.01391350  0.82675445  1
  O  O14  1  0.32681245  0.99683712  0.37859914  1
  O  O15  1  0.38895377  0.48608650  0.32675445  1
  O  O16  1  0.61104623  0.51391350  0.67324555  1
  O  O17  1  0.67318755  0.00316288  0.62140086  1
  O  O18  1  0.61104623  0.98608650  0.17324555  1
  O  O19  1  0.67318755  0.49683712  0.12140086  1
  O  O20  1  0.82689264  0.86779546  0.93978607  1
  O  O21  1  0.82689264  0.63220454  0.43978607  1
  O  O22  1  0.93712778  0.40292437  0.80602449  1
  O  O23  1  0.93712778  0.09707563  0.30602449  1
