# generated using pymatgen
data_Ba2SrI6
_symmetry_space_group_name_H-M   'P 1'
_cell_length_a   8.01605022
_cell_length_b   9.15977505
_cell_length_c   11.43280167
_cell_angle_alpha   90.00000000
_cell_angle_beta   91.01127268
_cell_angle_gamma   90.00000000
_symmetry_Int_Tables_number   1
_chemical_formula_structural   Ba2SrI6
_chemical_formula_sum   'Ba4 Sr2 I12'
_cell_volume   839.32518940
_cell_formula_units_Z   2
loop_
 _symmetry_equiv_pos_site_id
 _symmetry_equiv_pos_as_xyz
  1  'x, y, z'
loop_
 _atom_site_type_symbol
 _atom_site_label
 _atom_site_symmetry_multiplicity
 _atom_site_fract_x
 _atom_site_fract_y
 _atom_site_fract_z
 _atom_site_occupancy
  Ba  Ba0  1  0.44603890  0.64204197  0.79801829  1
  Ba  Ba1  1  0.51515556  0.85722208  0.30628939  1
  Ba  Ba2  1  0.94603890  0.35795803  0.29801829  1
  Ba  Ba3  1  0.01515556  0.14277792  0.80628939  1
  Sr  Sr4  1  0.48169955  0.25058437  0.55382553  1
  Sr  Sr5  1  0.98169955  0.74941563  0.05382553  1
  I  I6  1  0.11507903  0.70677898  0.32050352  1
  I  I7  1  0.14704830  0.43231764  0.99410834  1
  I  I8  1  0.14722336  0.42750144  0.62333330  1
  I  I9  1  0.31921813  0.92214058  0.98681232  1
  I  I10  1  0.31494585  0.93439699  0.61360023  1
  I  I11  1  0.34579833  0.20576411  0.28834709  1
  I  I12  1  0.61507903  0.29322102  0.82050352  1
  I  I13  1  0.64704830  0.56768236  0.49410834  1
  I  I14  1  0.64722336  0.57249856  0.12333330  1
  I  I15  1  0.81921813  0.07785942  0.48681232  1
  I  I16  1  0.81494585  0.06560301  0.11360023  1
  I  I17  1  0.84579833  0.79423589  0.78834709  1
