# generated using pymatgen
data_Na9(WO3)16
_symmetry_space_group_name_H-M   'P 1'
_cell_length_a   6.75804905
_cell_length_b   6.75804905
_cell_length_c   22.07124317
_cell_angle_alpha   90.07220533
_cell_angle_beta   89.92779467
_cell_angle_gamma   109.47650555
_symmetry_Int_Tables_number   1
_chemical_formula_structural   Na9(WO3)16
_chemical_formula_sum   'Na9 W16 O48'
_cell_volume   950.33895443
_cell_formula_units_Z   1
loop_
 _symmetry_equiv_pos_site_id
 _symmetry_equiv_pos_as_xyz
  1  'x, y, z'
loop_
 _atom_site_type_symbol
 _atom_site_label
 _atom_site_symmetry_multiplicity
 _atom_site_fract_x
 _atom_site_fract_y
 _atom_site_fract_z
 _atom_site_occupancy
  Na  Na0  1  0.50000000  0.50000000  0.00000000  1
  Na  Na1  1  0.75043906  0.24956094  0.12578289  1
  Na  Na2  1  0.74999254  0.25000746  0.37518961  1
  Na  Na3  1  0.24960484  0.75039516  0.12590936  1
  Na  Na4  1  0.25002043  0.74997957  0.37520236  1
  Na  Na5  1  0.74997957  0.25002043  0.62479764  1
  Na  Na6  1  0.75039516  0.24960484  0.87409064  1
  Na  Na7  1  0.25000746  0.74999254  0.62481039  1
  Na  Na8  1  0.24956094  0.75043906  0.87421711  1
  W  W9  1  0.50000000  0.00000000  0.00000000  1
  W  W10  1  0.49978900  0.00009065  0.25063176  1
  W  W11  1  0.24865499  0.24907929  0.12636279  1
  W  W12  1  0.75092071  0.75134501  0.12636279  1
  W  W13  1  0.00000000  0.50000000  0.00000000  1
  W  W14  1  0.74997926  0.75001945  0.37520770  1
  W  W15  1  0.24998055  0.25002074  0.37520770  1
  W  W16  1  0.99990935  0.50021100  0.25063176  1
  W  W17  1  0.50000000  0.00000000  0.50000000  1
  W  W18  1  0.25002074  0.24998055  0.62479230  1
  W  W19  1  0.00000000  0.50000000  0.50000000  1
  W  W20  1  0.75001945  0.74997926  0.62479230  1
  W  W21  1  0.50021100  0.99990935  0.74936824  1
  W  W22  1  0.75134501  0.75092071  0.87363721  1
  W  W23  1  0.24907929  0.24865499  0.87363721  1
  W  W24  1  0.00009065  0.49978900  0.74936824  1
  O  O25  1  0.38473431  0.14539475  0.05994050  1
  O  O26  1  0.85460525  0.61526569  0.05994050  1
  O  O27  1  0.39519708  0.12867422  0.18342645  1
  O  O28  1  0.87132578  0.60480292  0.18342645  1
  O  O29  1  0.25219748  0.74780252  0.00652208  1
  O  O30  1  0.48749201  0.51250799  0.12405960  1
  O  O31  1  0.98791293  0.01208707  0.37516432  1
  O  O32  1  0.74959757  0.25040243  0.25599807  1
  O  O33  1  0.10694517  0.37192026  0.06625217  1
  O  O34  1  0.62807974  0.89305483  0.06625217  1
  O  O35  1  0.88294637  0.64026503  0.31084837  1
  O  O36  1  0.11648968  0.35962633  0.18941687  1
  O  O37  1  0.64037367  0.88351032  0.18941687  1
  O  O38  1  0.35973497  0.11705363  0.31084837  1
  O  O39  1  0.89510462  0.62882620  0.43346564  1
  O  O40  1  0.37117380  0.10489538  0.43346564  1
  O  O41  1  0.01248458  0.98751542  0.12506331  1
  O  O42  1  0.25027213  0.74972787  0.24394647  1
  O  O43  1  0.75032777  0.24967223  0.49396420  1
  O  O44  1  0.51202312  0.48797688  0.37486272  1
  O  O45  1  0.60492750  0.87100282  0.31662614  1
  O  O46  1  0.12899718  0.39507250  0.31662614  1
  O  O47  1  0.61670982  0.85998633  0.43926598  1
  O  O48  1  0.38329018  0.14001367  0.56073402  1
  O  O49  1  0.85998633  0.61670982  0.56073402  1
  O  O50  1  0.14001367  0.38329018  0.43926598  1
  O  O51  1  0.87100282  0.60492750  0.68337386  1
  O  O52  1  0.39507250  0.12899718  0.68337386  1
  O  O53  1  0.48797688  0.51202312  0.62513728  1
  O  O54  1  0.24967223  0.75032777  0.50603580  1
  O  O55  1  0.98751542  0.01248458  0.87493669  1
  O  O56  1  0.74972787  0.25027213  0.75605353  1
  O  O57  1  0.10489538  0.37117380  0.56653436  1
  O  O58  1  0.62882620  0.89510462  0.56653436  1
  O  O59  1  0.11705363  0.35973497  0.68915163  1
  O  O60  1  0.35962633  0.11648968  0.81058313  1
  O  O61  1  0.88351032  0.64037367  0.81058313  1
  O  O62  1  0.64026503  0.88294637  0.68915163  1
  O  O63  1  0.37192026  0.10694517  0.93374783  1
  O  O64  1  0.89305483  0.62807974  0.93374783  1
  O  O65  1  0.51250799  0.48749201  0.87594040  1
  O  O66  1  0.74780252  0.25219748  0.99347792  1
  O  O67  1  0.01208707  0.98791293  0.62483568  1
  O  O68  1  0.25040243  0.74959757  0.74400193  1
  O  O69  1  0.12867422  0.39519708  0.81657355  1
  O  O70  1  0.60480292  0.87132578  0.81657355  1
  O  O71  1  0.14539475  0.38473431  0.94005950  1
  O  O72  1  0.61526569  0.85460525  0.94005950  1
