# generated using pymatgen
data_LiMn3Al2(HO2)6
_symmetry_space_group_name_H-M   'P 1'
_cell_length_a   9.69124498
_cell_length_b   5.87796734
_cell_length_c   7.95150008
_cell_angle_alpha   79.06108960
_cell_angle_beta   79.06598411
_cell_angle_gamma   89.77266730
_symmetry_Int_Tables_number   1
_chemical_formula_structural   LiMn3Al2(HO2)6
_chemical_formula_sum   'Li2 Mn6 Al4 H12 O24'
_cell_volume   436.41114943
_cell_formula_units_Z   2
loop_
 _symmetry_equiv_pos_site_id
 _symmetry_equiv_pos_as_xyz
  1  'x, y, z'
loop_
 _atom_site_type_symbol
 _atom_site_label
 _atom_site_symmetry_multiplicity
 _atom_site_fract_x
 _atom_site_fract_y
 _atom_site_fract_z
 _atom_site_occupancy
  Li  Li0  1  0.49966358  0.59167549  0.65525841  1
  Li  Li1  1  0.50037971  0.90831449  0.34475213  1
  Mn  Mn2  1  0.99316209  0.33200846  0.66454340  1
  Mn  Mn3  1  0.00684807  0.16800689  0.33544359  1
  Mn  Mn4  1  0.99396795  0.83144436  0.66432420  1
  Mn  Mn5  1  0.00605312  0.66857000  0.33565900  1
  Mn  Mn6  1  0.99968711  0.00004456  0.00022603  1
  Mn  Mn7  1  0.00031875  0.49993366  0.99975920  1
  Al  Al8  1  0.50075108  0.08072623  0.65978425  1
  Al  Al9  1  0.49928265  0.41925903  0.34023098  1
  Al  Al10  1  0.50001342  0.24999828  0.00000391  1
  Al  Al11  1  0.50001596  0.74999574  0.00000375  1
  H  H12  1  0.71180820  0.03887905  0.83644926  1
  H  H13  1  0.70410040  0.53938705  0.84677125  1
  H  H14  1  0.30038085  0.28033113  0.82452759  1
  H  H15  1  0.70862699  0.36213657  0.50178376  1
  H  H16  1  0.29533485  0.80373630  0.82970679  1
  H  H17  1  0.29139997  0.13787871  0.49824508  1
  H  H18  1  0.70907620  0.89074839  0.51675418  1
  H  H19  1  0.69964891  0.21967926  0.17547351  1
  H  H20  1  0.29095298  0.60926633  0.48325069  1
  H  H21  1  0.70470353  0.69624493  0.17028145  1
  H  H22  1  0.28822125  0.46112096  0.16355338  1
  H  H23  1  0.29593325  0.96061662  0.15322547  1
  O  O24  1  0.88576449  0.05180662  0.78084406  1
  O  O25  1  0.60640537  0.03412909  0.86908049  1
  O  O26  1  0.60052268  0.52906820  0.88342473  1
  O  O27  1  0.88658392  0.55239299  0.78080315  1
  O  O28  1  0.40319646  0.28110407  0.80861891  1
  O  O29  1  0.09601651  0.28169402  0.85463763  1
  O  O30  1  0.60531632  0.35242818  0.52089601  1
  O  O31  1  0.89845434  0.38486983  0.46477518  1
  O  O32  1  0.09608209  0.78268975  0.85496846  1
  O  O33  1  0.10156115  0.11515312  0.53521553  1
  O  O34  1  0.39831311  0.81394254  0.81166125  1
  O  O35  1  0.39471012  0.14756151  0.47912283  1
  O  O36  1  0.59683090  0.21888844  0.19139165  1
  O  O37  1  0.90006227  0.88617458  0.46454345  1
  O  O38  1  0.60653438  0.88115082  0.54584759  1
  O  O39  1  0.90398354  0.21829749  0.14536309  1
  O  O40  1  0.09995573  0.61383670  0.53544549  1
  O  O41  1  0.39350524  0.61883982  0.45416366  1
  O  O42  1  0.60171958  0.68604768  0.18834422  1
  O  O43  1  0.90394376  0.71729361  0.14501637  1
  O  O44  1  0.11424916  0.44820317  0.21914393  1
  O  O45  1  0.39362484  0.46586557  0.13092613  1
  O  O46  1  0.39950881  0.97092606  0.11658087  1
  O  O47  1  0.11342637  0.94763666  0.21917707  1
