# generated using pymatgen
data_Li7V3P8O29
_symmetry_space_group_name_H-M   'P 1'
_cell_length_a   9.86703020
_cell_length_b   9.89288108
_cell_length_c   13.88665381
_cell_angle_alpha   89.69372113
_cell_angle_beta   89.70914134
_cell_angle_gamma   59.86274018
_symmetry_Int_Tables_number   1
_chemical_formula_structural   Li7V3P8O29
_chemical_formula_sum   'Li14 V6 P16 O58'
_cell_volume   1172.26898348
_cell_formula_units_Z   2
loop_
 _symmetry_equiv_pos_site_id
 _symmetry_equiv_pos_as_xyz
  1  'x, y, z'
loop_
 _atom_site_type_symbol
 _atom_site_label
 _atom_site_symmetry_multiplicity
 _atom_site_fract_x
 _atom_site_fract_y
 _atom_site_fract_z
 _atom_site_occupancy
  Li  Li0  1  0.91380047  0.77313591  0.06285213  1
  Li  Li1  1  0.76510960  0.90732653  0.56203616  1
  Li  Li2  1  0.90755480  0.32744129  0.56233522  1
  Li  Li3  1  0.66283484  0.66161739  0.38097397  1
  Li  Li4  1  0.66877944  0.66552206  0.88383906  1
  Li  Li5  1  0.77174302  0.31735855  0.06664559  1
  Li  Li6  1  0.31253863  0.91250721  0.06288379  1
  Li  Li7  1  0.32559395  0.76617825  0.56110060  1
  Li  Li8  1  0.67547962  0.09749526  0.94160517  1
  Li  Li9  1  0.22351312  0.68437703  0.94120790  1
  Li  Li10  1  0.09839684  0.66697319  0.43945428  1
  Li  Li11  1  0.23396433  0.10344416  0.43999574  1
  Li  Li12  1  0.09412008  0.22624829  0.93812900  1
  Li  Li13  1  0.94822621  0.03138692  0.49221811  1
  V  V14  1  0.56611255  0.43096184  0.25269001  1
  V  V15  1  0.43759762  0.56142202  0.74738113  1
  V  V16  1  0.56586132  0.00164316  0.74807375  1
  V  V17  1  0.43370593  0.00215144  0.25133730  1
  V  V18  1  0.00445715  0.56194866  0.24929918  1
  V  V19  1  -0.00118765  0.43399049  0.74821099  1
  P  P20  1  0.90767660  0.76921097  0.84210192  1
  P  P21  1  0.77615212  0.90797527  0.34449028  1
  P  P22  1  0.91019474  0.31564599  0.34218788  1
  P  P23  1  0.66842589  0.66666396  0.12747411  1
  P  P24  1  0.66474053  0.66789770  0.62426351  1
  P  P25  1  0.76886725  0.31935752  0.84600913  1
  P  P26  1  0.69416591  0.22401607  0.65861469  1
  P  P27  1  0.32257705  0.90731802  0.84254637  1
  P  P28  1  0.68326133  0.08547934  0.15865662  1
  P  P29  1  0.31588665  0.77476196  0.34284241  1
  P  P30  1  0.23365090  0.68009649  0.15722749  1
  P  P31  1  0.33143229  0.33106697  0.37282422  1
  P  P32  1  0.33540168  0.33242539  0.87193255  1
  P  P33  1  0.08676416  0.68480801  0.65665377  1
  P  P34  1  0.22998126  0.08439888  0.65685246  1
  P  P35  1  0.08930252  0.23129210  0.15677373  1
  O  O36  1  0.99821651  0.77849521  0.56816675  1
  O  O37  1  0.92107988  0.74217802  0.34242355  1
  O  O38  1  0.75854228  0.99314819  0.06834906  1
  O  O39  1  0.74458793  0.92170448  0.84176007  1
  O  O40  1  0.87940284  0.63136171  0.82698781  1
  O  O41  1  0.81764190  0.66881913  0.16830722  1
  O  O42  1  0.89687905  0.47892295  0.33069394  1
  O  O43  1  0.99956719  0.24066892  0.06719521  1
  O  O44  1  0.91924868  0.32831460  0.84491861  1
  O  O45  1  0.67374834  0.81329367  0.66299918  1
  O  O46  1  0.62671710  0.89431579  0.33203421  1
  O  O47  1  0.80842547  0.51362401  0.65949026  1
  O  O48  1  0.66684430  0.67623940  0.01895902  1
  O  O49  1  0.65441431  0.67515878  0.51607260  1
  O  O50  1  0.67396596  0.51562187  0.16356056  1
  O  O51  1  0.48925861  0.88377960  0.82435612  1
  O  O52  1  0.51760056  0.81498627  0.16930343  1
  O  O53  1  0.74776551  0.33655498  0.34179674  1
  O  O54  1  0.78337502  0.20614827  0.75936708  1
  O  O55  1  0.80367632  0.20688582  0.57803257  1
  O  O56  1  0.74605736  0.25096191  0.93739423  1
  O  O57  1  0.62776645  0.48693014  0.82488582  1
  O  O58  1  0.51060911  0.67689999  0.66730336  1
  O  O59  1  0.67022943  0.24491074  0.15803652  1
  O  O60  1  0.48022332  0.63214847  0.33429597  1
  O  O61  1  0.33063637  0.92395195  0.34283396  1
  O  O62  1  0.79228769  0.99396484  0.25040213  1
  O  O63  1  0.78012759  0.99051648  0.43418018  1
  O  O64  1  0.23716577  0.99439501  0.56751533  1
  O  O65  1  0.66508981  0.08346222  0.65857536  1
  O  O66  1  0.54020091  0.38226516  0.66290132  1
  O  O67  1  0.33634506  0.74502489  0.84426974  1
  O  O68  1  0.47544180  0.32893711  0.33179028  1
  O  O69  1  0.37954096  0.52291471  0.17234461  1
  O  O70  1  0.23992940  0.76407547  0.06734047  1
  O  O71  1  0.22525046  0.77274330  0.43113516  1
  O  O72  1  0.21260466  0.79178448  0.24934630  1
  O  O73  1  0.25153625  0.66809410  0.65866840  1
  O  O74  1  0.48640786  0.18247123  0.83092889  1
  O  O75  1  0.52370657  0.09547967  0.17711909  1
  O  O76  1  0.33913426  0.48001335  0.82355786  1
  O  O77  1  0.34271967  0.34225115  0.97848464  1
  O  O78  1  0.31087652  0.33552236  0.47959967  1
  O  O79  1  0.17988621  0.48451914  0.32937278  1
  O  O80  1  0.38353779  0.08891176  0.67243347  1
  O  O81  1  0.32360750  0.18452701  0.33149846  1
  O  O82  1  0.08344544  0.66787644  0.15847816  1
  O  O83  1  0.99796761  0.78975044  0.75104837  1
  O  O84  1  0.00032735  0.75416276  0.93133170  1
  O  O85  1  0.09443530  0.52888062  0.66704867  1
  O  O86  1  0.18846710  0.33115844  0.83482849  1
  O  O87  1  0.10090480  0.37877162  0.17155373  1
  O  O88  1  0.25257273  0.08237706  0.15816026  1
  O  O89  1  0.24682622  0.00143813  0.93163453  1
  O  O90  1  0.21441667  0.99572283  0.75093250  1
  O  O91  1  0.08539880  0.24678487  0.65690577  1
  O  O92  1  0.00198178  0.22744801  0.43135476  1
  O  O93  1  0.00151494  0.21090814  0.24958888  1
