# generated using pymatgen
data_LiCu3F10
_symmetry_space_group_name_H-M   'P 1'
_cell_length_a   8.11394395
_cell_length_b   7.60390034
_cell_length_c   14.17961979
_cell_angle_alpha   73.55585591
_cell_angle_beta   97.62234902
_cell_angle_gamma   117.94150846
_symmetry_Int_Tables_number   1
_chemical_formula_structural   LiCu3F10
_chemical_formula_sum   'Li4 Cu12 F40'
_cell_volume   741.25140659
_cell_formula_units_Z   4
loop_
 _symmetry_equiv_pos_site_id
 _symmetry_equiv_pos_as_xyz
  1  'x, y, z'
loop_
 _atom_site_type_symbol
 _atom_site_label
 _atom_site_symmetry_multiplicity
 _atom_site_fract_x
 _atom_site_fract_y
 _atom_site_fract_z
 _atom_site_occupancy
  Li  Li0  1  0.00824520  0.94716054  0.86337356  1
  Li  Li1  1  0.28655218  0.74591402  0.79001536  1
  Li  Li2  1  0.99175480  0.93891535  0.36337356  1
  Li  Li3  1  0.71344782  0.45936185  0.29001536  1
  Cu  Cu4  1  0.96733358  0.44400079  0.96910254  1
  Cu  Cu5  1  0.24007475  0.84848662  0.21116772  1
  Cu  Cu6  1  0.38719635  0.97048047  0.52118188  1
  Cu  Cu7  1  0.25114320  0.35780403  0.20130394  1
  Cu  Cu8  1  0.41421005  0.46401293  0.52497816  1
  Cu  Cu9  1  0.37110490  0.21025731  0.78397555  1
  Cu  Cu10  1  0.62889510  0.83915241  0.28397555  1
  Cu  Cu11  1  0.61280365  0.58328412  0.02118188  1
  Cu  Cu12  1  0.75992525  0.60841186  0.71116772  1
  Cu  Cu13  1  0.58578995  0.04980188  0.02497816  1
  Cu  Cu14  1  0.74885680  0.10666083  0.70130394  1
  Cu  Cu15  1  0.03266642  0.47666721  0.46910254  1
  F  F16  1  0.97138483  0.73033803  0.64721643  1
  F  F17  1  0.20325312  0.93837067  0.79991115  1
  F  F18  1  0.11788228  0.67503838  0.32477584  1
  F  F19  1  0.20781025  0.97213264  0.43332310  1
  F  F20  1  0.08716525  0.69389251  0.98743559  1
  F  F21  1  0.29497205  0.87311843  0.64858867  1
  F  F22  1  0.94446019  0.28107796  0.62141209  1
  F  F23  1  0.17817866  0.24058765  0.82657814  1
  F  F24  1  0.32940078  0.62754085  0.19232264  1
  F  F25  1  0.16785417  0.49602195  0.90391386  1
  F  F26  1  0.16686563  0.34268561  0.45784670  1
  F  F27  1  0.45807567  0.95057394  0.28261454  1
  F  F28  1  0.26710114  0.64281320  0.52423962  1
  F  F29  1  0.30800773  0.28122791  0.64882558  1
  F  F30  1  0.52131028  0.78181427  0.00319741  1
  F  F31  1  0.15766701  0.08073942  0.23488792  1
  F  F32  1  0.61205086  0.98810442  0.56692124  1
  F  F33  1  0.38794914  0.37605356  0.06692124  1
  F  F34  1  0.43536297  0.37315079  0.28887564  1
  F  F35  1  0.47204304  0.13240972  0.91033356  1
  F  F36  1  0.52795696  0.66036668  0.41033356  1
  F  F37  1  0.54192433  0.49249827  0.78261454  1
  F  F38  1  0.62723208  0.63723004  0.59495058  1
  F  F39  1  0.47868972  0.26050399  0.50319741  1
  F  F40  1  0.37276792  0.00999795  0.09495058  1
  F  F41  1  0.84233299  0.92307240  0.73488792  1
  F  F42  1  0.70502795  0.57814638  0.14858867  1
  F  F43  1  0.79218975  0.76432238  0.93332310  1
  F  F44  1  0.73289886  0.37571205  0.02423962  1
  F  F45  1  0.79674688  0.73511855  0.29991115  1
  F  F46  1  0.67059922  0.29813907  0.69232264  1
  F  F47  1  0.56463703  0.93778882  0.78887564  1
  F  F48  1  0.91283475  0.60672726  0.48743559  1
  F  F49  1  0.83214583  0.32816778  0.40391386  1
  F  F50  1  0.02861517  0.75895320  0.14721643  1
  F  F51  1  0.69199227  0.97322118  0.14882558  1
  F  F52  1  0.83313437  0.17581998  0.95784670  1
  F  F53  1  0.88211772  0.55715610  0.82477584  1
  F  F54  1  0.05553981  0.33661777  0.12141209  1
  F  F55  1  0.82182134  0.06240799  0.32657814  1
