# generated using pymatgen
data_NaNb2O4
_symmetry_space_group_name_H-M   'P 1'
_cell_length_a   5.15758435
_cell_length_b   12.15542781
_cell_length_c   5.96354663
_cell_angle_alpha   89.99994242
_cell_angle_beta   89.99997145
_cell_angle_gamma   90.00017701
_symmetry_Int_Tables_number   1
_chemical_formula_structural   NaNb2O4
_chemical_formula_sum   'Na4 Nb8 O16'
_cell_volume   373.87050728
_cell_formula_units_Z   4
loop_
 _symmetry_equiv_pos_site_id
 _symmetry_equiv_pos_as_xyz
  1  'x, y, z'
loop_
 _atom_site_type_symbol
 _atom_site_label
 _atom_site_symmetry_multiplicity
 _atom_site_fract_x
 _atom_site_fract_y
 _atom_site_fract_z
 _atom_site_occupancy
  Na  Na0  1  0.30968623  0.00357918  0.25000315  1
  Na  Na1  1  0.30969053  0.49642239  0.74999835  1
  Na  Na2  1  0.69031235  0.50357626  0.25000346  1
  Na  Na3  1  0.69031167  0.99642488  0.75000086  1
  Nb  Nb4  1  0.15567584  0.24999970  -0.00000058  1
  Nb  Nb5  1  0.15567723  0.24999973  0.50000145  1
  Nb  Nb6  1  0.34126060  0.74695365  0.25000029  1
  Nb  Nb7  1  0.34126938  0.75304634  0.74999616  1
  Nb  Nb8  1  0.65873400  0.24695702  0.24999929  1
  Nb  Nb9  1  0.65873336  0.25304237  0.75000064  1
  Nb  Nb10  1  0.84432824  0.75000105  -0.00000371  1
  Nb  Nb11  1  0.84433274  0.75000032  0.50000434  1
  O  O12  1  0.00392845  0.64676051  0.24999831  1
  O  O13  1  0.00393017  0.85324155  0.74999965  1
  O  O14  1  0.01300122  0.85070487  0.24999939  1
  O  O15  1  0.01300214  0.64929350  0.75000147  1
  O  O16  1  0.49128092  0.14647165  0.50272287  1
  O  O17  1  0.49128260  0.14647197  0.99727552  1
  O  O18  1  0.49128246  0.35352718  0.00272439  1
  O  O19  1  0.49128329  0.35352683  0.49727421  1
  O  O20  1  0.50872266  0.64647369  0.50272171  1
  O  O21  1  0.50872528  0.85352750  0.00272802  1
  O  O22  1  0.50872290  0.85352732  0.49727154  1
  O  O23  1  0.50872322  0.64647324  0.99727931  1
  O  O24  1  0.98698950  0.14929030  0.74999941  1
  O  O25  1  0.98698985  0.35070786  0.24999919  1
  O  O26  1  0.99606178  0.14675758  0.25000035  1
  O  O27  1  0.99606140  0.35324157  0.75000094  1
