# generated using pymatgen
data_NaCu(PO3)3
_symmetry_space_group_name_H-M   'P 1'
_cell_length_a   9.78764965
_cell_length_b   9.71176285
_cell_length_c   9.72647822
_cell_angle_alpha   111.87050506
_cell_angle_beta   106.83430058
_cell_angle_gamma   105.57775424
_symmetry_Int_Tables_number   1
_chemical_formula_structural   NaCu(PO3)3
_chemical_formula_sum   'Na4 Cu4 P12 O36'
_cell_volume   743.85297057
_cell_formula_units_Z   4
loop_
 _symmetry_equiv_pos_site_id
 _symmetry_equiv_pos_as_xyz
  1  'x, y, z'
loop_
 _atom_site_type_symbol
 _atom_site_label
 _atom_site_symmetry_multiplicity
 _atom_site_fract_x
 _atom_site_fract_y
 _atom_site_fract_z
 _atom_site_occupancy
  Na  Na0  1  0.50631383  0.93362337  0.34425004  1
  Na  Na1  1  0.31459506  0.17170757  0.37998399  1
  Na  Na2  1  0.68540494  0.82829243  0.62001601  1
  Na  Na3  1  0.49368617  0.06637663  0.65574996  1
  Cu  Cu4  1  0.27591646  0.23204812  0.74597894  1
  Cu  Cu5  1  0.21278281  0.29409537  0.10246274  1
  Cu  Cu6  1  0.78721719  0.70590463  0.89753726  1
  Cu  Cu7  1  0.72408354  0.76795188  0.25402106  1
  P  P8  1  0.08120940  0.91645214  0.81644375  1
  P  P9  1  0.09830188  0.85108006  0.48968059  1
  P  P10  1  0.35188899  0.60100528  0.98394508  1
  P  P11  1  0.15354969  0.78200537  0.04001874  1
  P  P12  1  0.29000799  0.65673632  0.42472494  1
  P  P13  1  0.40924666  0.56815284  0.68917686  1
  P  P14  1  0.59075334  0.43184716  0.31082314  1
  P  P15  1  0.70999201  0.34326368  0.57527506  1
  P  P16  1  0.84645031  0.21799463  0.95998126  1
  P  P17  1  0.64811101  0.39899472  0.01605492  1
  P  P18  1  0.90169812  0.14891994  0.51031941  1
  P  P19  1  0.91879060  0.08354786  0.18355625  1
  O  O20  1  0.01053866  0.27736617  0.97332779  1
  O  O21  1  0.08070847  0.82576528  0.63815310  1
  O  O22  1  0.16099261  0.82119959  0.89394136  1
  O  O23  1  0.19814659  0.62570128  0.98880549  1
  O  O24  1  0.13940090  0.70191285  0.40102937  1
  O  O25  1  0.05404719  0.17910668  0.63393142  1
  O  O26  1  0.19388010  0.09612963  0.90430794  1
  O  O27  1  0.31755573  0.42532558  0.94157057  1
  O  O28  1  0.36222508  0.63665862  0.83896634  1
  O  O29  1  0.29544674  0.60908493  0.56829664  1
  O  O30  1  0.28059871  0.91858588  0.20193964  1
  O  O31  1  0.08409046  0.13075104  0.20117839  1
  O  O32  1  0.24768584  0.51132212  0.26710142  1
  O  O33  1  0.43527053  0.80712187  0.48855739  1
  O  O34  1  0.35693344  0.38715853  0.61741310  1
  O  O35  1  0.23677577  0.01533817  0.56056053  1
  O  O36  1  0.57952157  0.67884417  0.74569918  1
  O  O37  1  0.50294374  0.27129010  0.85804900  1
  O  O38  1  0.49705626  0.72870990  0.14195100  1
  O  O39  1  0.42047843  0.32115583  0.25430082  1
  O  O40  1  0.76322423  0.98466183  0.43943947  1
  O  O41  1  0.64306656  0.61284147  0.38258690  1
  O  O42  1  0.56472947  0.19287813  0.51144261  1
  O  O43  1  0.75231416  0.48867788  0.73289858  1
  O  O44  1  0.91590954  0.86924896  0.79882161  1
  O  O45  1  0.71940129  0.08141412  0.79806036  1
  O  O46  1  0.70455326  0.39091507  0.43170336  1
  O  O47  1  0.63777492  0.36334138  0.16103366  1
  O  O48  1  0.68244427  0.57467442  0.05842943  1
  O  O49  1  0.80611990  0.90387037  0.09569206  1
  O  O50  1  0.94595281  0.82089332  0.36606858  1
  O  O51  1  0.86059910  0.29808715  0.59897063  1
  O  O52  1  0.80185341  0.37429872  0.01119451  1
  O  O53  1  0.83900739  0.17880041  0.10605864  1
  O  O54  1  0.91929153  0.17423472  0.36184690  1
  O  O55  1  0.98946134  0.72263383  0.02667221  1
