# generated using pymatgen
data_LiCoSbO4
_symmetry_space_group_name_H-M   'P 1'
_cell_length_a   6.12979121
_cell_length_b   6.12979121
_cell_length_c   8.57242611
_cell_angle_alpha   90.00000000
_cell_angle_beta   90.00000000
_cell_angle_gamma   90.00000000
_symmetry_Int_Tables_number   1
_chemical_formula_structural   LiCoSbO4
_chemical_formula_sum   'Li4 Co4 Sb4 O16'
_cell_volume   322.10325567
_cell_formula_units_Z   4
loop_
 _symmetry_equiv_pos_site_id
 _symmetry_equiv_pos_as_xyz
  1  'x, y, z'
loop_
 _atom_site_type_symbol
 _atom_site_label
 _atom_site_symmetry_multiplicity
 _atom_site_fract_x
 _atom_site_fract_y
 _atom_site_fract_z
 _atom_site_occupancy
  Li  Li0  1  0.00000000  0.20906816  0.00000000  1
  Li  Li1  1  0.00000000  0.79093184  0.50000000  1
  Li  Li2  1  0.20906816  0.00000000  0.25000000  1
  Li  Li3  1  0.79093184  0.00000000  0.75000000  1
  Co  Co4  1  0.25103337  0.25103337  0.62500000  1
  Co  Co5  1  0.25103337  0.74896663  0.87500000  1
  Co  Co6  1  0.74896663  0.25103337  0.37500000  1
  Co  Co7  1  0.74896663  0.74896663  0.12500000  1
  Sb  Sb8  1  0.22724637  0.50000000  0.25000000  1
  Sb  Sb9  1  0.50000000  0.22724637  0.00000000  1
  Sb  Sb10  1  0.50000000  0.77275363  0.50000000  1
  Sb  Sb11  1  0.77275363  0.50000000  0.75000000  1
  O  O12  1  0.01652431  0.26137199  0.25168539  1
  O  O13  1  0.01652431  0.73862801  0.24831461  1
  O  O14  1  0.26137199  0.01652431  0.99831461  1
  O  O15  1  0.26137199  0.98347569  0.50168539  1
  O  O16  1  0.26732045  0.47676069  0.01373959  1
  O  O17  1  0.26732045  0.52323931  0.48626041  1
  O  O18  1  0.47676069  0.26732045  0.23626041  1
  O  O19  1  0.47676069  0.73267955  0.26373959  1
  O  O20  1  0.52323931  0.26732045  0.76373959  1
  O  O21  1  0.52323931  0.73267955  0.73626041  1
  O  O22  1  0.73267955  0.52323931  0.51373959  1
  O  O23  1  0.73267955  0.47676069  0.98626041  1
  O  O24  1  0.73862801  0.01652431  0.00168539  1
  O  O25  1  0.73862801  0.98347569  0.49831461  1
  O  O26  1  0.98347569  0.26137199  0.74831461  1
  O  O27  1  0.98347569  0.73862801  0.75168539  1
