# generated using pymatgen
data_Ba2SrI6
_symmetry_space_group_name_H-M   'P 1'
_cell_length_a   9.22981477
_cell_length_b   9.23016357
_cell_length_c   5.07947011
_cell_angle_alpha   90.00000000
_cell_angle_beta   90.00000000
_cell_angle_gamma   120.00124925
_symmetry_Int_Tables_number   1
_chemical_formula_structural   Ba2SrI6
_chemical_formula_sum   'Ba2 Sr1 I6'
_cell_volume   374.75372352
_cell_formula_units_Z   1
loop_
 _symmetry_equiv_pos_site_id
 _symmetry_equiv_pos_as_xyz
  1  'x, y, z'
loop_
 _atom_site_type_symbol
 _atom_site_label
 _atom_site_symmetry_multiplicity
 _atom_site_fract_x
 _atom_site_fract_y
 _atom_site_fract_z
 _atom_site_occupancy
  Ba  Ba0  1  0.33331200  0.66668374  0.50000000  1
  Ba  Ba1  1  0.66668800  0.33337174  0.50000000  1
  Sr  Sr2  1  0.00000000  0.99999078  0.00000000  1
  I  I3  1  0.00000000  0.59721159  0.00000000  1
  I  I4  1  0.00000000  0.25093132  0.50000000  1
  I  I5  1  0.40278647  0.40280728  0.00000000  1
  I  I6  1  0.25096621  0.00002547  0.50000000  1
  I  I7  1  0.74903379  0.74905926  0.50000000  1
  I  I8  1  0.59721353  0.00002081  0.00000000  1
