# generated using pymatgen
data_LiNbSn3(PO4)6
_symmetry_space_group_name_H-M   'P 1'
_cell_length_a   8.85968252
_cell_length_b   8.87353583
_cell_length_c   8.90345745
_cell_angle_alpha   59.59402611
_cell_angle_beta   59.76123648
_cell_angle_gamma   59.67251769
_symmetry_Int_Tables_number   1
_chemical_formula_structural   LiNbSn3(PO4)6
_chemical_formula_sum   'Li1 Nb1 Sn3 P6 O24'
_cell_volume   491.30073818
_cell_formula_units_Z   1
loop_
 _symmetry_equiv_pos_site_id
 _symmetry_equiv_pos_as_xyz
  1  'x, y, z'
loop_
 _atom_site_type_symbol
 _atom_site_label
 _atom_site_symmetry_multiplicity
 _atom_site_fract_x
 _atom_site_fract_y
 _atom_site_fract_z
 _atom_site_occupancy
  Li  Li0  1  0.82326972  0.64756270  0.26602434  1
  Nb  Nb1  1  0.86302450  0.86460630  0.84868021  1
  Sn  Sn2  1  0.13734059  0.13959997  0.13916479  1
  Sn  Sn3  1  0.36629016  0.35898196  0.35851051  1
  Sn  Sn4  1  0.63266229  0.64292445  0.64958591  1
  P  P5  1  0.03807937  0.74612802  0.45748296  1
  P  P6  1  0.45636651  0.03966511  0.74826007  1
  P  P7  1  0.25105442  0.53721750  0.96430261  1
  P  P8  1  0.75097498  0.46087813  0.03984940  1
  P  P9  1  0.53867053  0.96754584  0.24808107  1
  P  P10  1  0.96382227  0.25233590  0.52608508  1
  O  O11  1  0.18426434  0.38649315  0.00819504  1
  O  O12  1  0.14248387  0.26515267  0.49680880  1
  O  O13  1  0.37844847  0.00761645  0.19779856  1
  O  O14  1  0.27802291  0.52148297  0.12958123  1
  O  O15  1  0.08531253  0.89671957  0.27090807  1
  O  O16  1  0.27209026  0.08216574  0.90222540  1
  O  O17  1  0.20351656  0.56537634  0.47111315  1
  O  O18  1  0.52965851  0.12759026  0.27671221  1
  O  O19  1  0.09090081  0.72749298  0.92101146  1
  O  O20  1  0.46637092  0.21147879  0.57353385  1
  O  O21  1  0.57589407  0.46718812  0.21225905  1
  O  O22  1  0.42359703  0.53705339  0.78843111  1
  O  O23  1  0.90264618  0.27087169  0.07476462  1
  O  O24  1  0.56108264  0.78080851  0.41196229  1
  O  O25  1  0.47310304  0.87574979  0.71717405  1
  O  O26  1  0.72724809  0.91678228  0.08970326  1
  O  O27  1  0.79962681  0.43966038  0.52008242  1
  O  O28  1  0.98042114  0.19355960  0.38209151  1
  O  O29  1  0.91163570  0.10192240  0.71901738  1
  O  O30  1  0.71939119  0.49319720  0.86972869  1
  O  O31  1  0.62447341  0.98370100  0.80422768  1
  O  O32  1  0.86400802  0.72608236  0.47975221  1
  O  O33  1  0.81088856  0.61953691  0.00092159  1
  O  O34  1  0.99195962  0.80145357  0.62225142  1
