# generated using pymatgen
data_GdPH5CO7
_symmetry_space_group_name_H-M   'P 1'
_cell_length_a   6.60790344
_cell_length_b   7.00049576
_cell_length_c   7.83768556
_cell_angle_alpha   111.67063009
_cell_angle_beta   96.28162349
_cell_angle_gamma   90.37917651
_symmetry_Int_Tables_number   1
_chemical_formula_structural   GdPH5CO7
_chemical_formula_sum   'Gd2 P2 H10 C2 O14'
_cell_volume   334.47819861
_cell_formula_units_Z   2
loop_
 _symmetry_equiv_pos_site_id
 _symmetry_equiv_pos_as_xyz
  1  'x, y, z'
loop_
 _atom_site_type_symbol
 _atom_site_label
 _atom_site_symmetry_multiplicity
 _atom_site_fract_x
 _atom_site_fract_y
 _atom_site_fract_z
 _atom_site_occupancy
  Gd  Gd0  1  0.12706548  0.22160025  0.93381880  1
  Gd  Gd1  1  0.87293452  0.77839975  0.06618120  1
  P  P2  1  0.67316546  0.25102445  0.01899230  1
  P  P3  1  0.32683454  0.74897555  0.98100770  1
  H  H4  1  0.48325256  0.88091050  0.59194903  1
  H  H5  1  0.71960201  0.67251949  0.64771513  1
  H  H6  1  0.52461018  0.74173775  0.39335355  1
  H  H7  1  0.51674744  0.11908950  0.40805097  1
  H  H8  1  0.28039799  0.32748051  0.35228487  1
  H  H9  1  0.83505071  0.47853021  0.67790708  1
  H  H10  1  0.47538982  0.25826225  0.60664645  1
  H  H11  1  0.62766470  0.29234642  0.19994024  1
  H  H12  1  0.16494929  0.52146979  0.32209292  1
  H  H13  1  0.37233530  0.70765358  0.80005976  1
  C  C14  1  0.94011931  0.09316865  0.49772660  1
  C  C15  1  0.05988069  0.90683135  0.50227340  1
  O  O16  1  0.15471730  0.91953036  0.65495786  1
  O  O17  1  0.58763164  0.79965783  0.52185719  1
  O  O18  1  0.80304867  0.05766624  0.96230737  1
  O  O19  1  0.41236836  0.20034217  0.47814281  1
  O  O20  1  0.18114263  0.57219318  0.97519317  1
  O  O21  1  0.21492917  0.38193185  0.26021285  1
  O  O22  1  0.81885737  0.42780682  0.02480683  1
  O  O23  1  0.05348270  0.75447256  0.34960150  1
  O  O24  1  0.47187401  0.22344954  0.89418097  1
  O  O25  1  0.52812599  0.77655046  0.10581903  1
  O  O26  1  0.19695133  0.94233376  0.03769263  1
  O  O27  1  0.78507083  0.61806815  0.73978715  1
  O  O28  1  0.94651730  0.24552744  0.65039850  1
  O  O29  1  0.84528270  0.08046964  0.34504214  1
