# generated using pymatgen
data_LiFeSiO4
_symmetry_space_group_name_H-M   'P 1'
_cell_length_a   10.37698493
_cell_length_b   6.74364039
_cell_length_c   5.08696173
_cell_angle_alpha   90.00000000
_cell_angle_beta   90.00000000
_cell_angle_gamma   90.00000000
_symmetry_Int_Tables_number   1
_chemical_formula_structural   LiFeSiO4
_chemical_formula_sum   'Li4 Fe4 Si4 O16'
_cell_volume   355.97873838
_cell_formula_units_Z   4
loop_
 _symmetry_equiv_pos_site_id
 _symmetry_equiv_pos_as_xyz
  1  'x, y, z'
loop_
 _atom_site_type_symbol
 _atom_site_label
 _atom_site_symmetry_multiplicity
 _atom_site_fract_x
 _atom_site_fract_y
 _atom_site_fract_z
 _atom_site_occupancy
  Li  Li0  1  0.15669740  0.71283353  0.68406164  1
  Li  Li1  1  0.34330260  0.21283353  0.18406164  1
  Li  Li2  1  0.65669740  0.71283353  0.81593836  1
  Li  Li3  1  0.84330260  0.21283353  0.31593836  1
  Fe  Fe4  1  0.15954480  0.21409789  0.68311088  1
  Fe  Fe5  1  0.34045520  0.71409789  0.18311088  1
  Fe  Fe6  1  0.65954480  0.21409789  0.81688912  1
  Fe  Fe7  1  0.84045520  0.71409789  0.31688912  1
  Si  Si8  1  0.09188164  0.96305753  0.18258602  1
  Si  Si9  1  0.40811836  0.46305753  0.68258602  1
  Si  Si10  1  0.59188164  0.96305753  0.31741398  1
  Si  Si11  1  0.90811836  0.46305753  0.81741398  1
  O  O12  1  0.06189810  0.45020448  0.74264684  1
  O  O13  1  0.11366824  0.97604771  0.86118765  1
  O  O14  1  0.15974192  0.16040990  0.31566459  1
  O  O15  1  0.16783828  0.76517296  0.29455111  1
  O  O16  1  0.33216172  0.26517296  0.79455111  1
  O  O17  1  0.34025808  0.66040990  0.81566459  1
  O  O18  1  0.38633176  0.47604771  0.36118765  1
  O  O19  1  0.43810190  0.95020448  0.24264684  1
  O  O20  1  0.56189810  0.45020448  0.75735316  1
  O  O21  1  0.61366824  0.97604771  0.63881235  1
  O  O22  1  0.65974192  0.16040990  0.18433541  1
  O  O23  1  0.66783828  0.76517296  0.20544889  1
  O  O24  1  0.83216172  0.26517296  0.70544889  1
  O  O25  1  0.84025808  0.66040990  0.68433541  1
  O  O26  1  0.88633176  0.47604771  0.13881235  1
  O  O27  1  0.93810190  0.95020448  0.25735316  1
