# generated using pymatgen
data_LiMn3Al2(HO2)6
_symmetry_space_group_name_H-M   'P 1'
_cell_length_a   5.88321524
_cell_length_b   10.14475064
_cell_length_c   7.95033354
_cell_angle_alpha   103.60762790
_cell_angle_beta   79.08360162
_cell_angle_gamma   107.01425372
_symmetry_Int_Tables_number   1
_chemical_formula_structural   LiMn3Al2(HO2)6
_chemical_formula_sum   'Li2 Mn6 Al4 H12 O24'
_cell_volume   437.27650002
_cell_formula_units_Z   2
loop_
 _symmetry_equiv_pos_site_id
 _symmetry_equiv_pos_as_xyz
  1  'x, y, z'
loop_
 _atom_site_type_symbol
 _atom_site_label
 _atom_site_symmetry_multiplicity
 _atom_site_fract_x
 _atom_site_fract_y
 _atom_site_fract_z
 _atom_site_occupancy
  Li  Li0  1  0.84219039  0.50017104  0.65450345  1
  Li  Li1  1  0.15779205  0.49979561  0.34550310  1
  Mn  Mn2  1  0.33564424  0.00632132  0.66457356  1
  Mn  Mn3  1  0.83541193  0.00648742  0.66477194  1
  Mn  Mn4  1  0.16458648  0.99350817  0.33522771  1
  Mn  Mn5  1  0.66435305  0.99366803  0.33542666  1
  Mn  Mn6  1  0.99998883  0.99998418  -0.00000730  1
  Mn  Mn7  1  0.49999268  0.99998270  -0.00000291  1
  Al  Al8  1  0.33052590  0.49882710  0.65994115  1
  Al  Al9  1  0.99999122  0.49998362  0.00000198  1
  Al  Al10  1  0.66945683  0.50114027  0.34006345  1
  Al  Al11  1  0.49999141  0.49998252  0.00000116  1
  H  H12  1  0.18405025  0.28807223  0.83635482  1
  H  H13  1  0.15776759  0.70431355  0.83026553  1
  H  H14  1  0.68725746  0.29577186  0.84912297  1
  H  H15  1  0.03806253  0.29087433  0.51723513  1
  H  H16  1  0.62880245  0.69914805  0.82571614  1
  H  H17  1  0.50807269  0.29149811  0.50043626  1
  H  H18  1  0.49192319  0.70847153  0.49956775  1
  H  H19  1  0.37118578  0.30081793  0.17427217  1
  H  H20  1  0.31273998  0.70419975  0.15086493  1
  H  H21  1  0.96192711  0.70908865  0.48277472  1
  H  H22  1  0.84220923  0.29565044  0.16973549  1
  H  H23  1  0.81591644  0.71189957  0.16364317  1
  O  O24  1  0.23127738  0.39330237  0.86917930  1
  O  O25  1  0.11029638  0.11435999  0.78058625  1
  O  O26  1  0.11518265  0.60148751  0.81150624  1
  O  O27  1  0.23405885  0.90339257  0.85401429  1
  O  O28  1  0.60890271  0.11281282  0.78154908  1
  O  O29  1  0.07796637  0.39286036  0.54623321  1
  O  O30  1  0.72883687  0.39925493  0.88382683  1
  O  O31  1  0.57968919  0.59650707  0.80848736  1
  O  O32  1  0.73517823  0.90426500  0.85618137  1
  O  O33  1  0.06519519  0.90016648  0.53539971  1
  O  O34  1  0.43544980  0.10133202  0.46424527  1
  O  O35  1  0.54985850  0.39444702  0.52046021  1
  O  O36  1  0.45012387  0.60552322  0.47954221  1
  O  O37  1  0.56455182  0.89865256  0.53575031  1
  O  O38  1  0.93480283  0.09982157  0.46459202  1
  O  O39  1  0.42029706  0.40346362  0.19151489  1
  O  O40  1  0.26480840  0.09572144  0.14381110  1
  O  O41  1  0.39110635  0.88718172  0.21843698  1
  O  O42  1  0.92201092  0.60710396  0.45378770  1
  O  O43  1  0.27114861  0.60071644  0.11617636  1
  O  O44  1  0.76591867  0.09658912  0.14598776  1
  O  O45  1  0.88479733  0.39847966  0.18849684  1
  O  O46  1  0.76870122  0.60666858  0.13083054  1
  O  O47  1  0.88970211  0.88562903  0.21941013  1
