# generated using pymatgen
data_Li4Nb2V3Fe3O16
_symmetry_space_group_name_H-M   'P 1'
_cell_length_a   6.00308558
_cell_length_b   6.02403696
_cell_length_c   9.78548992
_cell_angle_alpha   90.04368946
_cell_angle_beta   89.73140126
_cell_angle_gamma   119.39293772
_symmetry_Int_Tables_number   1
_chemical_formula_structural   Li4Nb2V3Fe3O16
_chemical_formula_sum   'Li4 Nb2 V3 Fe3 O16'
_cell_volume   308.31467583
_cell_formula_units_Z   1
loop_
 _symmetry_equiv_pos_site_id
 _symmetry_equiv_pos_as_xyz
  1  'x, y, z'
loop_
 _atom_site_type_symbol
 _atom_site_label
 _atom_site_symmetry_multiplicity
 _atom_site_fract_x
 _atom_site_fract_y
 _atom_site_fract_z
 _atom_site_occupancy
  Li  Li0  1  0.34341752  0.66946999  0.90025032  1
  Li  Li1  1  0.98993662  0.99537597  0.99035798  1
  Li  Li2  1  0.98981912  0.99794511  0.49088896  1
  Li  Li3  1  0.67505576  0.33887909  0.39944290  1
  Nb  Nb4  1  0.32423834  0.65921572  0.49678628  1
  Nb  Nb5  1  0.66071736  0.32818883  0.99758484  1
  V  V6  1  0.64897810  0.82428424  0.22293195  1
  V  V7  1  0.82489540  0.65475788  0.71531893  1
  V  V8  1  0.82072573  0.17360013  0.72234531  1
  Fe  Fe9  1  0.16731485  0.82576470  0.21500826  1
  Fe  Fe10  1  0.17081736  0.34032551  0.21390448  1
  Fe  Fe11  1  0.33940410  0.16725997  0.71370561  1
  O  O12  1  0.15811396  0.82954629  0.58987829  1
  O  O13  1  0.04553822  0.53337016  0.34302048  1
  O  O14  1  0.36763657  0.69434547  0.10749270  1
  O  O15  1  0.97658811  0.97995295  0.30138269  1
  O  O16  1  0.97822178  0.99919680  0.80096840  1
  O  O17  1  0.15787250  0.33594984  0.58719436  1
  O  O18  1  0.48692483  0.96668011  0.33924768  1
  O  O19  1  0.50082703  0.54039680  0.34904663  1
  O  O20  1  0.32857461  0.15664691  0.08889182  1
  O  O21  1  0.65510717  0.83588127  0.59535143  1
  O  O22  1  0.53382869  0.48693325  0.84486877  1
  O  O23  1  0.53799686  0.04017954  0.84768931  1
  O  O24  1  0.69391309  0.33169294  0.60585529  1
  O  O25  1  0.83436460  0.66180984  0.09424108  1
  O  O26  1  0.96683168  0.47111758  0.84272392  1
  O  O27  1  0.82233904  0.16153012  0.09145931  1
