# generated using pymatgen
data_V3(O2F)2
_symmetry_space_group_name_H-M   'P 1'
_cell_length_a   4.67009772
_cell_length_b   13.95102993
_cell_length_c   3.08308016
_cell_angle_alpha   89.99954521
_cell_angle_beta   90.00181814
_cell_angle_gamma   89.96721647
_symmetry_Int_Tables_number   1
_chemical_formula_structural   V3(O2F)2
_chemical_formula_sum   'V6 O8 F4'
_cell_volume   200.87088055
_cell_formula_units_Z   2
loop_
 _symmetry_equiv_pos_site_id
 _symmetry_equiv_pos_as_xyz
  1  'x, y, z'
loop_
 _atom_site_type_symbol
 _atom_site_label
 _atom_site_symmetry_multiplicity
 _atom_site_fract_x
 _atom_site_fract_y
 _atom_site_fract_z
 _atom_site_occupancy
  V  V0  1  0.94642577  0.00777222  0.99999061  1
  V  V1  1  0.99888081  0.33280710  0.00000940  1
  V  V2  1  0.05627106  0.66006531  0.00000494  1
  V  V3  1  0.44342112  0.15997249  0.49999632  1
  V  V4  1  0.55356926  0.50797645  0.50001085  1
  V  V5  1  0.50045844  0.83293700  0.50000537  1
  O  O6  1  0.18362614  0.26819920  0.49999409  1
  O  O7  1  0.24530202  0.59457027  0.49998290  1
  O  O8  1  0.31756774  0.76792141  -0.00000189  1
  O  O9  1  0.25446360  0.09462693  0.00000565  1
  O  O10  1  0.72893902  0.56663868  0.00000267  1
  O  O11  1  0.69589921  0.90358978  0.00000322  1
  O  O12  1  0.77119791  0.06678801  0.49999644  1
  O  O13  1  0.80396599  0.40343288  0.49999822  1
  F  F14  1  0.17175502  0.93612776  0.50000309  1
  F  F15  1  0.32834099  0.43596100  0.99999584  1
  F  F16  1  0.67167792  0.23038840  0.99999501  1
  F  F17  1  0.82823998  0.73022312  0.50000828  1
