# generated using pymatgen
data_LiP2WO7
_symmetry_space_group_name_H-M   'P 1'
_cell_length_a   7.16093572
_cell_length_b   8.62447070
_cell_length_c   4.99063417
_cell_angle_alpha   90.00000000
_cell_angle_beta   70.64829921
_cell_angle_gamma   90.00000000
_symmetry_Int_Tables_number   1
_chemical_formula_structural   LiP2WO7
_chemical_formula_sum   'Li2 P4 W2 O14'
_cell_volume   290.80437626
_cell_formula_units_Z   2
loop_
 _symmetry_equiv_pos_site_id
 _symmetry_equiv_pos_as_xyz
  1  'x, y, z'
loop_
 _atom_site_type_symbol
 _atom_site_label
 _atom_site_symmetry_multiplicity
 _atom_site_fract_x
 _atom_site_fract_y
 _atom_site_fract_z
 _atom_site_occupancy
  Li  Li0  1  0.32447717  0.61200646  0.19992820  1
  Li  Li1  1  0.67552283  0.11200646  0.80007180  1
  P  P2  1  0.07945659  0.03835321  0.79479065  1
  P  P3  1  0.53038695  0.43317351  0.59733355  1
  P  P4  1  0.46961305  0.93317351  0.40266645  1
  P  P5  1  0.92054341  0.53835321  0.20520935  1
  W  W6  1  0.27342594  0.25263167  0.21372719  1
  W  W7  1  0.72657406  0.75263167  0.78627281  1
  O  O8  1  0.07715730  0.18556465  0.62482579  1
  O  O9  1  0.24018558  0.91450343  0.59676516  1
  O  O10  1  0.11814356  0.45385467  0.13847468  1
  O  O11  1  0.13317982  0.06936516  0.06002708  1
  O  O12  1  0.49471866  0.29033976  0.79178916  1
  O  O13  1  0.50580456  0.58596180  0.76313999  1
  O  O14  1  0.40472646  0.43509068  0.40100860  1
  O  O15  1  0.59527354  0.93509068  0.59899140  1
  O  O16  1  0.49419544  0.08596180  0.23686001  1
  O  O17  1  0.50528134  0.79033976  0.20821084  1
  O  O18  1  0.86682018  0.56936516  0.93997292  1
  O  O19  1  0.88185644  0.95385467  0.86152532  1
  O  O20  1  0.75981442  0.41450343  0.40323484  1
  O  O21  1  0.92284270  0.68556465  0.37517421  1
