# generated using pymatgen
data_Li2Zr7Fe(PO4)12
_symmetry_space_group_name_H-M   'P 1'
_cell_length_a   9.00242332
_cell_length_b   9.05131797
_cell_length_c   12.57775009
_cell_angle_alpha   89.89827183
_cell_angle_beta   90.06433872
_cell_angle_gamma   89.91213590
_symmetry_Int_Tables_number   1
_chemical_formula_structural   Li2Zr7Fe(PO4)12
_chemical_formula_sum   'Li2 Zr7 Fe1 P12 O48'
_cell_volume   1024.87935229
_cell_formula_units_Z   1
loop_
 _symmetry_equiv_pos_site_id
 _symmetry_equiv_pos_as_xyz
  1  'x, y, z'
loop_
 _atom_site_type_symbol
 _atom_site_label
 _atom_site_symmetry_multiplicity
 _atom_site_fract_x
 _atom_site_fract_y
 _atom_site_fract_z
 _atom_site_occupancy
  Li  Li0  1  0.71495214  0.77251105  0.67671282  1
  Li  Li1  1  0.78416796  0.28075056  0.81395276  1
  Zr  Zr2  1  0.24813246  0.53631896  0.38150995  1
  Zr  Zr3  1  0.25104415  0.03614830  0.11856393  1
  Zr  Zr4  1  0.25046280  0.96495577  0.62270168  1
  Zr  Zr5  1  0.24846844  0.46796475  0.87721703  1
  Zr  Zr6  1  0.74967202  0.53473908  0.12106880  1
  Zr  Zr7  1  0.74743989  0.95900557  0.88615578  1
  Zr  Zr8  1  0.75005881  0.03427128  0.37853070  1
  Fe  Fe9  1  0.75142290  0.46016150  0.61235010  1
  P  P10  1  0.03284449  0.25283321  0.50436732  1
  P  P11  1  0.10174972  0.10991305  0.85591351  1
  P  P12  1  0.10985925  0.39528304  0.14221730  1
  P  P13  1  0.38965191  0.89531295  0.35758642  1
  P  P14  1  0.40521480  0.60808268  0.64304197  1
  P  P15  1  0.46057005  0.75004455  0.00146840  1
  P  P16  1  0.53880862  0.25099284  0.99665096  1
  P  P17  1  0.61154471  0.10710901  0.64514362  1
  P  P18  1  0.61123751  0.39548503  0.35941218  1
  P  P19  1  0.89575692  0.89162094  0.14479711  1
  P  P20  1  0.88395812  0.59913985  0.84835206  1
  P  P21  1  0.96061515  0.74627064  0.50515404  1
  O  O22  1  0.05545671  0.64479698  0.43480436  1
  O  O23  1  0.06131242  0.84253058  0.57671133  1
  O  O24  1  0.06470790  0.90819442  0.15354419  1
  O  O25  1  0.05488812  0.59057702  0.84108158  1
  O  O26  1  0.13341479  0.34862535  0.43365749  1
  O  O27  1  0.16209367  0.43980058  0.03042631  1
  O  O28  1  0.15352750  0.06443242  0.96754506  1
  O  O29  1  0.12980843  0.15263187  0.57509995  1
  O  O30  1  0.15416053  0.23398338  0.16556731  1
  O  O31  1  0.14929149  0.27004240  0.83141578  1
  O  O32  1  0.18037310  0.49783763  0.22635252  1
  O  O33  1  0.16856923  0.00182775  0.77429845  1
  O  O34  1  0.32247903  0.00091322  0.27412394  1
  O  O35  1  0.33785387  0.50230354  0.72615543  1
  O  O36  1  0.36191897  0.77045234  0.66677440  1
  O  O37  1  0.34511229  0.73426802  0.33456424  1
  O  O38  1  0.34677338  0.56405052  0.53271246  1
  O  O39  1  0.36014428  0.84326028  0.07285094  1
  O  O40  1  0.33472591  0.93939677  0.46887734  1
  O  O41  1  0.36344037  0.65488628  0.92805048  1
  O  O42  1  0.44100489  0.09607855  0.65321671  1
  O  O43  1  0.44045031  0.41080185  0.35381796  1
  O  O44  1  0.44510208  0.14414837  0.06327193  1
  O  O45  1  0.43821053  0.34960863  0.92711060  1
  O  O46  1  0.56082286  0.65246456  0.07172509  1
  O  O47  1  0.55837594  0.85108643  0.93065924  1
  O  O48  1  0.57748629  0.59796854  0.64851830  1
  O  O49  1  0.56040027  0.90883526  0.35170679  1
  O  O50  1  0.63518230  0.34643922  0.07074500  1
  O  O51  1  0.66490090  0.43401216  0.47148699  1
  O  O52  1  0.66274470  0.06747734  0.53260131  1
  O  O53  1  0.64624462  0.16623347  0.92029781  1
  O  O54  1  0.66712620  0.26271706  0.67697261  1
  O  O55  1  0.65355640  0.23444993  0.33336718  1
  O  O56  1  0.68093082  0.50152195  0.27714053  1
  O  O57  1  0.68042475  0.98908060  0.72285861  1
  O  O58  1  0.82131914  0.99786522  0.22396757  1
  O  O59  1  0.81644927  0.48639736  0.76892633  1
  O  O60  1  0.85125499  0.73062202  0.16739925  1
  O  O61  1  0.83104825  0.75857890  0.81709155  1
  O  O62  1  0.84307069  0.93164789  0.03055860  1
  O  O63  1  0.83056179  0.56113259  0.96108957  1
  O  O64  1  0.85312535  0.65927184  0.57846617  1
  O  O65  1  0.86386812  0.84628443  0.43345409  1
  O  O66  1  0.93940088  0.41038181  0.14933119  1
  O  O67  1  0.92873327  0.10472328  0.84720104  1
  O  O68  1  0.93469488  0.15683235  0.43096471  1
  O  O69  1  0.93588066  0.35068445  0.57583627  1
