# generated using pymatgen
data_Li8V3P8O29
_symmetry_space_group_name_H-M   'P 1'
_cell_length_a   9.87640850
_cell_length_b   9.90216192
_cell_length_c   13.83084067
_cell_angle_alpha   90.32300851
_cell_angle_beta   89.70279966
_cell_angle_gamma   59.95457676
_symmetry_Int_Tables_number   1
_chemical_formula_structural   Li8V3P8O29
_chemical_formula_sum   'Li16 V6 P16 O58'
_cell_volume   1170.80297811
_cell_formula_units_Z   2
loop_
 _symmetry_equiv_pos_site_id
 _symmetry_equiv_pos_as_xyz
  1  'x, y, z'
loop_
 _atom_site_type_symbol
 _atom_site_label
 _atom_site_symmetry_multiplicity
 _atom_site_fract_x
 _atom_site_fract_y
 _atom_site_fract_z
 _atom_site_occupancy
  Li  Li0  1  0.90237284  0.76332502  0.06234354  1
  Li  Li1  1  0.76362303  0.90373462  0.56679485  1
  Li  Li2  1  0.90851247  0.32680194  0.56469286  1
  Li  Li3  1  0.66778215  0.66849380  0.38239714  1
  Li  Li4  1  0.66880563  0.66521017  0.87913956  1
  Li  Li5  1  0.76537763  0.33161183  0.06368744  1
  Li  Li6  1  0.32575400  0.90408276  0.06146678  1
  Li  Li7  1  0.66202596  0.23590884  0.43979907  1
  Li  Li8  1  0.32843325  0.76504718  0.56452946  1
  Li  Li9  1  0.22741778  0.67575424  0.93500011  1
  Li  Li10  1  0.34167516  0.32678665  0.11514733  1
  Li  Li11  1  0.10131397  0.66289453  0.43931548  1
  Li  Li12  1  0.23700991  0.10315708  0.43863053  1
  Li  Li13  1  0.09567707  0.23465896  0.93641051  1
  Li  Li14  1  0.93384663  0.01827033  0.98966188  1
  Li  Li15  1  0.99007525  0.00338110  0.50296480  1
  V  V16  1  0.56494586  0.43463380  0.25099132  1
  V  V17  1  0.43729989  0.56340150  0.74925786  1
  V  V18  1  0.56250106  0.00475767  0.75285984  1
  V  V19  1  0.43686036  0.99957036  0.24859820  1
  V  V20  1  0.00077964  0.56536274  0.25004427  1
  V  V21  1  0.00104853  0.43633651  0.74616674  1
  P  P22  1  0.90534224  0.77744620  0.84234653  1
  P  P23  1  0.77234617  0.91256527  0.34767403  1
  P  P24  1  0.91003447  0.31730151  0.34494685  1
  P  P25  1  0.66938266  0.66489297  0.12378370  1
  P  P26  1  0.66706094  0.66934775  0.62588566  1
  P  P27  1  0.77834896  0.31524145  0.84544989  1
  P  P28  1  0.69191984  0.22307723  0.65920575  1
  P  P29  1  0.31487259  0.91154272  0.84245870  1
  P  P30  1  0.69261615  0.08534527  0.15897234  1
  P  P31  1  0.31591445  0.77421508  0.34259199  1
  P  P32  1  0.22887752  0.68023007  0.15433192  1
  P  P33  1  0.33221116  0.33450726  0.37481821  1
  P  P34  1  0.32863329  0.33384906  0.87312530  1
  P  P35  1  0.08640848  0.68889827  0.65623556  1
  P  P36  1  0.22899804  0.08369604  0.65545378  1
  P  P37  1  0.09067963  0.22775715  0.15613298  1
  O  O38  1  0.99768898  0.78161597  0.56720052  1
  O  O39  1  0.91955843  0.75154019  0.34575585  1
  O  O40  1  0.79625020  0.98600188  0.07817094  1
  O  O41  1  0.74062985  0.92012654  0.84212135  1
  O  O42  1  0.89263447  0.62953470  0.83246898  1
  O  O43  1  0.81141872  0.67322274  0.16424076  1
  O  O44  1  0.88939629  0.48151728  0.33368312  1
  O  O45  1  0.99889991  0.23188119  0.06840145  1
  O  O46  1  0.92394410  0.33365111  0.84039076  1
  O  O47  1  0.67534998  0.81326748  0.66960075  1
  O  O48  1  0.62534907  0.89431039  0.33254852  1
  O  O49  1  0.80975540  0.51473800  0.66176833  1
  O  O50  1  0.66702247  0.67008411  0.01533606  1
  O  O51  1  0.67035538  0.67687643  0.51642828  1
  O  O52  1  0.67094566  0.51650865  0.16180827  1
  O  O53  1  0.48075947  0.89099570  0.82863134  1
  O  O54  1  0.51479711  0.81576607  0.16632408  1
  O  O55  1  0.74912603  0.32918468  0.34620441  1
  O  O56  1  0.79443584  0.20614620  0.75348520  1
  O  O57  1  0.78877933  0.21293337  0.56934252  1
  O  O58  1  0.78307699  0.22907768  0.93630767  1
  O  O59  1  0.63142424  0.47742581  0.83428371  1
  O  O60  1  0.51281091  0.67884839  0.66207005  1
  O  O61  1  0.66966556  0.25007927  0.15701987  1
  O  O62  1  0.48155834  0.63123231  0.33326796  1
  O  O63  1  0.32963620  0.92356151  0.34145951  1
  O  O64  1  0.78167567  0.01036088  0.25898997  1
  O  O65  1  0.76577157  0.00246225  0.43836138  1
  O  O66  1  0.22282377  0.99522100  0.56628065  1
  O  O67  1  0.67017995  0.07900541  0.66016422  1
  O  O68  1  0.53712731  0.37446572  0.66675710  1
  O  O69  1  0.32972104  0.74988080  0.84415625  1
  O  O70  1  0.48535908  0.32640664  0.33738230  1
  O  O71  1  0.37207246  0.51559811  0.16675038  1
  O  O72  1  0.23700877  0.76573342  0.06611583  1
  O  O73  1  0.22562022  0.77273112  0.43098307  1
  O  O74  1  0.21645695  0.78470881  0.24848322  1
  O  O75  1  0.25035435  0.66872015  0.65686031  1
  O  O76  1  0.47509675  0.18554092  0.82466623  1
  O  O77  1  0.52875549  0.09716250  0.16631604  1
  O  O78  1  0.33061193  0.48220088  0.83994693  1
  O  O79  1  0.33148558  0.32071347  0.98165555  1
  O  O80  1  0.32487275  0.32693798  0.48236633  1
  O  O81  1  0.18890071  0.48363806  0.33366072  1
  O  O82  1  0.38500943  0.08036329  0.66512979  1
  O  O83  1  0.33286970  0.18274195  0.32753030  1
  O  O84  1  0.07884638  0.67054649  0.15525179  1
  O  O85  1  0.99741023  0.79408490  0.75076987  1
  O  O86  1  0.99484682  0.77868891  0.93194252  1
  O  O87  1  0.08953994  0.53406215  0.66535854  1
  O  O88  1  0.18464423  0.32991644  0.83365247  1
  O  O89  1  0.11371567  0.36955012  0.16709773  1
  O  O90  1  0.25399918  0.07755147  0.15678037  1
  O  O91  1  0.23205430  0.00489117  0.93261351  1
  O  O92  1  0.20899618  -0.00038724  0.75058678  1
  O  O93  1  0.08681004  0.24811131  0.65496743  1
  O  O94  1  0.00464415  0.22796134  0.43228175  1
  O  O95  1  0.00079380  0.21476298  0.25024067  1
