# generated using pymatgen
data_Li2VF6
_symmetry_space_group_name_H-M   'P 1'
_cell_length_a   9.78624289
_cell_length_b   8.68750754
_cell_length_c   5.05648606
_cell_angle_alpha   90.00000000
_cell_angle_beta   90.00000000
_cell_angle_gamma   90.00000000
_symmetry_Int_Tables_number   1
_chemical_formula_structural   Li2VF6
_chemical_formula_sum   'Li8 V4 F24'
_cell_volume   429.89262965
_cell_formula_units_Z   4
loop_
 _symmetry_equiv_pos_site_id
 _symmetry_equiv_pos_as_xyz
  1  'x, y, z'
loop_
 _atom_site_type_symbol
 _atom_site_label
 _atom_site_symmetry_multiplicity
 _atom_site_fract_x
 _atom_site_fract_y
 _atom_site_fract_z
 _atom_site_occupancy
  Li  Li0  1  0.10481414  0.45281093  0.49410328  1
  Li  Li1  1  0.11313270  0.86575988  0.01516062  1
  Li  Li2  1  0.38686730  0.36575988  0.51516062  1
  Li  Li3  1  0.39518586  0.95281093  0.99410328  1
  Li  Li4  1  0.60481414  0.04718907  0.49410328  1
  Li  Li5  1  0.61313270  0.63424012  0.01516062  1
  Li  Li6  1  0.88686730  0.13424012  0.51516062  1
  Li  Li7  1  0.89518586  0.54718907  0.99410328  1
  V  V8  1  0.13115602  0.23753576  0.99872166  1
  V  V9  1  0.36884398  0.73753576  0.49872166  1
  V  V10  1  0.63115602  0.26246424  0.99872166  1
  V  V11  1  0.86884398  0.76246424  0.49872166  1
  F  F12  1  0.01221363  0.10104955  0.83810048  1
  F  F13  1  0.01666672  0.25456701  0.30949933  1
  F  F14  1  0.02775367  0.40528647  0.84384470  1
  F  F15  1  0.22682884  0.06086295  0.11784234  1
  F  F16  1  0.24440857  0.24713569  0.70041311  1
  F  F17  1  0.25960683  0.87233689  0.68747748  1
  F  F18  1  0.24039317  0.37233689  0.18747748  1
  F  F19  1  0.25559143  0.74713569  0.20041311  1
  F  F20  1  0.27317116  0.56086295  0.61784134  1
  F  F21  1  0.47224633  0.90528647  0.34384470  1
  F  F22  1  0.48333328  0.75456701  0.80949933  1
  F  F23  1  0.48778637  0.60104955  0.33810048  1
  F  F24  1  0.51221363  0.39895045  0.83810048  1
  F  F25  1  0.51666672  0.24543299  0.30949933  1
  F  F26  1  0.52775367  0.09471353  0.84384470  1
  F  F27  1  0.72682884  0.43913705  0.11784234  1
  F  F28  1  0.74440857  0.25286431  0.70041311  1
  F  F29  1  0.75960683  0.62766311  0.68747748  1
  F  F30  1  0.74039317  0.12766311  0.18747748  1
  F  F31  1  0.75559143  0.75286431  0.20041311  1
  F  F32  1  0.77317116  0.93913705  0.61784134  1
  F  F33  1  0.97224633  0.59471353  0.34384470  1
  F  F34  1  0.98333328  0.74543299  0.80949933  1
  F  F35  1  0.98778637  0.89895045  0.33810048  1
