# generated using pymatgen
data_ZnH2(CO2)2
_symmetry_space_group_name_H-M   'P 1'
_cell_length_a   10.07461536
_cell_length_b   11.52695934
_cell_length_c   14.76759389
_cell_angle_alpha   91.34352769
_cell_angle_beta   90.00000000
_cell_angle_gamma   90.00000000
_symmetry_Int_Tables_number   1
_chemical_formula_structural   ZnH2(CO2)2
_chemical_formula_sum   'Zn12 H24 C24 O48'
_cell_volume   1714.48450987
_cell_formula_units_Z   12
loop_
 _symmetry_equiv_pos_site_id
 _symmetry_equiv_pos_as_xyz
  1  'x, y, z'
loop_
 _atom_site_type_symbol
 _atom_site_label
 _atom_site_symmetry_multiplicity
 _atom_site_fract_x
 _atom_site_fract_y
 _atom_site_fract_z
 _atom_site_occupancy
  Zn  Zn0  1  0.42360793  0.25643337  0.63168100  1
  Zn  Zn1  1  0.57639207  0.74356663  0.36831900  1
  Zn  Zn2  1  0.11085390  0.25870327  0.68787396  1
  Zn  Zn3  1  0.07639207  0.75643337  0.13168100  1
  Zn  Zn4  1  0.88914610  0.74129673  0.31212604  1
  Zn  Zn5  1  0.00000000  0.00000000  0.00000000  1
  Zn  Zn6  1  0.50000000  0.00000000  0.50000000  1
  Zn  Zn7  1  0.61085390  0.24129673  0.81212604  1
  Zn  Zn8  1  0.38914610  0.75870327  0.18787396  1
  Zn  Zn9  1  0.92360793  0.24356663  0.86831900  1
  Zn  Zn10  1  0.00000000  0.50000000  0.00000000  1
  Zn  Zn11  1  0.50000000  0.50000000  0.50000000  1
  H  H12  1  0.79615548  0.50113119  0.49418162  1
  H  H13  1  0.20384452  0.49886881  0.50581838  1
  H  H14  1  0.03932613  0.52688881  0.72705113  1
  H  H15  1  0.75037714  0.63771537  0.12782399  1
  H  H16  1  0.30183093  0.51424462  0.26163982  1
  H  H17  1  0.83359808  0.69077427  0.92350789  1
  H  H18  1  0.10645934  0.06470085  0.53679024  1
  H  H19  1  0.19816907  0.01424462  0.76163982  1
  H  H20  1  0.74962286  0.13771537  0.62782399  1
  H  H21  1  0.46067387  0.02688881  0.22705113  1
  H  H22  1  0.66640192  0.19077427  0.42350789  1
  H  H23  1  0.16640192  0.30922573  0.07649211  1
  H  H24  1  0.70384452  0.00113119  0.99418162  1
  H  H25  1  0.80183093  0.98575538  0.23836018  1
  H  H26  1  0.25037714  0.86228463  0.37217601  1
  H  H27  1  0.60645934  0.43529915  0.96320976  1
  H  H28  1  0.29615548  0.99886881  0.00581838  1
  H  H29  1  0.39354066  0.56470085  0.03679024  1
  H  H30  1  0.24962286  0.36228463  0.87217601  1
  H  H31  1  0.53932613  0.97311119  0.77294887  1
  H  H32  1  0.33359808  0.80922573  0.57649211  1
  H  H33  1  0.96067387  0.47311119  0.27294887  1
  H  H34  1  0.69816907  0.48575538  0.73836018  1
  H  H35  1  0.89354066  0.93529915  0.46320976  1
  C  C36  1  0.66878478  0.67176906  0.17079469  1
  C  C37  1  0.48440347  0.98079907  0.28999914  1
  C  C38  1  0.83121522  0.17176906  0.67079469  1
  C  C39  1  0.28560281  0.57801985  0.04681843  1
  C  C40  1  0.22208246  0.42780332  0.55306039  1
  C  C41  1  0.98440347  0.51920093  0.21000086  1
  C  C42  1  0.60342822  0.24432587  0.46917457  1
  C  C43  1  0.78560281  0.92198015  0.45318157  1
  C  C44  1  0.21439719  0.07801985  0.54681843  1
  C  C45  1  0.01559653  0.48079907  0.78999914  1
  C  C46  1  0.71439719  0.42198015  0.95318157  1
  C  C47  1  0.16878478  0.82823094  0.32920531  1
  C  C48  1  0.12834836  0.04510107  0.81504049  1
  C  C49  1  0.62834836  0.45489893  0.68495951  1
  C  C50  1  0.72208246  0.07219668  0.94693961  1
  C  C51  1  0.27791754  0.92780332  0.05306039  1
  C  C52  1  0.10342822  0.25567413  0.03082543  1
  C  C53  1  0.77791754  0.57219668  0.44693961  1
  C  C54  1  0.51559653  0.01920093  0.71000086  1
  C  C55  1  0.89657178  0.74432587  0.96917457  1
  C  C56  1  0.37165164  0.54510107  0.31504049  1
  C  C57  1  0.33121522  0.32823094  0.82920531  1
  C  C58  1  0.87165164  0.95489893  0.18495951  1
  C  C59  1  0.39657178  0.75567413  0.53082543  1
  O  O60  1  0.08290618  0.14829672  0.80547112  1
  O  O61  1  0.49568767  0.95994625  0.63917461  1
  O  O62  1  0.80287405  0.19508268  0.75401173  1
  O  O63  1  0.65590394  0.60350657  0.43851516  1
  O  O64  1  0.41709382  0.64829672  0.30547112  1
  O  O65  1  0.47308481  0.81324208  0.47779862  1
  O  O66  1  0.37682171  0.88643410  0.09282666  1
  O  O67  1  0.05723927  0.81706434  0.36651474  1
  O  O68  1  0.69712595  0.69508268  0.25401173  1
  O  O69  1  0.88664293  0.85212480  0.96574313  1
  O  O70  1  0.00431233  0.45994625  0.13917461  1
  O  O71  1  0.52691519  0.18675792  0.52220138  1
  O  O72  1  0.98927161  0.63054132  0.21741145  1
  O  O73  1  0.55723927  0.68293566  0.13348526  1
  O  O74  1  0.94276073  0.18293566  0.63348526  1
  O  O75  1  0.20748881  0.52015512  0.99749986  1
  O  O76  1  0.10271188  0.97719948  0.87759668  1
  O  O77  1  0.87682171  0.61356590  0.40717334  1
  O  O78  1  0.91709382  0.85170328  0.19452888  1
  O  O79  1  0.19712595  0.80491732  0.24598827  1
  O  O80  1  0.51072839  0.13054132  0.71741145  1
  O  O81  1  0.84409606  0.10350657  0.93851516  1
  O  O82  1  0.48927161  0.86945868  0.28258855  1
  O  O83  1  0.39728812  0.47719948  0.37759668  1
  O  O84  1  0.79251119  0.47984488  0.00250014  1
  O  O85  1  0.24660313  0.15243044  0.60950609  1
  O  O86  1  0.61335707  0.35212480  0.46574313  1
  O  O87  1  0.62317829  0.11356590  0.90717334  1
  O  O88  1  0.60271188  0.52280052  0.62240332  1
  O  O89  1  0.50431233  0.04005375  0.36082539  1
  O  O90  1  0.74660313  0.34756956  0.89049391  1
  O  O91  1  0.25339687  0.65243044  0.10950609  1
  O  O92  1  0.99568767  0.54005375  0.86082539  1
  O  O93  1  0.34409606  0.39649343  0.56148484  1
  O  O94  1  0.12317829  0.38643410  0.59282666  1
  O  O95  1  0.11335707  0.14787520  0.03425687  1
  O  O96  1  0.70748881  0.97984488  0.50250014  1
  O  O97  1  0.44276073  0.31706434  0.86651474  1
  O  O98  1  0.97308481  0.68675792  0.02220138  1
  O  O99  1  0.75339687  0.84756956  0.39049391  1
  O  O100  1  0.38664293  0.64787520  0.53425687  1
  O  O101  1  0.01072839  0.36945868  0.78258855  1
  O  O102  1  0.02691519  0.31324208  0.97779862  1
  O  O103  1  0.29251119  0.02015512  0.49749986  1
  O  O104  1  0.58290618  0.35170328  0.69452888  1
  O  O105  1  0.30287405  0.30491732  0.74598827  1
  O  O106  1  0.89728812  0.02280052  0.12240332  1
  O  O107  1  0.15590394  0.89649343  0.06148484  1
