# generated using pymatgen
data_LiMnPO4F
_symmetry_space_group_name_H-M   'P 1'
_cell_length_a   6.21589460
_cell_length_b   7.31735876
_cell_length_c   9.27058119
_cell_angle_alpha   107.09578758
_cell_angle_beta   109.58764235
_cell_angle_gamma   64.86603187
_symmetry_Int_Tables_number   1
_chemical_formula_structural   LiMnPO4F
_chemical_formula_sum   'Li4 Mn4 P4 O16 F4'
_cell_volume   353.92212000
_cell_formula_units_Z   4
loop_
 _symmetry_equiv_pos_site_id
 _symmetry_equiv_pos_as_xyz
  1  'x, y, z'
loop_
 _atom_site_type_symbol
 _atom_site_label
 _atom_site_symmetry_multiplicity
 _atom_site_fract_x
 _atom_site_fract_y
 _atom_site_fract_z
 _atom_site_occupancy
  Li  Li0  1  0.03587530  0.77822564  0.35378275  1
  Li  Li1  1  0.81701818  0.61879623  0.01592215  1
  Li  Li2  1  0.53968181  0.27822564  0.85378275  1
  Li  Li3  1  0.58010774  0.11879623  0.51592215  1
  Mn  Mn4  1  0.90349948  0.72071015  0.73287120  1
  Mn  Mn5  1  0.63155559  0.55571218  0.37491370  1
  Mn  Mn6  1  0.10866256  0.22071015  0.23287120  1
  Mn  Mn7  1  0.18764593  0.05571218  0.87491370  1
  P  P8  1  0.30620715  0.69201251  0.04552033  1
  P  P9  1  0.43655311  0.60093660  0.65938343  1
  P  P10  1  0.62189372  0.10093660  0.15938243  1
  P  P11  1  0.04730067  0.19201251  0.54552033  1
  O  O12  1  0.23808082  0.92843668  0.05080645  1
  O  O13  1  0.78468922  0.88081389  0.16746643  1
  O  O14  1  0.33557781  0.67576578  0.21553475  1
  O  O15  1  0.19536380  0.74915041  0.71486498  1
  O  O16  1  0.38230690  0.62927070  0.48795672  1
  O  O17  1  0.62613076  0.70185526  0.77030884  1
  O  O18  1  0.07781625  0.63774465  0.93660978  1
  O  O19  1  0.53189799  0.55461744  0.98777599  1
  O  O20  1  0.88428895  0.42843668  0.55080645  1
  O  O21  1  0.50196433  0.38081389  0.66746643  1
  O  O22  1  0.77035077  0.24915041  0.21486498  1
  O  O23  1  0.47637813  0.12927070  0.98795672  1
  O  O24  1  0.44232282  0.20185526  0.27030884  1
  O  O25  1  0.22104788  0.13774465  0.43660978  1
  O  O26  1  0.20419115  0.17576578  0.71553475  1
  O  O27  1  0.90126057  0.05461744  0.48777599  1
  F  F28  1  0.70419996  0.82037816  0.54160831  1
  F  F29  1  0.91037737  0.55169072  0.31215419  1
  F  F30  1  0.01703019  0.32037816  0.04160831  1
  F  F31  1  0.85008610  0.05169072  0.81215419  1
