# generated using pymatgen
data_VFe3Ni2(PO4)6
_symmetry_space_group_name_H-M   'P 1'
_cell_length_a   8.43970760
_cell_length_b   8.59655114
_cell_length_c   8.59655158
_cell_angle_alpha   60.00000129
_cell_angle_beta   59.38331286
_cell_angle_gamma   59.38331578
_symmetry_Int_Tables_number   1
_chemical_formula_structural   VFe3Ni2(PO4)6
_chemical_formula_sum   'V1 Fe3 Ni2 P6 O24'
_cell_volume   436.86701973
_cell_formula_units_Z   1
loop_
 _symmetry_equiv_pos_site_id
 _symmetry_equiv_pos_as_xyz
  1  'x, y, z'
loop_
 _atom_site_type_symbol
 _atom_site_label
 _atom_site_symmetry_multiplicity
 _atom_site_fract_x
 _atom_site_fract_y
 _atom_site_fract_z
 _atom_site_occupancy
  V  V0  1  0.56754676  0.14415075  0.14415075  1
  Fe  Fe1  1  0.06781298  0.64406234  0.64406234  1
  Fe  Fe2  1  0.43551985  0.85482705  0.85482705  1
  Fe  Fe3  1  0.92963968  0.35678644  0.35678644  1
  Ni  Ni4  1  0.00504567  0.99831811  0.99831811  1
  Ni  Ni5  1  0.50420111  0.49859996  0.49859996  1
  P  P6  1  0.24730914  0.25191437  0.54674874  1
  P  P7  1  0.24730914  0.95402775  0.25191437  1
  P  P8  1  0.24730914  0.54674874  0.95402775  1
  P  P9  1  0.74803955  0.45328040  0.04693995  1
  P  P10  1  0.74803955  0.04693995  0.75174011  1
  P  P11  1  0.74803955  0.75174011  0.45328040  1
  O  O12  1  0.06688096  0.10908795  0.32340737  1
  O  O13  1  0.06688096  0.50062372  0.10908795  1
  O  O14  1  0.06688096  0.32340737  0.50062372  1
  O  O15  1  0.22673279  0.09054536  0.74098090  1
  O  O16  1  0.43118252  0.17833279  0.37748616  1
  O  O17  1  0.28696502  0.40742135  0.54802998  1
  O  O18  1  0.22673279  0.94174095  0.09054536  1
  O  O19  1  0.28696502  0.75758465  0.40742135  1
  O  O20  1  0.56398640  0.60707741  0.00431044  1
  O  O21  1  0.28696502  0.54802998  0.75758465  1
  O  O22  1  0.76683292  0.25147194  0.06514304  1
  O  O23  1  0.56398640  0.00431044  0.82462475  1
  O  O24  1  0.43118252  0.01299953  0.17833279  1
  O  O25  1  0.22673279  0.74098090  0.94174095  1
  O  O26  1  0.72372331  0.43497704  0.24579393  1
  O  O27  1  0.43118252  0.37748616  0.01299953  1
  O  O28  1  0.72372331  0.24579393  0.59550472  1
  O  O29  1  0.76683292  0.06514304  0.91655210  1
  O  O30  1  0.72372331  0.59550472  0.43497704  1
  O  O31  1  0.56398640  0.82462475  0.60707741  1
  O  O32  1  0.76683292  0.91655210  0.25147194  1
  O  O33  1  0.93509305  0.69056895  0.48700547  1
  O  O34  1  0.93509305  0.48700547  0.88733353  1
  O  O35  1  0.93509305  0.88733353  0.69056895  1
