# generated using pymatgen
data_LiVOF4
_symmetry_space_group_name_H-M   'P 1'
_cell_length_a   7.82287562
_cell_length_b   5.03805563
_cell_length_c   10.20362017
_cell_angle_alpha   90.58895817
_cell_angle_beta   111.90950244
_cell_angle_gamma   91.80584550
_symmetry_Int_Tables_number   1
_chemical_formula_structural   LiVOF4
_chemical_formula_sum   'Li4 V4 O4 F16'
_cell_volume   372.81005916
_cell_formula_units_Z   4
loop_
 _symmetry_equiv_pos_site_id
 _symmetry_equiv_pos_as_xyz
  1  'x, y, z'
loop_
 _atom_site_type_symbol
 _atom_site_label
 _atom_site_symmetry_multiplicity
 _atom_site_fract_x
 _atom_site_fract_y
 _atom_site_fract_z
 _atom_site_occupancy
  Li  Li0  1  0.36507933  0.96888934  0.68714688  1
  Li  Li1  1  0.34645502  0.56329406  0.19872482  1
  Li  Li2  1  0.87067258  0.01151197  0.63470330  1
  Li  Li3  1  0.86921219  0.47910032  0.13600080  1
  V  V4  1  0.05041784  0.46493644  0.50279448  1
  V  V5  1  0.53582399  0.49296296  0.50804715  1
  V  V6  1  0.45748155  0.03432792  0.00241189  1
  V  V7  1  0.95509372  0.97662774  0.99706580  1
  O  O8  1  0.24797444  0.35202159  0.51102681  1
  O  O9  1  0.27617669  0.15832647  0.01665807  1
  O  O10  1  0.76685914  0.83493823  0.99929112  1
  O  O11  1  0.62166040  0.24002266  0.60712949  1
  F  F12  1  0.03743752  0.34532982  0.66863062  1
  F  F13  1  0.11204646  0.79899543  0.58985488  1
  F  F14  1  0.36435882  0.76358100  0.87323286  1
  F  F15  1  0.04004833  0.16816724  0.16615561  1
  F  F16  1  0.47443087  0.20718520  0.84803537  1
  F  F17  1  0.11138630  0.70813796  0.08693133  1
  F  F18  1  0.36662749  0.72207839  0.37632819  1
  F  F19  1  0.51358527  0.71567167  0.64433173  1
  F  F20  1  0.47868335  0.29892260  0.34260865  1
  F  F21  1  0.87792449  0.29313659  0.91992971  1
  F  F22  1  0.51830611  0.78398012  0.14061139  1
  F  F23  1  0.74419388  0.67042852  0.50984658  1
  F  F24  1  0.95864824  0.86938939  0.82557472  1
  F  F25  1  0.64505356  0.26161023  0.11284409  1
  F  F26  1  0.88291419  0.19806154  0.42405394  1
  F  F27  1  0.95978923  0.62705459  0.33251172  1
