# generated using pymatgen
data_MnH21C7S3N
_symmetry_space_group_name_H-M   'P 1'
_cell_length_a   9.72788367
_cell_length_b   9.93456889
_cell_length_c   9.99201000
_cell_angle_alpha   118.22663187
_cell_angle_beta   107.20204660
_cell_angle_gamma   101.67965371
_symmetry_Int_Tables_number   1
_chemical_formula_structural   MnH21C7S3N
_chemical_formula_sum   'Mn2 H42 C14 S6 N2'
_cell_volume   742.50416225
_cell_formula_units_Z   2
loop_
 _symmetry_equiv_pos_site_id
 _symmetry_equiv_pos_as_xyz
  1  'x, y, z'
loop_
 _atom_site_type_symbol
 _atom_site_label
 _atom_site_symmetry_multiplicity
 _atom_site_fract_x
 _atom_site_fract_y
 _atom_site_fract_z
 _atom_site_occupancy
  Mn  Mn0  1  0.64520080  0.56987949  0.46236138  1
  Mn  Mn1  1  0.35479920  0.43012051  0.53763862  1
  H  H2  1  0.76421224  0.88369807  0.88111419  1
  H  H3  1  0.93771672  0.14039030  0.47528569  1
  H  H4  1  0.35294862  0.85597937  0.73807861  1
  H  H5  1  0.84312361  0.04072413  0.55472264  1
  H  H6  1  0.43247716  0.15215802  0.61853953  1
  H  H7  1  0.23704324  0.22904112  0.70059183  1
  H  H8  1  0.71203230  0.62935097  0.86854460  1
  H  H9  1  0.14082343  0.12679555  0.77799508  1
  H  H10  1  0.30655102  0.03498385  0.23666312  1
  H  H11  1  0.28796770  0.37064903  0.13145540  1
  H  H12  1  0.23578776  0.11630193  0.11888581  1
  H  H13  1  0.79267550  0.08394887  0.20085536  1
  H  H14  1  0.51954268  0.00892521  0.36807583  1
  H  H15  1  0.10816694  0.92776556  0.07202611  1
  H  H16  1  0.89227584  0.39780165  0.31443548  1
  H  H17  1  0.86093064  0.56733756  0.82211068  1
  H  H18  1  0.56752284  0.84784198  0.38146047  1
  H  H19  1  0.48045732  0.99107479  0.63192417  1
  H  H20  1  0.76295676  0.77095888  0.29940817  1
  H  H21  1  0.84895262  0.37178931  0.11576098  1
  H  H22  1  0.58730433  0.94018767  0.07250471  1
  H  H23  1  0.72601494  0.44745876  0.85407235  1
  H  H24  1  0.27398506  0.55254124  0.14592765  1
  H  H25  1  0.10772416  0.60219835  0.68556452  1
  H  H26  1  0.06228328  0.85960970  0.52471431  1
  H  H27  1  0.20747490  0.79923717  0.46123059  1
  H  H28  1  0.13906936  0.43266244  0.17788932  1
  H  H29  1  0.08201894  0.42565339  0.69612842  1
  H  H30  1  0.20732450  0.91605113  0.79914464  1
  H  H31  1  0.85917657  0.87320445  0.22200492  1
  H  H32  1  0.41269567  0.05981233  0.92749529  1
  H  H33  1  0.79252510  0.20076283  0.53876941  1
  H  H34  1  0.89183306  0.07223444  0.92797389  1
  H  H35  1  0.53930803  0.19278084  0.82409313  1
  H  H36  1  0.91798106  0.57434661  0.30387158  1
  H  H37  1  0.64705138  0.14402063  0.26192139  1
  H  H38  1  0.69344898  0.96501615  0.76333688  1
  H  H39  1  0.65336249  0.72844737  0.09487343  1
  H  H40  1  0.34663751  0.27155263  0.90512657  1
  H  H41  1  0.46069197  0.80721916  0.17590687  1
  H  H42  1  0.15687639  0.95927587  0.44527736  1
  H  H43  1  0.15104738  0.62821069  0.88423902  1
  C  C44  1  0.25131125  0.17631166  0.77604915  1
  C  C45  1  0.26100491  0.47817543  0.19851525  1
  C  C46  1  0.31958997  0.96048009  0.79794886  1
  C  C47  1  0.55065383  0.90272506  0.30803577  1
  C  C48  1  0.20336850  0.05136404  0.17555293  1
  C  C49  1  0.17113515  0.90219839  0.51695092  1
  C  C50  1  0.44934617  0.09727494  0.69196423  1
  C  C51  1  0.82886485  0.09780161  0.48304908  1
  C  C52  1  0.74868875  0.82368834  0.22395085  1
  C  C53  1  0.84310868  0.44161902  0.23671956  1
  C  C54  1  0.15689132  0.55838098  0.76328044  1
  C  C55  1  0.79663150  0.94863596  0.82444707  1
  C  C56  1  0.68041003  0.03951991  0.20205114  1
  C  C57  1  0.73899509  0.52182457  0.80148475  1
  S  S58  1  0.13694853  0.16899197  0.32997522  1
  S  S59  1  0.36141284  0.59057336  0.80705288  1
  S  S60  1  0.86305147  0.83100803  0.67002478  1
  S  S61  1  0.39463028  0.60681362  0.42735373  1
  S  S62  1  0.63858716  0.40942664  0.19294712  1
  S  S63  1  0.60536972  0.39318638  0.57264627  1
  N  N64  1  0.29778982  0.03376333  0.69548933  1
  N  N65  1  0.70221018  0.96623667  0.30451067  1
