# generated using pymatgen
data_NaFe5O8
_symmetry_space_group_name_H-M   'P 1'
_cell_length_a   6.07820958
_cell_length_b   6.07820958
_cell_length_c   6.03454827
_cell_angle_alpha   60.23732928
_cell_angle_beta   90.00000000
_cell_angle_gamma   120.47465855
_symmetry_Int_Tables_number   1
_chemical_formula_structural   NaFe5O8
_chemical_formula_sum   'Na1 Fe5 O8'
_cell_volume   157.07206040
_cell_formula_units_Z   1
loop_
 _symmetry_equiv_pos_site_id
 _symmetry_equiv_pos_as_xyz
  1  'x, y, z'
loop_
 _atom_site_type_symbol
 _atom_site_label
 _atom_site_symmetry_multiplicity
 _atom_site_fract_x
 _atom_site_fract_y
 _atom_site_fract_z
 _atom_site_occupancy
  Na  Na0  1  0.62500000  0.75000000  0.62500000  1
  Fe  Fe1  1  0.62500000  0.25000000  0.12500000  1
  Fe  Fe2  1  0.00762467  0.98475167  0.00762467  1
  Fe  Fe3  1  0.62500000  0.25000000  0.62500000  1
  Fe  Fe4  1  0.24237533  0.51524833  0.24237533  1
  Fe  Fe5  1  0.12500000  0.75000000  0.62500000  1
  O  O6  1  0.85681788  0.26675808  0.36662096  1
  O  O7  1  0.37817867  0.24364266  0.37817867  1
  O  O8  1  0.87182133  0.25635734  0.87182133  1
  O  O9  1  0.88337904  0.72343884  0.39318212  1
  O  O10  1  0.88337904  0.72343884  0.88337904  1
  O  O11  1  0.39318212  0.23324192  0.88337904  1
  O  O12  1  0.36662096  0.77656116  0.36662096  1
  O  O13  1  0.36662096  0.77656116  0.85681788  1
