# generated using pymatgen
data_Na8FeO6
_symmetry_space_group_name_H-M   'P 1'
_cell_length_a   6.31013864
_cell_length_b   6.37822899
_cell_length_c   12.74320308
_cell_angle_alpha   89.99752630
_cell_angle_beta   88.74715419
_cell_angle_gamma   120.35678465
_symmetry_Int_Tables_number   1
_chemical_formula_structural   Na8FeO6
_chemical_formula_sum   'Na16 Fe2 O12'
_cell_volume   442.42114284
_cell_formula_units_Z   2
loop_
 _symmetry_equiv_pos_site_id
 _symmetry_equiv_pos_as_xyz
  1  'x, y, z'
loop_
 _atom_site_type_symbol
 _atom_site_label
 _atom_site_symmetry_multiplicity
 _atom_site_fract_x
 _atom_site_fract_y
 _atom_site_fract_z
 _atom_site_occupancy
  Na  Na0  1  0.99612732  0.70665540  0.77164653  1
  Na  Na1  1  0.00466326  0.61109138  0.12341646  1
  Na  Na2  1  0.00466261  0.39392364  0.62375600  1
  Na  Na3  1  0.99601018  0.28875412  0.27172315  1
  Na  Na4  1  0.33214207  0.66392192  0.41240098  1
  Na  Na5  1  0.33215734  0.66821780  0.91222003  1
  Na  Na6  1  0.29061892  0.29821182  0.77202824  1
  Na  Na7  1  0.39162293  0.38821160  0.12332515  1
  Na  Na8  1  0.61575274  0.61413601  0.62271634  1
  Na  Na9  1  0.28985015  0.99228534  0.27211419  1
  Na  Na10  1  0.70665528  0.70301741  0.26737890  1
  Na  Na11  1  0.39197540  0.00345556  0.62365792  1
  Na  Na12  1  0.66311485  0.32948408  0.91233709  1
  Na  Na13  1  0.66314702  0.33366950  0.41251996  1
  Na  Na14  1  0.61603852  0.00162301  0.12237335  1
  Na  Na15  1  0.70619646  0.00368293  0.76731970  1
  Fe  Fe16  1  0.00230930  0.99940376  0.99565827  1
  Fe  Fe17  1  0.00225769  0.00292318  0.49573650  1
  O  O18  1  0.98703681  0.71400947  0.95292501  1
  O  O19  1  0.98694861  0.27297820  0.45295810  1
  O  O20  1  0.33411251  0.66445262  0.22141615  1
  O  O21  1  0.00790318  0.99732885  0.14770255  1
  O  O22  1  0.00802163  0.01067034  0.64763250  1
  O  O23  1  0.33424605  0.66984635  0.72142079  1
  O  O24  1  0.27555445  0.28900779  0.95319872  1
  O  O25  1  0.27535803  0.98640937  0.45324097  1
  O  O26  1  0.72757110  0.72688698  0.44754496  1
  O  O27  1  0.66515656  0.33667321  0.72164659  1
  O  O28  1  0.66512784  0.32836761  0.22165182  1
  O  O29  1  0.72746319  0.00070272  0.94759108  1
