# generated using pymatgen
data_LiV3P2(HO3)4
_symmetry_space_group_name_H-M   'P 1'
_cell_length_a   11.83020847
_cell_length_b   10.51452297
_cell_length_c   7.46668930
_cell_angle_alpha   90.00000000
_cell_angle_beta   98.29218094
_cell_angle_gamma   90.00000000
_symmetry_Int_Tables_number   1
_chemical_formula_structural   LiV3P2(HO3)4
_chemical_formula_sum   'Li4 V12 P8 H16 O48'
_cell_volume   919.06411887
_cell_formula_units_Z   4
loop_
 _symmetry_equiv_pos_site_id
 _symmetry_equiv_pos_as_xyz
  1  'x, y, z'
loop_
 _atom_site_type_symbol
 _atom_site_label
 _atom_site_symmetry_multiplicity
 _atom_site_fract_x
 _atom_site_fract_y
 _atom_site_fract_z
 _atom_site_occupancy
  Li  Li0  1  0.16561450  0.61462799  0.39105329  1
  Li  Li1  1  0.33438550  0.11462799  0.10894671  1
  Li  Li2  1  0.66561450  0.88537201  0.89105329  1
  Li  Li3  1  0.83438550  0.38537201  0.60894671  1
  V  V4  1  0.04453375  0.21763433  0.55935132  1
  V  V5  1  0.04537980  0.76182949  0.06124795  1
  V  V6  1  0.23469488  0.56644259  0.99504066  1
  V  V7  1  0.26530512  0.06644259  0.50495934  1
  V  V8  1  0.45546625  0.71763433  0.94064868  1
  V  V9  1  0.45462020  0.26182949  0.43875205  1
  V  V10  1  0.54537980  0.73817051  0.56124795  1
  V  V11  1  0.54453375  0.28236567  0.05935132  1
  V  V12  1  0.73469488  0.93355741  0.49504066  1
  V  V13  1  0.76530512  0.43355741  0.00495934  1
  V  V14  1  0.95462020  0.23817051  0.93875205  1
  V  V15  1  0.95546625  0.78236567  0.44064868  1
  P  P16  1  0.19575293  0.82035942  0.73768779  1
  P  P17  1  0.17739366  0.31132996  0.23302690  1
  P  P18  1  0.30424707  0.32035942  0.76231221  1
  P  P19  1  0.32260634  0.81132996  0.26697310  1
  P  P20  1  0.67739366  0.18867004  0.73302690  1
  P  P21  1  0.69575293  0.67964058  0.23768779  1
  P  P22  1  0.82260634  0.68867004  0.76697310  1
  P  P23  1  0.80424707  0.17964058  0.26231221  1
  H  H24  1  0.03004406  0.60856836  0.80056841  1
  H  H25  1  0.06239908  0.04531953  0.82685788  1
  H  H26  1  0.06619502  0.40160132  0.77047172  1
  H  H27  1  0.06142901  0.00590302  0.35105772  1
  H  H28  1  0.43380498  0.90160132  0.72952828  1
  H  H29  1  0.43760092  0.54531953  0.67314212  1
  H  H30  1  0.46995594  0.10856836  0.69943159  1
  H  H31  1  0.43857099  0.50590302  0.14894228  1
  H  H32  1  0.56142901  0.49409698  0.85105772  1
  H  H33  1  0.53004406  0.89143164  0.30056841  1
  H  H34  1  0.56239908  0.45468047  0.32685788  1
  H  H35  1  0.56619502  0.09839868  0.27047172  1
  H  H36  1  0.93857099  0.99409698  0.64894228  1
  H  H37  1  0.93380498  0.59839868  0.22952828  1
  H  H38  1  0.93760092  0.95468047  0.17314212  1
  H  H39  1  0.96995594  0.39143164  0.19943159  1
  O  O40  1  0.99632077  0.35334785  0.72623859  1
  O  O41  1  0.99766894  0.89611701  0.22756641  1
  O  O42  1  0.07164694  0.60533576  0.92475705  1
  O  O43  1  0.11505394  0.86569248  0.87257430  1
  O  O44  1  0.12609142  0.76396055  0.56437024  1
  O  O45  1  0.09808731  0.06899030  0.44317497  1
  O  O46  1  0.09160460  0.33335760  0.37018641  1
  O  O47  1  0.12078502  0.24039658  0.06460108  1
  O  O48  1  0.22150875  0.21211948  0.67644415  1
  O  O49  1  0.22753748  0.43293112  0.80061425  1
  O  O50  1  0.21798515  0.72403097  0.18631574  1
  O  O51  1  0.27246252  0.93293112  0.69938575  1
  O  O52  1  0.27849125  0.71211948  0.82355585  1
  O  O53  1  0.22219258  0.44603455  0.19840913  1
  O  O54  1  0.27780742  0.94603455  0.30159087  1
  O  O55  1  0.28201485  0.22403097  0.31368426  1
  O  O56  1  0.37390858  0.26396055  0.93562976  1
  O  O57  1  0.38494606  0.36569248  0.62742570  1
  O  O58  1  0.37921498  0.74039658  0.43539892  1
  O  O59  1  0.42835306  0.10533576  0.57524295  1
  O  O60  1  0.40839540  0.83335760  0.12981359  1
  O  O61  1  0.40191269  0.56899030  0.05682503  1
  O  O62  1  0.50367923  0.85334785  0.77376141  1
  O  O63  1  0.49766894  0.60388299  0.72756641  1
  O  O64  1  0.50233106  0.39611701  0.27243359  1
  O  O65  1  0.49632077  0.14665215  0.22623859  1
  O  O66  1  0.59808731  0.43100970  0.94317497  1
  O  O67  1  0.59160460  0.16664240  0.87018641  1
  O  O68  1  0.57164694  0.89466424  0.42475705  1
  O  O69  1  0.62078502  0.25960342  0.56460108  1
  O  O70  1  0.61505394  0.63430752  0.37257430  1
  O  O71  1  0.62609142  0.73603945  0.06437024  1
  O  O72  1  0.71798515  0.77596903  0.68631574  1
  O  O73  1  0.72219258  0.05396545  0.69840913  1
  O  O74  1  0.77780742  0.55396545  0.80159087  1
  O  O75  1  0.72150875  0.28788052  0.17644415  1
  O  O76  1  0.72753748  0.06706888  0.30061425  1
  O  O77  1  0.78201485  0.27596903  0.81368426  1
  O  O78  1  0.77246252  0.56706888  0.19938575  1
  O  O79  1  0.77849125  0.78788052  0.32355585  1
  O  O80  1  0.87921498  0.75960342  0.93539892  1
  O  O81  1  0.90839540  0.66664240  0.62981359  1
  O  O82  1  0.90191269  0.93100970  0.55682503  1
  O  O83  1  0.87390858  0.23603945  0.43562976  1
  O  O84  1  0.88494606  0.13430752  0.12742570  1
  O  O85  1  0.92835306  0.39466424  0.07524295  1
  O  O86  1  0.00233106  0.10388299  0.77243359  1
  O  O87  1  0.00367923  0.64665215  0.27376141  1
