# generated using pymatgen
data_Li3Mn2(PO4)3
_symmetry_space_group_name_H-M   'P 1'
_cell_length_a   8.93564517
_cell_length_b   12.12054242
_cell_length_c   8.65827916
_cell_angle_alpha   90.00000000
_cell_angle_beta   90.00000000
_cell_angle_gamma   90.00000000
_symmetry_Int_Tables_number   1
_chemical_formula_structural   Li3Mn2(PO4)3
_chemical_formula_sum   'Li12 Mn8 P12 O48'
_cell_volume   937.73376710
_cell_formula_units_Z   4
loop_
 _symmetry_equiv_pos_site_id
 _symmetry_equiv_pos_as_xyz
  1  'x, y, z'
loop_
 _atom_site_type_symbol
 _atom_site_label
 _atom_site_symmetry_multiplicity
 _atom_site_fract_x
 _atom_site_fract_y
 _atom_site_fract_z
 _atom_site_occupancy
  Li  Li0  1  0.21826665  0.18174467  0.77330170  1
  Li  Li1  1  0.21826665  0.81825533  0.72669830  1
  Li  Li2  1  0.28173335  0.68174467  0.22669830  1
  Li  Li3  1  0.28173335  0.31825533  0.27330170  1
  Li  Li4  1  0.55284213  0.21447941  0.43400192  1
  Li  Li5  1  0.55284213  0.78552059  0.06599808  1
  Li  Li6  1  0.69664613  0.31515972  0.76937431  1
  Li  Li7  1  0.69664613  0.68484028  0.73062569  1
  Li  Li8  1  0.80335387  0.18484028  0.26937431  1
  Li  Li9  1  0.80335387  0.81515972  0.23062569  1
  Li  Li10  1  0.94715787  0.28552059  0.93400192  1
  Li  Li11  1  0.94715787  0.71447941  0.56599808  1
  Mn  Mn12  1  0.24820818  0.11238571  0.45996190  1
  Mn  Mn13  1  0.24820818  0.88761429  0.04003810  1
  Mn  Mn14  1  0.25179182  0.38761429  0.95996190  1
  Mn  Mn15  1  0.25179182  0.61238571  0.54003810  1
  Mn  Mn16  1  0.76177610  0.38943797  0.45596972  1
  Mn  Mn17  1  0.76177610  0.61056203  0.04403028  1
  Mn  Mn18  1  0.73822390  0.11056203  0.95596972  1
  Mn  Mn19  1  0.73822390  0.88943797  0.54403028  1
  P  P20  1  0.05150580  0.50000000  0.25000000  1
  P  P21  1  0.10679399  0.85404804  0.39254079  1
  P  P22  1  0.10679399  0.14595196  0.10745921  1
  P  P23  1  0.39320601  0.35404804  0.60745921  1
  P  P24  1  0.39320601  0.64595196  0.89254079  1
  P  P25  1  0.44849420  0.00000000  0.75000000  1
  P  P26  1  0.55437833  0.00000000  0.25000000  1
  P  P27  1  0.60664748  0.35403145  0.11138892  1
  P  P28  1  0.60664748  0.64596855  0.38861108  1
  P  P29  1  0.89335252  0.14596855  0.61138892  1
  P  P30  1  0.89335252  0.85403145  0.88861108  1
  P  P31  1  0.94562167  0.50000000  0.75000000  1
  O  O32  1  0.03550514  0.57600076  0.64397010  1
  O  O33  1  0.03550514  0.42399924  0.85602990  1
  O  O34  1  0.06216509  0.16586194  0.61045238  1
  O  O35  1  0.06216509  0.83413806  0.88954762  1
  O  O36  1  0.15198677  0.02926144  0.06504410  1
  O  O37  1  0.15198677  0.97073856  0.43495590  1
  O  O38  1  0.15825772  0.42077303  0.15720455  1
  O  O39  1  0.15825772  0.57922697  0.34279545  1
  O  O40  1  0.16774477  0.17905696  0.26918821  1
  O  O41  1  0.16774477  0.82094304  0.23081179  1
  O  O42  1  0.16732775  0.22835277  0.98153662  1
  O  O43  1  0.16732775  0.77164723  0.51846338  1
  O  O44  1  0.33267225  0.27164723  0.48153662  1
  O  O45  1  0.33267225  0.72835277  0.01846338  1
  O  O46  1  0.33225523  0.67905696  0.73081179  1
  O  O47  1  0.33225523  0.32094304  0.76918821  1
  O  O48  1  0.34174228  0.07922697  0.65720455  1
  O  O49  1  0.34174228  0.92077303  0.84279545  1
  O  O50  1  0.34801323  0.47073856  0.56504410  1
  O  O51  1  0.34801323  0.52926144  0.93495590  1
  O  O52  1  0.43783491  0.33413806  0.11045238  1
  O  O53  1  0.43783491  0.66586194  0.38954762  1
  O  O54  1  0.46449486  0.07600176  0.35602990  1
  O  O55  1  0.46449486  0.92399924  0.14397010  1
  O  O56  1  0.53892424  0.92466459  0.64539976  1
  O  O57  1  0.53892424  0.07533541  0.85460024  1
  O  O58  1  0.56391545  0.33576966  0.60372568  1
  O  O59  1  0.56391545  0.66423034  0.89627432  1
  O  O60  1  0.65007143  0.47299848  0.07930361  1
  O  O61  1  0.65007143  0.52700152  0.42069639  1
  O  O62  1  0.66227960  0.07896792  0.15914191  1
  O  O63  1  0.66227960  0.92103208  0.34085809  1
  O  O64  1  0.66473678  0.31616311  0.27682234  1
  O  O65  1  0.66473678  0.68383689  0.22317766  1
  O  O66  1  0.69100961  0.28094967  0.98940263  1
  O  O67  1  0.69100961  0.71905033  0.51059737  1
  O  O68  1  0.80899039  0.21905033  0.48940263  1
  O  O69  1  0.80899039  0.78094967  0.01059737  1
  O  O70  1  0.83526322  0.18383689  0.77682234  1
  O  O71  1  0.83526322  0.81616311  0.72317766  1
  O  O72  1  0.83772040  0.42103208  0.65914191  1
  O  O73  1  0.83772040  0.57896792  0.84085809  1
  O  O74  1  0.84992857  0.02700152  0.57930361  1
  O  O75  1  0.84992857  0.97299848  0.92069639  1
  O  O76  1  0.93608455  0.16423034  0.10372568  1
  O  O77  1  0.93608455  0.83576966  0.39627432  1
  O  O78  1  0.96107576  0.42466459  0.35460024  1
  O  O79  1  0.96107576  0.57533541  0.14539976  1
