# generated using pymatgen
data_Ti3Fe9O16
_symmetry_space_group_name_H-M   'P 1'
_cell_length_a   6.12874330
_cell_length_b   12.19073643
_cell_length_c   8.64499534
_cell_angle_alpha   90.00000000
_cell_angle_beta   90.00000000
_cell_angle_gamma   90.00000000
_symmetry_Int_Tables_number   1
_chemical_formula_structural   Ti3Fe9O16
_chemical_formula_sum   'Ti6 Fe18 O32'
_cell_volume   645.90126790
_cell_formula_units_Z   2
loop_
 _symmetry_equiv_pos_site_id
 _symmetry_equiv_pos_as_xyz
  1  'x, y, z'
loop_
 _atom_site_type_symbol
 _atom_site_label
 _atom_site_symmetry_multiplicity
 _atom_site_fract_x
 _atom_site_fract_y
 _atom_site_fract_z
 _atom_site_occupancy
  Ti  Ti0  1  0.25000000  0.12706340  0.25055975  1
  Ti  Ti1  1  0.25000000  0.87500000  0.25000000  1
  Ti  Ti2  1  0.25000000  0.62293660  0.24944025  1
  Ti  Ti3  1  0.75000000  0.37500000  0.75000000  1
  Ti  Ti4  1  0.75000000  0.62706340  0.74944025  1
  Ti  Ti5  1  0.75000000  0.12293660  0.75055975  1
  Fe  Fe6  1  0.99934260  0.75104238  0.99861041  1
  Fe  Fe7  1  0.00065740  0.25104238  0.00138959  1
  Fe  Fe8  1  0.50065740  0.75104238  0.99861041  1
  Fe  Fe9  1  0.49934260  0.25104238  0.00138959  1
  Fe  Fe10  1  0.75000000  0.99916797  0.11591070  1
  Fe  Fe11  1  0.75000000  0.50264577  0.11820165  1
  Fe  Fe12  1  0.25000000  0.37500000  0.25000000  1
  Fe  Fe13  1  0.75000000  0.75083203  0.38408930  1
  Fe  Fe14  1  0.75000000  0.24735423  0.38179835  1
  Fe  Fe15  1  0.49934260  0.49895762  0.49861041  1
  Fe  Fe16  1  0.99934260  0.99895762  0.50138959  1
  Fe  Fe17  1  0.50065740  0.99895762  0.50138959  1
  Fe  Fe18  1  0.00065740  0.49895762  0.49861041  1
  Fe  Fe19  1  0.25000000  0.74735423  0.61820165  1
  Fe  Fe20  1  0.25000000  0.25083203  0.61591070  1
  Fe  Fe21  1  0.75000000  0.87500000  0.75000000  1
  Fe  Fe22  1  0.25000000  0.49916797  0.88408930  1
  Fe  Fe23  1  0.25000000  0.00264577  0.88179835  1
  O  O24  1  0.25000000  0.87713799  0.01566199  1
  O  O25  1  0.25000000  0.63746654  0.02077942  1
  O  O26  1  0.25000000  0.36127013  0.01408403  1
  O  O27  1  0.25000000  0.12324524  0.02275140  1
  O  O28  1  0.46604146  0.75303979  0.25114877  1
  O  O29  1  0.03395854  0.75303979  0.25114877  1
  O  O30  1  0.01071522  0.23455316  0.25664783  1
  O  O31  1  0.48928478  0.23455316  0.25664783  1
  O  O32  1  0.01071522  0.51544684  0.24335217  1
  O  O33  1  0.03395854  0.99696021  0.24885123  1
  O  O34  1  0.46604146  0.99696021  0.24885123  1
  O  O35  1  0.48928478  0.51544684  0.24335217  1
  O  O36  1  0.25000000  0.87286201  0.48433801  1
  O  O37  1  0.25000000  0.11253346  0.47922058  1
  O  O38  1  0.25000000  0.38872987  0.48591597  1
  O  O39  1  0.25000000  0.62675476  0.47724860  1
  O  O40  1  0.75000000  0.61253346  0.52077942  1
  O  O41  1  0.75000000  0.12675476  0.52275140  1
  O  O42  1  0.75000000  0.88872987  0.51408403  1
  O  O43  1  0.75000000  0.37286201  0.51566199  1
  O  O44  1  0.96604146  0.49696021  0.75114877  1
  O  O45  1  0.53395854  0.49696021  0.75114877  1
  O  O46  1  0.98928478  0.01544684  0.75664783  1
  O  O47  1  0.51071522  0.01544684  0.75664783  1
  O  O48  1  0.53395854  0.25303979  0.74885123  1
  O  O49  1  0.96604146  0.25303979  0.74885123  1
  O  O50  1  0.51071522  0.73455316  0.74335217  1
  O  O51  1  0.98928478  0.73455316  0.74335217  1
  O  O52  1  0.75000000  0.86127013  0.98591597  1
  O  O53  1  0.75000000  0.62324524  0.97724860  1
  O  O54  1  0.75000000  0.13746654  0.97922058  1
  O  O55  1  0.75000000  0.37713799  0.98433801  1
