# generated using pymatgen
data_Na(FeO2)2
_symmetry_space_group_name_H-M   'P 1'
_cell_length_a   9.23973988
_cell_length_b   10.83727498
_cell_length_c   2.99806098
_cell_angle_alpha   90.00009213
_cell_angle_beta   89.99999368
_cell_angle_gamma   89.99871078
_symmetry_Int_Tables_number   1
_chemical_formula_structural   Na(FeO2)2
_chemical_formula_sum   'Na4 Fe8 O16'
_cell_volume   300.20664438
_cell_formula_units_Z   4
loop_
 _symmetry_equiv_pos_site_id
 _symmetry_equiv_pos_as_xyz
  1  'x, y, z'
loop_
 _atom_site_type_symbol
 _atom_site_label
 _atom_site_symmetry_multiplicity
 _atom_site_fract_x
 _atom_site_fract_y
 _atom_site_fract_z
 _atom_site_occupancy
  Na  Na0  1  0.24240586  0.34271735  0.75000005  1
  Na  Na1  1  0.25716513  0.84229681  0.24999790  1
  Na  Na2  1  0.74218865  0.15758540  0.75000020  1
  Na  Na3  1  0.75736808  0.65763989  0.24999903  1
  Fe  Fe4  1  0.06276336  0.11213772  0.75000000  1
  Fe  Fe5  1  0.08331956  0.60289620  0.75000140  1
  Fe  Fe6  1  0.41717018  0.10289321  0.25000064  1
  Fe  Fe7  1  0.43642668  0.61179244  0.25000113  1
  Fe  Fe8  1  0.56391128  0.38863465  0.74999837  1
  Fe  Fe9  1  0.58341905  0.89675741  0.75000011  1
  Fe  Fe10  1  0.91675841  0.39775729  0.25000130  1
  Fe  Fe11  1  0.93562989  0.88808451  0.24999816  1
  O  O12  1  0.02349180  0.71469798  0.25000137  1
  O  O13  1  0.07517059  0.92619514  0.74999832  1
  O  O14  1  0.11396578  0.48031962  0.25000015  1
  O  O15  1  0.20491300  0.15082578  0.25000034  1
  O  O16  1  0.29483777  0.65049504  0.75000012  1
  O  O17  1  0.38698872  0.98037435  0.75000161  1
  O  O18  1  0.42385916  0.42685546  0.25000003  1
  O  O19  1  0.47807888  0.21420541  0.74999955  1
  O  O20  1  0.52439557  0.78438742  0.25000098  1
  O  O21  1  0.57616852  0.57432946  0.75000052  1
  O  O22  1  0.61572583  0.01748509  0.24999801  1
  O  O23  1  0.70550023  0.35074039  0.24999991  1
  O  O24  1  0.79424177  0.84843064  0.74999873  1
  O  O25  1  0.88584309  0.51981448  0.75000117  1
  O  O26  1  0.92284631  0.07398434  0.25000038  1
  O  O27  1  0.97544686  0.28566651  0.75000051  1
