# generated using pymatgen
data_RbLiMnP3HO10
_symmetry_space_group_name_H-M   'P 1'
_cell_length_a   7.45926639
_cell_length_b   7.45914498
_cell_length_c   9.59117402
_cell_angle_alpha   104.87339583
_cell_angle_beta   75.12778670
_cell_angle_gamma   104.99222563
_symmetry_Int_Tables_number   1
_chemical_formula_structural   RbLiMnP3HO10
_chemical_formula_sum   'Rb2 Li2 Mn2 P6 H2 O20'
_cell_volume   487.75859331
_cell_formula_units_Z   2
loop_
 _symmetry_equiv_pos_site_id
 _symmetry_equiv_pos_as_xyz
  1  'x, y, z'
loop_
 _atom_site_type_symbol
 _atom_site_label
 _atom_site_symmetry_multiplicity
 _atom_site_fract_x
 _atom_site_fract_y
 _atom_site_fract_z
 _atom_site_occupancy
  Rb  Rb0  1  0.45455142  0.46260119  0.26467052  1
  Rb  Rb1  1  0.53739604  0.54545296  0.76467753  1
  Li  Li2  1  0.93096804  0.85321050  0.51804978  1
  Li  Li3  1  0.14678614  0.06903271  0.01805472  1
  Mn  Mn4  1  0.99902872  0.50708939  0.99982651  1
  Mn  Mn5  1  0.49290691  0.00094783  0.49983001  1
  P  P6  1  0.28290849  0.85148044  0.18887415  1
  P  P7  1  0.87684650  0.87394432  0.25599532  1
  P  P8  1  0.14850309  0.71707896  0.68889931  1
  P  P9  1  0.84933232  0.28377382  0.30703795  1
  P  P10  1  0.12603653  0.12317643  0.75606679  1
  P  P11  1  0.71625241  0.15070384  0.80708875  1
  H  H12  1  0.99616681  0.48511876  0.47965729  1
  H  H13  1  0.51487570  0.00383099  0.97966277  1
  O  O14  1  0.07122927  0.87494800  0.30142972  1
  O  O15  1  0.12505783  0.92876745  0.80142574  1
  O  O16  1  0.40665489  0.87308268  0.29635057  1
  O  O17  1  0.25150979  0.65497720  0.09052469  1
  O  O18  1  0.62782285  0.98312144  0.89370291  1
  O  O19  1  0.34504767  0.74849511  0.59050812  1
  O  O20  1  0.73759650  0.85616617  0.40083688  1
  O  O21  1  0.84747948  0.73578731  0.11617474  1
  O  O22  1  0.12692583  0.59335458  0.79633230  1
  O  O23  1  0.01687684  0.37218191  0.39370349  1
  O  O24  1  0.98544873  0.67118371  0.60456284  1
  O  O25  1  0.86033173  0.38511868  0.18807941  1
  O  O26  1  0.14383694  0.26237615  0.90082201  1
  O  O27  1  0.26425157  0.15252918  0.61615564  1
  O  O28  1  0.65750568  0.24814167  0.40736302  1
  O  O29  1  0.32881872  0.01455134  0.10456713  1
  O  O30  1  0.75184039  0.34245529  0.90734583  1
  O  O31  1  0.61486750  0.13965582  0.68805610  1
  O  O32  1  0.91309981  0.08065247  0.21586442  1
  O  O33  1  0.91935686  0.08690671  0.71586506  1
