# generated using pymatgen
data_Li10Fe3Co7O20
_symmetry_space_group_name_H-M   'P 1'
_cell_length_a   2.87950220
_cell_length_b   5.81899407
_cell_length_c   20.59599477
_cell_angle_alpha   83.07126839
_cell_angle_beta   90.00002737
_cell_angle_gamma   89.99972249
_symmetry_Int_Tables_number   1
_chemical_formula_structural   Li10Fe3Co7O20
_chemical_formula_sum   'Li10 Fe3 Co7 O20'
_cell_volume   342.58220481
_cell_formula_units_Z   1
loop_
 _symmetry_equiv_pos_site_id
 _symmetry_equiv_pos_as_xyz
  1  'x, y, z'
loop_
 _atom_site_type_symbol
 _atom_site_label
 _atom_site_symmetry_multiplicity
 _atom_site_fract_x
 _atom_site_fract_y
 _atom_site_fract_z
 _atom_site_occupancy
  Li  Li0  1  0.99999390  0.99841450  0.99854650  1
  Li  Li1  1  0.49999917  0.80010085  0.89998679  1
  Li  Li2  1  0.00000343  0.60174410  0.80144218  1
  Li  Li3  1  0.50000025  0.39828719  0.70433673  1
  Li  Li4  1  0.99999384  0.20193534  0.60128119  1
  Li  Li5  1  0.49999783  0.00040512  0.50094572  1
  Li  Li6  1  0.99999851  0.79996011  0.39999948  1
  Li  Li7  1  0.49999320  0.59957887  0.29902556  1
  Li  Li8  1  0.99999605  0.39801606  0.19872644  1
  Li  Li9  1  0.49999288  0.20160219  0.09568944  1
  Fe  Fe10  1  0.99999802  0.29998231  0.40000859  1
  Fe  Fe11  1  0.99999392  0.70185940  0.60273475  1
  Fe  Fe12  1  -0.00000806  0.89832983  0.19726977  1
  Co  Co13  1  0.49999974  0.30001356  0.89999180  1
  Co  Co14  1  -0.00000052  0.10210108  0.80182078  1
  Co  Co15  1  0.49999966  0.90447220  0.70336387  1
  Co  Co16  1  0.49999762  0.50058664  0.50123231  1
  Co  Co17  1  0.50000028  0.09945178  0.29876277  1
  Co  Co18  1  0.50000016  0.69550145  0.09663320  1
  Co  Co19  1  0.99999767  0.49788375  0.99816761  1
  O  O20  1  0.50000030  0.27414126  0.99439625  1
  O  O21  1  0.99999571  0.52362317  0.90377258  1
  O  O22  1  0.00000018  0.07638250  0.89620228  1
  O  O23  1  0.50000024  0.87999605  0.79748790  1
  O  O24  1  0.49999861  0.32586706  0.80557266  1
  O  O25  1  0.00000074  0.67608851  0.70202716  1
  O  O26  1  0.99999630  0.12684481  0.70730721  1
  O  O27  1  0.49999299  0.94256402  0.60689571  1
  O  O28  1  0.49999718  0.46100581  0.59742274  1
  O  O29  1  0.99999405  0.72714392  0.50295908  1
  O  O30  1  0.00000057  0.27362698  0.49936070  1
  O  O31  1  0.49999414  0.54036585  0.40502297  1
  O  O32  1  0.49999824  0.05965204  0.39499144  1
  O  O33  1  0.00000259  0.87286546  0.29706928  1
  O  O34  1  0.99999653  0.32639611  0.30065824  1
  O  O35  1  0.50001765  0.13889698  0.20259420  1
  O  O36  1  0.50002245  0.65732891  0.19312178  1
  O  O37  1  0.99999709  0.92384484  0.09798726  1
  O  O38  1  -0.00000276  0.47314399  0.09267633  1
  O  O39  1  0.49999663  0.71999041  0.00250576  1
