# generated using pymatgen
data_Li3VOF5
_symmetry_space_group_name_H-M   'P 1'
_cell_length_a   9.84363910
_cell_length_b   8.61268690
_cell_length_c   5.04903561
_cell_angle_alpha   90.12384385
_cell_angle_beta   90.16846103
_cell_angle_gamma   90.17877538
_symmetry_Int_Tables_number   1
_chemical_formula_structural   Li3VOF5
_chemical_formula_sum   'Li12 V4 O4 F20'
_cell_volume   428.05321307
_cell_formula_units_Z   4
loop_
 _symmetry_equiv_pos_site_id
 _symmetry_equiv_pos_as_xyz
  1  'x, y, z'
loop_
 _atom_site_type_symbol
 _atom_site_label
 _atom_site_symmetry_multiplicity
 _atom_site_fract_x
 _atom_site_fract_y
 _atom_site_fract_z
 _atom_site_occupancy
  Li  Li0  1  0.10910980  0.45932067  0.48703614  1
  Li  Li1  1  0.12806692  0.85392481  0.01214769  1
  Li  Li2  1  0.14919461  0.04453953  0.49278032  1
  Li  Li3  1  0.34837384  0.54451280  0.00774208  1
  Li  Li4  1  0.37261854  0.35035875  0.50049403  1
  Li  Li5  1  0.39155238  0.95983531  0.00219898  1
  Li  Li6  1  0.60575036  0.04382297  0.49990823  1
  Li  Li7  1  0.62540755  0.64898482  0.00626423  1
  Li  Li8  1  0.64813491  0.45120903  0.50547660  1
  Li  Li9  1  0.85369198  0.95294576  0.00265205  1
  Li  Li10  1  0.87211492  0.15016107  0.51346101  1
  Li  Li11  1  0.89441725  0.54585078  0.99618870  1
  V  V12  1  0.10711989  0.24046372  0.97054704  1
  V  V13  1  0.38253973  0.74044119  0.52436027  1
  V  V14  1  0.61810979  0.25965623  0.02427495  1
  V  V15  1  0.87226058  0.76032920  0.50008608  1
  O  O16  1  0.01367264  0.09496533  0.83268888  1
  O  O17  1  0.03121271  0.39954849  0.85533000  1
  O  O18  1  0.47618447  0.74267843  0.80034618  1
  O  O19  1  0.52525610  0.25731937  0.30125787  1
  F  F20  1  0.02483926  0.24246259  0.31648133  1
  F  F21  1  0.22794331  0.06555100  0.14697642  1
  F  F22  1  0.24212166  0.23145941  0.69836080  1
  F  F23  1  0.24689478  0.38014270  0.18342693  1
  F  F24  1  0.24926600  0.88759531  0.67795464  1
  F  F25  1  0.26427594  0.73335146  0.19429968  1
  F  F26  1  0.27208164  0.55860753  0.64143747  1
  F  F27  1  0.47487515  0.90945646  0.33982433  1
  F  F28  1  0.49031904  0.58757115  0.31738921  1
  F  F29  1  0.51020988  0.41170149  0.81726646  1
  F  F30  1  0.52601420  0.09004581  0.83924691  1
  F  F31  1  0.72881382  0.44102509  0.14380246  1
  F  F32  1  0.73584624  0.26661752  0.69476983  1
  F  F33  1  0.75187369  0.11282197  0.17945531  1
  F  F34  1  0.75076756  0.61054677  0.68396689  1
  F  F35  1  0.75986545  0.76925348  0.17863528  1
  F  F36  1  0.77333236  0.94147883  0.64702857  1
  F  F37  1  0.97494592  0.58935725  0.34352809  1
  F  F38  1  0.97946764  0.75444743  0.82918699  1
  F  F39  1  0.99145550  0.91563648  0.32056606  1
