# generated using pymatgen
data_Li7(Cu6S5)2
_symmetry_space_group_name_H-M   'P 1'
_cell_length_a   14.98176447
_cell_length_b   3.75458849
_cell_length_c   15.44943994
_cell_angle_alpha   90.00000000
_cell_angle_beta   92.45772851
_cell_angle_gamma   90.00000000
_symmetry_Int_Tables_number   1
_chemical_formula_structural   Li7(Cu6S5)2
_chemical_formula_sum   'Li14 Cu24 S20'
_cell_volume   868.23716535
_cell_formula_units_Z   2
loop_
 _symmetry_equiv_pos_site_id
 _symmetry_equiv_pos_as_xyz
  1  'x, y, z'
loop_
 _atom_site_type_symbol
 _atom_site_label
 _atom_site_symmetry_multiplicity
 _atom_site_fract_x
 _atom_site_fract_y
 _atom_site_fract_z
 _atom_site_occupancy
  Li  Li0  1  0.00000000  0.50000000  0.00000000  1
  Li  Li1  1  0.12435495  0.00000000  0.70543865  1
  Li  Li2  1  0.19978652  0.00000000  0.92097059  1
  Li  Li3  1  0.20161959  0.50000000  0.38474604  1
  Li  Li4  1  0.27476748  0.50000000  0.59885167  1
  Li  Li5  1  0.31511524  0.00000000  0.10289378  1
  Li  Li6  1  0.39701264  0.00000000  0.30368341  1
  Li  Li7  1  0.50000000  0.50000000  0.00000000  1
  Li  Li8  1  0.60298736  0.00000000  0.69631659  1
  Li  Li9  1  0.68488476  0.00000000  0.89710622  1
  Li  Li10  1  0.72523252  0.50000000  0.40114833  1
  Li  Li11  1  0.79838041  0.50000000  0.61525396  1
  Li  Li12  1  0.80021348  0.00000000  0.07902941  1
  Li  Li13  1  0.87564505  0.00000000  0.29456135  1
  Cu  Cu14  1  0.99542537  0.50000000  0.19461374  1
  Cu  Cu15  1  0.05215679  0.00000000  0.43452563  1
  Cu  Cu16  1  0.08384662  0.50000000  0.55360784  1
  Cu  Cu17  1  0.08652037  0.00000000  0.26998127  1
  Cu  Cu18  1  0.11323032  0.00000000  0.09464494  1
  Cu  Cu19  1  0.19636678  0.50000000  0.19143481  1
  Cu  Cu20  1  0.31402817  0.00000000  0.75304796  1
  Cu  Cu21  1  0.34199413  0.50000000  0.87040080  1
  Cu  Cu22  1  0.39779881  0.00000000  0.49909990  1
  Cu  Cu23  1  0.44896805  0.50000000  0.73842672  1
  Cu  Cu24  1  0.48462477  0.00000000  0.85647677  1
  Cu  Cu25  1  0.48954656  0.50000000  0.58099354  1
  Cu  Cu26  1  0.51045344  0.50000000  0.41900646  1
  Cu  Cu27  1  0.51537523  0.00000000  0.14352323  1
  Cu  Cu28  1  0.55103195  0.50000000  0.26157328  1
  Cu  Cu29  1  0.60220119  0.00000000  0.50090010  1
  Cu  Cu30  1  0.65800587  0.50000000  0.12959920  1
  Cu  Cu31  1  0.68597183  0.00000000  0.24695204  1
  Cu  Cu32  1  0.80363322  0.50000000  0.80856519  1
  Cu  Cu33  1  0.88676968  0.00000000  0.90535506  1
  Cu  Cu34  1  0.91347963  0.00000000  0.73001873  1
  Cu  Cu35  1  0.91615338  0.50000000  0.44639216  1
  Cu  Cu36  1  0.94784321  0.00000000  0.56547437  1
  Cu  Cu37  1  0.00457463  0.50000000  0.80538626  1
  S  S38  1  0.03582261  0.00000000  0.87730278  1
  S  S39  1  0.02136034  0.50000000  0.34362858  1
  S  S40  1  0.16962729  0.00000000  0.53363118  1
  S  S41  1  0.18203863  0.50000000  0.04331020  1
  S  S42  1  0.22675843  0.50000000  0.76359098  1
  S  S43  1  0.23607798  0.00000000  0.26684550  1
  S  S44  1  0.37232561  0.00000000  0.95052683  1
  S  S45  1  0.36126533  0.50000000  0.42727002  1
  S  S46  1  0.41851349  0.00000000  0.64748650  1
  S  S47  1  0.43054696  0.50000000  0.16791486  1
  S  S48  1  0.56945304  0.50000000  0.83208514  1
  S  S49  1  0.58148651  0.00000000  0.35251350  1
  S  S50  1  0.63873467  0.50000000  0.57272998  1
  S  S51  1  0.62767439  0.00000000  0.04947317  1
  S  S52  1  0.76392202  0.00000000  0.73315450  1
  S  S53  1  0.77324157  0.50000000  0.23640902  1
  S  S54  1  0.81796137  0.50000000  0.95668980  1
  S  S55  1  0.83037271  0.00000000  0.46636882  1
  S  S56  1  0.97863966  0.50000000  0.65637142  1
  S  S57  1  0.96417739  0.00000000  0.12269722  1
