# generated using pymatgen
data_LiMnPO4
_symmetry_space_group_name_H-M   'P 1'
_cell_length_a   4.93514774
_cell_length_b   5.14046147
_cell_length_c   4.93514774
_cell_angle_alpha   61.31266855
_cell_angle_beta   90.00000000
_cell_angle_gamma   118.68733145
_symmetry_Int_Tables_number   1
_chemical_formula_structural   LiMnPO4
_chemical_formula_sum   'Li1 Mn1 P1 O4'
_cell_volume   91.92942055
_cell_formula_units_Z   1
loop_
 _symmetry_equiv_pos_site_id
 _symmetry_equiv_pos_as_xyz
  1  'x, y, z'
loop_
 _atom_site_type_symbol
 _atom_site_label
 _atom_site_symmetry_multiplicity
 _atom_site_fract_x
 _atom_site_fract_y
 _atom_site_fract_z
 _atom_site_occupancy
  Li  Li0  1  0.50000000  0.00000000  0.50000000  1
  Mn  Mn1  1  0.00000000  0.00000000  0.00000000  1
  P  P2  1  0.75000000  0.50000000  0.75000000  1
  O  O3  1  0.45445855  0.26547453  0.05608475  1
  O  O4  1  0.67844173  0.73452547  0.45445855  1
  O  O5  1  0.81101597  0.26547453  0.67844173  1
  O  O6  1  0.05608475  0.73452547  0.81101597  1
