# generated using pymatgen
data_Na2Ni3O5
_symmetry_space_group_name_H-M   'P 1'
_cell_length_a   5.17042366
_cell_length_b   6.11480134
_cell_length_c   6.92372837
_cell_angle_alpha   104.76177140
_cell_angle_beta   98.73178601
_cell_angle_gamma   106.17568630
_symmetry_Int_Tables_number   1
_chemical_formula_structural   Na2Ni3O5
_chemical_formula_sum   'Na4 Ni6 O10'
_cell_volume   197.35995901
_cell_formula_units_Z   2
loop_
 _symmetry_equiv_pos_site_id
 _symmetry_equiv_pos_as_xyz
  1  'x, y, z'
loop_
 _atom_site_type_symbol
 _atom_site_label
 _atom_site_symmetry_multiplicity
 _atom_site_fract_x
 _atom_site_fract_y
 _atom_site_fract_z
 _atom_site_occupancy
  Na  Na0  1  0.80053776  0.09917995  0.60540509  1
  Na  Na1  1  0.59946224  0.70082005  0.19459491  1
  Na  Na2  1  0.40670712  0.30320076  0.80613722  1
  Na  Na3  1  0.99329288  0.49679924  0.99386278  1
  Ni  Ni4  1  0.80052475  0.60238766  0.59349714  1
  Ni  Ni5  1  0.59947525  0.19761234  0.20650286  1
  Ni  Ni6  1  0.40278419  0.80037392  0.79373112  1
  Ni  Ni7  1  0.20000000  0.40000000  0.40000000  1
  Ni  Ni8  1  0.20000000  0.90000000  0.40000000  1
  Ni  Ni9  1  0.99721581  0.99962608  0.00626888  1
  O  O10  1  0.93428185  0.08478625  0.30898384  1
  O  O11  1  0.92278257  0.53301736  0.31901220  1
  O  O12  1  0.69406970  0.10873561  0.91961797  1
  O  O13  1  0.70593030  0.69126439  0.88038203  1
  O  O14  1  0.47721743  0.26698264  0.48098780  1
  O  O15  1  0.46571815  0.71521375  0.49101616  1
  O  O16  1  0.27092295  0.31825608  0.12798160  1
  O  O17  1  0.27658869  0.87530599  0.10058580  1
  O  O18  1  0.12907705  0.48174392  0.67201840  1
  O  O19  1  0.12341131  0.92469401  0.69941420  1
