# generated using pymatgen
data_Cu(PO3)3
_symmetry_space_group_name_H-M   'P 1'
_cell_length_a   8.38285872
_cell_length_b   8.49969020
_cell_length_c   8.58270800
_cell_angle_alpha   90.00000000
_cell_angle_beta   90.00000000
_cell_angle_gamma   90.00000000
_symmetry_Int_Tables_number   1
_chemical_formula_structural   Cu(PO3)3
_chemical_formula_sum   'Cu4 P12 O36'
_cell_volume   611.53255372
_cell_formula_units_Z   4
loop_
 _symmetry_equiv_pos_site_id
 _symmetry_equiv_pos_as_xyz
  1  'x, y, z'
loop_
 _atom_site_type_symbol
 _atom_site_label
 _atom_site_symmetry_multiplicity
 _atom_site_fract_x
 _atom_site_fract_y
 _atom_site_fract_z
 _atom_site_occupancy
  Cu  Cu0  1  0.13135188  0.85488773  0.15038238  1
  Cu  Cu1  1  0.36864812  0.14511227  0.65038238  1
  Cu  Cu2  1  0.63135188  0.64511227  0.84961762  1
  Cu  Cu3  1  0.86864812  0.35488773  0.34961762  1
  P  P4  1  0.03507878  0.32177132  0.68528693  1
  P  P5  1  0.17614681  0.48466137  0.19152470  1
  P  P6  1  0.20882924  0.81208535  0.55494410  1
  P  P7  1  0.29117076  0.18791465  0.05494410  1
  P  P8  1  0.32385319  0.51533863  0.69152470  1
  P  P9  1  0.46492122  0.67822868  0.18528693  1
  P  P10  1  0.53507878  0.17822868  0.31471307  1
  P  P11  1  0.67614681  0.01533863  0.80847530  1
  P  P12  1  0.70882924  0.68791465  0.44505590  1
  P  P13  1  0.79117076  0.31208535  0.94505590  1
  P  P14  1  0.82385319  0.98466137  0.30847530  1
  P  P15  1  0.96492122  0.82177132  0.81471307  1
  O  O16  1  0.04690678  0.77869270  0.65282772  1
  O  O17  1  0.08881798  0.62395565  0.12459235  1
  O  O18  1  0.09783426  0.87658114  0.92127019  1
  O  O19  1  0.10389418  0.39778343  0.32804602  1
  O  O20  1  0.13647919  0.18603159  0.62954104  1
  O  O21  1  0.14563700  0.46575814  0.74185028  1
  O  O22  1  0.15950607  0.85216605  0.39264107  1
  O  O23  1  0.17984263  0.08423071  0.14812995  1
  O  O24  1  0.21318730  0.36191650  0.05329224  1
  O  O25  1  0.28681270  0.63808350  0.55329224  1
  O  O26  1  0.32015737  0.91576929  0.64812995  1
  O  O27  1  0.34049393  0.14783395  0.89264107  1
  O  O28  1  0.35436300  0.53424186  0.24185028  1
  O  O29  1  0.36352081  0.81396841  0.12954104  1
  O  O30  1  0.39610582  0.60221657  0.82804602  1
  O  O31  1  0.40216574  0.12341886  0.42127019  1
  O  O32  1  0.41118202  0.37604435  0.62459235  1
  O  O33  1  0.45309322  0.22130730  0.15282772  1
  O  O34  1  0.54690678  0.72130730  0.34717228  1
  O  O35  1  0.58881798  0.87604435  0.87540765  1
  O  O36  1  0.59783426  0.62341886  0.07872981  1
  O  O37  1  0.60389418  0.10221657  0.67195398  1
  O  O38  1  0.63647919  0.31396841  0.37045896  1
  O  O39  1  0.64563700  0.03424186  0.25814972  1
  O  O40  1  0.65950607  0.64783395  0.60735893  1
  O  O41  1  0.67984263  0.41576929  0.85187005  1
  O  O42  1  0.71318730  0.13808350  0.94670776  1
  O  O43  1  0.78681270  0.86191650  0.44670776  1
  O  O44  1  0.82015737  0.58423071  0.35187005  1
  O  O45  1  0.84049393  0.35216605  0.10735893  1
  O  O46  1  0.85436300  0.96575814  0.75814972  1
  O  O47  1  0.86352081  0.68603159  0.87045896  1
  O  O48  1  0.89610582  0.89778343  0.17195398  1
  O  O49  1  0.90216574  0.37658114  0.57872981  1
  O  O50  1  0.91118202  0.12395565  0.37540765  1
  O  O51  1  0.95309322  0.27869270  0.84717228  1
