# generated using pymatgen
data_BH11C4NClF4
_symmetry_space_group_name_H-M   'P 1'
_cell_length_a   6.07505021
_cell_length_b   7.78134538
_cell_length_c   9.40047849
_cell_angle_alpha   90.00000000
_cell_angle_beta   102.78863414
_cell_angle_gamma   90.00000000
_symmetry_Int_Tables_number   1
_chemical_formula_structural   BH11C4NClF4
_chemical_formula_sum   'B2 H22 C8 N2 Cl2 F8'
_cell_volume   433.35641114
_cell_formula_units_Z   2
loop_
 _symmetry_equiv_pos_site_id
 _symmetry_equiv_pos_as_xyz
  1  'x, y, z'
loop_
 _atom_site_type_symbol
 _atom_site_label
 _atom_site_symmetry_multiplicity
 _atom_site_fract_x
 _atom_site_fract_y
 _atom_site_fract_z
 _atom_site_occupancy
  B  B0  1  0.06245719  0.75000000  0.76254179  1
  B  B1  1  0.93754281  0.25000000  0.23745821  1
  H  H2  1  0.74918090  0.63379161  0.41222162  1
  H  H3  1  0.18950385  0.36589762  0.82653702  1
  H  H4  1  0.30416511  0.59790451  0.07727170  1
  H  H5  1  0.37399393  0.25000000  0.97076731  1
  H  H6  1  0.74918090  0.86620839  0.41222162  1
  H  H7  1  0.81049615  0.86589762  0.17346298  1
  H  H8  1  0.25081910  0.13379161  0.58777838  1
  H  H9  1  0.50980432  0.52185694  0.78158670  1
  H  H10  1  0.81049615  0.63410238  0.17346298  1
  H  H11  1  0.69583489  0.40209549  0.92272830  1
  H  H12  1  0.69583489  0.09790451  0.92272830  1
  H  H13  1  0.49019568  0.02185694  0.21841330  1
  H  H14  1  0.25330208  0.90995176  0.25831593  1
  H  H15  1  0.30416511  0.90209549  0.07727170  1
  H  H16  1  0.18950385  0.13410238  0.82653702  1
  H  H17  1  0.62600607  0.75000000  0.02923269  1
  H  H18  1  0.50980432  0.97814306  0.78158670  1
  H  H19  1  0.49019568  0.47814306  0.21841330  1
  H  H20  1  0.74669792  0.09004824  0.74168407  1
  H  H21  1  0.74669792  0.40995176  0.74168407  1
  H  H22  1  0.25330208  0.59004824  0.25831593  1
  H  H23  1  0.25081910  0.36620839  0.58777838  1
  C  C24  1  0.64515886  0.75000000  0.39114740  1
  C  C25  1  0.61751078  0.09186525  0.80622329  1
  C  C26  1  0.38248922  0.59186525  0.19377671  1
  C  C27  1  0.29217363  0.25000000  0.85477836  1
  C  C28  1  0.70782637  0.75000000  0.14522164  1
  C  C29  1  0.61751078  0.40813475  0.80622329  1
  C  C30  1  0.35484114  0.25000000  0.60885260  1
  C  C31  1  0.38248922  0.90813475  0.19377671  1
  N  N32  1  0.52592055  0.75000000  0.23135263  1
  N  N33  1  0.47407945  0.25000000  0.76864737  1
  Cl  Cl34  1  0.45310457  0.75000000  0.50692911  1
  Cl  Cl35  1  0.54689543  0.25000000  0.49307089  1
  F  F36  1  0.91858716  0.75000000  0.86179539  1
  F  F37  1  0.08141284  0.25000000  0.13820461  1
  F  F38  1  0.29216666  0.75000000  0.84306085  1
  F  F39  1  0.02538784  0.60064891  0.67371582  1
  F  F40  1  0.02538784  0.89935109  0.67371582  1
  F  F41  1  0.97461216  0.39935109  0.32628418  1
  F  F42  1  0.70783334  0.25000000  0.15693915  1
  F  F43  1  0.97461216  0.10064891  0.32628418  1
