# generated using pymatgen
data_Li2Mn(PO4)2
_symmetry_space_group_name_H-M   'P 1'
_cell_length_a   6.19136895
_cell_length_b   6.19136895
_cell_length_c   9.23477404
_cell_angle_alpha   66.41674923
_cell_angle_beta   113.58325077
_cell_angle_gamma   98.52692138
_symmetry_Int_Tables_number   1
_chemical_formula_structural   Li2Mn(PO4)2
_chemical_formula_sum   'Li4 Mn2 P4 O16'
_cell_volume   297.30524480
_cell_formula_units_Z   2
loop_
 _symmetry_equiv_pos_site_id
 _symmetry_equiv_pos_as_xyz
  1  'x, y, z'
loop_
 _atom_site_type_symbol
 _atom_site_label
 _atom_site_symmetry_multiplicity
 _atom_site_fract_x
 _atom_site_fract_y
 _atom_site_fract_z
 _atom_site_occupancy
  Li  Li0  1  0.33201819  0.61351519  0.50359120  1
  Li  Li1  1  0.61351519  0.33201819  0.99640880  1
  Li  Li2  1  0.38648481  0.66798181  0.00359120  1
  Li  Li3  1  0.66798181  0.38648481  0.49640880  1
  Mn  Mn4  1  0.90657461  0.90657461  0.75000000  1
  Mn  Mn5  1  0.09342539  0.09342539  0.25000000  1
  P  P6  1  0.02610638  0.37449655  0.84683082  1
  P  P7  1  0.62550345  0.97389362  0.34683082  1
  P  P8  1  0.37449655  0.02610638  0.65316918  1
  P  P9  1  0.97389362  0.62550345  0.15316918  1
  O  O10  1  0.23687960  0.93129076  0.77493025  1
  O  O11  1  0.24234779  0.94236924  0.49967134  1
  O  O12  1  0.06870924  0.76312040  0.27493025  1
  O  O13  1  0.60620434  0.87303531  0.76589477  1
  O  O14  1  0.05763076  0.75765221  0.99967134  1
  O  O15  1  0.28616015  0.42216217  0.89587196  1
  O  O16  1  0.12696469  0.39379566  0.26589477  1
  O  O17  1  0.57783783  0.71383985  0.39587196  1
  O  O18  1  0.42216217  0.28616015  0.60412804  1
  O  O19  1  0.87303531  0.60620434  0.73410523  1
  O  O20  1  0.71383985  0.57783783  0.10412804  1
  O  O21  1  0.94236924  0.24234779  0.00032866  1
  O  O22  1  0.39379566  0.12696469  0.23410523  1
  O  O23  1  0.93129076  0.23687960  0.72506975  1
  O  O24  1  0.75765221  0.05763076  0.50032866  1
  O  O25  1  0.76312040  0.06870924  0.22506975  1
