# generated using pymatgen
data_Li2Ni3SnO8
_symmetry_space_group_name_H-M   'P 1'
_cell_length_a   8.41563370
_cell_length_b   8.41506065
_cell_length_c   8.13467342
_cell_angle_alpha   90.00755826
_cell_angle_beta   89.98361515
_cell_angle_gamma   90.01622421
_symmetry_Int_Tables_number   1
_chemical_formula_structural   Li2Ni3SnO8
_chemical_formula_sum   'Li8 Ni12 Sn4 O32'
_cell_volume   576.08180360
_cell_formula_units_Z   4
loop_
 _symmetry_equiv_pos_site_id
 _symmetry_equiv_pos_as_xyz
  1  'x, y, z'
loop_
 _atom_site_type_symbol
 _atom_site_label
 _atom_site_symmetry_multiplicity
 _atom_site_fract_x
 _atom_site_fract_y
 _atom_site_fract_z
 _atom_site_occupancy
  Li  Li0  1  0.00111764  0.99988044  0.99755383  1
  Li  Li1  1  0.25021228  0.24876564  0.25244910  1
  Li  Li2  1  0.24981381  0.75117969  0.75234720  1
  Li  Li3  1  0.49880196  0.00030100  0.49755718  1
  Li  Li4  1  0.50125891  0.50010679  0.00226177  1
  Li  Li5  1  0.75004691  0.25109431  0.74781305  1
  Li  Li6  1  0.74991290  0.74868609  0.24774192  1
  Li  Li7  1  0.99890016  0.49998425  0.50223366  1
  Ni  Ni8  1  0.11958491  0.13051516  0.62506700  1
  Ni  Ni9  1  0.12497692  0.37960144  0.86524612  1
  Ni  Ni10  1  0.12960282  0.62510701  0.11517681  1
  Ni  Ni11  1  0.37046086  0.37490187  0.61534349  1
  Ni  Ni12  1  0.37507756  0.62036215  0.36518895  1
  Ni  Ni13  1  0.38048018  0.86946887  0.12502899  1
  Ni  Ni14  1  0.61960726  0.36964951  0.37503968  1
  Ni  Ni15  1  0.62484744  0.12040364  0.13480184  1
  Ni  Ni16  1  0.62956379  0.87488690  0.88469550  1
  Ni  Ni17  1  0.87026001  0.12508770  0.38486343  1
  Ni  Ni18  1  0.87496961  0.87959733  0.63474913  1
  Ni  Ni19  1  0.88035648  0.63042210  0.87491213  1
  Sn  Sn20  1  0.12309274  0.87318224  0.37495888  1
  Sn  Sn21  1  0.37692918  0.12690707  0.87497479  1
  Sn  Sn22  1  0.62301892  0.62690877  0.62501956  1
  Sn  Sn23  1  0.87696095  0.37307573  0.12499780  1
  O  O24  1  0.10504601  0.12179843  0.39492879  1
  O  O25  1  0.11724699  0.90432331  0.62730479  1
  O  O26  1  0.10779202  0.61543667  0.88507286  1
  O  O27  1  0.12825830  0.14513935  0.85509038  1
  O  O28  1  0.12208401  0.38178277  0.09763438  1
  O  O29  1  0.13468443  0.35806646  0.63518395  1
  O  O30  1  0.13178991  0.62800670  0.34755731  1
  O  O31  1  0.15452024  0.86739293  0.12265345  1
  O  O32  1  0.34575441  0.13269825  0.62277890  1
  O  O33  1  0.36810697  0.37205314  0.84756128  1
  O  O34  1  0.36555069  0.64224709  0.13511247  1
  O  O35  1  0.37788244  0.61814334  0.59751871  1
  O  O36  1  0.37179298  0.85489774  0.35505545  1
  O  O37  1  0.39236164  0.38442509  0.38520876  1
  O  O38  1  0.38268834  0.09547928  0.12730064  1
  O  O39  1  0.39520289  0.87818486  0.89494273  1
  O  O40  1  0.60491849  0.37818628  0.60507251  1
  O  O41  1  0.61758578  0.59543429  0.37269686  1
  O  O42  1  0.60775437  0.88426671  0.11494777  1
  O  O43  1  0.62832032  0.35520715  0.14495084  1
  O  O44  1  0.62208018  0.11813263  0.90244197  1
  O  O45  1  0.63423705  0.14241267  0.36494054  1
  O  O46  1  0.63178410  0.87203155  0.65227261  1
  O  O47  1  0.65441365  0.63262045  0.87725696  1
  O  O48  1  0.84549609  0.36737829  0.37737056  1
  O  O49  1  0.86809804  0.12793727  0.15251056  1
  O  O50  1  0.86530559  0.85788631  0.86474722  1
  O  O51  1  0.87788577  0.88188047  0.40247688  1
  O  O52  1  0.87166260  0.64524534  0.64497508  1
  O  O53  1  0.89195881  0.11538018  0.61483819  1
  O  O54  1  0.88274647  0.40431388  0.87271902  1
  O  O55  1  0.89513621  0.62167639  0.10499678  1
