# generated using pymatgen
data_Li2CrCoO4
_symmetry_space_group_name_H-M   'P 1'
_cell_length_a   5.79450157
_cell_length_b   5.79147878
_cell_length_c   5.84442512
_cell_angle_alpha   120.21705000
_cell_angle_beta   59.75255928
_cell_angle_gamma   90.41401906
_symmetry_Int_Tables_number   1
_chemical_formula_structural   Li2CrCoO4
_chemical_formula_sum   'Li4 Cr2 Co2 O8'
_cell_volume   138.21001610
_cell_formula_units_Z   2
loop_
 _symmetry_equiv_pos_site_id
 _symmetry_equiv_pos_as_xyz
  1  'x, y, z'
loop_
 _atom_site_type_symbol
 _atom_site_label
 _atom_site_symmetry_multiplicity
 _atom_site_fract_x
 _atom_site_fract_y
 _atom_site_fract_z
 _atom_site_occupancy
  Li  Li0  1  0.49752499  0.50217190  0.00900616  1
  Li  Li1  1  0.49850992  0.50478590  0.51160795  1
  Li  Li2  1  0.99880491  0.50178035  0.50431926  1
  Li  Li3  1  0.49777111  0.00551416  0.00758440  1
  Cr  Cr4  1  0.99843577  0.00200844  0.00372935  1
  Cr  Cr5  1  0.99867828  0.00177297  0.50358528  1
  Co  Co6  1  0.99862070  0.50187825  0.00375258  1
  Co  Co7  1  0.49873071  0.00180420  0.50376034  1
  O  O8  1  0.22539053  0.75581239  0.01778598  1
  O  O9  1  0.75438541  0.75643641  0.47953624  1
  O  O10  1  0.24465659  0.77488497  0.51762014  1
  O  O11  1  0.75369951  0.75690842  0.02708242  1
  O  O12  1  0.24364531  0.24679442  0.98032758  1
  O  O13  1  0.75268200  0.22872842  0.48991022  1
  O  O14  1  0.24311298  0.24713611  0.52770171  1
  O  O15  1  0.77187827  0.24806768  0.98965638  1
