# generated using pymatgen
data_Li2Mn2OF6
_symmetry_space_group_name_H-M   'P 1'
_cell_length_a   7.42170232
_cell_length_b   5.72880310
_cell_length_c   7.03304124
_cell_angle_alpha   78.82883604
_cell_angle_beta   117.21606879
_cell_angle_gamma   108.89283048
_symmetry_Int_Tables_number   1
_chemical_formula_structural   Li2Mn2OF6
_chemical_formula_sum   'Li4 Mn4 O2 F12'
_cell_volume   251.22438655
_cell_formula_units_Z   2
loop_
 _symmetry_equiv_pos_site_id
 _symmetry_equiv_pos_as_xyz
  1  'x, y, z'
loop_
 _atom_site_type_symbol
 _atom_site_label
 _atom_site_symmetry_multiplicity
 _atom_site_fract_x
 _atom_site_fract_y
 _atom_site_fract_z
 _atom_site_occupancy
  Li  Li0  1  0.78763086  0.31039037  0.39403317  1
  Li  Li1  1  0.91938476  0.78962935  0.13024163  1
  Li  Li2  1  0.08061524  0.21037065  0.86975837  1
  Li  Li3  1  0.21236914  0.68960963  0.60596683  1
  Mn  Mn4  1  0.59191624  0.22260477  0.86224587  1
  Mn  Mn5  1  0.27755736  0.34138565  0.41627653  1
  Mn  Mn6  1  0.72244264  0.65861435  0.58372347  1
  Mn  Mn7  1  0.40808376  0.77739523  0.13775413  1
  O  O8  1  0.50035738  0.50120923  0.31904819  1
  O  O9  1  0.49964262  0.49879077  0.68095181  1
  F  F10  1  0.38676332  0.02663750  0.61909635  1
  F  F11  1  0.75559562  0.41937021  0.10159745  1
  F  F12  1  0.09384447  0.15911934  0.17065286  1
  F  F13  1  0.80850375  0.31539281  0.71779367  1
  F  F14  1  0.33837421  0.07109066  0.97563895  1
  F  F15  1  0.07904938  0.28937478  0.53771534  1
  F  F16  1  0.92095062  0.71062522  0.46228466  1
  F  F17  1  0.66162579  0.92890934  0.02436105  1
  F  F18  1  0.19149625  0.68460719  0.28220633  1
  F  F19  1  0.90615553  0.84088066  0.82934714  1
  F  F20  1  0.24440438  0.58062979  0.89840255  1
  F  F21  1  0.61323668  0.97336250  0.38090365  1
