# generated using pymatgen
data_LiVSiO4
_symmetry_space_group_name_H-M   'P 1'
_cell_length_a   9.14174967
_cell_length_b   6.33804841
_cell_length_c   4.90111514
_cell_angle_alpha   90.00000000
_cell_angle_beta   90.00000000
_cell_angle_gamma   90.00000000
_symmetry_Int_Tables_number   1
_chemical_formula_structural   LiVSiO4
_chemical_formula_sum   'Li4 V4 Si4 O16'
_cell_volume   283.97478677
_cell_formula_units_Z   4
loop_
 _symmetry_equiv_pos_site_id
 _symmetry_equiv_pos_as_xyz
  1  'x, y, z'
loop_
 _atom_site_type_symbol
 _atom_site_label
 _atom_site_symmetry_multiplicity
 _atom_site_fract_x
 _atom_site_fract_y
 _atom_site_fract_z
 _atom_site_occupancy
  Li  Li0  1  0.16464664  0.75000000  0.47472555  1
  Li  Li1  1  0.33535336  0.25000000  0.97472555  1
  Li  Li2  1  0.66464664  0.75000000  0.02527445  1
  Li  Li3  1  0.83535336  0.25000000  0.52527445  1
  V  V4  1  0.00000000  0.00000000  0.00000000  1
  V  V5  1  0.00000000  0.50000000  0.00000000  1
  V  V6  1  0.50000000  0.00000000  0.50000000  1
  V  V7  1  0.50000000  0.50000000  0.50000000  1
  Si  Si8  1  0.17845671  0.25000000  0.47666046  1
  Si  Si9  1  0.32154329  0.75000000  0.97666046  1
  Si  Si10  1  0.67845671  0.25000000  0.02333954  1
  Si  Si11  1  0.82154329  0.75000000  0.52333954  1
  O  O12  1  0.12510325  0.25000000  0.80230961  1
  O  O13  1  0.11874219  0.03542497  0.32931899  1
  O  O14  1  0.11874219  0.46457503  0.32931899  1
  O  O15  1  0.14087942  0.75000000  0.90812960  1
  O  O16  1  0.35912058  0.25000000  0.40812960  1
  O  O17  1  0.38125781  0.96457503  0.82931899  1
  O  O18  1  0.38125781  0.53542497  0.82931899  1
  O  O19  1  0.37489675  0.75000000  0.30230961  1
  O  O20  1  0.62510325  0.25000000  0.69769039  1
  O  O21  1  0.61874219  0.03542497  0.17068101  1
  O  O22  1  0.61874219  0.46457503  0.17068101  1
  O  O23  1  0.64087942  0.75000000  0.59187040  1
  O  O24  1  0.85912058  0.25000000  0.09187040  1
  O  O25  1  0.88125781  0.53542497  0.67068101  1
  O  O26  1  0.88125781  0.96457503  0.67068101  1
  O  O27  1  0.87489675  0.75000000  0.19769039  1
