# generated using pymatgen
data_Sr2MnCO3F5
_symmetry_space_group_name_H-M   'P 1'
_cell_length_a   5.58556180
_cell_length_b   9.06411734
_cell_length_c   13.44334842
_cell_angle_alpha   90.00000000
_cell_angle_beta   96.47709097
_cell_angle_gamma   90.00000000
_symmetry_Int_Tables_number   1
_chemical_formula_structural   Sr2MnCO3F5
_chemical_formula_sum   'Sr8 Mn4 C4 O12 F20'
_cell_volume   676.26804322
_cell_formula_units_Z   4
loop_
 _symmetry_equiv_pos_site_id
 _symmetry_equiv_pos_as_xyz
  1  'x, y, z'
loop_
 _atom_site_type_symbol
 _atom_site_label
 _atom_site_symmetry_multiplicity
 _atom_site_fract_x
 _atom_site_fract_y
 _atom_site_fract_z
 _atom_site_occupancy
  Sr  Sr0  1  0.20815493  0.89159760  0.90198560  1
  Sr  Sr1  1  0.22245594  0.35486371  0.91409551  1
  Sr  Sr2  1  0.27754406  0.85486371  0.58590449  1
  Sr  Sr3  1  0.29184507  0.39159760  0.59801440  1
  Sr  Sr4  1  0.70815493  0.60840240  0.40198560  1
  Sr  Sr5  1  0.72245594  0.14513629  0.41409551  1
  Sr  Sr6  1  0.77754406  0.64513629  0.08590449  1
  Sr  Sr7  1  0.79184507  0.10840240  0.09801440  1
  Mn  Mn8  1  0.13686027  0.87349320  0.32794307  1
  Mn  Mn9  1  0.36313973  0.37349320  0.17205693  1
  Mn  Mn10  1  0.63686027  0.62650680  0.82794307  1
  Mn  Mn11  1  0.86313973  0.12650680  0.67205693  1
  C  C12  1  0.18260334  0.37687165  0.36357238  1
  C  C13  1  0.31739666  0.87687165  0.13642762  1
  C  C14  1  0.68260334  0.12312835  0.86357238  1
  C  C15  1  0.81739666  0.62312835  0.63642762  1
  O  O16  1  0.00257020  0.38059953  0.41633779  1
  O  O17  1  0.12991008  0.37241742  0.26634630  1
  O  O18  1  0.09910759  0.87745550  0.09401929  1
  O  O19  1  0.50257020  0.11940047  0.91633779  1
  O  O20  1  0.40089241  0.37745550  0.40598071  1
  O  O21  1  0.37008992  0.87241742  0.23365370  1
  O  O22  1  0.62991008  0.12758258  0.76634630  1
  O  O23  1  0.59910759  0.62254450  0.59401929  1
  O  O24  1  0.49742980  0.88059953  0.08366221  1
  O  O25  1  0.90089241  0.12254450  0.90598071  1
  O  O26  1  0.87008992  0.62758258  0.73365370  1
  O  O27  1  0.99742980  0.61940047  0.58366221  1
  F  F28  1  0.07267250  0.95153661  0.72805553  1
  F  F29  1  0.05803044  0.27745163  0.73684453  1
  F  F30  1  0.08641605  0.12790690  0.56806874  1
  F  F31  1  0.41358395  0.62790690  0.93193126  1
  F  F32  1  0.16297667  0.51013898  0.08931314  1
  F  F33  1  0.31343210  0.71114743  0.42370567  1
  F  F34  1  0.44196956  0.77745163  0.76315547  1
  F  F35  1  0.42732750  0.45153661  0.77194447  1
  F  F36  1  0.18656790  0.21114743  0.07629433  1
  F  F37  1  0.33702333  0.01013898  0.41068686  1
  F  F38  1  0.66297667  0.98986102  0.58931314  1
  F  F39  1  0.81343210  0.78885257  0.92370567  1
  F  F40  1  0.57267250  0.54846339  0.22805553  1
  F  F41  1  0.55803044  0.22254837  0.23684453  1
  F  F42  1  0.68656790  0.28885257  0.57629433  1
  F  F43  1  0.83702333  0.48986102  0.91068686  1
  F  F44  1  0.58641605  0.37209310  0.06806874  1
  F  F45  1  0.91358395  0.87209310  0.43193126  1
  F  F46  1  0.94196956  0.72254837  0.26315547  1
  F  F47  1  0.92732750  0.04846339  0.27194447  1
