# generated using pymatgen
data_CoTe2O5
_symmetry_space_group_name_H-M   'P 1'
_cell_length_a   7.41364899
_cell_length_b   10.76657895
_cell_length_c   6.04212744
_cell_angle_alpha   89.99988955
_cell_angle_beta   90.00054739
_cell_angle_gamma   89.99995041
_symmetry_Int_Tables_number   1
_chemical_formula_structural   CoTe2O5
_chemical_formula_sum   'Co4 Te8 O20'
_cell_volume   482.28041991
_cell_formula_units_Z   4
loop_
 _symmetry_equiv_pos_site_id
 _symmetry_equiv_pos_as_xyz
  1  'x, y, z'
loop_
 _atom_site_type_symbol
 _atom_site_label
 _atom_site_symmetry_multiplicity
 _atom_site_fract_x
 _atom_site_fract_y
 _atom_site_fract_z
 _atom_site_occupancy
  Co  Co0  1  0.00000028  0.06074866  0.24999966  1
  Co  Co1  1  0.99999970  0.93924116  0.74999994  1
  Co  Co2  1  0.49999966  0.56075898  0.25000021  1
  Co  Co3  1  0.49999955  0.43924061  0.75000010  1
  Te  Te4  1  0.13605971  0.34693076  0.49007268  1
  Te  Te5  1  0.13605377  0.65308058  0.99008169  1
  Te  Te6  1  0.36393329  0.15306815  0.99007104  1
  Te  Te7  1  0.36393858  0.84692331  0.49008050  1
  Te  Te8  1  0.63606713  0.15306778  0.50992936  1
  Te  Te9  1  0.63606141  0.84692350  0.00991935  1
  Te  Te10  1  0.86394583  0.65308034  0.50991811  1
  Te  Te11  1  0.86394023  0.34693102  0.00992778  1
  O  O12  1  0.00000003  0.44147398  0.24999989  1
  O  O13  1  -0.00000004  0.55853286  0.74999966  1
  O  O14  1  0.14806692  0.06363585  0.94872421  1
  O  O15  1  0.14806080  0.93635702  0.44873809  1
  O  O16  1  0.19196004  0.20650451  0.31070983  1
  O  O17  1  0.19194534  0.79349818  0.81071206  1
  O  O18  1  0.30804433  0.29349002  0.81071444  1
  O  O19  1  0.30805087  0.70650838  0.31070876  1
  O  O20  1  0.35193049  0.43636638  0.44872373  1
  O  O21  1  0.35194352  0.56364400  0.94873647  1
  O  O22  1  0.49999943  0.94146991  0.24999974  1
  O  O23  1  0.50000049  0.05852385  0.74999995  1
  O  O24  1  0.64806867  0.43636631  0.05127604  1
  O  O25  1  0.64805693  0.56364340  0.55126375  1
  O  O26  1  0.69195574  0.29348918  0.68928623  1
  O  O27  1  0.69194967  0.70650821  0.18929040  1
  O  O28  1  0.80804126  0.20650466  0.18928944  1
  O  O29  1  0.80805286  0.79349733  0.68928942  1
  O  O30  1  0.85193367  0.06363486  0.55127563  1
  O  O31  1  0.85193986  0.93635628  0.05126182  1
