# generated using pymatgen
data_LiNi6O7
_symmetry_space_group_name_H-M   'P 1'
_cell_length_a   5.11708119
_cell_length_b   5.91005798
_cell_length_c   8.86480594
_cell_angle_alpha   89.96496631
_cell_angle_beta   95.49226604
_cell_angle_gamma   106.82411235
_symmetry_Int_Tables_number   1
_chemical_formula_structural   LiNi6O7
_chemical_formula_sum   'Li2 Ni12 O14'
_cell_volume   255.33536176
_cell_formula_units_Z   2
loop_
 _symmetry_equiv_pos_site_id
 _symmetry_equiv_pos_as_xyz
  1  'x, y, z'
loop_
 _atom_site_type_symbol
 _atom_site_label
 _atom_site_symmetry_multiplicity
 _atom_site_fract_x
 _atom_site_fract_y
 _atom_site_fract_z
 _atom_site_occupancy
  Li  Li0  1  0.71388854  0.92832780  0.42871558  1
  Li  Li1  1  0.42896846  0.35738620  0.85699842  1
  Ni  Ni2  1  0.85670514  0.21408622  0.71406930  1
  Ni  Ni3  1  0.85312304  0.71328360  0.71340366  1
  Ni  Ni4  1  0.71497191  0.42906359  0.42881384  1
  Ni  Ni5  1  0.42788509  0.85665041  0.85690016  1
  Ni  Ni6  1  0.57142900  0.14285700  0.14285700  1
  Ni  Ni7  1  0.57142900  0.64285700  0.14285700  1
  Ni  Ni8  1  0.28615186  0.07162878  0.57164470  1
  Ni  Ni9  1  0.28973396  0.57243040  0.57231034  1
  Ni  Ni10  1  0.14015303  0.28276792  0.28712112  1
  Ni  Ni11  1  0.14482640  0.78840629  0.28814430  1
  Ni  Ni12  1  0.00270497  0.00294608  0.99859288  1
  Ni  Ni13  1  0.99803060  0.49730771  0.99756970  1
  O  O14  1  0.00940679  0.74681362  0.50089322  1
  O  O15  1  0.71900266  0.17539760  0.92995011  1
  O  O16  1  0.71942622  0.68475496  0.93196370  1
  O  O17  1  0.85663977  0.46515240  0.21400045  1
  O  O18  1  0.85848348  0.96330416  0.20944514  1
  O  O19  1  0.57482597  0.39256553  0.63754556  1
  O  O20  1  0.56803103  0.89314847  0.64816844  1
  O  O21  1  0.42385434  0.11031740  0.35576389  1
  O  O22  1  0.42343078  0.60096004  0.35375030  1
  O  O23  1  0.13515375  0.02823038  0.78208276  1
  O  O24  1  0.13345121  0.53890138  0.78482078  1
  O  O25  1  0.28437352  0.32240984  0.07626886  1
  O  O26  1  0.28621723  0.82056160  0.07171355  1
  O  O27  1  0.00770425  0.25748362  0.50363124  1
