# generated using pymatgen
data_Mg8Mn3O11
_symmetry_space_group_name_H-M   'P 1'
_cell_length_a   3.05843982
_cell_length_b   3.05843982
_cell_length_c   27.64061542
_cell_angle_alpha   90.00000000
_cell_angle_beta   93.17151576
_cell_angle_gamma   120.00000000
_symmetry_Int_Tables_number   1
_chemical_formula_structural   Mg8Mn3O11
_chemical_formula_sum   'Mg8 Mn3 O11'
_cell_volume   223.45506047
_cell_formula_units_Z   1
loop_
 _symmetry_equiv_pos_site_id
 _symmetry_equiv_pos_as_xyz
  1  'x, y, z'
loop_
 _atom_site_type_symbol
 _atom_site_label
 _atom_site_symmetry_multiplicity
 _atom_site_fract_x
 _atom_site_fract_y
 _atom_site_fract_z
 _atom_site_occupancy
  Mg  Mg0  1  0.45366962  0.72683481  0.18050442  1
  Mg  Mg1  1  0.72812942  0.36406521  0.09219463  1
  Mg  Mg2  1  0.90996738  0.45498319  0.36495058  1
  Mg  Mg3  1  0.63550658  0.81775279  0.45325937  1
  Mg  Mg4  1  0.09236725  0.54618362  0.63855087  1
  Mg  Mg5  1  0.81862738  0.90931369  0.72794107  1
  Mg  Mg6  1  0.54500862  0.27250431  0.81751293  1
  Mg  Mg7  1  0.27126875  0.63563438  0.90690313  1
  Mn  Mn8  1  0.99984945  0.99992422  0.99977367  1
  Mn  Mn9  1  0.18181800  0.09090900  0.27272700  1
  Mn  Mn10  1  0.36378755  0.18189378  0.54568133  1
  O  O11  1  0.36597439  0.68298669  0.04896108  1
  O  O12  1  0.09090687  0.04545294  0.13635981  1
  O  O13  1  0.54783659  0.77391880  0.32175539  1
  O  O14  1  0.81579941  0.40789920  0.22369861  1
  O  O15  1  0.27272913  0.13636506  0.40909419  1
  O  O16  1  0.99766261  0.49883131  0.49649292  1
  O  O17  1  0.72995323  0.86497712  0.59493035  1
  O  O18  1  0.45546128  0.22773064  0.68319193  1
  O  O19  1  0.18181800  0.59090900  0.77272700  1
  O  O20  1  0.90817472  0.95408736  0.86226207  1
  O  O21  1  0.63368277  0.31684188  0.95052465  1
