# generated using pymatgen
data_LiMn2F9
_symmetry_space_group_name_H-M   'P 1'
_cell_length_a   5.37359347
_cell_length_b   5.47568255
_cell_length_c   13.78874334
_cell_angle_alpha   88.43232362
_cell_angle_beta   90.44927962
_cell_angle_gamma   61.07755843
_symmetry_Int_Tables_number   1
_chemical_formula_structural   LiMn2F9
_chemical_formula_sum   'Li2 Mn4 F18'
_cell_volume   354.88185287
_cell_formula_units_Z   2
loop_
 _symmetry_equiv_pos_site_id
 _symmetry_equiv_pos_as_xyz
  1  'x, y, z'
loop_
 _atom_site_type_symbol
 _atom_site_label
 _atom_site_symmetry_multiplicity
 _atom_site_fract_x
 _atom_site_fract_y
 _atom_site_fract_z
 _atom_site_occupancy
  Li  Li0  1  0.02409668  0.29495443  0.46138144  1
  Li  Li1  1  0.81286067  0.68883398  0.96396314  1
  Mn  Mn2  1  0.15244990  0.02711285  0.84147112  1
  Mn  Mn3  1  0.33559944  0.01843583  0.65689832  1
  Mn  Mn4  1  0.68236774  0.97390026  0.33999113  1
  Mn  Mn5  1  0.85075034  0.98174523  0.15428066  1
  F  F6  1  0.07138908  0.12508372  0.12660520  1
  F  F7  1  0.22776197  0.31711556  0.57669858  1
  F  F8  1  0.31128538  0.13701389  0.36612606  1
  F  F9  1  0.37112642  0.18216084  0.78156342  1
  F  F10  1  0.05110223  0.81482100  0.28225356  1
  F  F11  1  0.24461081  0.84989710  0.56737499  1
  F  F12  1  0.38958129  0.73627376  0.75625457  1
  F  F13  1  0.40275050  0.84929069  0.93939385  1
  F  F14  1  0.59573969  0.16258176  0.06123393  1
  F  F15  1  0.63093224  0.26436210  0.24706635  1
  F  F16  1  0.76485344  0.14879187  0.43231295  1
  F  F17  1  0.95677338  0.17880687  0.71875879  1
  F  F18  1  0.62756660  0.82569601  0.22137838  1
  F  F19  1  0.93757508  0.32962504  0.90902345  1
  F  F20  1  0.69745543  0.86560594  0.63157467  1
  F  F21  1  0.76786500  0.67137063  0.41520939  1
  F  F22  1  0.93831146  0.86633264  0.86862477  1
  F  F23  1  0.02737323  0.68235800  0.08095230  1
