# generated using pymatgen
data_V6PbO15
_symmetry_space_group_name_H-M   'P 1'
_cell_length_a   15.64685753
_cell_length_b   7.41595484
_cell_length_c   10.41230301
_cell_angle_alpha   90.00000000
_cell_angle_beta   70.64675305
_cell_angle_gamma   90.00000000
_symmetry_Int_Tables_number   1
_chemical_formula_structural   V6PbO15
_chemical_formula_sum   'V24 Pb4 O60'
_cell_volume   1139.93440798
_cell_formula_units_Z   4
loop_
 _symmetry_equiv_pos_site_id
 _symmetry_equiv_pos_as_xyz
  1  'x, y, z'
loop_
 _atom_site_type_symbol
 _atom_site_label
 _atom_site_symmetry_multiplicity
 _atom_site_fract_x
 _atom_site_fract_y
 _atom_site_fract_z
 _atom_site_occupancy
  V  V0  1  0.88409374  0.50181784  0.00849937  1
  V  V1  1  0.88002238  0.99865379  0.00274263  1
  V  V2  1  0.83383672  0.24940398  0.26204543  1
  V  V3  1  0.83158383  0.75190700  0.27148914  1
  V  V4  1  0.78224843  0.24832383  0.62414393  1
  V  V5  1  0.78307977  0.75161863  0.62731781  1
  V  V6  1  0.66616328  0.00059602  0.23795457  1
  V  V7  1  0.66841617  0.49809300  0.22851086  1
  V  V8  1  0.61590626  0.74818216  0.49150063  1
  V  V9  1  0.61997762  0.25134621  0.49725737  1
  V  V10  1  0.71692023  0.49838137  0.87268219  1
  V  V11  1  0.71775157  0.00167617  0.87585607  1
  V  V12  1  0.28307977  0.99838137  0.12731781  1
  V  V13  1  0.28224843  0.50167617  0.12414393  1
  V  V14  1  0.38409374  0.24818216  0.50849937  1
  V  V15  1  0.38002238  0.75134621  0.50274263  1
  V  V16  1  0.33158383  0.99809300  0.77148914  1
  V  V17  1  0.33383672  0.50059602  0.76204543  1
  V  V18  1  0.21692023  0.25161863  0.37268219  1
  V  V19  1  0.21775157  0.74832383  0.37585607  1
  V  V20  1  0.16841617  0.25190700  0.72851086  1
  V  V21  1  0.16616328  0.74940398  0.73795457  1
  V  V22  1  0.11590626  0.00181784  0.99150063  1
  V  V23  1  0.11997762  0.49865379  0.99725737  1
  Pb  Pb24  1  0.99745553  0.50787684  0.60987286  1
  Pb  Pb25  1  0.49745553  0.24212316  0.10987286  1
  Pb  Pb26  1  0.50254447  0.74212316  0.89012714  1
  Pb  Pb27  1  0.00254447  0.00787684  0.39012714  1
  O  O28  1  0.93413406  0.22999516  0.28535867  1
  O  O29  1  0.93412627  0.76577498  0.28152728  1
  O  O30  1  0.86756249  0.24802095  0.05774959  1
  O  O31  1  0.86766644  0.75323706  0.05739177  1
  O  O32  1  0.82022302  0.50750241  0.22824976  1
  O  O33  1  0.80810633  0.99288821  0.23329031  1
  O  O34  1  0.89459627  0.24420985  0.57179983  1
  O  O35  1  0.89668101  0.75442781  0.57303602  1
  O  O36  1  0.74219149  0.99952370  0.03487337  1
  O  O37  1  0.73809510  0.50168756  0.04982162  1
  O  O38  1  0.89405759  0.99901789  0.84079274  1
  O  O39  1  0.88490373  0.50163707  0.84532563  1
  O  O40  1  0.75780851  0.25047630  0.46512663  1
  O  O41  1  0.76190490  0.74831244  0.45017838  1
  O  O42  1  0.67977698  0.74249759  0.27175024  1
  O  O43  1  0.69189367  0.25711179  0.26670969  1
  O  O44  1  0.75735596  0.49345257  0.67116223  1
  O  O45  1  0.75327298  0.00590274  0.67079831  1
  O  O46  1  0.74264404  0.75654743  0.82883777  1
  O  O47  1  0.74672702  0.24409726  0.82920169  1
  O  O48  1  0.63233356  0.49676294  0.44260823  1
  O  O49  1  0.63243751  0.00197905  0.44225041  1
  O  O50  1  0.56587373  0.48422502  0.21847272  1
  O  O51  1  0.56586594  0.02000484  0.21464133  1
  O  O52  1  0.61509627  0.74836293  0.65467437  1
  O  O53  1  0.60594241  0.25098211  0.65920726  1
  O  O54  1  0.39668101  0.99557219  0.07303602  1
  O  O55  1  0.39459627  0.50579015  0.07179983  1
  O  O56  1  0.49862549  0.24948735  0.49609506  1
  O  O57  1  0.50137451  0.74948735  0.50390494  1
  O  O58  1  0.60331899  0.49557219  0.92696398  1
  O  O59  1  0.60540373  0.00579015  0.92820017  1
  O  O60  1  0.39405759  0.75098211  0.34079274  1
  O  O61  1  0.38490373  0.24836293  0.34532563  1
  O  O62  1  0.43412627  0.98422502  0.78152728  1
  O  O63  1  0.43413406  0.52000484  0.78535867  1
  O  O64  1  0.36766644  0.99676294  0.55739177  1
  O  O65  1  0.36756249  0.50197905  0.55774959  1
  O  O66  1  0.25327298  0.74409726  0.17079831  1
  O  O67  1  0.25735596  0.25654743  0.17116223  1
  O  O68  1  0.24264404  0.99345257  0.32883777  1
  O  O69  1  0.24672702  0.50590274  0.32920169  1
  O  O70  1  0.30810633  0.75711179  0.73329031  1
  O  O71  1  0.32022302  0.24249759  0.72824976  1
  O  O72  1  0.23809510  0.24831244  0.54982162  1
  O  O73  1  0.24219149  0.75047630  0.53487337  1
  O  O74  1  0.11509627  0.00163707  0.15467437  1
  O  O75  1  0.10594241  0.49901789  0.15920726  1
  O  O76  1  0.26190490  0.00168756  0.95017838  1
  O  O77  1  0.25780851  0.49952370  0.96512663  1
  O  O78  1  0.99862549  0.50051265  0.99609506  1
  O  O79  1  0.00137451  0.00051265  0.00390494  1
  O  O80  1  0.10331899  0.25442781  0.42696398  1
  O  O81  1  0.10540373  0.74420985  0.42820017  1
  O  O82  1  0.17977698  0.00750241  0.77175024  1
  O  O83  1  0.19189367  0.49288821  0.76670969  1
  O  O84  1  0.13233356  0.25323706  0.94260823  1
  O  O85  1  0.13243751  0.74802095  0.94225041  1
  O  O86  1  0.06587373  0.26577498  0.71847272  1
  O  O87  1  0.06586594  0.72999516  0.71464133  1
