# generated using pymatgen
data_Li3CuS2
_symmetry_space_group_name_H-M   'P 1'
_cell_length_a   9.74952155
_cell_length_b   9.74952155
_cell_length_c   9.74952155
_cell_angle_alpha   109.47122063
_cell_angle_beta   109.47122063
_cell_angle_gamma   109.47122063
_symmetry_Int_Tables_number   1
_chemical_formula_structural   Li3CuS2
_chemical_formula_sum   'Li24 Cu8 S16'
_cell_volume   713.39164649
_cell_formula_units_Z   8
loop_
 _symmetry_equiv_pos_site_id
 _symmetry_equiv_pos_as_xyz
  1  'x, y, z'
loop_
 _atom_site_type_symbol
 _atom_site_label
 _atom_site_symmetry_multiplicity
 _atom_site_fract_x
 _atom_site_fract_y
 _atom_site_fract_z
 _atom_site_occupancy
  Li  Li0  1  0.74909504  0.99876208  0.99589564  1
  Li  Li1  1  0.99713356  0.50123792  0.25033296  1
  Li  Li2  1  0.74966704  0.00286644  0.49876208  1
  Li  Li3  1  0.75033296  0.24909504  0.25319940  1
  Li  Li4  1  0.49589564  0.49713356  0.24680060  1
  Li  Li5  1  0.00410436  0.25090496  0.00123792  1
  Li  Li6  1  0.00123792  0.00410436  0.25090496  1
  Li  Li7  1  0.49876208  0.74966704  0.00286644  1
  Li  Li8  1  0.74680060  0.24966704  0.75090496  1
  Li  Li9  1  0.75319940  0.50410436  0.50286644  1
  Li  Li10  1  0.49713356  0.24680060  0.49589564  1
  Li  Li11  1  0.75090496  0.74680060  0.24966704  1
  Li  Li12  1  0.50286644  0.75319940  0.50410436  1
  Li  Li13  1  0.24909504  0.25319940  0.75033296  1
  Li  Li14  1  0.24680060  0.49589564  0.49713356  1
  Li  Li15  1  0.25319940  0.75033296  0.24909504  1
  Li  Li16  1  0.99876208  0.99589564  0.74909504  1
  Li  Li17  1  0.50123792  0.25033296  0.99713356  1
  Li  Li18  1  0.50410436  0.50286644  0.75319940  1
  Li  Li19  1  0.99589564  0.74909504  0.99876208  1
  Li  Li20  1  0.25033296  0.99713356  0.50123792  1
  Li  Li21  1  0.24966704  0.75090496  0.74680060  1
  Li  Li22  1  0.00286644  0.49876208  0.74966704  1
  Li  Li23  1  0.25090496  0.00123792  0.00410436  1
  Cu  Cu24  1  0.75419131  0.50000000  0.00000000  1
  Cu  Cu25  1  0.50000000  0.00000000  0.24580869  1
  Cu  Cu26  1  0.25419131  0.25419131  0.25419131  1
  Cu  Cu27  1  0.24580869  0.50000000  0.00000000  1
  Cu  Cu28  1  0.50000000  0.00000000  0.75419131  1
  Cu  Cu29  1  0.00000000  0.24580869  0.50000000  1
  Cu  Cu30  1  0.74580869  0.74580869  0.74580869  1
  Cu  Cu31  1  0.00000000  0.75419131  0.50000000  1
  S  S32  1  0.75000000  0.00285779  0.25285779  1
  S  S33  1  0.00000000  0.00000000  0.00000000  1
  S  S34  1  0.50000000  0.00000000  0.50000000  1
  S  S35  1  0.50000000  0.50000000  0.00000000  1
  S  S36  1  0.49714221  0.24714221  0.25000000  1
  S  S37  1  0.99714221  0.74714221  0.25000000  1
  S  S38  1  0.25000000  0.49714221  0.24714221  1
  S  S39  1  0.24714221  0.25000000  0.49714221  1
  S  S40  1  0.25285779  0.75000000  0.00285779  1
  S  S41  1  0.75285779  0.75000000  0.50285779  1
  S  S42  1  0.74714221  0.25000000  0.99714221  1
  S  S43  1  0.75000000  0.50285779  0.75285779  1
  S  S44  1  0.00000000  0.50000000  0.50000000  1
  S  S45  1  0.00285779  0.25285779  0.75000000  1
  S  S46  1  0.50285779  0.75285779  0.75000000  1
  S  S47  1  0.25000000  0.99714221  0.74714221  1
