# generated using pymatgen
data_CS3(Br2N)2
_symmetry_space_group_name_H-M   'P 1'
_cell_length_a   7.92813768
_cell_length_b   11.11555347
_cell_length_c   12.45466244
_cell_angle_alpha   90.00000000
_cell_angle_beta   90.00000000
_cell_angle_gamma   90.00000000
_symmetry_Int_Tables_number   1
_chemical_formula_structural   CS3(Br2N)2
_chemical_formula_sum   'C4 S12 Br16 N8'
_cell_volume   1097.57507733
_cell_formula_units_Z   4
loop_
 _symmetry_equiv_pos_site_id
 _symmetry_equiv_pos_as_xyz
  1  'x, y, z'
loop_
 _atom_site_type_symbol
 _atom_site_label
 _atom_site_symmetry_multiplicity
 _atom_site_fract_x
 _atom_site_fract_y
 _atom_site_fract_z
 _atom_site_occupancy
  C  C0  1  0.94010397  0.44327024  0.49987277  1
  C  C1  1  0.44010397  0.44327024  1.00012723  1
  C  C2  1  0.55989603  0.94327024  -0.00012723  1
  C  C3  1  0.05989603  0.94327024  0.50012723  1
  S  S4  1  0.29200718  0.01762467  0.07363991  1
  S  S5  1  0.79200718  0.01762467  0.42636009  1
  S  S6  1  0.76895781  0.42274990  0.41732803  1
  S  S7  1  0.46246728  0.36102946  0.87772970  1
  S  S8  1  0.20799282  0.51762467  0.57363991  1
  S  S9  1  0.70799282  0.51762467  0.92636009  1
  S  S10  1  0.73104219  0.92274990  0.91732803  1
  S  S11  1  0.53753272  0.86102946  0.12227030  1
  S  S12  1  0.23104219  0.92274990  0.58267197  1
  S  S13  1  0.26895781  0.42274990  0.08267197  1
  S  S14  1  0.96246728  0.36102946  0.62227030  1
  S  S15  1  0.03753272  0.86102946  0.37772970  1
  Br  Br16  1  0.10646051  0.24734653  0.91456579  1
  Br  Br17  1  0.36734226  0.70481398  0.79987216  1
  Br  Br18  1  0.86734226  0.70481398  0.70012784  1
  Br  Br19  1  0.89353949  0.74734653  0.08543421  1
  Br  Br20  1  0.63265774  0.20481398  0.20012784  1
  Br  Br21  1  0.66811533  0.04753450  0.78260388  1
  Br  Br22  1  0.39353949  0.74734653  0.41456579  1
  Br  Br23  1  0.16811533  0.04753450  0.71739612  1
  Br  Br24  1  0.60646051  0.24734653  0.58543421  1
  Br  Br25  1  0.83188467  0.54753450  0.28260388  1
  Br  Br26  1  0.35828324  0.22547164  0.43638632  1
  Br  Br27  1  0.14171676  0.72547164  0.93638632  1
  Br  Br28  1  0.33188467  0.54753450  0.21739612  1
  Br  Br29  1  0.64171676  0.72547164  0.56361368  1
  Br  Br30  1  0.85828324  0.22547164  0.06361368  1
  Br  Br31  1  0.13265774  0.20481398  0.29987216  1
  N  N32  1  0.14115166  0.42069925  0.65686923  1
  N  N33  1  0.43294125  0.01805984  0.98101623  1
  N  N34  1  0.64115166  0.42069925  0.84313077  1
  N  N35  1  0.35884834  0.92069925  0.15686923  1
  N  N36  1  0.85884834  0.92069925  0.34313077  1
  N  N37  1  0.06705875  0.51805984  0.48101623  1
  N  N38  1  0.56705875  0.51805984  0.01898377  1
  N  N39  1  0.93294125  0.01805984  0.51898377  1
