# generated using pymatgen
data_Li11Mn12(BO3)12
_symmetry_space_group_name_H-M   'P 1'
_cell_length_a   10.43594801
_cell_length_b   8.88994546
_cell_length_c   8.85187028
_cell_angle_alpha   107.88069522
_cell_angle_beta   98.41556340
_cell_angle_gamma   98.72590899
_symmetry_Int_Tables_number   1
_chemical_formula_structural   Li11Mn12(BO3)12
_chemical_formula_sum   'Li11 Mn12 B12 O36'
_cell_volume   756.09625172
_cell_formula_units_Z   1
loop_
 _symmetry_equiv_pos_site_id
 _symmetry_equiv_pos_as_xyz
  1  'x, y, z'
loop_
 _atom_site_type_symbol
 _atom_site_label
 _atom_site_symmetry_multiplicity
 _atom_site_fract_x
 _atom_site_fract_y
 _atom_site_fract_z
 _atom_site_occupancy
  Li  Li0  1  0.97834479  0.26092101  0.27881967  1
  Li  Li1  1  0.72917754  0.01167048  0.02895396  1
  Li  Li2  1  0.95423957  0.65468231  0.93714415  1
  Li  Li3  1  0.45452323  0.15428525  0.43667542  1
  Li  Li4  1  0.93882095  0.95903613  0.65910265  1
  Li  Li5  1  0.69091599  0.70890166  0.40876778  1
  Li  Li6  1  0.44350179  0.45885681  0.15969690  1
  Li  Li7  1  0.22928201  0.51218064  0.52963586  1
  Li  Li8  1  0.48072064  0.76239599  0.77868462  1
  Li  Li9  1  0.20381614  0.90414469  0.18690323  1
  Li  Li10  1  0.19153064  0.20872150  0.90860262  1
  Mn  Mn11  1  0.43325866  0.07143969  0.06311936  1
  Mn  Mn12  1  0.92933037  0.56998539  0.56614176  1
  Mn  Mn13  1  0.68250941  0.32155214  0.31912038  1
  Mn  Mn14  1  0.66481709  0.64725546  0.01511974  1
  Mn  Mn15  1  0.91294613  0.89892176  0.27170146  1
  Mn  Mn16  1  0.90158123  0.28017050  0.91349794  1
  Mn  Mn17  1  0.65139948  0.03577400  0.66501270  1
  Mn  Mn18  1  0.16442195  0.15091414  0.52308438  1
  Mn  Mn19  1  0.41940487  0.40224230  0.76882846  1
  Mn  Mn20  1  0.15499271  0.52532008  0.16559462  1
  Mn  Mn21  1  0.40344010  0.77684931  0.41508469  1
  Mn  Mn22  1  0.18168546  0.82180063  0.81108405  1
  B  B23  1  0.87469184  0.54052565  0.20910233  1
  B  B24  1  0.87646239  0.20290557  0.54084400  1
  B  B25  1  0.37563839  0.04254384  0.70880825  1
  B  B26  1  0.62353740  0.29171444  0.96306293  1
  B  B27  1  0.00007902  0.00149673  0.00092694  1
  B  B28  1  0.49584603  0.49930148  0.49431598  1
  B  B29  1  0.75186168  0.75860255  0.75192508  1
  B  B30  1  0.24966962  0.24903319  0.24988768  1
  B  B31  1  0.37531710  0.70847119  0.04081771  1
  B  B32  1  0.62656590  0.95676511  0.29092584  1
  B  B33  1  0.12426576  0.79115561  0.45872473  1
  B  B34  1  0.12648018  0.45722079  0.79057123  1
  O  O35  1  0.92223563  0.03670743  0.11737011  1
  O  O36  1  0.95007129  0.42179686  0.16932322  1
  O  O37  1  0.95505594  0.08893881  0.50283637  1
  O  O38  1  0.86778623  0.30794238  0.45377701  1
  O  O39  1  0.62040744  0.05868745  0.20091195  1
  O  O40  1  0.86912010  0.64646824  0.12159581  1
  O  O41  1  0.55729681  0.30012818  0.09094478  1
  O  O42  1  0.80673784  0.55199964  0.33456586  1
  O  O43  1  0.81032668  0.20544756  0.66568039  1
  O  O44  1  0.70035834  0.17329969  0.92126056  1
  O  O45  1  0.45016546  0.59113761  0.00867658  1
  O  O46  1  0.70098666  0.83832375  0.25767637  1
  O  O47  1  0.31519245  0.12167051  0.23728283  1
  O  O48  1  0.83117728  0.64879779  0.74880465  1
  O  O49  1  0.55219659  0.36737507  0.47074953  1
  O  O50  1  0.75249996  0.84438267  0.64236480  1
  O  O51  1  0.25956951  0.33792458  0.14477640  1
  O  O52  1  0.50815628  0.59399870  0.39395250  1
  O  O53  1  0.36616953  0.14395239  0.61720067  1
  O  O54  1  0.61370552  0.39532744  0.87826267  1
  O  O55  1  0.30664185  0.05328429  0.83305955  1
  O  O56  1  0.55686328  0.97375447  0.41654270  1
  O  O57  1  0.30456722  0.72469323  0.16496527  1
  O  O58  1  0.42177310  0.54061288  0.61569459  1
  O  O59  1  0.17283821  0.28775049  0.36714622  1
  O  O60  1  0.67162582  0.79044498  0.86711260  1
  O  O61  1  0.45609640  0.92913294  0.67425185  1
  O  O62  1  0.20135203  0.67448771  0.42237936  1
  O  O63  1  0.20234288  0.34021342  0.75844745  1
  O  O64  1  0.00789550  0.09038883  0.89584042  1
  O  O65  1  0.11976496  0.55952528  0.70039203  1
  O  O66  1  0.36952727  0.81110560  0.95019093  1
  O  O67  1  0.11748829  0.89529520  0.36905546  1
  O  O68  1  0.05559606  0.80367202  0.58347656  1
  O  O69  1  0.05579753  0.47229702  0.91500524  1
  O  O70  1  0.07039199  0.87834387  0.99134863  1
