# generated using pymatgen
data_Li4TiCrO6
_symmetry_space_group_name_H-M   'P 1'
_cell_length_a   6.55213538
_cell_length_b   5.05197482
_cell_length_c   9.81325089
_cell_angle_alpha   85.58054597
_cell_angle_beta   42.10880879
_cell_angle_gamma   50.33751721
_symmetry_Int_Tables_number   1
_chemical_formula_structural   Li4TiCrO6
_chemical_formula_sum   'Li4 Ti1 Cr1 O6'
_cell_volume   107.38160106
_cell_formula_units_Z   1
loop_
 _symmetry_equiv_pos_site_id
 _symmetry_equiv_pos_as_xyz
  1  'x, y, z'
loop_
 _atom_site_type_symbol
 _atom_site_label
 _atom_site_symmetry_multiplicity
 _atom_site_fract_x
 _atom_site_fract_y
 _atom_site_fract_z
 _atom_site_occupancy
  Li  Li0  1  0.00325923  0.50194137  0.99813661  1
  Li  Li1  1  0.49751549  0.99881562  0.50100661  1
  Li  Li2  1  0.31736276  0.50207811  0.34084741  1
  Li  Li3  1  0.67186026  0.50146960  0.66365588  1
  Ti  Ti4  1  0.16288052  0.00546580  0.16824179  1
  Cr  Cr5  1  0.83721149  0.99516794  0.83155361  1
  O  O6  1  0.28539394  0.21235901  0.22317863  1
  O  O7  1  0.71212039  0.79179149  0.77878190  1
  O  O8  1  0.55725658  0.29373717  0.58298613  1
  O  O9  1  0.14320654  0.70884313  0.06610631  1
  O  O10  1  0.42278807  0.71876738  0.42428268  1
  O  O11  1  0.86281272  0.27514137  0.93156043  1
