# generated using pymatgen
data_LiMnPCO7
_symmetry_space_group_name_H-M   'P 1'
_cell_length_a   5.18517779
_cell_length_b   6.22965822
_cell_length_c   8.60579802
_cell_angle_alpha   90.87783210
_cell_angle_beta   93.72150350
_cell_angle_gamma   90.92644497
_symmetry_Int_Tables_number   1
_chemical_formula_structural   LiMnPCO7
_chemical_formula_sum   'Li2 Mn2 P2 C2 O14'
_cell_volume   277.32373108
_cell_formula_units_Z   2
loop_
 _symmetry_equiv_pos_site_id
 _symmetry_equiv_pos_as_xyz
  1  'x, y, z'
loop_
 _atom_site_type_symbol
 _atom_site_label
 _atom_site_symmetry_multiplicity
 _atom_site_fract_x
 _atom_site_fract_y
 _atom_site_fract_z
 _atom_site_occupancy
  Li  Li0  1  0.77261195  0.95802396  0.21133099  1
  Li  Li1  1  0.22739681  0.04186606  0.78704894  1
  Mn  Mn2  1  0.20903230  0.74464776  0.33775163  1
  Mn  Mn3  1  0.79087849  0.25543857  0.66062213  1
  P  P4  1  0.27719330  0.24466877  0.43121837  1
  P  P5  1  0.72269220  0.75541823  0.56718197  1
  C  C6  1  0.26416122  0.77126315  0.06227399  1
  C  C7  1  0.73585423  0.22860842  0.93615659  1
  O  O8  1  0.70596439  0.19605666  0.07460218  1
  O  O9  1  0.03886116  0.74787843  0.12465145  1
  O  O10  1  0.45546485  0.75643290  0.17226481  1
  O  O11  1  0.19331598  0.05453267  0.31926123  1
  O  O12  1  0.20274267  0.44132110  0.33429285  1
  O  O13  1  0.57278645  0.23506141  0.47225938  1
  O  O14  1  0.86134702  0.76586185  0.41351818  1
  O  O15  1  0.13857853  0.23425687  0.58490197  1
  O  O16  1  0.42712453  0.76505135  0.52614334  1
  O  O17  1  0.79715365  0.55876193  0.66411558  1
  O  O18  1  0.80657037  0.94555589  0.67915363  1
  O  O19  1  0.54450882  0.24355360  0.82613004  1
  O  O20  1  0.96113824  0.25210682  0.87370576  1
  O  O21  1  0.29409884  0.80369059  0.92369398  1
