# generated using pymatgen
data_Te3As2S(OF6)2
_symmetry_space_group_name_H-M   'P 1'
_cell_length_a   10.06565329
_cell_length_b   10.52813932
_cell_length_c   16.26309362
_cell_angle_alpha   75.12636501
_cell_angle_beta   77.41078276
_cell_angle_gamma   63.42714541
_symmetry_Int_Tables_number   1
_chemical_formula_structural   Te3As2S(OF6)2
_chemical_formula_sum   'Te12 As8 S4 O8 F48'
_cell_volume   1479.10172675
_cell_formula_units_Z   4
loop_
 _symmetry_equiv_pos_site_id
 _symmetry_equiv_pos_as_xyz
  1  'x, y, z'
loop_
 _atom_site_type_symbol
 _atom_site_label
 _atom_site_symmetry_multiplicity
 _atom_site_fract_x
 _atom_site_fract_y
 _atom_site_fract_z
 _atom_site_occupancy
  Te  Te0  1  0.12436414  0.36536065  0.14752372  1
  Te  Te1  1  0.91963061  0.83464612  0.67896923  1
  Te  Te2  1  0.42821236  0.21767688  0.14144681  1
  Te  Te3  1  0.76383045  0.74717880  0.60345479  1
  Te  Te4  1  0.23616955  0.25282120  0.39654521  1
  Te  Te5  1  0.87563586  0.63463935  0.85247628  1
  Te  Te6  1  0.61730543  0.98344609  0.68170805  1
  Te  Te7  1  0.28399137  0.45478070  0.21869729  1
  Te  Te8  1  0.08036939  0.16535388  0.32103077  1
  Te  Te9  1  0.57178764  0.78232312  0.85855319  1
  Te  Te10  1  0.38269457  0.01655391  0.31829195  1
  Te  Te11  1  0.71600863  0.54521930  0.78130271  1
  As  As12  1  0.70477434  0.10003395  0.38438475  1
  As  As13  1  0.27672006  0.92656313  0.10133212  1
  As  As14  1  0.74785946  0.40548864  0.09396715  1
  As  As15  1  0.25214054  0.59451136  0.90603285  1
  As  As16  1  0.77559784  0.36392250  0.58474783  1
  As  As17  1  0.72327994  0.07343687  0.89866788  1
  As  As18  1  0.29522566  0.89996605  0.61561525  1
  As  As19  1  0.22440216  0.63607750  0.41525217  1
  S  S20  1  0.13195420  0.11279225  0.84394766  1
  S  S21  1  0.86804580  0.88720775  0.15605234  1
  S  S22  1  0.30309739  0.43641511  0.67179486  1
  S  S23  1  0.69690261  0.56358489  0.32820514  1
  O  O24  1  0.05500477  0.26885018  0.83186829  1
  O  O25  1  0.94499523  0.73114982  0.16813171  1
  O  O26  1  0.29476963  0.05300338  0.83011964  1
  O  O27  1  0.70523037  0.94699662  0.16988036  1
  O  O28  1  0.14043115  0.50882608  0.68457523  1
  O  O29  1  0.36658475  0.28187100  0.67486921  1
  O  O30  1  0.63341525  0.71812900  0.32513079  1
  O  O31  1  0.85956885  0.49117392  0.31542477  1
  F  F32  1  0.87115530  0.96359447  0.82933663  1
  F  F33  1  0.12884470  0.03640553  0.17066337  1
  F  F34  1  0.58248173  0.47643796  0.16505812  1
  F  F35  1  0.13440830  0.97724599  0.68761508  1
  F  F36  1  0.21983114  0.43862385  0.91510833  1
  F  F37  1  0.64661759  0.48661465  0.00451456  1
  F  F38  1  0.75175839  0.22719264  0.84008102  1
  F  F39  1  0.08314212  0.66629209  0.97405241  1
  F  F40  1  0.59504452  0.10365247  0.82665116  1
  F  F41  1  0.24824161  0.77280736  0.15991898  1
  F  F42  1  0.66822853  0.94397104  0.40100606  1
  F  F43  1  0.74059110  0.25539759  0.36596646  1
  F  F44  1  0.85390164  0.32342871  0.18389959  1
  F  F45  1  0.41751827  0.52356204  0.83494188  1
  F  F46  1  0.85211415  0.03742178  0.96834866  1
  F  F47  1  0.71782881  0.24758444  0.10621003  1
  F  F48  1  0.37298890  0.54474218  0.33867932  1
  F  F49  1  0.25940890  0.74460241  0.63403354  1
  F  F50  1  0.21026244  0.80542620  0.35368429  1
  F  F51  1  0.18741481  0.97799014  0.52859917  1
  F  F52  1  0.59217078  0.17927600  0.29775487  1
  F  F53  1  0.09723007  0.63297633  0.35504175  1
  F  F54  1  0.92651187  0.27955823  0.50953381  1
  F  F55  1  0.35338241  0.51338535  0.99548544  1
  F  F56  1  0.81258519  0.02200986  0.47140083  1
  F  F57  1  0.30571252  0.08364024  0.04566552  1
  F  F58  1  0.69428748  0.91635976  0.95433448  1
  F  F59  1  0.07348813  0.72044177  0.49046619  1
  F  F60  1  0.78016886  0.56137615  0.08489167  1
  F  F61  1  0.57283403  0.17931995  0.96582348  1
  F  F62  1  0.91685788  0.33370791  0.02594759  1
  F  F63  1  0.62701110  0.45525782  0.66132068  1
  F  F64  1  0.40782922  0.82072400  0.70224513  1
  F  F65  1  0.40495548  0.89634753  0.17334884  1
  F  F66  1  0.64442301  0.37037851  0.52688317  1
  F  F67  1  0.45983002  0.82247937  0.54524064  1
  F  F68  1  0.33177147  0.05602896  0.59899394  1
  F  F69  1  0.42716597  0.82068005  0.03417652  1
  F  F70  1  0.86559170  0.02275401  0.31238492  1
  F  F71  1  0.28217119  0.75241556  0.89378997  1
  F  F72  1  0.14788585  0.96257822  0.03165134  1
  F  F73  1  0.90276993  0.36702367  0.64495825  1
  F  F74  1  0.76263233  0.53714217  0.52368707  1
  F  F75  1  0.54016998  0.17752063  0.45475936  1
  F  F76  1  0.35557699  0.62962149  0.47311683  1
  F  F77  1  0.23736767  0.46285783  0.47631293  1
  F  F78  1  0.78973756  0.19457380  0.64631571  1
  F  F79  1  0.14609836  0.67657129  0.81610041  1
