# generated using pymatgen
data_Li2MnCo(PO4)2
_symmetry_space_group_name_H-M   'P 1'
_cell_length_a   10.45009287
_cell_length_b   6.06454627
_cell_length_c   4.76448543
_cell_angle_alpha   90.00000000
_cell_angle_beta   89.63452386
_cell_angle_gamma   90.00000000
_symmetry_Int_Tables_number   1
_chemical_formula_structural   Li2MnCo(PO4)2
_chemical_formula_sum   'Li4 Mn2 Co2 P4 O16'
_cell_volume   301.94346304
_cell_formula_units_Z   2
loop_
 _symmetry_equiv_pos_site_id
 _symmetry_equiv_pos_as_xyz
  1  'x, y, z'
loop_
 _atom_site_type_symbol
 _atom_site_label
 _atom_site_symmetry_multiplicity
 _atom_site_fract_x
 _atom_site_fract_y
 _atom_site_fract_z
 _atom_site_occupancy
  Li  Li0  1  0.00000000  0.00000000  0.00000000  1
  Li  Li1  1  0.00000000  0.50000000  0.00000000  1
  Li  Li2  1  0.50000000  0.00000000  0.50000000  1
  Li  Li3  1  0.50000000  0.50000000  0.50000000  1
  Mn  Mn4  1  0.22164905  0.75000000  0.47952448  1
  Mn  Mn5  1  0.77835095  0.25000000  0.52047552  1
  Co  Co6  1  0.27914743  0.25000000  0.97585338  1
  Co  Co7  1  0.72085257  0.75000000  0.02414662  1
  P  P8  1  0.09483576  0.25000000  0.41093498  1
  P  P9  1  0.40988883  0.75000000  0.92038212  1
  P  P10  1  0.59011117  0.25000000  0.07961788  1
  P  P11  1  0.90516424  0.75000000  0.58906502  1
  O  O12  1  0.04322771  0.75000000  0.70907201  1
  O  O13  1  0.09798522  0.25000000  0.73310634  1
  O  O14  1  0.16552089  0.04799252  0.27355495  1
  O  O15  1  0.16552089  0.45200748  0.27355495  1
  O  O16  1  0.33760512  0.54536202  0.79157711  1
  O  O17  1  0.33760512  0.95463798  0.79157711  1
  O  O18  1  0.40776152  0.75000000  0.24222930  1
  O  O19  1  0.45358589  0.25000000  0.21072385  1
  O  O20  1  0.54641411  0.75000000  0.78927615  1
  O  O21  1  0.59223848  0.25000000  0.75777070  1
  O  O22  1  0.66239488  0.04536202  0.20842289  1
  O  O23  1  0.66239488  0.45463798  0.20842289  1
  O  O24  1  0.83447911  0.54799252  0.72644505  1
  O  O25  1  0.83447911  0.95200748  0.72644505  1
  O  O26  1  0.90201478  0.75000000  0.26689366  1
  O  O27  1  0.95677229  0.25000000  0.29092799  1
