# generated using pymatgen
data_BaV10O17
_symmetry_space_group_name_H-M   'P 1'
_cell_length_a   11.45378403
_cell_length_b   10.11731305
_cell_length_c   6.03675282
_cell_angle_alpha   107.43485425
_cell_angle_beta   105.31540718
_cell_angle_gamma   87.60297264
_symmetry_Int_Tables_number   1
_chemical_formula_structural   BaV10O17
_chemical_formula_sum   'Ba2 V20 O34'
_cell_volume   643.17799349
_cell_formula_units_Z   2
loop_
 _symmetry_equiv_pos_site_id
 _symmetry_equiv_pos_as_xyz
  1  'x, y, z'
loop_
 _atom_site_type_symbol
 _atom_site_label
 _atom_site_symmetry_multiplicity
 _atom_site_fract_x
 _atom_site_fract_y
 _atom_site_fract_z
 _atom_site_occupancy
  Ba  Ba0  1  0.49876972  0.49939480  0.24427405  1
  Ba  Ba1  1  0.99963812  0.99900602  0.50489921  1
  V  V2  1  0.85832536  0.32229438  0.58882511  1
  V  V3  1  0.86823183  0.32743895  0.10098258  1
  V  V4  1  0.83444864  0.01624678  0.92105028  1
  V  V5  1  0.85273361  0.67597994  0.01798368  1
  V  V6  1  0.84287032  0.65654881  0.49714971  1
  V  V7  1  0.66567332  0.48263234  0.82896769  1
  V  V8  1  0.63161827  0.17215891  0.65025351  1
  V  V9  1  0.64084217  0.17590095  0.15952040  1
  V  V10  1  0.64608518  0.82261650  0.73195303  1
  V  V11  1  0.65768717  0.84324522  0.25453874  1
  V  V12  1  0.35353501  0.17589992  0.26325821  1
  V  V13  1  0.34256482  0.15640270  0.75342455  1
  V  V14  1  0.36855474  0.82706648  0.84672576  1
  V  V15  1  0.35836645  0.82213231  0.34320119  1
  V  V16  1  0.33459852  0.51616462  0.68126019  1
  V  V17  1  0.15735009  0.34211284  0.99731481  1
  V  V18  1  0.14618774  0.32252672  0.48802594  1
  V  V19  1  0.16579573  0.98223022  0.06940364  1
  V  V20  1  0.13158086  0.67110538  0.90449238  1
  V  V21  1  0.14111645  0.67568213  0.40719085  1
  O  O22  1  0.96362865  0.70688513  0.34108056  1
  O  O23  1  0.97078428  0.68485686  0.82324136  1
  O  O24  1  0.85121273  0.46242085  0.91283168  1
  O  O25  1  0.85922422  0.45352735  0.40618131  1
  O  O26  1  0.82898903  0.17733318  0.77008694  1
  O  O27  1  0.82971152  0.18103396  0.23764533  1
  O  O28  1  0.78585971  0.86841143  0.06489285  1
  O  O29  1  0.78667178  0.85607237  0.58414048  1
  O  O30  1  0.71363764  0.64286743  0.16631974  1
  O  O31  1  0.71301288  0.63144848  0.68533781  1
  O  O32  1  0.67011106  0.32241698  0.98050979  1
  O  O33  1  0.66946679  0.31794295  0.51005033  1
  O  O34  1  0.64812928  0.03583495  0.83699754  1
  O  O35  1  0.64148552  0.04589953  0.34754623  1
  O  O36  1  0.52888329  0.81461834  0.93027574  1
  O  O37  1  0.53645794  0.79177405  0.40957323  1
  O  O38  1  0.50014602  0.50014080  0.75316074  1
  O  O39  1  0.46352547  0.20640606  0.08128447  1
  O  O40  1  0.47076254  0.18676719  0.58791653  1
  O  O41  1  0.35149356  0.96269761  0.15301582  1
  O  O42  1  0.35908031  0.95301441  0.65811773  1
  O  O43  1  0.32915855  0.67728126  0.98878427  1
  O  O44  1  0.32998890  0.68011378  0.52425466  1
  O  O45  1  0.28575551  0.36759272  0.34043929  1
  O  O46  1  0.28618383  0.35644919  0.81010863  1
  O  O47  1  0.21378595  0.14238419  0.94046091  1
  O  O48  1  0.21310457  0.13102814  0.40994537  1
  O  O49  1  0.16976391  0.81807556  0.22706685  1
  O  O50  1  0.17079652  0.82128263  0.76282437  1
  O  O51  1  0.14848622  0.53599129  0.59763124  1
  O  O52  1  0.14037790  0.54489602  0.09121382  1
  O  O53  1  0.03640403  0.29147374  0.66936049  1
  O  O54  1  0.02891143  0.31409476  0.16525094  1
  O  O55  1  0.00028533  0.99964188  0.99781847  1
