# generated using pymatgen
data_Na5Fe2P2(CO7)2
_symmetry_space_group_name_H-M   'P 1'
_cell_length_a   10.37815234
_cell_length_b   10.50173561
_cell_length_c   6.61312805
_cell_angle_alpha   90.00000000
_cell_angle_beta   90.00000000
_cell_angle_gamma   59.93982702
_symmetry_Int_Tables_number   1
_chemical_formula_structural   Na5Fe2P2(CO7)2
_chemical_formula_sum   'Na10 Fe4 P4 C4 O28'
_cell_volume   623.81388140
_cell_formula_units_Z   2
loop_
 _symmetry_equiv_pos_site_id
 _symmetry_equiv_pos_as_xyz
  1  'x, y, z'
loop_
 _atom_site_type_symbol
 _atom_site_label
 _atom_site_symmetry_multiplicity
 _atom_site_fract_x
 _atom_site_fract_y
 _atom_site_fract_z
 _atom_site_occupancy
  Na  Na0  1  0.91280581  0.42782389  0.75133358  1
  Na  Na1  1  0.91280581  0.92782389  0.74866642  1
  Na  Na2  1  0.73351042  0.25879710  0.98359039  1
  Na  Na3  1  0.73351042  0.75879710  0.51640961  1
  Na  Na4  1  0.26073916  0.24370669  0.50112441  1
  Na  Na5  1  0.26057201  0.24354433  0.99882287  1
  Na  Na6  1  0.26057201  0.74354433  0.50117713  1
  Na  Na7  1  0.26073916  0.74370669  0.99887559  1
  Na  Na8  1  0.07403021  0.08383809  0.25873193  1
  Na  Na9  1  0.07403021  0.58383809  0.24126807  1
  Fe  Fe10  1  0.65303015  0.06699181  0.25393613  1
  Fe  Fe11  1  0.65303015  0.56699181  0.24606387  1
  Fe  Fe12  1  0.35357759  0.43431771  0.74943161  1
  Fe  Fe13  1  0.35357759  0.93431771  0.75056839  1
  P  P14  1  0.58178078  0.05974535  0.75161149  1
  P  P15  1  0.58178078  0.55974535  0.74838851  1
  P  P16  1  0.42017773  0.43436143  0.24985792  1
  P  P17  1  0.42017773  0.93436043  0.25014208  1
  C  C18  1  0.93765052  0.39668446  0.25132036  1
  C  C19  1  0.93765052  0.89668446  0.24867964  1
  C  C20  1  0.06297267  0.10476571  0.75443643  1
  C  C21  1  0.06297267  0.60476571  0.74556357  1
  O  O22  1  0.92231171  0.18520060  0.76526521  1
  O  O23  1  0.92231171  0.68519960  0.73473479  1
  O  O24  1  0.87343683  0.03954262  0.23378329  1
  O  O25  1  0.87343683  0.53954262  0.26621671  1
  O  O26  1  0.84970325  0.34264433  0.23785343  1
  O  O27  1  0.84970325  0.84264433  0.26214657  1
  O  O28  1  0.67701419  0.05368275  0.93967451  1
  O  O29  1  0.67807791  0.04247070  0.55871693  1
  O  O30  1  0.67807791  0.54247070  0.94128307  1
  O  O31  1  0.67701419  0.55368275  0.56032549  1
  O  O32  1  0.56686973  0.28386931  0.24344453  1
  O  O33  1  0.56686973  0.78386931  0.25655547  1
  O  O34  1  0.55272152  0.42967209  0.74806461  1
  O  O35  1  0.55272152  0.92967209  0.75193539  1
  O  O36  1  0.46081345  0.06087796  0.24933318  1
  O  O37  1  0.46081345  0.56087796  0.25066682  1
  O  O38  1  0.43241035  0.20613861  0.74919253  1
  O  O39  1  0.43241035  0.70613861  0.75080747  1
  O  O40  1  0.32251123  0.45192273  0.43542511  1
  O  O41  1  0.31914726  0.45524207  0.06599804  1
  O  O42  1  0.32251123  0.95192273  0.06457489  1
  O  O43  1  0.31914726  0.95524207  0.43400196  1
  O  O44  1  0.14941277  0.16288231  0.74823535  1
  O  O45  1  0.14941277  0.66288231  0.75176465  1
  O  O46  1  0.12716219  0.46020000  0.75209176  1
  O  O47  1  0.12716219  0.96020000  0.74790824  1
  O  O48  1  0.08103854  0.31454736  0.24969457  1
  O  O49  1  0.08103854  0.81454736  0.25030543  1
