# generated using pymatgen
data_Li5V12O32
_symmetry_space_group_name_H-M   'P 1'
_cell_length_a   7.28022504
_cell_length_b   7.69185555
_cell_length_c   12.16220739
_cell_angle_alpha   105.70105636
_cell_angle_beta   90.00000000
_cell_angle_gamma   118.24497306
_symmetry_Int_Tables_number   1
_chemical_formula_structural   Li5V12O32
_chemical_formula_sum   'Li5 V12 O32'
_cell_volume   570.96107969
_cell_formula_units_Z   1
loop_
 _symmetry_equiv_pos_site_id
 _symmetry_equiv_pos_as_xyz
  1  'x, y, z'
loop_
 _atom_site_type_symbol
 _atom_site_label
 _atom_site_symmetry_multiplicity
 _atom_site_fract_x
 _atom_site_fract_y
 _atom_site_fract_z
 _atom_site_occupancy
  Li  Li0  1  0.62544433  0.50088966  0.68399568  1
  Li  Li1  1  0.12462239  0.49924478  0.68437015  1
  Li  Li2  1  0.87756825  0.50089003  0.31615668  1
  Li  Li3  1  0.37332178  0.50089003  0.31615668  1
  Li  Li4  1  0.66279239  0.57558378  0.05164653  1
  V  V5  1  0.91265292  0.07530583  0.80663318  1
  V  V6  1  0.41022339  0.07044679  0.80364628  1
  V  V7  1  0.70383285  0.15724636  0.46324278  1
  V  V8  1  0.20341351  0.15724636  0.46324278  1
  V  V9  1  0.47327856  0.19655712  0.07939589  1
  V  V10  1  0.97767917  0.20535735  0.07961411  1
  V  V11  1  0.52172472  0.79458005  0.91948738  1
  V  V12  1  0.02285433  0.79458005  0.91948738  1
  V  V13  1  0.79644976  0.84290053  0.53749381  1
  V  V14  1  0.29662210  0.84324520  0.53669337  1
  V  V15  1  0.59061505  0.93162724  0.19679341  1
  V  V16  1  0.09101219  0.93162724  0.19679341  1
  O  O17  1  0.13123758  0.01149606  0.82621912  1
  O  O18  1  0.63025849  0.01149606  0.82621912  1
  O  O19  1  0.51630150  0.28260300  0.95467441  1
  O  O20  1  0.01592444  0.28184887  0.95259819  1
  O  O21  1  0.90931586  0.06863173  0.46036692  1
  O  O22  1  0.40904753  0.06809506  0.46022272  1
  O  O23  1  0.98569256  0.22138511  0.72095776  1
  O  O24  1  0.48641781  0.22283462  0.72216112  1
  O  O25  1  0.72422429  0.20000488  0.32723231  1
  O  O26  1  0.22578059  0.20000488  0.32723231  1
  O  O27  1  0.31801451  0.38613332  0.56237876  1
  O  O28  1  0.81811880  0.38613332  0.56237876  1
  O  O29  1  0.68480273  0.11881404  0.07169885  1
  O  O30  1  0.18401131  0.11881404  0.07169885  1
  O  O31  1  0.91379911  0.57962476  0.81007055  1
  O  O32  1  0.41582565  0.57962476  0.81007055  1
  O  O33  1  0.58724733  0.42449466  0.18249417  1
  O  O34  1  0.08503465  0.42006930  0.18929964  1
  O  O35  1  0.31480291  0.87960582  0.93054534  1
  O  O36  1  0.81389955  0.87779909  0.92791154  1
  O  O37  1  0.68211288  0.61422676  0.43788232  1
  O  O38  1  0.18198513  0.61397026  0.43795687  1
  O  O39  1  0.77577361  0.80154822  0.67329806  1
  O  O40  1  0.27621527  0.80243154  0.67352845  1
  O  O41  1  0.51495041  0.77822764  0.27852961  1
  O  O42  1  0.01327723  0.77822764  0.27852961  1
  O  O43  1  0.59073676  0.93196838  0.53980354  1
  O  O44  1  0.09123162  0.93196838  0.53980354  1
  O  O45  1  0.97201077  0.71457728  0.04614173  1
  O  O46  1  0.49256651  0.71457728  0.04614173  1
  O  O47  1  0.86854903  0.98709706  0.17472861  1
  O  O48  1  0.36822288  0.98644476  0.17254641  1
