# generated using pymatgen
data_Li24MnCr11O36
_symmetry_space_group_name_H-M   'P 1'
_cell_length_a   5.07960016
_cell_length_b   13.02582073
_cell_length_c   10.58652603
_cell_angle_alpha   67.14436773
_cell_angle_beta   84.38198594
_cell_angle_gamma   96.68796704
_symmetry_Int_Tables_number   1
_chemical_formula_structural   Li24MnCr11O36
_chemical_formula_sum   'Li24 Mn1 Cr11 O36'
_cell_volume   633.19085003
_cell_formula_units_Z   1
loop_
 _symmetry_equiv_pos_site_id
 _symmetry_equiv_pos_as_xyz
  1  'x, y, z'
loop_
 _atom_site_type_symbol
 _atom_site_label
 _atom_site_symmetry_multiplicity
 _atom_site_fract_x
 _atom_site_fract_y
 _atom_site_fract_z
 _atom_site_occupancy
  Li  Li0  1  0.77969185  0.06072407  0.93963525  1
  Li  Li1  1  0.66741069  0.08373987  0.66621853  1
  Li  Li2  1  0.88690292  0.27316833  0.72631294  1
  Li  Li3  1  0.33389644  0.16723605  0.83200274  1
  Li  Li4  1  0.55307502  0.10745992  0.39397900  1
  Li  Li5  1  0.00006412  0.25019610  0.99983624  1
  Li  Li6  1  0.99924901  0.00095630  0.50016234  1
  Li  Li7  1  0.77940955  0.56024572  0.93936512  1
  Li  Li8  1  0.44679936  0.39269360  0.60664950  1
  Li  Li9  1  0.66633209  0.58307071  0.66674839  1
  Li  Li10  1  0.66501306  0.33312302  0.16680129  1
  Li  Li11  1  0.11509525  0.22619688  0.27478488  1
  Li  Li12  1  0.88721973  0.77282401  0.72730983  1
  Li  Li13  1  0.33385389  0.66639048  0.83354778  1
  Li  Li14  1  0.33391436  0.41590650  0.33427070  1
  Li  Li15  1  0.55281754  0.60648877  0.39340359  1
  Li  Li16  1  0.00050313  0.50038221  0.50008482  1
  Li  Li17  1  0.21985115  0.44008437  0.05980188  1
  Li  Li18  1  0.44770547  0.89358472  0.60561653  1
  Li  Li19  1  0.66718508  0.83294311  0.16674766  1
  Li  Li20  1  0.11304703  0.72702425  0.27303203  1
  Li  Li21  1  0.33342127  0.91671108  0.33349455  1
  Li  Li22  1  0.99937564  0.74961619  0.00037082  1
  Li  Li23  1  0.21934913  0.93958316  0.06033455  1
  Mn  Mn24  1  0.22397926  0.19405923  0.55504654  1
  Cr  Cr25  1  0.89069989  0.03078571  0.21915837  1
  Cr  Cr26  1  0.55588259  0.36419678  0.88626975  1
  Cr  Cr27  1  0.78224383  0.30351451  0.44533692  1
  Cr  Cr28  1  0.44360768  0.13554433  0.11371286  1
  Cr  Cr29  1  0.10891949  0.46928609  0.78078753  1
  Cr  Cr30  1  0.88573100  0.53147500  0.22055590  1
  Cr  Cr31  1  0.55790841  0.86424897  0.88505724  1
  Cr  Cr32  1  0.77643959  0.80262362  0.44752458  1
  Cr  Cr33  1  0.22355820  0.69742187  0.55258192  1
  Cr  Cr34  1  0.43969823  0.63680887  0.11413397  1
  Cr  Cr35  1  0.10987321  0.96860380  0.78147609  1
  O  O36  1  0.43243542  0.99971335  0.86318787  1
  O  O37  1  0.64211614  0.21176491  0.92375879  1
  O  O38  1  0.90960497  0.16368389  0.47449819  1
  O  O39  1  0.31107064  0.04550598  0.59072333  1
  O  O40  1  0.88599202  0.40843709  0.95465016  1
  O  O41  1  0.02352277  0.12125195  0.74232769  1
  O  O42  1  0.54447974  0.24045825  0.62067461  1
  O  O43  1  0.78021283  0.42436894  0.71252339  1
  O  O44  1  0.76534709  0.16644796  0.19625210  1
  O  O45  1  0.23435596  0.33338355  0.80408382  1
  O  O46  1  0.21971104  0.07524833  0.28726391  1
  O  O47  1  0.45144390  0.26032113  0.37743170  1
  O  O48  1  0.43239313  0.50052320  0.86241949  1
  O  O49  1  0.97071557  0.37686510  0.25862016  1
  O  O50  1  0.11374526  0.09139000  0.04525173  1
  O  O51  1  0.69346002  0.45625955  0.40906212  1
  O  O52  1  0.09408388  0.33419237  0.52703035  1
  O  O53  1  0.64311243  0.71258158  0.92324198  1
  O  O54  1  0.35824755  0.28820876  0.07583938  1
  O  O55  1  0.90130237  0.66663369  0.47062880  1
  O  O56  1  0.30876880  0.54521049  0.59065978  1
  O  O57  1  0.88651386  0.90907028  0.95426866  1
  O  O58  1  0.02447079  0.62135239  0.74289886  1
  O  O59  1  0.57040017  0.50090750  0.13707597  1
  O  O60  1  0.55274533  0.74184773  0.62114628  1
  O  O61  1  0.78068095  0.92469487  0.71205815  1
  O  O62  1  0.76388149  0.66855356  0.19453331  1
  O  O63  1  0.23502957  0.83355239  0.80300388  1
  O  O64  1  0.21659400  0.57493976  0.28785308  1
  O  O65  1  0.44711545  0.75807554  0.37899857  1
  O  O66  1  0.97536927  0.87857775  0.25719643  1
  O  O67  1  0.11505075  0.59102772  0.04654064  1
  O  O68  1  0.69137876  0.95469518  0.40954374  1
  O  O69  1  0.09895256  0.83347186  0.52948161  1
  O  O70  1  0.35817709  0.78832306  0.07583381  1
  O  O71  1  0.56779629  0.99954217  0.13728404  1
