# generated using pymatgen
data_Ho(ClO4)3
_symmetry_space_group_name_H-M   'P 1'
_cell_length_a   9.26824166
_cell_length_b   9.26835551
_cell_length_c   5.71198653
_cell_angle_alpha   90.00000000
_cell_angle_beta   90.00000000
_cell_angle_gamma   119.99994210
_symmetry_Int_Tables_number   1
_chemical_formula_structural   Ho(ClO4)3
_chemical_formula_sum   'Ho2 Cl6 O24'
_cell_volume   424.93068416
_cell_formula_units_Z   2
loop_
 _symmetry_equiv_pos_site_id
 _symmetry_equiv_pos_as_xyz
  1  'x, y, z'
loop_
 _atom_site_type_symbol
 _atom_site_label
 _atom_site_symmetry_multiplicity
 _atom_site_fract_x
 _atom_site_fract_y
 _atom_site_fract_z
 _atom_site_occupancy
  Ho  Ho0  1  0.33336632  0.66668650  0.75000000  1
  Ho  Ho1  1  0.66669083  0.33333911  0.25000000  1
  Cl  Cl2  1  0.09095353  0.70764571  0.25000000  1
  Cl  Cl3  1  0.29235812  0.38331174  0.25000000  1
  Cl  Cl4  1  0.61670879  0.90905259  0.25000000  1
  Cl  Cl5  1  0.38329768  0.09095107  0.75000000  1
  Cl  Cl6  1  0.70764369  0.61668473  0.75000000  1
  Cl  Cl7  1  0.90905124  0.29235505  0.75000000  1
  O  O8  1  0.01998653  0.81237912  0.25000000  1
  O  O9  1  0.03487532  0.47027252  0.75000000  1
  O  O10  1  0.19770582  0.74157809  0.04309076  1
  O  O11  1  0.19770582  0.74157809  0.45690924  1
  O  O12  1  0.43539704  0.96512142  0.75000000  1
  O  O13  1  0.25842259  0.45612748  0.45690932  1
  O  O14  1  0.25842259  0.45612748  0.04309068  1
  O  O15  1  0.18761431  0.20760593  0.25000000  1
  O  O16  1  0.54388377  0.80229801  0.04309237  1
  O  O17  1  0.54388377  0.80229801  0.45690763  1
  O  O18  1  0.20760319  0.01999020  0.75000000  1
  O  O19  1  0.47028075  0.43540313  0.25000000  1
  O  O20  1  0.52972467  0.56459538  0.75000000  1
  O  O21  1  0.79240246  0.98000951  0.25000000  1
  O  O22  1  0.45612215  0.19770120  0.54308835  1
  O  O23  1  0.45612215  0.19770120  0.95691165  1
  O  O24  1  0.81238339  0.79239420  0.75000000  1
  O  O25  1  0.74157987  0.54387331  0.95690548  1
  O  O26  1  0.74157987  0.54387331  0.54309452  1
  O  O27  1  0.56460429  0.03487571  0.25000000  1
  O  O28  1  0.80229564  0.25841778  0.95690776  1
  O  O29  1  0.80229564  0.25841778  0.54309224  1
  O  O30  1  0.96513198  0.52972453  0.25000000  1
  O  O31  1  0.98000716  0.18761213  0.75000000  1
