# generated using pymatgen
data_Rb3FeO3
_symmetry_space_group_name_H-M   'P 1'
_cell_length_a   7.95833198
_cell_length_b   12.20823895
_cell_length_c   14.15046186
_cell_angle_alpha   89.99815093
_cell_angle_beta   153.07098153
_cell_angle_gamma   89.99940878
_symmetry_Int_Tables_number   1
_chemical_formula_structural   Rb3FeO3
_chemical_formula_sum   'Rb12 Fe4 O12'
_cell_volume   622.63694508
_cell_formula_units_Z   4
loop_
 _symmetry_equiv_pos_site_id
 _symmetry_equiv_pos_as_xyz
  1  'x, y, z'
loop_
 _atom_site_type_symbol
 _atom_site_label
 _atom_site_symmetry_multiplicity
 _atom_site_fract_x
 _atom_site_fract_y
 _atom_site_fract_z
 _atom_site_occupancy
  Rb  Rb0  1  0.30791042  0.06050442  0.78909756  1
  Rb  Rb1  1  0.34868679  0.34468021  0.91575390  1
  Rb  Rb2  1  0.33757030  0.80709759  0.70563716  1
  Rb  Rb3  1  0.30793488  0.43942437  0.28910939  1
  Rb  Rb4  1  0.34866684  0.15526985  0.41574695  1
  Rb  Rb5  1  0.33751888  0.69282559  0.20561094  1
  Rb  Rb6  1  0.65878106  0.19308062  0.29354802  1
  Rb  Rb7  1  0.64861348  0.65631652  0.08340113  1
  Rb  Rb8  1  0.69065732  0.94044541  0.21063255  1
  Rb  Rb9  1  0.65881491  0.30682041  0.79356601  1
  Rb  Rb10  1  0.64863034  0.84355316  0.58340887  1
  Rb  Rb11  1  0.69062422  0.55944575  0.71061785  1
  Fe  Fe12  1  0.16949480  0.54826212  0.66180574  1
  Fe  Fe13  1  0.16952555  0.95164905  0.16182437  1
  Fe  Fe14  1  0.82812132  0.45132365  0.33770650  1
  Fe  Fe15  1  0.82811686  0.04858854  0.83770084  1
  O  O16  1  0.00717844  0.39584875  0.55319496  1
  O  O17  1  0.09005890  0.11613300  0.86936747  1
  O  O18  1  0.00713884  0.10405970  0.05317094  1
  O  O19  1  0.09007240  0.38380755  0.36937107  1
  O  O20  1  0.31448676  0.43657688  0.07242589  1
  O  O21  1  0.31445221  0.06334160  0.57239922  1
  O  O22  1  0.68328134  0.56190127  0.92812934  1
  O  O23  1  0.68334775  0.93800159  0.42817353  1
  O  O24  1  0.90769039  0.88470871  0.13060404  1
  O  O25  1  0.98991906  0.60408312  0.44610247  1
  O  O26  1  0.90765174  0.61517818  0.63059236  1
  O  O27  1  0.98997218  0.89584035  0.94613692  1
