# generated using pymatgen
data_Li4Cr3NiO8
_symmetry_space_group_name_H-M   'P 1'
_cell_length_a   5.10989176
_cell_length_b   5.89050223
_cell_length_c   10.20608179
_cell_angle_alpha   89.83011911
_cell_angle_beta   80.39171813
_cell_angle_gamma   73.00236938
_symmetry_Int_Tables_number   1
_chemical_formula_structural   Li4Cr3NiO8
_chemical_formula_sum   'Li8 Cr6 Ni2 O16'
_cell_volume   289.31825925
_cell_formula_units_Z   2
loop_
 _symmetry_equiv_pos_site_id
 _symmetry_equiv_pos_as_xyz
  1  'x, y, z'
loop_
 _atom_site_type_symbol
 _atom_site_label
 _atom_site_symmetry_multiplicity
 _atom_site_fract_x
 _atom_site_fract_y
 _atom_site_fract_z
 _atom_site_occupancy
  Li  Li0  1  0.00075947  0.00461596  0.99617936  1
  Li  Li1  1  0.99622733  0.00696927  0.50031481  1
  Li  Li2  1  0.99999171  0.25000080  0.25003396  1
  Li  Li3  1  -0.00000045  0.24997407  0.74996807  1
  Li  Li4  1  0.00375068  0.49306207  0.99969437  1
  Li  Li5  1  0.99926260  0.49537952  0.50382952  1
  Li  Li6  1  0.99997745  0.75001409  0.25001536  1
  Li  Li7  1  0.00000040  0.75003597  0.74997243  1
  Cr  Cr8  1  0.49954986  0.12606412  0.37665605  1
  Cr  Cr9  1  0.50046226  0.37394445  0.12334462  1
  Cr  Cr10  1  0.50082830  0.62413741  0.37633158  1
  Cr  Cr11  1  0.50051379  0.62132674  0.87228897  1
  Cr  Cr12  1  0.49916947  0.87586121  0.12367705  1
  Cr  Cr13  1  0.49945062  0.87864315  0.62770245  1
  Ni  Ni14  1  0.49898948  0.12513626  0.87525555  1
  Ni  Ni15  1  0.50104167  0.37484268  0.62471586  1
  O  O16  1  0.26959303  0.18495689  0.06477845  1
  O  O17  1  0.26691318  0.17523327  0.55855109  1
  O  O18  1  0.72559449  0.06753799  0.18930229  1
  O  O19  1  0.72301449  0.06413031  0.68617480  1
  O  O20  1  0.27440330  0.43244935  0.31067098  1
  O  O21  1  0.73050876  0.31500248  0.43516600  1
  O  O22  1  0.27701287  0.43601870  0.81391780  1
  O  O23  1  0.73309977  0.32485563  0.94143929  1
  O  O24  1  0.27401149  0.68141733  0.05871472  1
  O  O25  1  0.72359296  0.56875330  0.18972635  1
  O  O26  1  0.27894576  0.68512132  0.56127505  1
  O  O27  1  0.73319272  0.57542900  0.69325724  1
  O  O28  1  0.27641137  0.93126951  0.31025798  1
  O  O29  1  0.72602416  0.81857927  0.44125764  1
  O  O30  1  0.26674088  0.92448074  0.80684213  1
  O  O31  1  0.72096612  0.81475416  0.93868719  1
