# generated using pymatgen
data_Te4As2S(OF6)2
_symmetry_space_group_name_H-M   'P 1'
_cell_length_a   9.04877035
_cell_length_b   9.91333772
_cell_length_c   18.90201633
_cell_angle_alpha   90.00000000
_cell_angle_beta   90.00000000
_cell_angle_gamma   96.76407837
_symmetry_Int_Tables_number   1
_chemical_formula_structural   Te4As2S(OF6)2
_chemical_formula_sum   'Te16 As8 S4 O8 F48'
_cell_volume   1683.77534425
_cell_formula_units_Z   4
loop_
 _symmetry_equiv_pos_site_id
 _symmetry_equiv_pos_as_xyz
  1  'x, y, z'
loop_
 _atom_site_type_symbol
 _atom_site_label
 _atom_site_symmetry_multiplicity
 _atom_site_fract_x
 _atom_site_fract_y
 _atom_site_fract_z
 _atom_site_occupancy
  Te  Te0  1  0.28422035  0.61909741  0.93026753  1
  Te  Te1  1  0.34262713  0.89253921  0.92831380  1
  Te  Te2  1  0.65737287  0.10746079  0.07168620  1
  Te  Te3  1  0.19125293  0.38579459  0.28742458  1
  Te  Te4  1  0.30874707  0.61420541  0.78742458  1
  Te  Te5  1  0.37485062  0.88874671  0.78606570  1
  Te  Te6  1  0.21577965  0.38090259  0.43026753  1
  Te  Te7  1  0.62514938  0.11125329  0.21393430  1
  Te  Te8  1  0.84262713  0.89253921  0.57168620  1
  Te  Te9  1  0.12514938  0.11125329  0.28606570  1
  Te  Te10  1  0.80874707  0.61420541  0.71257542  1
  Te  Te11  1  0.69125293  0.38579459  0.21257542  1
  Te  Te12  1  0.87485062  0.88874671  0.71393430  1
  Te  Te13  1  0.78422035  0.61909741  0.56973247  1
  Te  Te14  1  0.15737287  0.10746079  0.42831380  1
  Te  Te15  1  0.71577965  0.38090259  0.06973247  1
  As  As16  1  0.68020472  0.22756982  0.42393720  1
  As  As17  1  0.81979528  0.77243018  0.92393720  1
  As  As18  1  0.88051111  0.71602140  0.35419098  1
  As  As19  1  0.11948889  0.28397860  0.64580902  1
  As  As20  1  0.61948889  0.28397860  0.85419098  1
  As  As21  1  0.38051111  0.71602140  0.14580902  1
  As  As22  1  0.31979528  0.77243018  0.57606280  1
  As  As23  1  0.18020472  0.22756982  0.07606280  1
  S  S24  1  0.43943393  0.76862745  0.36945277  1
  S  S25  1  0.56056607  0.23137255  0.63054723  1
  S  S26  1  0.06056607  0.23137255  0.86945277  1
  S  S27  1  0.93943393  0.76862745  0.13054723  1
  O  O28  1  0.17418581  0.34829694  0.86666668  1
  O  O29  1  0.67418581  0.34829694  0.63333332  1
  O  O30  1  0.10385676  0.10209449  0.84703454  1
  O  O31  1  0.60385676  0.10209449  0.65296546  1
  O  O32  1  0.32581419  0.65170306  0.36666668  1
  O  O33  1  0.82581419  0.65170306  0.13333332  1
  O  O34  1  0.89614324  0.89790551  0.15296546  1
  O  O35  1  0.39614324  0.89790551  0.34703454  1
  F  F36  1  0.70758089  0.22037809  0.93085744  1
  F  F37  1  0.69986330  0.16650034  0.80060310  1
  F  F38  1  0.30013670  0.83349966  0.19939690  1
  F  F39  1  0.96147132  0.60299814  0.41061852  1
  F  F40  1  0.22215747  0.59606162  0.15914616  1
  F  F41  1  0.03272304  0.14888074  0.02315204  1
  F  F42  1  0.78729233  0.93173162  0.88895157  1
  F  F43  1  0.96220840  0.15875015  0.63253329  1
  F  F44  1  0.97018095  0.65181710  0.28015957  1
  F  F45  1  0.28729233  0.93173162  0.61104843  1
  F  F46  1  0.85571170  0.61263663  0.95746138  1
  F  F47  1  0.72215747  0.59606162  0.34085384  1
  F  F48  1  0.17574555  0.69242346  0.63111059  1
  F  F49  1  0.29241911  0.77962191  0.06914256  1
  F  F50  1  0.44906730  0.75535432  0.64749935  1
  F  F51  1  0.32425445  0.30757654  0.13111059  1
  F  F52  1  0.27784253  0.40393838  0.65914616  1
  F  F53  1  0.21270767  0.06826838  0.11104843  1
  F  F54  1  0.03852868  0.39700186  0.58938148  1
  F  F55  1  0.05093270  0.24464568  0.14749935  1
  F  F56  1  0.67574555  0.69242346  0.86888941  1
  F  F57  1  0.46147132  0.60299814  0.08938148  1
  F  F58  1  0.80013670  0.83349966  0.30060310  1
  F  F59  1  0.19986330  0.16650034  0.69939690  1
  F  F60  1  0.77784253  0.40393838  0.84085384  1
  F  F61  1  0.96727696  0.85111926  0.97684796  1
  F  F62  1  0.35571170  0.61263663  0.54253862  1
  F  F63  1  0.53779160  0.84124985  0.13253329  1
  F  F64  1  0.52981905  0.34818290  0.78015957  1
  F  F65  1  0.64428830  0.38736337  0.45746138  1
  F  F66  1  0.69065714  0.78982036  0.99270688  1
  F  F67  1  0.80934286  0.21017964  0.49270688  1
  F  F68  1  0.20758089  0.22037809  0.56914256  1
  F  F69  1  0.53272304  0.14888074  0.47684796  1
  F  F70  1  0.30934286  0.21017964  0.00729312  1
  F  F71  1  0.46727696  0.85111926  0.52315204  1
  F  F72  1  0.46220840  0.15875015  0.86746671  1
  F  F73  1  0.03779160  0.84124985  0.36746671  1
  F  F74  1  0.79241911  0.77962191  0.43085744  1
  F  F75  1  0.53852868  0.39700186  0.91061852  1
  F  F76  1  0.14428830  0.38736337  0.04253862  1
  F  F77  1  0.19065714  0.78982036  0.50729312  1
  F  F78  1  0.71270767  0.06826838  0.38895157  1
  F  F79  1  0.55093270  0.24464568  0.35250065  1
  F  F80  1  0.47018095  0.65181710  0.21984043  1
  F  F81  1  0.82425445  0.30757654  0.36888941  1
  F  F82  1  0.94906730  0.75535432  0.85250065  1
  F  F83  1  0.02981905  0.34818290  0.71984043  1
