# generated using pymatgen
data_Li2FePCO7
_symmetry_space_group_name_H-M   'P 1'
_cell_length_a   9.37369777
_cell_length_b   10.19769890
_cell_length_c   6.49902042
_cell_angle_alpha   90.05989103
_cell_angle_beta   90.06880853
_cell_angle_gamma   62.46891583
_symmetry_Int_Tables_number   1
_chemical_formula_structural   Li2FePCO7
_chemical_formula_sum   'Li8 Fe4 P4 C4 O28'
_cell_volume   550.89247931
_cell_formula_units_Z   4
loop_
 _symmetry_equiv_pos_site_id
 _symmetry_equiv_pos_as_xyz
  1  'x, y, z'
loop_
 _atom_site_type_symbol
 _atom_site_label
 _atom_site_symmetry_multiplicity
 _atom_site_fract_x
 _atom_site_fract_y
 _atom_site_fract_z
 _atom_site_occupancy
  Li  Li0  1  0.90189337  0.43474339  0.74419078  1
  Li  Li1  1  0.90601100  0.93041052  0.75656907  1
  Li  Li2  1  0.72148075  0.26632221  0.96324598  1
  Li  Li3  1  0.72214939  0.76596058  0.54016146  1
  Li  Li4  1  0.28182525  0.23115876  0.04487832  1
  Li  Li5  1  0.28372579  0.73003433  0.46332732  1
  Li  Li6  1  0.09845161  0.06583027  0.25967348  1
  Li  Li7  1  0.09577627  0.56921376  0.24426422  1
  Fe  Fe8  1  0.67142273  0.06450660  0.25437596  1
  Fe  Fe9  1  0.66997138  0.56542501  0.24736712  1
  Fe  Fe10  1  0.33137048  0.43301236  0.74823370  1
  Fe  Fe11  1  0.32997485  0.93589253  0.75437435  1
  P  P12  1  0.58219410  0.07243689  0.75246277  1
  P  P13  1  0.58051167  0.57337837  0.74873602  1
  P  P14  1  0.42090976  0.42541918  0.24969951  1
  P  P15  1  0.42127407  0.92676027  0.25416093  1
  C  C16  1  0.95838829  0.36791119  0.23635727  1
  C  C17  1  0.95966776  0.86881334  0.27086513  1
  C  C18  1  0.04116038  0.13307595  0.76929724  1
  C  C19  1  0.04418602  0.63087937  0.73201334  1
  O  O20  1  0.92576939  0.00839313  0.25322212  1
  O  O21  1  0.92620037  0.50713512  0.25472629  1
  O  O22  1  0.89964454  0.23911562  0.78620795  1
  O  O23  1  0.83147476  0.34538255  0.23590317  1
  O  O24  1  0.90284436  0.73726573  0.71500854  1
  O  O25  1  0.83419263  0.84420308  0.26936430  1
  O  O26  1  0.70165768  0.05105386  0.93261638  1
  O  O27  1  0.67939599  0.06966318  0.55939621  1
  O  O28  1  0.67822388  0.57066486  0.94193662  1
  O  O29  1  0.69960108  0.55235063  0.56871557  1
  O  O30  1  0.57855435  0.28132186  0.21515764  1
  O  O31  1  0.53773283  0.44322207  0.76666093  1
  O  O32  1  0.57849511  0.78257717  0.29086235  1
  O  O33  1  0.53856061  0.94279287  0.73386863  1
  O  O34  1  0.46220926  0.05829541  0.23722299  1
  O  O35  1  0.42548821  0.21714552  0.78782978  1
  O  O36  1  0.46203601  0.55699736  0.26452480  1
  O  O37  1  0.42402205  0.71850032  0.71452780  1
  O  O38  1  0.32541460  0.42727139  0.44380683  1
  O  O39  1  0.30132331  0.44425808  0.07081112  1
  O  O40  1  0.32643605  0.92719014  0.05947182  1
  O  O41  1  0.30105970  0.94755977  0.43268615  1
  O  O42  1  0.16773722  0.15621778  0.77086991  1
  O  O43  1  0.09970943  0.26133212  0.21903229  1
  O  O44  1  0.17098565  0.65357814  0.73130718  1
  O  O45  1  0.10181414  0.76337130  0.28866911  1
  O  O46  1  0.07611709  0.49182441  0.75104172  1
  O  O47  1  0.07427176  0.99363865  0.74998485  1
