# generated using pymatgen
data_SmTaO4
_symmetry_space_group_name_H-M   'P 1'
_cell_length_a   7.67265975
_cell_length_b   5.45777473
_cell_length_c   7.71379290
_cell_angle_alpha   90.00000000
_cell_angle_beta   99.61598227
_cell_angle_gamma   90.00000000
_symmetry_Int_Tables_number   1
_chemical_formula_structural   SmTaO4
_chemical_formula_sum   'Sm4 Ta4 O16'
_cell_volume   318.48147959
_cell_formula_units_Z   4
loop_
 _symmetry_equiv_pos_site_id
 _symmetry_equiv_pos_as_xyz
  1  'x, y, z'
loop_
 _atom_site_type_symbol
 _atom_site_label
 _atom_site_symmetry_multiplicity
 _atom_site_fract_x
 _atom_site_fract_y
 _atom_site_fract_z
 _atom_site_occupancy
  Sm  Sm0  1  0.35197825  0.72098328  0.60435308  1
  Sm  Sm1  1  0.35197825  0.77901672  0.10435308  1
  Sm  Sm2  1  0.64802175  0.22098328  0.89564692  1
  Sm  Sm3  1  0.64802175  0.27901672  0.39564692  1
  Ta  Ta4  1  0.16559903  0.23287903  0.80508385  1
  Ta  Ta5  1  0.16559903  0.26712097  0.30508385  1
  Ta  Ta6  1  0.83440097  0.73287903  0.69491615  1
  Ta  Ta7  1  0.83440097  0.76712097  0.19491615  1
  O  O8  1  0.05962417  0.90596788  0.69889678  1
  O  O9  1  0.05962417  0.59403212  0.19889678  1
  O  O10  1  0.17208271  0.35764899  0.55760293  1
  O  O11  1  0.17208271  0.14235101  0.05760293  1
  O  O12  1  0.32883595  0.49820613  0.87363155  1
  O  O13  1  0.38595876  0.01425485  0.82796112  1
  O  O14  1  0.32883595  0.00179387  0.37363155  1
  O  O15  1  0.38595876  0.48574515  0.32796112  1
  O  O16  1  0.61404124  0.51425485  0.67203888  1
  O  O17  1  0.67116405  0.99820613  0.62636845  1
  O  O18  1  0.61404124  0.98574515  0.17203888  1
  O  O19  1  0.67116405  0.50179387  0.12636845  1
  O  O20  1  0.82791729  0.85764899  0.94239707  1
  O  O21  1  0.82791729  0.64235101  0.44239707  1
  O  O22  1  0.94037583  0.40596788  0.80110322  1
  O  O23  1  0.94037583  0.09403212  0.30110322  1
