# generated using pymatgen
data_Li6Ti2O7
_symmetry_space_group_name_H-M   'P 1'
_cell_length_a   5.76383208
_cell_length_b   5.85035805
_cell_length_c   5.13153444
_cell_angle_alpha   90.05063804
_cell_angle_beta   107.88738537
_cell_angle_gamma   59.61287403
_symmetry_Int_Tables_number   1
_chemical_formula_structural   Li6Ti2O7
_chemical_formula_sum   'Li6 Ti2 O7'
_cell_volume   139.51403049
_cell_formula_units_Z   1
loop_
 _symmetry_equiv_pos_site_id
 _symmetry_equiv_pos_as_xyz
  1  'x, y, z'
loop_
 _atom_site_type_symbol
 _atom_site_label
 _atom_site_symmetry_multiplicity
 _atom_site_fract_x
 _atom_site_fract_y
 _atom_site_fract_z
 _atom_site_occupancy
  Li  Li0  1  0.27051632  0.65276339  0.77411741  1
  Li  Li1  1  0.26676966  0.10104878  0.76877597  1
  Li  Li2  1  0.25817955  0.37873284  0.18500026  1
  Li  Li3  1  0.74332840  0.64044552  0.81632550  1
  Li  Li4  1  0.73574281  0.36971160  0.23215002  1
  Li  Li5  1  0.72872738  0.92672064  0.22676106  1
  Ti  Ti6  1  0.26953372  0.87527305  0.26026029  1
  Ti  Ti7  1  0.72852901  0.14804746  0.73735510  1
  O  O8  1  0.00080894  0.00651318  0.50188430  1
  O  O9  1  0.00149531  0.78206662  0.00267829  1
  O  O10  1  0.49158287  0.26700353  0.94788917  1
  O  O11  1  0.49192669  0.02197367  0.49700786  1
  O  O12  1  0.51186324  0.51263358  0.50626625  1
  O  O13  1  0.50951250  0.75793322  0.05385326  1
  O  O14  1  0.00172560  0.23714093  0.00214726  1
