# generated using pymatgen
data_Li2FePCO7
_symmetry_space_group_name_H-M   'P 1'
_cell_length_a   9.37477862
_cell_length_b   10.17008216
_cell_length_c   6.50418349
_cell_angle_alpha   90.23332188
_cell_angle_beta   90.64544689
_cell_angle_gamma   62.19488515
_symmetry_Int_Tables_number   1
_chemical_formula_structural   Li2FePCO7
_chemical_formula_sum   'Li8 Fe4 P4 C4 O28'
_cell_volume   548.48843271
_cell_formula_units_Z   4
loop_
 _symmetry_equiv_pos_site_id
 _symmetry_equiv_pos_as_xyz
  1  'x, y, z'
loop_
 _atom_site_type_symbol
 _atom_site_label
 _atom_site_symmetry_multiplicity
 _atom_site_fract_x
 _atom_site_fract_y
 _atom_site_fract_z
 _atom_site_occupancy
  Li  Li0  1  0.90248384  0.42978217  0.74695024  1
  Li  Li1  1  0.90224956  0.93138390  0.74353640  1
  Li  Li2  1  0.72329565  0.26510027  0.96698425  1
  Li  Li3  1  0.72322299  0.76518919  0.53584680  1
  Li  Li4  1  0.27610163  0.23734179  0.03192918  1
  Li  Li5  1  0.27433458  0.73783561  0.03000077  1
  Li  Li6  1  0.09493745  0.07226730  0.26553399  1
  Li  Li7  1  0.09739168  0.56950848  0.25249876  1
  Fe  Fe8  1  0.67087279  0.06362544  0.25432371  1
  Fe  Fe9  1  0.67025046  0.56425114  0.24580260  1
  Fe  Fe10  1  0.32928214  0.43554161  0.74058481  1
  Fe  Fe11  1  0.32941479  0.93549111  0.73855191  1
  P  P12  1  0.57976379  0.07156293  0.75336625  1
  P  P13  1  0.58032896  0.57106553  0.75563688  1
  P  P14  1  0.41968735  0.42824175  0.24015653  1
  P  P15  1  0.41942520  0.92857521  0.24771710  1
  C  C16  1  0.96014863  0.37043477  0.24021156  1
  C  C17  1  0.96076471  0.86996002  0.24451905  1
  C  C18  1  0.04088249  0.12892546  0.77107135  1
  C  C19  1  0.03998164  0.62979890  0.74760005  1
  O  O20  1  0.92351187  0.01184269  0.23999575  1
  O  O21  1  0.92357388  0.51141325  0.25948495  1
  O  O22  1  0.89856120  0.23407674  0.78322588  1
  O  O23  1  0.83541508  0.34433772  0.24372812  1
  O  O24  1  0.89864758  0.73537341  0.72403494  1
  O  O25  1  0.83737718  0.84447185  0.27399141  1
  O  O26  1  0.69728534  0.05611426  0.93446946  1
  O  O27  1  0.67935274  0.06256016  0.56051170  1
  O  O28  1  0.69644428  0.55210380  0.93850455  1
  O  O29  1  0.68231397  0.56410794  0.56478861  1
  O  O30  1  0.57972583  0.28236083  0.22730905  1
  O  O31  1  0.53948173  0.43881887  0.76348910  1
  O  O32  1  0.57871688  0.78355032  0.27887695  1
  O  O33  1  0.53955827  0.93900247  0.74338692  1
  O  O34  1  0.46092111  0.05927821  0.21877739  1
  O  O35  1  0.42093465  0.21737600  0.77379918  1
  O  O36  1  0.45945636  0.56058053  0.21772519  1
  O  O37  1  0.42094154  0.71708721  0.76721123  1
  O  O38  1  0.32107124  0.44598594  0.43678340  1
  O  O39  1  0.30180859  0.43551981  0.06433214  1
  O  O40  1  0.31577204  0.92494104  0.06247461  1
  O  O41  1  0.30619322  0.95786559  0.43447114  1
  O  O42  1  0.16617513  0.15411366  0.77380132  1
  O  O43  1  0.10198242  0.26574821  0.21878078  1
  O  O44  1  0.16449720  0.65479605  0.77305560  1
  O  O45  1  0.10166635  0.76464829  0.22013568  1
  O  O46  1  0.07656454  0.48816476  0.74213160  1
  O  O47  1  0.07722947  0.98787778  0.75187417  1
