# generated using pymatgen
data_Na6Fe2B4SO16
_symmetry_space_group_name_H-M   'P 1'
_cell_length_a   10.00670924
_cell_length_b   10.00670884
_cell_length_c   10.00670933
_cell_angle_alpha   60.00000077
_cell_angle_beta   60.00000031
_cell_angle_gamma   59.99999868
_symmetry_Int_Tables_number   1
_chemical_formula_structural   Na6Fe2B4SO16
_chemical_formula_sum   'Na12 Fe4 B8 S2 O32'
_cell_volume   708.53095807
_cell_formula_units_Z   2
loop_
 _symmetry_equiv_pos_site_id
 _symmetry_equiv_pos_as_xyz
  1  'x, y, z'
loop_
 _atom_site_type_symbol
 _atom_site_label
 _atom_site_symmetry_multiplicity
 _atom_site_fract_x
 _atom_site_fract_y
 _atom_site_fract_z
 _atom_site_occupancy
  Na  Na0  1  0.09299699  0.65700301  0.09299699  1
  Na  Na1  1  0.09299699  0.09299699  0.65700301  1
  Na  Na2  1  0.09299699  0.65700301  0.65700301  1
  Na  Na3  1  0.65700301  0.09299699  0.09299699  1
  Na  Na4  1  0.34299699  0.90700301  0.34299699  1
  Na  Na5  1  0.34299699  0.34299699  0.90700301  1
  Na  Na6  1  0.65700301  0.65700301  0.09299699  1
  Na  Na7  1  0.65700301  0.09299699  0.65700301  1
  Na  Na8  1  0.34299699  0.90700301  0.90700301  1
  Na  Na9  1  0.90700301  0.34299699  0.34299699  1
  Na  Na10  1  0.90700301  0.34299699  0.90700301  1
  Na  Na11  1  0.90700301  0.90700301  0.34299699  1
  Fe  Fe12  1  0.00000000  0.50000000  0.50000000  1
  Fe  Fe13  1  0.50000000  0.00000000  0.50000000  1
  Fe  Fe14  1  0.50000000  0.50000000  0.00000000  1
  Fe  Fe15  1  0.50000000  0.50000000  0.50000000  1
  B  B16  1  0.28737396  0.28737396  0.28737396  1
  B  B17  1  0.28737396  0.28737396  0.63787813  1
  B  B18  1  0.28737396  0.63787813  0.28737396  1
  B  B19  1  0.63787813  0.28737396  0.28737396  1
  B  B20  1  0.36212187  0.71262604  0.71262604  1
  B  B21  1  0.71262604  0.36212187  0.71262604  1
  B  B22  1  0.71262604  0.71262604  0.36212187  1
  B  B23  1  0.71262604  0.71262604  0.71262604  1
  S  S24  1  0.12500000  0.12500000  0.12500000  1
  S  S25  1  0.87500000  0.87500000  0.87500000  1
  O  O26  1  0.06394786  0.06394786  0.06394786  1
  O  O27  1  0.06394786  0.30815541  0.06394786  1
  O  O28  1  0.06394786  0.06394786  0.30815541  1
  O  O29  1  0.30815541  0.06394786  0.06394786  1
  O  O30  1  0.13587467  0.40630517  0.31527839  1
  O  O31  1  0.31527839  0.13587467  0.40630517  1
  O  O32  1  0.13587467  0.31527839  0.64254077  1
  O  O33  1  0.40630517  0.31527839  0.13587467  1
  O  O34  1  0.13587467  0.64254077  0.40630517  1
  O  O35  1  0.31527839  0.64254077  0.13587467  1
  O  O36  1  0.40630517  0.13587467  0.64254077  1
  O  O37  1  0.31527839  0.40630517  0.64254077  1
  O  O38  1  0.64254077  0.13587467  0.31527839  1
  O  O39  1  0.40630517  0.64254077  0.31527839  1
  O  O40  1  0.64254077  0.40630517  0.13587467  1
  O  O41  1  0.35745923  0.68472161  0.59369483  1
  O  O42  1  0.64254077  0.31527839  0.40630517  1
  O  O43  1  0.35745923  0.59369483  0.86412533  1
  O  O44  1  0.59369483  0.35745923  0.68472161  1
  O  O45  1  0.35745923  0.86412533  0.68472161  1
  O  O46  1  0.68472161  0.59369483  0.35745923  1
  O  O47  1  0.59369483  0.86412533  0.35745923  1
  O  O48  1  0.68472161  0.35745923  0.86412533  1
  O  O49  1  0.86412533  0.35745923  0.59369483  1
  O  O50  1  0.59369483  0.68472161  0.86412533  1
  O  O51  1  0.86412533  0.68472161  0.35745923  1
  O  O52  1  0.68472161  0.86412533  0.59369483  1
  O  O53  1  0.86412533  0.59369483  0.68472161  1
  O  O54  1  0.69184459  0.93605214  0.93605214  1
  O  O55  1  0.93605214  0.93605214  0.69184459  1
  O  O56  1  0.93605214  0.69184459  0.93605214  1
  O  O57  1  0.93605214  0.93605214  0.93605214  1
