# generated using pymatgen
data_Li4Cr3NiO8
_symmetry_space_group_name_H-M   'P 1'
_cell_length_a   5.12237117
_cell_length_b   7.80230268
_cell_length_c   7.82466042
_cell_angle_alpha   81.72443237
_cell_angle_beta   70.73353897
_cell_angle_gamma   83.69291392
_symmetry_Int_Tables_number   1
_chemical_formula_structural   Li4Cr3NiO8
_chemical_formula_sum   'Li8 Cr6 Ni2 O16'
_cell_volume   291.48273208
_cell_formula_units_Z   2
loop_
 _symmetry_equiv_pos_site_id
 _symmetry_equiv_pos_as_xyz
  1  'x, y, z'
loop_
 _atom_site_type_symbol
 _atom_site_label
 _atom_site_symmetry_multiplicity
 _atom_site_fract_x
 _atom_site_fract_y
 _atom_site_fract_z
 _atom_site_occupancy
  Li  Li0  1  0.99856764  0.00266119  0.00242679  1
  Li  Li1  1  0.00015891  0.24366736  0.25184779  1
  Li  Li2  1  0.99744051  0.62263606  0.12902212  1
  Li  Li3  1  0.00258332  0.12757180  0.62100838  1
  Li  Li4  1  0.00000103  0.50628335  0.49798978  1
  Li  Li5  1  0.00019043  0.87492859  0.37476516  1
  Li  Li6  1  0.99991573  0.37494769  0.87510480  1
  Li  Li7  1  0.00132472  0.74728173  0.74784013  1
  Cr  Cr8  1  0.49840481  0.43740152  0.18899456  1
  Cr  Cr9  1  0.49708120  0.81315261  0.06761523  1
  Cr  Cr10  1  0.50163138  0.31273055  0.56105674  1
  Cr  Cr11  1  0.49844530  0.18648905  0.93902632  1
  Cr  Cr12  1  0.50165690  0.56352816  0.81120309  1
  Cr  Cr13  1  0.50298667  0.93664434  0.68222479  1
  Ni  Ni14  1  0.49975564  0.06416248  0.31192326  1
  Ni  Ni15  1  0.50014336  0.68586992  0.43785282  1
  O  O16  1  0.26429578  0.02855733  0.14620918  1
  O  O17  1  0.72748390  0.22123584  0.09381248  1
  O  O18  1  0.27486478  0.40478345  0.02589623  1
  O  O19  1  0.73471742  0.09448091  0.48000704  1
  O  O20  1  0.27171775  0.28292785  0.40427213  1
  O  O21  1  0.26496091  0.65514138  0.27031706  1
  O  O22  1  0.72819510  0.46714768  0.34563768  1
  O  O23  1  0.27593174  0.15436932  0.77482320  1
  O  O24  1  0.27291034  0.52900439  0.65582628  1
  O  O25  1  0.72201856  0.84437230  0.21921746  1
  O  O26  1  0.72519350  0.34526195  0.72407996  1
  O  O27  1  0.27789718  0.90539276  0.53161904  1
  O  O28  1  0.73547475  0.72181284  0.60386298  1
  O  O29  1  0.27975353  0.78137273  0.89978828  1
  O  O30  1  0.72430367  0.59540127  0.97502648  1
  O  O31  1  0.71999153  0.96878360  0.84970277  1
