# generated using pymatgen
data_Li4Mn3Nb2Cr3O16
_symmetry_space_group_name_H-M   'P 1'
_cell_length_a   6.00911478
_cell_length_b   5.92807284
_cell_length_c   9.76971969
_cell_angle_alpha   89.98705393
_cell_angle_beta   92.16315351
_cell_angle_gamma   119.56369519
_symmetry_Int_Tables_number   1
_chemical_formula_structural   Li4Mn3Nb2Cr3O16
_chemical_formula_sum   'Li4 Mn3 Nb2 Cr3 O16'
_cell_volume   302.42835474
_cell_formula_units_Z   1
loop_
 _symmetry_equiv_pos_site_id
 _symmetry_equiv_pos_as_xyz
  1  'x, y, z'
loop_
 _atom_site_type_symbol
 _atom_site_label
 _atom_site_symmetry_multiplicity
 _atom_site_fract_x
 _atom_site_fract_y
 _atom_site_fract_z
 _atom_site_occupancy
  Li  Li0  1  0.32201335  0.66102959  0.90572206  1
  Li  Li1  1  0.99592752  0.99797572  0.99059468  1
  Li  Li2  1  0.00524383  0.00265136  0.49058940  1
  Li  Li3  1  0.66528588  0.33268497  0.40046197  1
  Mn  Mn4  1  0.66214106  0.83108750  0.21290133  1
  Mn  Mn5  1  0.83163589  0.66191075  0.71496360  1
  Mn  Mn6  1  0.83166428  0.16977673  0.71495633  1
  Nb  Nb7  1  0.33468030  0.66749114  0.48897535  1
  Nb  Nb8  1  0.64135305  0.32070515  0.99327201  1
  Cr  Cr9  1  0.16979645  0.83040950  0.21547246  1
  Cr  Cr10  1  0.16980257  0.33939902  0.21548095  1
  Cr  Cr11  1  0.34117607  0.17057957  0.71513125  1
  O  O12  1  0.18895267  0.84588811  0.58846535  1
  O  O13  1  0.04032008  0.52010366  0.33881501  1
  O  O14  1  0.33885268  0.66948374  0.11334183  1
  O  O15  1  0.99377445  0.99682107  0.30471263  1
  O  O16  1  0.00557283  0.00278971  0.80378575  1
  O  O17  1  0.18899934  0.34308890  0.58841195  1
  O  O18  1  0.47971520  0.96497107  0.34429228  1
  O  O19  1  0.47998729  0.51512160  0.34414690  1
  O  O20  1  0.32903645  0.16455490  0.10068427  1
  O  O21  1  0.68127684  0.84065245  0.59364952  1
  O  O22  1  0.50105849  0.46978357  0.84968146  1
  O  O23  1  0.50111796  0.03128356  0.84967313  1
  O  O24  1  0.66651480  0.33328657  0.61456786  1
  O  O25  1  0.83933907  0.66520743  0.08816347  1
  O  O26  1  0.95563054  0.47781463  0.83865421  1
  O  O27  1  0.83913107  0.17374903  0.08827397  1
