# generated using pymatgen
data_Li5Fe7O12
_symmetry_space_group_name_H-M   'P 1'
_cell_length_a   5.20290382
_cell_length_b   5.20290407
_cell_length_c   9.87344822
_cell_angle_alpha   84.80911065
_cell_angle_beta   95.19088634
_cell_angle_gamma   59.76528457
_symmetry_Int_Tables_number   1
_chemical_formula_structural   Li5Fe7O12
_chemical_formula_sum   'Li5 Fe7 O12'
_cell_volume   227.07937212
_cell_formula_units_Z   1
loop_
 _symmetry_equiv_pos_site_id
 _symmetry_equiv_pos_as_xyz
  1  'x, y, z'
loop_
 _atom_site_type_symbol
 _atom_site_label
 _atom_site_symmetry_multiplicity
 _atom_site_fract_x
 _atom_site_fract_y
 _atom_site_fract_z
 _atom_site_occupancy
  Li  Li0  1  0.16711161  0.66782733  0.50545298  1
  Li  Li1  1  0.32457769  0.83903358  0.99472091  1
  Li  Li2  1  0.66782733  0.16711161  0.99454702  1
  Li  Li3  1  0.83903358  0.32457769  0.50527909  1
  Li  Li4  1  0.91609133  0.91609133  0.75000000  1
  Fe  Fe5  1  0.07619976  0.07619976  0.25000000  1
  Fe  Fe6  1  0.99668592  0.51189988  0.99884309  1
  Fe  Fe7  1  0.24990348  0.24990348  0.75000000  1
  Fe  Fe8  1  0.51189988  0.99668592  0.50115691  1
  Fe  Fe9  1  0.42297312  0.42297312  0.25000000  1
  Fe  Fe10  1  0.57993854  0.57993854  0.75000000  1
  Fe  Fe11  1  0.75408440  0.75408440  0.25000000  1
  O  O12  1  0.95694119  0.23756191  0.86990527  1
  O  O13  1  0.23756191  0.95694119  0.63009473  1
  O  O14  1  0.13661782  0.35071464  0.37236405  1
  O  O15  1  0.35071464  0.13661782  0.12763595  1
  O  O16  1  0.28981072  0.52730312  0.86940903  1
  O  O17  1  0.52730312  0.28981072  0.63059097  1
  O  O18  1  0.44590772  0.73213997  0.37450486  1
  O  O19  1  0.73213997  0.44590772  0.12549514  1
  O  O20  1  0.62051491  0.85934471  0.87308810  1
  O  O21  1  0.85934471  0.62051491  0.62691190  1
  O  O22  1  0.79801980  0.03879888  0.38159135  1
  O  O23  1  0.03879888  0.79801980  0.11840865  1
