# generated using pymatgen
data_LiMg2Mn3O8
_symmetry_space_group_name_H-M   'P 1'
_cell_length_a   5.95617987
_cell_length_b   5.95617987
_cell_length_c   5.95617987
_cell_angle_alpha   59.97430105
_cell_angle_beta   59.97430105
_cell_angle_gamma   59.97430105
_symmetry_Int_Tables_number   1
_chemical_formula_structural   LiMg2Mn3O8
_chemical_formula_sum   'Li1 Mg2 Mn3 O8'
_cell_volume   149.32593961
_cell_formula_units_Z   1
loop_
 _symmetry_equiv_pos_site_id
 _symmetry_equiv_pos_as_xyz
  1  'x, y, z'
loop_
 _atom_site_type_symbol
 _atom_site_label
 _atom_site_symmetry_multiplicity
 _atom_site_fract_x
 _atom_site_fract_y
 _atom_site_fract_z
 _atom_site_occupancy
  Li  Li0  1  0.88275298  0.88275298  0.88275298  1
  Mg  Mg1  1  0.11738272  0.11738272  0.11738272  1
  Mg  Mg2  1  0.49989034  0.49989034  0.49989034  1
  Mn  Mn3  1  0.50116678  0.99572069  0.50116678  1
  Mn  Mn4  1  0.50116678  0.50116678  0.99572069  1
  Mn  Mn5  1  0.99572069  0.50116678  0.50116678  1
  O  O6  1  0.25771876  0.25771876  0.25771876  1
  O  O7  1  0.70956171  0.25501322  0.25501322  1
  O  O8  1  0.25501322  0.25501322  0.70956171  1
  O  O9  1  0.25501322  0.70956171  0.25501322  1
  O  O10  1  0.74549940  0.74549940  0.29226246  1
  O  O11  1  0.74549940  0.29226246  0.74549940  1
  O  O12  1  0.29226246  0.74549940  0.74549940  1
  O  O13  1  0.74135356  0.74135356  0.74135356  1
