# generated using pymatgen
data_VH14C4NO2F3
_symmetry_space_group_name_H-M   'P 1'
_cell_length_a   7.06659432
_cell_length_b   8.26723358
_cell_length_c   9.27758118
_cell_angle_alpha   66.13266197
_cell_angle_beta   83.15433888
_cell_angle_gamma   72.33486765
_symmetry_Int_Tables_number   1
_chemical_formula_structural   VH14C4NO2F3
_chemical_formula_sum   'V2 H28 C8 N2 O4 F6'
_cell_volume   472.28133905
_cell_formula_units_Z   2
loop_
 _symmetry_equiv_pos_site_id
 _symmetry_equiv_pos_as_xyz
  1  'x, y, z'
loop_
 _atom_site_type_symbol
 _atom_site_label
 _atom_site_symmetry_multiplicity
 _atom_site_fract_x
 _atom_site_fract_y
 _atom_site_fract_z
 _atom_site_occupancy
  V  V0  1  0.31674149  0.50722267  0.63102635  1
  V  V1  1  0.68325851  0.49277733  0.36897365  1
  H  H2  1  0.04491310  0.66488911  0.38665860  1
  H  H3  1  0.95508690  0.33511089  0.61334140  1
  H  H4  1  0.26634716  0.68944690  0.33484303  1
  H  H5  1  0.73365284  0.31055310  0.66515697  1
  H  H6  1  0.09791638  0.17348505  0.38278950  1
  H  H7  1  0.90208362  0.82651495  0.61721050  1
  H  H8  1  0.33778786  0.16599193  0.43520908  1
  H  H9  1  0.66221214  0.83400807  0.56479092  1
  H  H10  1  0.30097204  0.96808831  0.41625294  1
  H  H11  1  0.69902796  0.03191169  0.58374706  1
  H  H12  1  0.22921875  0.20410935  0.98452830  1
  H  H13  1  0.77078125  0.79589065  0.01547170  1
  H  H14  1  0.03918993  0.18815912  0.13397676  1
  H  H15  1  0.96081007  0.81184088  0.86602324  1
  H  H16  1  0.24663635  0.98938662  0.14979890  1
  H  H17  1  0.75336365  0.01061338  0.85020110  1
  H  H18  1  0.35015939  0.43692368  0.20361040  1
  H  H19  1  0.64984061  0.56307632  0.79638960  1
  H  H20  1  0.10162083  0.45132331  0.16329324  1
  H  H21  1  0.89837917  0.54867669  0.83670676  1
  H  H22  1  0.28955714  0.45348844  0.01371682  1
  H  H23  1  0.71044286  0.54651156  0.98628318  1
  H  H24  1  0.56545715  0.96581230  0.22726867  1
  H  H25  1  0.43454285  0.03418770  0.77273133  1
  H  H26  1  0.56185209  0.17130560  0.05386956  1
  H  H27  1  0.43814791  0.82869440  0.94613044  1
  H  H28  1  0.61201759  0.16138937  0.24328423  1
  H  H29  1  0.38798241  0.83861063  0.75671577  1
  C  C30  1  0.25852779  0.11871330  0.37251748  1
  C  C31  1  0.74147221  0.88128670  0.62748252  1
  C  C32  1  0.19736985  0.13965971  0.11010973  1
  C  C33  1  0.80263015  0.86034029  0.88989027  1
  C  C34  1  0.25964061  0.39990143  0.14052593  1
  C  C35  1  0.74035939  0.60009857  0.85947407  1
  C  C36  1  0.52990553  0.11647200  0.18037768  1
  C  C37  1  0.47009447  0.88352800  0.81962232  1
  N  N38  1  0.31170860  0.19355333  0.20111260  1
  N  N39  1  0.68829140  0.80644667  0.79888740  1
  O  O40  1  0.21225450  0.62870989  0.73852723  1
  O  O41  1  0.78774550  0.37129011  0.26147277  1
  O  O42  1  0.16367468  0.68498873  0.41918400  1
  O  O43  1  0.83632532  0.31501127  0.58081600  1
  F  F44  1  0.52587386  0.63043724  0.52653096  1
  F  F45  1  0.47412614  0.36956276  0.47346904  1
  F  F46  1  0.15171697  0.34387188  0.67635555  1
  F  F47  1  0.84828303  0.65612812  0.32364445  1
  F  F48  1  0.52581008  0.31277430  0.77523436  1
  F  F49  1  0.47418992  0.68722570  0.22476564  1
