# generated using pymatgen
data_Li2Cr2O7
_symmetry_space_group_name_H-M   'P 1'
_cell_length_a   6.74303334
_cell_length_b   8.37054545
_cell_length_c   9.62913471
_cell_angle_alpha   90.00000000
_cell_angle_beta   101.30494661
_cell_angle_gamma   90.00000000
_symmetry_Int_Tables_number   1
_chemical_formula_structural   Li2Cr2O7
_chemical_formula_sum   'Li8 Cr8 O28'
_cell_volume   532.95091866
_cell_formula_units_Z   4
loop_
 _symmetry_equiv_pos_site_id
 _symmetry_equiv_pos_as_xyz
  1  'x, y, z'
loop_
 _atom_site_type_symbol
 _atom_site_label
 _atom_site_symmetry_multiplicity
 _atom_site_fract_x
 _atom_site_fract_y
 _atom_site_fract_z
 _atom_site_occupancy
  Li  Li0  1  0.14465860  0.38041902  0.96456682  1
  Li  Li1  1  0.14465860  0.11958098  0.46456682  1
  Li  Li2  1  0.30528367  0.38291465  0.68581422  1
  Li  Li3  1  0.30528367  0.11708535  0.18581422  1
  Li  Li4  1  0.69471633  0.88291465  0.81418578  1
  Li  Li5  1  0.69471633  0.61708535  0.31418578  1
  Li  Li6  1  0.85534140  0.88041902  0.53543318  1
  Li  Li7  1  0.85534140  0.61958098  0.03543318  1
  Cr  Cr8  1  0.18930061  0.01546148  0.81644701  1
  Cr  Cr9  1  0.18930061  0.48453852  0.31644701  1
  Cr  Cr10  1  0.35414580  0.75465214  0.53020041  1
  Cr  Cr11  1  0.35414580  0.74534786  0.03020041  1
  Cr  Cr12  1  0.64585420  0.25465214  0.96979959  1
  Cr  Cr13  1  0.64585420  0.24534786  0.46979959  1
  Cr  Cr14  1  0.81069939  0.51546148  0.68355299  1
  Cr  Cr15  1  0.81069939  0.98453852  0.18355299  1
  O  O16  1  0.02318291  0.42203618  0.74493135  1
  O  O17  1  0.15553752  0.62830495  0.99044471  1
  O  O18  1  0.16647827  0.12592253  0.95226364  1
  O  O19  1  0.02318291  0.07796382  0.24493135  1
  O  O20  1  0.15553752  0.87169505  0.49044471  1
  O  O21  1  0.16647827  0.37407747  0.45226364  1
  O  O22  1  0.25375183  0.12677942  0.69263891  1
  O  O23  1  0.31828967  0.62858367  0.65000982  1
  O  O24  1  0.38287767  0.86832513  0.87993173  1
  O  O25  1  0.44256177  0.36023561  0.90917858  1
  O  O26  1  0.25375183  0.37322058  0.19263891  1
  O  O27  1  0.31828967  0.87141633  0.15000982  1
  O  O28  1  0.38287767  0.63167487  0.37993173  1
  O  O29  1  0.44256177  0.13976439  0.40917858  1
  O  O30  1  0.55743823  0.86023561  0.59082142  1
  O  O31  1  0.61712233  0.36832513  0.62006827  1
  O  O32  1  0.68171033  0.12858367  0.84999018  1
  O  O33  1  0.74624817  0.62677942  0.80736109  1
  O  O34  1  0.55743823  0.63976439  0.09082142  1
  O  O35  1  0.61712233  0.13167487  0.12006827  1
  O  O36  1  0.68171033  0.37141633  0.34999018  1
  O  O37  1  0.74624817  0.87322058  0.30736109  1
  O  O38  1  0.83352173  0.62592253  0.54773636  1
  O  O39  1  0.84446248  0.12830495  0.50955529  1
  O  O40  1  0.97681709  0.92203618  0.75506865  1
  O  O41  1  0.83352173  0.87407747  0.04773636  1
  O  O42  1  0.84446248  0.37169505  0.00955529  1
  O  O43  1  0.97681709  0.57796382  0.25506865  1
