# generated using pymatgen
data_Li4TiCrO6
_symmetry_space_group_name_H-M   'P 1'
_cell_length_a   5.06763027
_cell_length_b   5.06763091
_cell_length_c   19.62501212
_cell_angle_alpha   85.07116085
_cell_angle_beta   94.92883612
_cell_angle_gamma   59.85655148
_symmetry_Int_Tables_number   1
_chemical_formula_structural   Li4TiCrO6
_chemical_formula_sum   'Li16 Ti4 Cr4 O24'
_cell_volume   429.32250818
_cell_formula_units_Z   4
loop_
 _symmetry_equiv_pos_site_id
 _symmetry_equiv_pos_as_xyz
  1  'x, y, z'
loop_
 _atom_site_type_symbol
 _atom_site_label
 _atom_site_symmetry_multiplicity
 _atom_site_fract_x
 _atom_site_fract_y
 _atom_site_fract_z
 _atom_site_occupancy
  Li  Li0  1  0.00404367  0.50225752  0.50005372  1
  Li  Li1  1  0.25167186  0.24820010  0.87498894  1
  Li  Li2  1  0.16060665  0.66144733  0.74971455  1
  Li  Li3  1  0.99965411  0.50176044  0.99998056  1
  Li  Li4  1  0.24820010  0.25167186  0.37501106  1
  Li  Li5  1  0.50225752  0.00404367  0.74994628  1
  Li  Li6  1  0.15227873  0.66919982  0.24966170  1
  Li  Li7  1  0.50176044  0.99965411  0.25001944  1
  Li  Li8  1  0.33166263  0.84527117  0.99969351  1
  Li  Li9  1  0.66144733  0.16060665  0.50028545  1
  Li  Li10  1  0.33630185  0.83716247  0.49977220  1
  Li  Li11  1  0.66919982  0.15227873  0.00033830  1
  Li  Li12  1  0.83716247  0.33630185  0.75022780  1
  Li  Li13  1  0.74896867  0.74896867  0.62500000  1
  Li  Li14  1  0.84527117  0.33166263  0.25030649  1
  Li  Li15  1  0.75071866  0.75071866  0.12500000  1
  Ti  Ti16  1  0.08377537  0.08377537  0.62500000  1
  Ti  Ti17  1  0.41681312  0.41681312  0.12500000  1
  Ti  Ti18  1  0.58078665  0.58656341  0.87492932  1
  Ti  Ti19  1  0.58656341  0.58078665  0.37507068  1
  Cr  Cr20  1  0.08467893  0.08467893  0.12500000  1
  Cr  Cr21  1  0.41582499  0.41582499  0.62500000  1
  Cr  Cr22  1  0.91944222  0.91335626  0.87516209  1
  Cr  Cr23  1  0.91335626  0.91944222  0.37483791  1
  O  O24  1  0.14618972  0.35614800  0.68248119  1
  O  O25  1  0.35614800  0.14618972  0.56751881  1
  O  O26  1  0.14420617  0.35356990  0.18248327  1
  O  O27  1  0.27967112  0.57397247  0.93129264  1
  O  O28  1  0.07559188  0.77923473  0.56914035  1
  O  O29  1  0.35356990  0.14420617  0.06751673  1
  O  O30  1  0.21409619  0.93142839  0.81780104  1
  O  O31  1  0.28353424  0.57120092  0.43091909  1
  O  O32  1  0.06794668  0.78804853  0.06851469  1
  O  O33  1  0.57120092  0.28353424  0.81908091  1
  O  O34  1  0.43237448  0.71190365  0.68163900  1
  O  O35  1  0.20598422  0.93233480  0.31926584  1
  O  O36  1  0.77923473  0.07559188  0.68085965  1
  O  O37  1  0.57397247  0.27967112  0.31870736  1
  O  O38  1  0.42417549  0.72055289  0.18112194  1
  O  O39  1  0.93233480  0.20598422  0.93073416  1
  O  O40  1  0.71190365  0.43237448  0.56836100  1
  O  O41  1  0.78804853  0.06794668  0.18148531  1
  O  O42  1  0.64238581  0.85388170  0.93296962  1
  O  O43  1  0.93142839  0.21409619  0.43219896  1
  O  O44  1  0.72055289  0.42417549  0.06887806  1
  O  O45  1  0.85708686  0.65203355  0.81786601  1
  O  O46  1  0.65203355  0.85708686  0.43213399  1
  O  O47  1  0.85388170  0.64238581  0.31703038  1
