# generated using pymatgen
data_Na3MnBAsO7
_symmetry_space_group_name_H-M   'P 1'
_cell_length_a   8.96256295
_cell_length_b   7.24007715
_cell_length_c   5.26170277
_cell_angle_alpha   90.00000000
_cell_angle_beta   88.23122519
_cell_angle_gamma   90.00000000
_symmetry_Int_Tables_number   1
_chemical_formula_structural   Na3MnBAsO7
_chemical_formula_sum   'Na6 Mn2 B2 As2 O14'
_cell_volume   341.26735539
_cell_formula_units_Z   2
loop_
 _symmetry_equiv_pos_site_id
 _symmetry_equiv_pos_as_xyz
  1  'x, y, z'
loop_
 _atom_site_type_symbol
 _atom_site_label
 _atom_site_symmetry_multiplicity
 _atom_site_fract_x
 _atom_site_fract_y
 _atom_site_fract_z
 _atom_site_occupancy
  Na  Na0  1  0.07644746  0.25000000  0.76184492  1
  Na  Na1  1  0.25108251  0.00371034  0.25404801  1
  Na  Na2  1  0.25108251  0.49628966  0.25404801  1
  Na  Na3  1  0.74891749  0.50371034  0.74595199  1
  Na  Na4  1  0.74891749  0.99628966  0.74595199  1
  Na  Na5  1  0.92355254  0.75000000  0.23815508  1
  Mn  Mn6  1  0.33086592  0.75000000  0.78571314  1
  Mn  Mn7  1  0.66913408  0.25000000  0.21428686  1
  B  B8  1  0.06458500  0.75000000  0.72841088  1
  B  B9  1  0.93541500  0.25000000  0.27158912  1
  As  As10  1  0.41820628  0.25000000  0.71378440  1
  As  As11  1  0.58179372  0.75000000  0.28621560  1
  O  O12  1  0.08381962  0.25000000  0.30132087  1
  O  O13  1  0.13394596  0.75000000  0.96454029  1
  O  O14  1  0.17324747  0.75000000  0.52972738  1
  O  O15  1  0.30802046  0.06193171  0.77892588  1
  O  O16  1  0.30802046  0.43806829  0.77892588  1
  O  O17  1  0.46828730  0.25000000  0.39134924  1
  O  O18  1  0.41544427  0.75000000  0.13096903  1
  O  O19  1  0.58455573  0.25000000  0.86903097  1
  O  O20  1  0.53171270  0.75000000  0.60865076  1
  O  O21  1  0.69197954  0.56193171  0.22107412  1
  O  O22  1  0.69197954  0.93806829  0.22107412  1
  O  O23  1  0.82675253  0.25000000  0.47027262  1
  O  O24  1  0.86605404  0.25000000  0.03545971  1
  O  O25  1  0.91618038  0.75000000  0.69867913  1
