# generated using pymatgen
data_Li2CoSnO4
_symmetry_space_group_name_H-M   'P 1'
_cell_length_a   6.18876899
_cell_length_b   6.18876825
_cell_length_c   6.13136834
_cell_angle_alpha   120.47095196
_cell_angle_beta   120.47095452
_cell_angle_gamma   88.85727165
_symmetry_Int_Tables_number   1
_chemical_formula_structural   Li2CoSnO4
_chemical_formula_sum   'Li4 Co2 Sn2 O8'
_cell_volume   165.31487407
_cell_formula_units_Z   2
loop_
 _symmetry_equiv_pos_site_id
 _symmetry_equiv_pos_as_xyz
  1  'x, y, z'
loop_
 _atom_site_type_symbol
 _atom_site_label
 _atom_site_symmetry_multiplicity
 _atom_site_fract_x
 _atom_site_fract_y
 _atom_site_fract_z
 _atom_site_occupancy
  Li  Li0  1  -0.00000000  0.50000000  0.50000000  1
  Li  Li1  1  0.50000000  0.50000000  0.50000000  1
  Li  Li2  1  0.50000000  0.00000000  -0.00000000  1
  Li  Li3  1  0.50000000  0.50000000  -0.00000000  1
  Co  Co4  1  -0.00000000  0.00000000  0.50000000  1
  Co  Co5  1  -0.00000000  0.00000000  -0.00000000  1
  Sn  Sn6  1  -0.00000000  0.50000000  -0.00000000  1
  Sn  Sn7  1  0.50000000  0.00000000  0.50000000  1
  O  O8  1  0.24768468  0.74070808  0.00679834  1
  O  O9  1  0.24705197  0.22485155  0.49079763  1
  O  O10  1  0.25929192  0.75231532  0.49320166  1
  O  O11  1  0.77514845  0.75294803  0.00920237  1
  O  O12  1  0.22485155  0.24705197  0.99079763  1
  O  O13  1  0.74070808  0.24768468  0.50679834  1
  O  O14  1  0.75294803  0.77514845  0.50920237  1
  O  O15  1  0.75231532  0.25929192  0.99320166  1
