# generated using pymatgen
data_LiMn3(PO4)3
_symmetry_space_group_name_H-M   'P 1'
_cell_length_a   12.59658791
_cell_length_b   9.04040843
_cell_length_c   8.60220426
_cell_angle_alpha   103.42830987
_cell_angle_beta   79.60659997
_cell_angle_gamma   75.16460448
_symmetry_Int_Tables_number   1
_chemical_formula_structural   LiMn3(PO4)3
_chemical_formula_sum   'Li4 Mn12 P12 O48'
_cell_volume   890.58463993
_cell_formula_units_Z   4
loop_
 _symmetry_equiv_pos_site_id
 _symmetry_equiv_pos_as_xyz
  1  'x, y, z'
loop_
 _atom_site_type_symbol
 _atom_site_label
 _atom_site_symmetry_multiplicity
 _atom_site_fract_x
 _atom_site_fract_y
 _atom_site_fract_z
 _atom_site_occupancy
  Li  Li0  1  0.23896169  0.26201782  0.49245671  1
  Li  Li1  1  0.49764221  0.00044634  0.50114397  1
  Li  Li2  1  0.76101453  0.73916883  0.50861709  1
  Li  Li3  1  0.88256654  0.12834971  0.98688535  1
  Mn  Mn4  1  0.04256285  0.89096939  0.61300233  1
  Mn  Mn5  1  0.23836225  0.49525193  0.26476601  1
  Mn  Mn6  1  0.13330745  0.48206718  0.93241065  1
  Mn  Mn7  1  0.36652726  0.01834241  0.06723131  1
  Mn  Mn8  1  0.45863712  0.60726896  0.38399663  1
  Mn  Mn9  1  0.25754942  0.00286926  0.73558658  1
  Mn  Mn10  1  0.74084070  0.99074558  0.27293015  1
  Mn  Mn11  1  0.54024823  0.39452251  0.61459411  1
  Mn  Mn12  1  0.62989805  0.98583672  0.93548295  1
  Mn  Mn13  1  0.86942395  0.52020451  0.06535662  1
  Mn  Mn14  1  0.75985623  0.50683010  0.73340025  1
  Mn  Mn15  1  0.96191208  0.10345702  0.38287445  1
  P  P16  1  0.11174549  0.23570239  0.13075074  1
  P  P17  1  0.25225790  0.88123566  0.34834796  1
  P  P18  1  0.02008598  0.26707336  0.70824428  1
  P  P19  1  0.25073126  0.61542989  0.65062027  1
  P  P20  1  0.60827846  0.73993696  0.13392493  1
  P  P21  1  0.48046527  0.23054578  0.28906488  1
  P  P22  1  0.51948973  0.76979489  0.71118709  1
  P  P23  1  0.39106586  0.26036801  0.86565950  1
  P  P24  1  0.75026578  0.37985176  0.34471861  1
  P  P25  1  0.98003540  0.73275347  0.29148645  1
  P  P26  1  0.75004905  0.11942166  0.65335558  1
  P  P27  1  0.88648334  0.76903118  0.87053700  1
  O  O28  1  0.05079602  0.36170844  0.04689544  1
  O  O29  1  0.11816393  0.92654205  0.40806744  1
  O  O30  1  0.09725128  0.63380879  0.16994374  1
  O  O31  1  0.02279743  0.15293969  0.18125869  1
  O  O32  1  0.28161296  0.90735884  0.17751556  1
  O  O33  1  0.00701116  0.25987908  0.53152760  1
  O  O34  1  0.15430741  0.31498452  0.27231358  1
  O  O35  1  0.29329110  0.98615134  0.47688333  1
  O  O36  1  0.28512301  0.38322187  0.99722708  1
  O  O37  1  0.19970592  0.79612822  0.66912190  1
  O  O38  1  0.30008677  0.70060801  0.33001812  1
  O  O39  1  0.21323834  0.50730857  0.52165407  1
  O  O40  1  0.11587182  0.34475179  0.72508408  1
  O  O41  1  0.54855566  0.85935099  0.04363955  1
  O  O42  1  0.06050183  0.10065710  0.74134407  1
  O  O43  1  0.21931697  0.59222106  0.82273972  1
  O  O44  1  0.52631095  0.65015690  0.18726327  1
  O  O45  1  0.43313578  0.39818433  0.26785379  1
  O  O46  1  0.40176472  0.86519009  0.83277731  1
  O  O47  1  0.38489307  0.57458508  0.59341552  1
  O  O48  1  0.38708232  0.14658368  0.27556866  1
  O  O49  1  0.50469006  0.76999884  0.53444545  1
  O  O50  1  0.63801343  0.83627012  0.28281319  1
  O  O51  1  0.78728206  0.89649924  0.01160675  1
  O  O52  1  0.21337842  0.10948563  0.99339774  1
  O  O53  1  0.36030280  0.16346810  0.71841863  1
  O  O54  1  0.49760197  0.22945062  0.46513061  1
  O  O55  1  0.61367641  0.85263559  0.72722994  1
  O  O56  1  0.61627104  0.42534448  0.40098549  1
  O  O57  1  0.59847089  0.13430416  0.16669389  1
  O  O58  1  0.56750627  0.60079305  0.73083518  1
  O  O59  1  0.47442853  0.34801587  0.81147903  1
  O  O60  1  0.79029024  0.39069303  0.16580773  1
  O  O61  1  0.93563042  0.90088634  0.26439538  1
  O  O62  1  0.45015201  0.14128636  0.95723279  1
  O  O63  1  0.88241620  0.65708052  0.27368195  1
  O  O64  1  0.78825641  0.48913149  0.47155061  1
  O  O65  1  0.70139296  0.29902538  0.66856502  1
  O  O66  1  0.79885501  0.19826809  0.32539079  1
  O  O67  1  0.71508251  0.61787989  0.00346431  1
  O  O68  1  0.70617814  0.01277019  0.53085262  1
  O  O69  1  0.84397926  0.68710274  0.73042494  1
  O  O70  1  0.99183078  0.73892197  0.46878530  1
  O  O71  1  0.72444802  0.09498171  0.82720408  1
  O  O72  1  0.96482261  0.86763143  0.81929065  1
  O  O73  1  0.90190612  0.36353728  0.83281808  1
  O  O74  1  0.88367880  0.07266266  0.59125598  1
  O  O75  1  0.95111312  0.64279250  0.95002688  1
