# generated using pymatgen
data_Li5Mn3(SnO5)2
_symmetry_space_group_name_H-M   'P 1'
_cell_length_a   5.34053354
_cell_length_b   5.39060201
_cell_length_c   8.13010098
_cell_angle_alpha   107.46528328
_cell_angle_beta   101.11843217
_cell_angle_gamma   101.72516417
_symmetry_Int_Tables_number   1
_chemical_formula_structural   Li5Mn3(SnO5)2
_chemical_formula_sum   'Li5 Mn3 Sn2 O10'
_cell_volume   210.37841603
_cell_formula_units_Z   1
loop_
 _symmetry_equiv_pos_site_id
 _symmetry_equiv_pos_as_xyz
  1  'x, y, z'
loop_
 _atom_site_type_symbol
 _atom_site_label
 _atom_site_symmetry_multiplicity
 _atom_site_fract_x
 _atom_site_fract_y
 _atom_site_fract_z
 _atom_site_occupancy
  Li  Li0  1  0.22802252  0.90517404  0.39930620  1
  Li  Li1  1  0.39969294  0.28432280  0.78337077  1
  Li  Li2  1  0.50000000  0.50000000  0.50000000  1
  Li  Li3  1  0.60030706  0.71567720  0.21662923  1
  Li  Li4  1  0.77197748  0.09482596  0.60069380  1
  Mn  Mn5  1  0.00000000  0.50000000  0.00000000  1
  Mn  Mn6  1  0.69244482  0.88887251  0.89520691  1
  Mn  Mn7  1  0.30755518  0.11112749  0.10479309  1
  Sn  Sn8  1  0.10144503  0.70476824  0.69444902  1
  Sn  Sn9  1  0.89855497  0.29523176  0.30555098  1
  O  O10  1  0.05634217  0.07834355  0.84413626  1
  O  O11  1  0.32358501  0.68970232  0.94057688  1
  O  O12  1  0.14425869  0.32384160  0.54732435  1
  O  O13  1  0.21937404  0.49518191  0.22894044  1
  O  O14  1  0.44783279  0.89560854  0.65641108  1
  O  O15  1  0.55216721  0.10439146  0.34358892  1
  O  O16  1  0.78062596  0.50481809  0.77105956  1
  O  O17  1  0.85574131  0.67615840  0.45267565  1
  O  O18  1  0.67641499  0.31029768  0.05942312  1
  O  O19  1  0.94365783  0.92165645  0.15586374  1
