# generated using pymatgen
data_Mn(IO3)2
_symmetry_space_group_name_H-M   'P 1'
_cell_length_a   5.80007486
_cell_length_b   17.41403740
_cell_length_c   5.50819573
_cell_angle_alpha   90.00000000
_cell_angle_beta   90.00000000
_cell_angle_gamma   90.00000000
_symmetry_Int_Tables_number   1
_chemical_formula_structural   Mn(IO3)2
_chemical_formula_sum   'Mn4 I8 O24'
_cell_volume   556.34275397
_cell_formula_units_Z   4
loop_
 _symmetry_equiv_pos_site_id
 _symmetry_equiv_pos_as_xyz
  1  'x, y, z'
loop_
 _atom_site_type_symbol
 _atom_site_label
 _atom_site_symmetry_multiplicity
 _atom_site_fract_x
 _atom_site_fract_y
 _atom_site_fract_z
 _atom_site_occupancy
  Mn  Mn0  1  0.17027844  0.09393955  0.70957367  1
  Mn  Mn1  1  0.32972156  0.90606045  0.20957367  1
  Mn  Mn2  1  0.67027844  0.40606045  0.29042633  1
  Mn  Mn3  1  0.82972156  0.59393955  0.79042633  1
  I  I4  1  0.13703591  0.42336754  0.96491158  1
  I  I5  1  0.21824946  0.20846307  0.25376347  1
  I  I6  1  0.28175054  0.79153693  0.75376347  1
  I  I7  1  0.36296409  0.57663246  0.46491158  1
  I  I8  1  0.63703591  0.07663246  0.03508842  1
  I  I9  1  0.71824946  0.29153693  0.74623653  1
  I  I10  1  0.78175054  0.70846307  0.24623653  1
  I  I11  1  0.86296409  0.92336754  0.53508842  1
  O  O12  1  0.99908163  0.33767655  0.11037755  1
  O  O13  1  0.02079152  0.16121704  0.03636946  1
  O  O14  1  0.02990712  0.20509594  0.52340056  1
  O  O15  1  0.11137472  0.98440143  0.44624968  1
  O  O16  1  0.12525084  0.87749566  0.87157938  1
  O  O17  1  0.17533161  0.54702816  0.72517027  1
  O  O18  1  0.32466839  0.45297184  0.22517027  1
  O  O19  1  0.37474916  0.12250434  0.37157938  1
  O  O20  1  0.38862528  0.01559857  0.94624968  1
  O  O21  1  0.47009288  0.79490406  0.02340056  1
  O  O22  1  0.47920848  0.83878296  0.53636946  1
  O  O23  1  0.50091837  0.66232345  0.61037755  1
  O  O24  1  0.49908163  0.16232345  0.88962245  1
  O  O25  1  0.52079152  0.33878296  0.96363054  1
  O  O26  1  0.52990712  0.29490406  0.47659944  1
  O  O27  1  0.61137472  0.51559857  0.55375032  1
  O  O28  1  0.62525084  0.62250434  0.12842062  1
  O  O29  1  0.67533161  0.95297184  0.27482973  1
  O  O30  1  0.82466839  0.04702816  0.77482973  1
  O  O31  1  0.87474916  0.37749566  0.62842062  1
  O  O32  1  0.88862528  0.48440143  0.05375032  1
  O  O33  1  0.97009288  0.70509594  0.97659944  1
  O  O34  1  0.97920848  0.66121704  0.46363054  1
  O  O35  1  0.00091837  0.83767655  0.38962245  1
