# generated using pymatgen
data_LiMnF4
_symmetry_space_group_name_H-M   'P 1'
_cell_length_a   5.61087625
_cell_length_b   6.35597940
_cell_length_c   6.41979048
_cell_angle_alpha   90.00446354
_cell_angle_beta   124.89192949
_cell_angle_gamma   124.53416748
_symmetry_Int_Tables_number   1
_chemical_formula_structural   LiMnF4
_chemical_formula_sum   'Li2 Mn2 F8'
_cell_volume   135.70906927
_cell_formula_units_Z   2
loop_
 _symmetry_equiv_pos_site_id
 _symmetry_equiv_pos_as_xyz
  1  'x, y, z'
loop_
 _atom_site_type_symbol
 _atom_site_label
 _atom_site_symmetry_multiplicity
 _atom_site_fract_x
 _atom_site_fract_y
 _atom_site_fract_z
 _atom_site_occupancy
  Li  Li0  1  0.49992157  0.24902230  0.01250886  1
  Li  Li1  1  0.50009502  0.74915222  0.98750707  1
  Mn  Mn2  1  0.50214665  0.50076598  0.50116952  1
  Mn  Mn3  1  0.49785675  0.99862950  0.49884362  1
  F  F4  1  0.88985042  0.44334135  0.69795877  1
  F  F5  1  0.11057388  0.05620623  0.31204277  1
  F  F6  1  0.49325645  0.00180678  0.20901189  1
  F  F7  1  0.50220045  0.99535774  0.78901922  1
  F  F8  1  0.49778637  0.49315746  0.21100045  1
  F  F9  1  0.50678101  0.50853245  0.79097553  1
  F  F10  1  0.11013174  0.55454368  0.30204925  1
  F  F11  1  0.88939968  0.94453930  0.68791304  1
