# generated using pymatgen
data_Ta2Co4O9
_symmetry_space_group_name_H-M   'P 1'
_cell_length_a   5.19834888
_cell_length_b   8.94225204
_cell_length_c   14.56418930
_cell_angle_alpha   90.00464018
_cell_angle_beta   89.99029518
_cell_angle_gamma   90.00643809
_symmetry_Int_Tables_number   1
_chemical_formula_structural   Ta2Co4O9
_chemical_formula_sum   'Ta8 Co16 O36'
_cell_volume   677.01553505
_cell_formula_units_Z   4
loop_
 _symmetry_equiv_pos_site_id
 _symmetry_equiv_pos_as_xyz
  1  'x, y, z'
loop_
 _atom_site_type_symbol
 _atom_site_label
 _atom_site_symmetry_multiplicity
 _atom_site_fract_x
 _atom_site_fract_y
 _atom_site_fract_z
 _atom_site_occupancy
  Ta  Ta0  1  0.00013612  0.02353837  0.14464020  1
  Ta  Ta1  1  0.00150686  0.97655687  0.35515154  1
  Ta  Ta2  1  0.49945976  0.47452833  0.64566192  1
  Ta  Ta3  1  0.50106741  0.52542088  0.85448095  1
  Ta  Ta4  1  0.50106009  0.52360499  0.35532697  1
  Ta  Ta5  1  0.50028979  0.47644352  0.14474507  1
  Ta  Ta6  1  0.00076781  0.02513997  0.64541623  1
  Ta  Ta7  1  0.00067976  0.97430332  0.85407577  1
  Co  Co8  1  0.00006915  0.33622261  0.30820131  1
  Co  Co9  1  0.00003621  0.66417776  0.19219424  1
  Co  Co10  1  0.00375971  0.66270435  0.49870900  1
  Co  Co11  1  0.00361654  0.33760023  0.00175047  1
  Co  Co12  1  0.49714795  0.16310088  0.50158594  1
  Co  Co13  1  0.49708934  0.83719568  0.99825505  1
  Co  Co14  1  0.49893718  0.83484843  0.68803098  1
  Co  Co15  1  0.49596050  0.16502217  0.81323200  1
  Co  Co16  1  0.49997882  0.83576939  0.19211203  1
  Co  Co17  1  0.50018528  0.16360539  0.30855204  1
  Co  Co18  1  0.50341413  0.16245760  0.00145461  1
  Co  Co19  1  0.50396211  0.83819403  0.49813484  1
  Co  Co20  1  0.99667956  0.33724924  0.50175617  1
  Co  Co21  1  0.99698082  0.66300955  0.99832941  1
  Co  Co22  1  0.99647003  0.66327322  0.68664110  1
  Co  Co23  1  0.99716720  0.33465100  0.81284434  1
  O  O24  1  0.14619560  0.14582993  0.74928863  1
  O  O25  1  0.14511380  0.85390453  0.75042160  1
  O  O26  1  0.16354310  0.16827245  0.07321326  1
  O  O27  1  0.16354768  0.83152257  0.42669061  1
  O  O28  1  0.17112021  0.49303826  0.41310696  1
  O  O29  1  0.17129990  0.50653242  0.08655005  1
  O  O30  1  0.17347860  0.15947536  0.40400895  1
  O  O31  1  0.17296603  0.83985700  0.09618915  1
  O  O32  1  0.21500340  0.50047919  0.75034672  1
  O  O33  1  0.28334730  0.99994494  0.24987922  1
  O  O34  1  0.33006500  0.33828760  0.90245638  1
  O  O35  1  0.33046327  0.66153569  0.59749033  1
  O  O36  1  0.32686542  0.99339187  0.58602092  1
  O  O37  1  0.32654563  0.00632508  0.91370744  1
  O  O38  1  0.33524016  0.33177828  0.57300213  1
  O  O39  1  0.33553637  0.66825757  0.92691331  1
  O  O40  1  0.35595080  0.35347856  0.25009946  1
  O  O41  1  0.35520880  0.64593399  0.25009343  1
  O  O42  1  0.64615194  0.64617263  0.75085168  1
  O  O43  1  0.64640180  0.35448612  0.74911493  1
  O  O44  1  0.66362915  0.66859794  0.42684805  1
  O  O45  1  0.66347650  0.33175624  0.07318888  1
  O  O46  1  0.67093740  0.00734345  0.41282185  1
  O  O47  1  0.67116219  0.99350888  0.08651477  1
  O  O48  1  0.67388811  0.34066394  0.40406107  1
  O  O49  1  0.67298485  0.66007111  0.09622202  1
  O  O50  1  0.71351496  0.00053727  0.74978238  1
  O  O51  1  0.78345384  0.50008614  0.24992149  1
  O  O52  1  0.82981708  0.16152754  0.90226521  1
  O  O53  1  0.83048846  0.83853516  0.59744560  1
  O  O54  1  0.82707344  0.49334993  0.91379496  1
  O  O55  1  0.82749178  0.50671683  0.58654561  1
  O  O56  1  0.83543137  0.16818230  0.57311280  1
  O  O57  1  0.83528953  0.83168728  0.92675682  1
  O  O58  1  0.85581518  0.14628279  0.24997650  1
  O  O59  1  0.85507922  0.85402941  0.25001468  1
