# generated using pymatgen
data_Li6FeO4
_symmetry_space_group_name_H-M   'P 1'
_cell_length_a   6.71382270
_cell_length_b   6.71371640
_cell_length_c   4.67695559
_cell_angle_alpha   89.99894986
_cell_angle_beta   89.99520921
_cell_angle_gamma   89.99805455
_symmetry_Int_Tables_number   1
_chemical_formula_structural   Li6FeO4
_chemical_formula_sum   'Li12 Fe2 O8'
_cell_volume   210.81237670
_cell_formula_units_Z   2
loop_
 _symmetry_equiv_pos_site_id
 _symmetry_equiv_pos_as_xyz
  1  'x, y, z'
loop_
 _atom_site_type_symbol
 _atom_site_label
 _atom_site_symmetry_multiplicity
 _atom_site_fract_x
 _atom_site_fract_y
 _atom_site_fract_z
 _atom_site_occupancy
  Li  Li0  1  0.03576528  0.53575559  0.74995206  1
  Li  Li1  1  0.03553467  0.96448264  0.74997290  1
  Li  Li2  1  0.25003585  0.25001612  0.69717578  1
  Li  Li3  1  0.25001330  0.25000492  0.19717677  1
  Li  Li4  1  0.46450408  0.53550977  0.75001617  1
  Li  Li5  1  0.46429543  0.96426664  0.75002507  1
  Li  Li6  1  0.53551540  0.03549952  0.25001261  1
  Li  Li7  1  0.53558920  0.46440224  0.25000707  1
  Li  Li8  1  0.75000800  0.74999110  0.30283638  1
  Li  Li9  1  0.75000996  0.75000507  0.80283420  1
  Li  Li10  1  0.96433463  0.03565372  0.24999478  1
  Li  Li11  1  0.96445604  0.46444030  0.24998668  1
  Fe  Fe12  1  0.24995437  0.75006262  0.24997227  1
  Fe  Fe13  1  0.75004819  0.25002193  0.75002827  1
  O  O14  1  0.01693426  0.25000390  0.95849875  1
  O  O15  1  0.25023631  0.01691859  0.45853166  1
  O  O16  1  0.24979659  0.48316319  0.45847776  1
  O  O17  1  0.48311638  0.24997227  0.95847249  1
  O  O18  1  0.51688838  0.75021961  0.04152531  1
  O  O19  1  0.74999504  0.98309742  0.54152825  1
  O  O20  1  0.75002682  0.51690451  0.54151112  1
  O  O21  1  0.98311982  0.74978833  0.04146265  1
