# generated using pymatgen
data_KNa2NiO2
_symmetry_space_group_name_H-M   'P 1'
_cell_length_a   6.09132464
_cell_length_b   6.09132473
_cell_length_c   12.57065658
_cell_angle_alpha   90.00000000
_cell_angle_beta   90.00000000
_cell_angle_gamma   117.57192612
_symmetry_Int_Tables_number   1
_chemical_formula_structural   KNa2NiO2
_chemical_formula_sum   'K4 Na8 Ni4 O8'
_cell_volume   413.45299405
_cell_formula_units_Z   4
loop_
 _symmetry_equiv_pos_site_id
 _symmetry_equiv_pos_as_xyz
  1  'x, y, z'
loop_
 _atom_site_type_symbol
 _atom_site_label
 _atom_site_symmetry_multiplicity
 _atom_site_fract_x
 _atom_site_fract_y
 _atom_site_fract_z
 _atom_site_occupancy
  K  K0  1  0.80901834  0.19098166  0.62913132  1
  K  K1  1  0.69098166  0.30901834  0.12913132  1
  K  K2  1  0.30901834  0.69098166  0.87086868  1
  K  K3  1  0.19098166  0.80901834  0.37086868  1
  Na  Na4  1  0.22953771  0.22953771  0.00000000  1
  Na  Na5  1  0.27046229  0.27046229  0.50000000  1
  Na  Na6  1  0.27736212  0.22263788  0.75000000  1
  Na  Na7  1  0.72263788  0.77736212  0.25000000  1
  Na  Na8  1  0.77736212  0.72263788  0.75000000  1
  Na  Na9  1  0.72953771  0.72953771  0.50000000  1
  Na  Na10  1  0.22263788  0.27736212  0.25000000  1
  Na  Na11  1  0.77046229  0.77046229  0.00000000  1
  Ni  Ni12  1  0.74917545  0.25082455  0.87604507  1
  Ni  Ni13  1  0.24917545  0.75082455  0.62395493  1
  Ni  Ni14  1  0.75082455  0.24917545  0.37604507  1
  Ni  Ni15  1  0.25082455  0.74917545  0.12395493  1
  O  O16  1  0.92110090  0.07889910  0.86377581  1
  O  O17  1  0.57745230  0.42254770  0.88508930  1
  O  O18  1  0.42254770  0.57745230  0.11491070  1
  O  O19  1  0.42110090  0.57889910  0.63622419  1
  O  O20  1  0.57889910  0.42110090  0.36377581  1
  O  O21  1  0.92254770  0.07745230  0.38508930  1
  O  O22  1  0.07889910  0.92110090  0.13622419  1
  O  O23  1  0.07745230  0.92254770  0.61491070  1
