# generated using pymatgen
data_LiFe(SO4)2
_symmetry_space_group_name_H-M   'P 1'
_cell_length_a   8.98919292
_cell_length_b   8.94306836
_cell_length_c   8.99305765
_cell_angle_alpha   55.72928568
_cell_angle_beta   55.65682445
_cell_angle_gamma   55.62279251
_symmetry_Int_Tables_number   1
_chemical_formula_structural   LiFe(SO4)2
_chemical_formula_sum   'Li3 Fe3 S6 O24'
_cell_volume   459.84843274
_cell_formula_units_Z   3
loop_
 _symmetry_equiv_pos_site_id
 _symmetry_equiv_pos_as_xyz
  1  'x, y, z'
loop_
 _atom_site_type_symbol
 _atom_site_label
 _atom_site_symmetry_multiplicity
 _atom_site_fract_x
 _atom_site_fract_y
 _atom_site_fract_z
 _atom_site_occupancy
  Li  Li0  1  0.16685271  0.13276551  0.15639523  1
  Li  Li1  1  0.17946413  0.41369963  0.77792365  1
  Li  Li2  1  0.77890836  0.17974230  0.41315285  1
  Fe  Fe3  1  0.35466262  0.35431035  0.34749456  1
  Fe  Fe4  1  0.64309863  0.64525196  0.64263529  1
  Fe  Fe5  1  0.84685977  0.85319103  0.85908826  1
  S  S6  1  0.03684952  0.74426741  0.46799065  1
  S  S7  1  0.46373536  0.03860723  0.74804755  1
  S  S8  1  0.74982152  0.46881412  0.03325275  1
  S  S9  1  0.25244632  0.54203980  0.95392111  1
  S  S10  1  0.53487036  0.95706968  0.25584899  1
  S  S11  1  0.95527124  0.25183699  0.54138824  1
  O  O12  1  0.10994936  0.29756621  0.50709230  1
  O  O13  1  0.29854496  0.50695789  0.10826886  1
  O  O14  1  0.00356587  0.94884297  0.34737388  1
  O  O15  1  0.51353630  0.11031718  0.29821595  1
  O  O16  1  0.02797632  0.70124898  0.66172393  1
  O  O17  1  0.23185722  0.61520620  0.37937102  1
  O  O18  1  0.37723963  0.24113594  0.61556786  1
  O  O19  1  0.33820099  0.01563496  0.94578774  1
  O  O20  1  0.62826107  0.37296610  0.23524919  1
  O  O21  1  0.04899877  0.68202783  0.97971652  1
  O  O22  1  0.27638337  0.36231415  0.96048523  1
  O  O23  1  0.35188730  0.97414191  0.28478835  1
  O  O24  1  0.65973759  0.02848214  0.70244408  1
  O  O25  1  0.71314336  0.65995565  0.02120670  1
  O  O26  1  0.95338328  0.34164114  0.00074052  1
  O  O27  1  0.38180028  0.63352698  0.76305851  1
  O  O28  1  0.67437928  0.98153987  0.05140797  1
  O  O29  1  0.62843846  0.76376877  0.38330134  1
  O  O30  1  0.76334641  0.38159941  0.63364400  1
  O  O31  1  0.96169085  0.27660341  0.36228262  1
  O  O32  1  0.49464332  0.89709814  0.68794304  1
  O  O33  1  0.97849165  0.04784202  0.68081013  1
  O  O34  1  0.68480503  0.49888815  0.89682030  1
  O  O35  1  0.89029980  0.68930000  0.50075883  1
