# generated using pymatgen
data_Na2VSiCO7
_symmetry_space_group_name_H-M   'P 1'
_cell_length_a   9.05006092
_cell_length_b   6.47378688
_cell_length_c   5.29263282
_cell_angle_alpha   90.00000000
_cell_angle_beta   88.80626763
_cell_angle_gamma   90.00000000
_symmetry_Int_Tables_number   1
_chemical_formula_structural   Na2VSiCO7
_chemical_formula_sum   'Na4 V2 Si2 C2 O14'
_cell_volume   310.01834991
_cell_formula_units_Z   2
loop_
 _symmetry_equiv_pos_site_id
 _symmetry_equiv_pos_as_xyz
  1  'x, y, z'
loop_
 _atom_site_type_symbol
 _atom_site_label
 _atom_site_symmetry_multiplicity
 _atom_site_fract_x
 _atom_site_fract_y
 _atom_site_fract_z
 _atom_site_occupancy
  Na  Na0  1  0.23380267  0.49600797  0.24018421  1
  Na  Na1  1  0.23380267  0.00399203  0.24018421  1
  Na  Na2  1  0.76619733  0.50399203  0.75981579  1
  Na  Na3  1  0.76619733  0.99600797  0.75981579  1
  V  V4  1  0.34846453  0.75000000  0.79349026  1
  V  V5  1  0.65153547  0.25000000  0.20650974  1
  Si  Si6  1  0.42910818  0.25000000  0.70184740  1
  Si  Si7  1  0.57089182  0.75000000  0.29815260  1
  C  C8  1  0.07432656  0.75000000  0.72782550  1
  C  C9  1  0.92567344  0.25000000  0.27217450  1
  O  O10  1  0.06260628  0.25000000  0.29671700  1
  O  O11  1  0.13900889  0.75000000  0.94983561  1
  O  O12  1  0.17064053  0.75000000  0.53699569  1
  O  O13  1  0.33392718  0.04109549  0.77940890  1
  O  O14  1  0.33392718  0.45890451  0.77940890  1
  O  O15  1  0.41721205  0.75000000  0.14017287  1
  O  O16  1  0.45921409  0.25000000  0.39354081  1
  O  O17  1  0.54078591  0.75000000  0.60645919  1
  O  O18  1  0.58278795  0.25000000  0.85982813  1
  O  O19  1  0.66607282  0.54109549  0.22059110  1
  O  O20  1  0.66607282  0.95890451  0.22059110  1
  O  O21  1  0.82935947  0.25000000  0.46300431  1
  O  O22  1  0.86099111  0.25000000  0.05016439  1
  O  O23  1  0.93739372  0.75000000  0.70328300  1
