# generated using pymatgen
data_LaSCl
_symmetry_space_group_name_H-M   'P 1'
_cell_length_a   6.95834545
_cell_length_b   7.05059017
_cell_length_c   41.97295618
_cell_angle_alpha   90.00000000
_cell_angle_beta   90.00000000
_cell_angle_gamma   90.00000000
_symmetry_Int_Tables_number   1
_chemical_formula_structural   LaSCl
_chemical_formula_sum   'La24 S24 Cl24'
_cell_volume   2059.21178346
_cell_formula_units_Z   24
loop_
 _symmetry_equiv_pos_site_id
 _symmetry_equiv_pos_as_xyz
  1  'x, y, z'
loop_
 _atom_site_type_symbol
 _atom_site_label
 _atom_site_symmetry_multiplicity
 _atom_site_fract_x
 _atom_site_fract_y
 _atom_site_fract_z
 _atom_site_occupancy
  La  La0  1  0.28669546  0.25000000  0.50000000  1
  La  La1  1  0.71330454  0.75000000  -0.00000000  1
  La  La2  1  0.71330454  0.75000000  0.50000000  1
  La  La3  1  0.28669546  0.25000000  -0.00000000  1
  La  La4  1  0.31795846  0.70737948  0.75000000  1
  La  La5  1  0.68204154  0.29262052  0.25000000  1
  La  La6  1  0.31795846  0.79262052  0.25000000  1
  La  La7  1  0.68204154  0.20737948  0.75000000  1
  La  La8  1  0.69659228  0.30540957  0.08229080  1
  La  La9  1  0.30340772  0.69459043  0.58229080  1
  La  La10  1  0.69659228  0.19459043  0.91770920  1
  La  La11  1  0.30340772  0.80540957  0.41770920  1
  La  La12  1  0.30340772  0.69459043  0.91770920  1
  La  La13  1  0.69659228  0.30540957  0.41770920  1
  La  La14  1  0.30340772  0.80540957  0.08229080  1
  La  La15  1  0.69659228  0.19459043  0.58229080  1
  La  La16  1  0.69821486  0.73163615  0.16501028  1
  La  La17  1  0.30178514  0.26836385  0.66501028  1
  La  La18  1  0.69821486  0.76836385  0.83498972  1
  La  La19  1  0.30178514  0.23163615  0.33498972  1
  La  La20  1  0.30178514  0.26836385  0.83498972  1
  La  La21  1  0.69821486  0.73163615  0.33498972  1
  La  La22  1  0.30178514  0.23163615  0.16501028  1
  La  La23  1  0.69821486  0.76836385  0.66501028  1
  S  S24  1  0.53282976  0.46384926  0.54094953  1
  S  S25  1  0.46717024  0.53615074  0.04094953  1
  S  S26  1  0.53282976  0.03615074  0.45905047  1
  S  S27  1  0.46717024  0.96384926  0.95905047  1
  S  S28  1  0.46717024  0.53615074  0.45905047  1
  S  S29  1  0.53282976  0.46384926  0.95905047  1
  S  S30  1  0.46717024  0.96384926  0.54094953  1
  S  S31  1  0.53282976  0.03615074  0.04094953  1
  S  S32  1  0.54534183  0.48483399  0.62520930  1
  S  S33  1  0.45465817  0.51516601  0.12520930  1
  S  S34  1  0.54534183  0.01516601  0.37479070  1
  S  S35  1  0.45465817  0.98483399  0.87479070  1
  S  S36  1  0.45465817  0.51516601  0.37479070  1
  S  S37  1  0.54534183  0.48483399  0.87479070  1
  S  S38  1  0.45465817  0.98483399  0.62520930  1
  S  S39  1  0.54534183  0.01516601  0.12520930  1
  S  S40  1  0.54099074  0.01511606  0.29179489  1
  S  S41  1  0.45900926  0.98488394  0.79179489  1
  S  S42  1  0.54099074  0.48488394  0.70820511  1
  S  S43  1  0.45900926  0.51511606  0.20820511  1
  S  S44  1  0.45900926  0.98488394  0.70820511  1
  S  S45  1  0.54099074  0.01511606  0.20820511  1
  S  S46  1  0.45900926  0.51511606  0.29179489  1
  S  S47  1  0.54099074  0.48488394  0.79179489  1
  Cl  Cl48  1  0.06289344  0.61204336  0.80463089  1
  Cl  Cl49  1  0.93710656  0.38795664  0.30463089  1
  Cl  Cl50  1  0.06289344  0.88795664  0.19536911  1
  Cl  Cl51  1  0.93710656  0.11204336  0.69536911  1
  Cl  Cl52  1  0.93710656  0.38795664  0.19536911  1
  Cl  Cl53  1  0.06289344  0.61204336  0.69536911  1
  Cl  Cl54  1  0.93710656  0.11204336  0.80463089  1
  Cl  Cl55  1  0.06289344  0.88795664  0.30463089  1
  Cl  Cl56  1  0.06539164  0.35968160  0.88972428  1
  Cl  Cl57  1  0.93460836  0.64031840  0.38972428  1
  Cl  Cl58  1  0.06539164  0.14031840  0.11027572  1
  Cl  Cl59  1  0.93460836  0.85968160  0.61027572  1
  Cl  Cl60  1  0.93460836  0.64031840  0.11027572  1
  Cl  Cl61  1  0.06539164  0.35968160  0.61027572  1
  Cl  Cl62  1  0.93460836  0.85968160  0.88972428  1
  Cl  Cl63  1  0.06539164  0.14031840  0.38972428  1
  Cl  Cl64  1  0.04287732  0.91867391  0.46526803  1
  Cl  Cl65  1  0.95712268  0.08132609  0.96526803  1
  Cl  Cl66  1  0.04287732  0.58132609  0.53473197  1
  Cl  Cl67  1  0.95712268  0.41867391  0.03473197  1
  Cl  Cl68  1  0.95712268  0.08132609  0.53473197  1
  Cl  Cl69  1  0.04287732  0.91867391  0.03473197  1
  Cl  Cl70  1  0.95712268  0.41867391  0.46526803  1
  Cl  Cl71  1  0.04287732  0.58132609  0.96526803  1
