# generated using pymatgen
data_Na3FeBPO7
_symmetry_space_group_name_H-M   'P 1'
_cell_length_a   8.94305683
_cell_length_b   6.69572435
_cell_length_c   5.24472130
_cell_angle_alpha   90.00000000
_cell_angle_beta   89.05796160
_cell_angle_gamma   90.00000000
_symmetry_Int_Tables_number   1
_chemical_formula_structural   Na3FeBPO7
_chemical_formula_sum   'Na6 Fe2 B2 P2 O14'
_cell_volume   314.01274011
_cell_formula_units_Z   2
loop_
 _symmetry_equiv_pos_site_id
 _symmetry_equiv_pos_as_xyz
  1  'x, y, z'
loop_
 _atom_site_type_symbol
 _atom_site_label
 _atom_site_symmetry_multiplicity
 _atom_site_fract_x
 _atom_site_fract_y
 _atom_site_fract_z
 _atom_site_occupancy
  Na  Na0  1  0.07546950  0.25000000  0.75681592  1
  Na  Na1  1  0.25218769  0.00188118  0.25008342  1
  Na  Na2  1  0.25218769  0.49811882  0.25008342  1
  Na  Na3  1  0.74781231  0.50188118  0.74991658  1
  Na  Na4  1  0.74781231  0.99811882  0.74991658  1
  Na  Na5  1  0.92453050  0.75000000  0.24318408  1
  Fe  Fe6  1  0.33839775  0.75000000  0.77826729  1
  Fe  Fe7  1  0.66160225  0.25000000  0.22173271  1
  B  B8  1  0.06526522  0.75000000  0.73659587  1
  B  B9  1  0.93473478  0.25000000  0.26340413  1
  P  P10  1  0.42290986  0.25000000  0.71093039  1
  P  P11  1  0.57709014  0.75000000  0.28906961  1
  O  O12  1  0.08357258  0.25000000  0.29392290  1
  O  O13  1  0.13737898  0.75000000  0.97297196  1
  O  O14  1  0.17094849  0.75000000  0.53252027  1
  O  O15  1  0.32551604  0.06425022  0.77732467  1
  O  O16  1  0.32551604  0.43574978  0.77732467  1
  O  O17  1  0.46148686  0.25000000  0.41750719  1
  O  O18  1  0.42966772  0.75000000  0.13849292  1
  O  O19  1  0.57033228  0.25000000  0.86150708  1
  O  O20  1  0.53851314  0.75000000  0.58249281  1
  O  O21  1  0.67448396  0.56425022  0.22267533  1
  O  O22  1  0.67448396  0.93574978  0.22267533  1
  O  O23  1  0.82905151  0.25000000  0.46747973  1
  O  O24  1  0.86262102  0.25000000  0.02702804  1
  O  O25  1  0.91642742  0.75000000  0.70607710  1
