# generated using pymatgen
data_Sr4Li4Nb5FeO20
_symmetry_space_group_name_H-M   'P 1'
_cell_length_a   13.50346245
_cell_length_b   13.50346245
_cell_length_c   27.00688719
_cell_angle_alpha   162.91373682
_cell_angle_beta   162.91385020
_cell_angle_gamma   24.25517378
_symmetry_Int_Tables_number   1
_chemical_formula_structural   Sr4Li4Nb5FeO20
_chemical_formula_sum   'Sr4 Li4 Nb5 Fe1 O20'
_cell_volume   424.99879579
_cell_formula_units_Z   1
loop_
 _symmetry_equiv_pos_site_id
 _symmetry_equiv_pos_as_xyz
  1  'x, y, z'
loop_
 _atom_site_type_symbol
 _atom_site_label
 _atom_site_symmetry_multiplicity
 _atom_site_fract_x
 _atom_site_fract_y
 _atom_site_fract_z
 _atom_site_occupancy
  Sr  Sr0  1  0.42378711  0.42378711  1.00000000  1
  Sr  Sr1  1  0.57621289  0.57621289  0.00000000  1
  Sr  Sr2  1  0.42379090  0.42379090  0.50000000  1
  Sr  Sr3  1  0.57620910  0.57620910  0.50000000  1
  Li  Li4  1  0.75421585  0.25414882  0.25418199  1
  Li  Li5  1  0.74578484  0.24585287  0.74581801  1
  Li  Li6  1  0.25421516  0.75414713  0.25418199  1
  Li  Li7  1  0.24578415  0.74585118  0.74581801  1
  Nb  Nb8  1  0.00000000  0.00000000  0.00000000  1
  Nb  Nb9  1  0.15900427  0.15900427  1.00000000  1
  Nb  Nb10  1  0.84099573  0.84099573  0.00000000  1
  Nb  Nb11  1  0.15571674  0.15571674  0.50000000  1
  Nb  Nb12  1  0.84428326  0.84428326  0.50000000  1
  Fe  Fe13  1  0.00000000  0.00000000  0.50000000  1
  O  O14  1  0.93139742  0.49610751  0.21375246  1
  O  O15  1  0.07620324  0.07620324  0.00000000  1
  O  O16  1  0.64702864  0.14868358  0.24779322  1
  O  O17  1  0.23042859  0.23042859  0.00000000  1
  O  O18  1  0.85156589  0.34690147  0.24929793  1
  O  O19  1  0.92379676  0.92379676  1.00000000  1
  O  O20  1  0.76957141  0.76957141  1.00000000  1
  O  O21  1  0.49610976  0.06859228  0.28235152  1
  O  O22  1  0.22827321  0.22827321  0.50000000  1
  O  O23  1  0.65309615  0.15144120  0.75220678  1
  O  O24  1  0.15169439  0.64702998  0.24929793  1
  O  O25  1  0.92294816  0.92294816  0.50000000  1
  O  O26  1  0.34690385  0.84855880  0.24779322  1
  O  O27  1  0.07705184  0.07705184  0.50000000  1
  O  O28  1  0.84830561  0.35297002  0.75070207  1
  O  O29  1  0.77172679  0.77172679  0.50000000  1
  O  O30  1  0.50389024  0.93140772  0.71764848  1
  O  O31  1  0.06860358  0.50389249  0.78624754  1
  O  O32  1  0.14843411  0.65309853  0.75070207  1
  O  O33  1  0.35297136  0.85131642  0.75220678  1
