# generated using pymatgen
data_TiFe5(PO4)6
_symmetry_space_group_name_H-M   'P 1'
_cell_length_a   8.47175400
_cell_length_b   8.65061657
_cell_length_c   8.65061618
_cell_angle_alpha   59.99999997
_cell_angle_beta   59.29909806
_cell_angle_gamma   59.29910194
_symmetry_Int_Tables_number   1
_chemical_formula_structural   TiFe5(PO4)6
_chemical_formula_sum   'Ti1 Fe5 P6 O24'
_cell_volume   443.47517300
_cell_formula_units_Z   1
loop_
 _symmetry_equiv_pos_site_id
 _symmetry_equiv_pos_as_xyz
  1  'x, y, z'
loop_
 _atom_site_type_symbol
 _atom_site_label
 _atom_site_symmetry_multiplicity
 _atom_site_fract_x
 _atom_site_fract_y
 _atom_site_fract_z
 _atom_site_occupancy
  Ti  Ti0  1  0.57104575  0.14298442  0.14298442  1
  Fe  Fe1  1  0.00393845  0.99868718  0.99868718  1
  Fe  Fe2  1  0.06017647  0.64660751  0.64660751  1
  Fe  Fe3  1  0.50255307  0.49914898  0.49914898  1
  Fe  Fe4  1  0.43262921  0.85578993  0.85578993  1
  Fe  Fe5  1  0.93896274  0.35367875  0.35367875  1
  P  P6  1  0.25116222  0.25145543  0.54452554  1
  P  P7  1  0.25116222  0.95285681  0.25145543  1
  P  P8  1  0.25116222  0.54452554  0.95285681  1
  P  P9  1  0.74648687  0.45620304  0.04749911  1
  P  P10  1  0.74648687  0.04749911  0.74981197  1
  P  P11  1  0.74648687  0.74981197  0.45620304  1
  O  O12  1  0.06783421  0.10605934  0.32516581  1
  O  O13  1  0.06783421  0.50094063  0.10605934  1
  O  O14  1  0.06783421  0.32516581  0.50094063  1
  O  O15  1  0.22684807  0.09494611  0.74107495  1
  O  O16  1  0.43234348  0.18045623  0.38197960  1
  O  O17  1  0.28788665  0.40860285  0.55102321  1
  O  O18  1  0.22684807  0.93713086  0.09494611  1
  O  O19  1  0.28788665  0.75248628  0.40860285  1
  O  O20  1  0.56335238  0.61111981  0.00562139  1
  O  O21  1  0.28788665  0.55102321  0.75248628  1
  O  O22  1  0.77051269  0.25646029  0.06573746  1
  O  O23  1  0.56335238  0.00562139  0.81990643  1
  O  O24  1  0.43234348  0.00522069  0.18045623  1
  O  O25  1  0.22684807  0.74107495  0.93713086  1
  O  O26  1  0.71810719  0.44140981  0.24896684  1
  O  O27  1  0.43234348  0.38197960  0.00522069  1
  O  O28  1  0.71810719  0.24896684  0.59151616  1
  O  O29  1  0.77051269  0.06573746  0.90728955  1
  O  O30  1  0.71810719  0.59151616  0.44140981  1
  O  O31  1  0.56335238  0.81990643  0.61111981  1
  O  O32  1  0.77051269  0.90728955  0.25646029  1
  O  O33  1  0.93236500  0.68117569  0.49470022  1
  O  O34  1  0.93236500  0.49470022  0.89175909  1
  O  O35  1  0.93236500  0.89175909  0.68117569  1
