# generated using pymatgen
data_K3V14O28
_symmetry_space_group_name_H-M   'P 1'
_cell_length_a   10.25636361
_cell_length_b   12.51593369
_cell_length_c   10.25636361
_cell_angle_alpha   65.81198555
_cell_angle_beta   90.00000000
_cell_angle_gamma   65.81198058
_symmetry_Int_Tables_number   1
_chemical_formula_structural   K3V14O28
_chemical_formula_sum   'K6 V28 O56'
_cell_volume   1073.03093071
_cell_formula_units_Z   2
loop_
 _symmetry_equiv_pos_site_id
 _symmetry_equiv_pos_as_xyz
  1  'x, y, z'
loop_
 _atom_site_type_symbol
 _atom_site_label
 _atom_site_symmetry_multiplicity
 _atom_site_fract_x
 _atom_site_fract_y
 _atom_site_fract_z
 _atom_site_occupancy
  K  K0  1  0.19806901  0.60386098  0.19806901  1
  K  K1  1  0.50456348  0.99087203  0.50456348  1
  K  K2  1  0.03154335  0.93691329  0.03154335  1
  K  K3  1  0.35257852  0.29484197  0.35257852  1
  K  K4  1  0.65907299  0.68185302  0.65907299  1
  K  K5  1  0.82559965  0.34880071  0.82559965  1
  V  V6  1  0.07630210  0.14285700  0.59741815  1
  V  V7  1  0.02474952  0.28747833  0.20932364  1
  V  V8  1  0.16937085  0.99823567  0.35394497  1
  V  V9  1  0.25972485  0.14285700  0.07630210  1
  V  V10  1  0.11522794  0.43226032  0.93333763  1
  V  V11  1  0.06652947  0.56960308  0.54820318  1
  V  V12  1  0.20932364  0.28747833  0.68777215  1
  V  V13  1  0.35394497  0.99823567  0.83239348  1
  V  V14  1  0.22274095  0.85345368  0.74191406  1
  V  V15  1  0.64781936  0.99823567  0.16937085  1
  V  V16  1  0.36386744  0.56960308  0.88219373  1
  V  V17  1  0.50319803  0.28747833  0.02474952  1
  V  V18  1  0.45251074  0.43226032  0.63440205  1
  V  V19  1  0.30893882  0.71611092  0.49327556  1
  V  V20  1  0.59741815  0.14285700  0.78084090  1
  V  V21  1  0.40463226  0.85345368  0.22274095  1
  V  V22  1  0.83239348  0.99823567  0.64781936  1
  V  V23  1  0.68777215  0.28747833  0.50319803  1
  V  V24  1  0.54820318  0.56960308  0.36386744  1
  V  V25  1  0.63440205  0.43226032  0.11522794  1
  V  V26  1  0.49327556  0.71611092  0.97494927  1
  V  V27  1  0.78084090  0.14285700  0.25972485  1
  V  V28  1  0.79061353  0.71611092  0.30893882  1
  V  V29  1  0.93333763  0.43226032  0.45251074  1
  V  V30  1  0.88219373  0.56960308  0.06652947  1
  V  V31  1  0.74191406  0.85345368  0.92380537  1
  V  V32  1  0.97494927  0.71611092  0.79061353  1
  V  V33  1  0.92380537  0.85345368  0.40463226  1
  O  O34  1  0.01558118  0.28462496  0.65261449  1
  O  O35  1  0.15734915  0.00108904  0.79438245  1
  O  O36  1  0.02330876  0.28464632  0.39861872  1
  O  O37  1  0.16509808  0.00106768  0.54040804  1
  O  O38  1  0.06275955  0.28462496  0.01558118  1
  O  O39  1  0.20452851  0.00108904  0.15734915  1
  O  O40  1  0.22576040  0.14285700  0.27409328  1
  O  O41  1  0.08762488  0.42718258  0.13221830  1
  O  O42  1  0.26549794  0.14285700  0.88851913  1
  O  O43  1  0.12285597  0.42513677  0.74892311  1
  O  O44  1  0.27409328  0.14285700  0.63138260  1
  O  O45  1  0.13221830  0.42718258  0.48519254  1
  O  O46  1  0.17616780  0.56762364  0.88129254  1
  O  O47  1  0.03120388  0.86057723  0.73428703  1
  O  O48  1  0.45852428  0.00106768  0.16509808  1
  O  O49  1  0.31673496  0.28464632  0.02330876  1
  O  O50  1  0.10821889  0.86057723  0.40513573  1
  O  O51  1  0.25620756  0.56762364  0.55108282  1
  O  O52  1  0.54040804  0.00106768  0.83383424  1
  O  O53  1  0.39861872  0.28464632  0.69204492  1
  O  O54  1  0.44059811  0.42718258  0.08762488  1
  O  O55  1  0.29549458  0.71928555  0.93990041  1
  O  O56  1  0.58304872  0.14285700  0.22576040  1
  O  O57  1  0.45200627  0.42513677  0.82593912  1
  O  O58  1  0.30605918  0.71809036  0.68097520  1
  O  O59  1  0.59164506  0.14285700  0.96862287  1
  O  O60  1  0.48519254  0.42718258  0.44059811  1
  O  O61  1  0.34081304  0.71928555  0.29549458  1
  O  O62  1  0.63138260  0.14285700  0.58304872  1
  O  O63  1  0.37195046  0.85853142  0.41654489  1
  O  O64  1  0.79438245  0.00108904  0.84156182  1
  O  O65  1  0.51632996  0.56642845  0.56164842  1
  O  O66  1  0.65261449  0.28462496  0.69979385  1
  O  O67  1  0.40513573  0.86057723  0.03120388  1
  O  O68  1  0.83383424  0.00106768  0.45852428  1
  O  O69  1  0.69204492  0.28464632  0.31673496  1
  O  O70  1  0.55108282  0.56762364  0.17616780  1
  O  O71  1  0.41654489  0.85853142  0.76951812  1
  O  O72  1  0.84156182  0.00108904  0.20452851  1
  O  O73  1  0.69979385  0.28462496  0.06275955  1
  O  O74  1  0.56164842  0.56642845  0.91724159  1
  O  O75  1  0.60093444  0.71809036  0.30605918  1
  O  O76  1  0.88851913  0.14285700  0.59164506  1
  O  O77  1  0.74892311  0.42513677  0.45200627  1
  O  O78  1  0.68097520  0.71809036  0.97585046  1
  O  O79  1  0.96862287  0.14285700  0.26549794  1
  O  O80  1  0.82593912  0.42513677  0.12285597  1
  O  O81  1  0.72492370  0.85853142  0.37195046  1
  O  O82  1  0.87192313  0.56642845  0.51632996  1
  O  O83  1  0.88129254  0.56762364  0.25620756  1
  O  O84  1  0.73428703  0.86057723  0.10821889  1
  O  O85  1  0.76951812  0.85853142  0.72492370  1
  O  O86  1  0.91724159  0.56642845  0.87192313  1
  O  O87  1  0.93990041  0.71928555  0.98521987  1
  O  O88  1  0.97585046  0.71809036  0.60093444  1
  O  O89  1  0.98521987  0.71928555  0.34081304  1
