# generated using pymatgen
data_TiMn2Fe3(PO4)6
_symmetry_space_group_name_H-M   'P 1'
_cell_length_a   8.61820111
_cell_length_b   8.61820066
_cell_length_c   8.61820094
_cell_angle_alpha   60.29159117
_cell_angle_beta   60.29159014
_cell_angle_gamma   60.29158850
_symmetry_Int_Tables_number   1
_chemical_formula_structural   TiMn2Fe3(PO4)6
_chemical_formula_sum   'Ti1 Mn2 Fe3 P6 O24'
_cell_volume   455.60791144
_cell_formula_units_Z   1
loop_
 _symmetry_equiv_pos_site_id
 _symmetry_equiv_pos_as_xyz
  1  'x, y, z'
loop_
 _atom_site_type_symbol
 _atom_site_label
 _atom_site_symmetry_multiplicity
 _atom_site_fract_x
 _atom_site_fract_y
 _atom_site_fract_z
 _atom_site_occupancy
  Ti  Ti0  1  0.85482191  0.85482191  0.85482191  1
  Mn  Mn1  1  0.00109556  0.00109556  0.00109556  1
  Mn  Mn2  1  0.50064830  0.50064830  0.50064830  1
  Fe  Fe3  1  0.14549958  0.14549958  0.14549958  1
  Fe  Fe4  1  0.35469407  0.35469407  0.35469407  1
  Fe  Fe5  1  0.64525513  0.64525513  0.64525513  1
  P  P6  1  0.24993744  0.54377061  0.95553726  1
  P  P7  1  0.54377061  0.95553726  0.24993744  1
  P  P8  1  0.95553726  0.24993744  0.54377061  1
  P  P9  1  0.04389296  0.74945216  0.45567659  1
  P  P10  1  0.45567659  0.04389296  0.74945216  1
  P  P11  1  0.74945216  0.45567659  0.04389296  1
  O  O12  1  0.11228832  0.31137243  0.50808409  1
  O  O13  1  0.31137243  0.50808409  0.11228832  1
  O  O14  1  0.05987096  0.91196080  0.26255749  1
  O  O15  1  0.50808409  0.11228832  0.31137243  1
  O  O16  1  0.99378936  0.81527971  0.61861108  1
  O  O17  1  0.23894592  0.58812660  0.44755044  1
  O  O18  1  0.26255749  0.05987096  0.91196080  1
  O  O19  1  0.44755044  0.23894592  0.58812660  1
  O  O20  1  0.18717518  0.38740157  0.99394310  1
  O  O21  1  0.58812660  0.44755044  0.23894592  1
  O  O22  1  0.08636806  0.74013084  0.93680524  1
  O  O23  1  0.38740157  0.99394310  0.18717518  1
  O  O24  1  0.61861108  0.99378936  0.81527971  1
  O  O25  1  0.91196080  0.26255749  0.05987096  1
  O  O26  1  0.41142474  0.56086451  0.75883347  1
  O  O27  1  0.81527971  0.61861108  0.99378936  1
  O  O28  1  0.56086451  0.75883347  0.41142474  1
  O  O29  1  0.74013084  0.93680524  0.08636806  1
  O  O30  1  0.75883347  0.41142474  0.56086451  1
  O  O31  1  0.99394310  0.18717518  0.38740157  1
  O  O32  1  0.49565345  0.88945411  0.68322296  1
  O  O33  1  0.93680524  0.08636806  0.74013084  1
  O  O34  1  0.68322296  0.49565345  0.88945411  1
  O  O35  1  0.88945411  0.68322296  0.49565345  1
