# generated using pymatgen
data_Ti3Fe2Ni(PO4)6
_symmetry_space_group_name_H-M   'P 1'
_cell_length_a   8.52006695
_cell_length_b   8.52006666
_cell_length_c   8.52006645
_cell_angle_alpha   61.11508081
_cell_angle_beta   61.11508521
_cell_angle_gamma   61.11508231
_symmetry_Int_Tables_number   1
_chemical_formula_structural   Ti3Fe2Ni(PO4)6
_chemical_formula_sum   'Ti3 Fe2 Ni1 P6 O24'
_cell_volume   448.31074044
_cell_formula_units_Z   1
loop_
 _symmetry_equiv_pos_site_id
 _symmetry_equiv_pos_as_xyz
  1  'x, y, z'
loop_
 _atom_site_type_symbol
 _atom_site_label
 _atom_site_symmetry_multiplicity
 _atom_site_fract_x
 _atom_site_fract_y
 _atom_site_fract_z
 _atom_site_occupancy
  Ti  Ti0  1  0.14176908  0.14176908  0.14176908  1
  Ti  Ti1  1  0.35573476  0.35573476  0.35573476  1
  Ti  Ti2  1  0.64485793  0.64485793  0.64485793  1
  Fe  Fe3  1  0.99725902  0.99725902  0.99725902  1
  Fe  Fe4  1  0.49870814  0.49870814  0.49870814  1
  Ni  Ni5  1  0.85793405  0.85793405  0.85793405  1
  P  P6  1  0.04485966  0.75229714  0.45850638  1
  P  P7  1  0.45850638  0.04485966  0.75229714  1
  P  P8  1  0.25028408  0.54332723  0.95546629  1
  P  P9  1  0.54332723  0.95546629  0.25028408  1
  P  P10  1  0.95546629  0.25028408  0.54332723  1
  P  P11  1  0.75229714  0.45850638  0.04485966  1
  O  O12  1  0.11401559  0.32642459  0.48779111  1
  O  O13  1  0.32642459  0.48779111  0.11401559  1
  O  O14  1  0.05777579  0.90928016  0.25840091  1
  O  O15  1  0.48779111  0.11401559  0.32642459  1
  O  O16  1  0.01415530  0.81416189  0.61056855  1
  O  O17  1  0.24074824  0.58913169  0.43295862  1
  O  O18  1  0.25840091  0.05777579  0.90928016  1
  O  O19  1  0.43295862  0.24074824  0.58913169  1
  O  O20  1  0.18407409  0.38022841  0.00237856  1
  O  O21  1  0.58913169  0.43295862  0.24074824  1
  O  O22  1  0.09607496  0.73679103  0.94725574  1
  O  O23  1  0.38022841  0.00237856  0.18407409  1
  O  O24  1  0.61056855  0.01415530  0.81416189  1
  O  O25  1  0.90928016  0.25840091  0.05777579  1
  O  O26  1  0.41341702  0.55204118  0.76087181  1
  O  O27  1  0.81416189  0.61056855  0.01415530  1
  O  O28  1  0.55204118  0.76087181  0.41341702  1
  O  O29  1  0.73679103  0.94725574  0.09607496  1
  O  O30  1  0.76087181  0.41341702  0.55204118  1
  O  O31  1  0.00237856  0.18407409  0.38022841  1
  O  O32  1  0.50377376  0.88037131  0.68630594  1
  O  O33  1  0.94725574  0.09607496  0.73679103  1
  O  O34  1  0.68630594  0.50377376  0.88037131  1
  O  O35  1  0.88037131  0.68630594  0.50377376  1
