# generated using pymatgen
data_Na2Ti3Fe(PO4)6
_symmetry_space_group_name_H-M   'P 1'
_cell_length_a   8.93107448
_cell_length_b   8.93107448
_cell_length_c   8.93107435
_cell_angle_alpha   56.97524259
_cell_angle_beta   56.97524263
_cell_angle_gamma   56.97524502
_symmetry_Int_Tables_number   1
_chemical_formula_structural   Na2Ti3Fe(PO4)6
_chemical_formula_sum   'Na2 Ti3 Fe1 P6 O24'
_cell_volume   468.59176398
_cell_formula_units_Z   1
loop_
 _symmetry_equiv_pos_site_id
 _symmetry_equiv_pos_as_xyz
  1  'x, y, z'
loop_
 _atom_site_type_symbol
 _atom_site_label
 _atom_site_symmetry_multiplicity
 _atom_site_fract_x
 _atom_site_fract_y
 _atom_site_fract_z
 _atom_site_occupancy
  Na  Na0  1  0.00016652  0.00016652  0.00016652  1
  Na  Na1  1  0.49721909  0.49721909  0.49721909  1
  Ti  Ti2  1  0.14504943  0.14504943  0.14504943  1
  Ti  Ti3  1  0.64684936  0.64684936  0.64684936  1
  Ti  Ti4  1  0.85445816  0.85445816  0.85445816  1
  Fe  Fe5  1  0.35294218  0.35294218  0.35294218  1
  P  P6  1  0.03663992  0.74942376  0.46368928  1
  P  P7  1  0.53785922  0.96660293  0.24686940  1
  P  P8  1  0.24686940  0.53785922  0.96660293  1
  P  P9  1  0.74942376  0.46368928  0.03663992  1
  P  P10  1  0.46368928  0.03663992  0.74942376  1
  P  P11  1  0.96660293  0.24686940  0.53785922  1
  O  O12  1  -0.00521380  0.80417926  0.62329571  1
  O  O13  1  0.09436294  0.90418722  0.26900673  1
  O  O14  1  0.09477237  0.73335534  0.89945002  1
  O  O15  1  0.37592791  0.00141069  0.19981012  1
  O  O16  1  0.49012353  0.85258189  0.74434263  1
  O  O17  1  0.19832757  0.55397701  0.47842701  1
  O  O18  1  0.53513352  0.80158052  0.44184842  1
  O  O19  1  0.23998387  0.52220994  0.14914931  1
  O  O20  1  0.19981012  0.37592791  0.00141069  1
  O  O21  1  0.73335534  0.89945002  0.09477237  1
  O  O22  1  0.14914931  0.23998387  0.52220994  1
  O  O23  1  0.44184842  0.53513352  0.80158052  1
  O  O24  1  0.55397701  0.47842701  0.19832757  1
  O  O25  1  0.85258189  0.74434263  0.49012353  1
  O  O26  1  0.26900673  0.09436294  0.90418722  1
  O  O27  1  0.80417926  0.62329571  -0.00521380  1
  O  O28  1  0.74434263  0.49012353  0.85258189  1
  O  O29  1  0.47842701  0.19832757  0.55397701  1
  O  O30  1  0.80158052  0.44184842  0.53513352  1
  O  O31  1  0.52220994  0.14914931  0.23998387  1
  O  O32  1  0.62329571  -0.00521380  0.80417926  1
  O  O33  1  0.90418722  0.26900673  0.09436294  1
  O  O34  1  0.89945002  0.09477237  0.73335534  1
  O  O35  1  0.00141069  0.19981012  0.37592791  1
