# generated using pymatgen
data_CaB2(H2O3)2
_symmetry_space_group_name_H-M   'P 1'
_cell_length_a   7.02523326
_cell_length_b   9.91680093
_cell_length_c   12.45747361
_cell_angle_alpha   90.00000000
_cell_angle_beta   90.00000000
_cell_angle_gamma   97.26707085
_symmetry_Int_Tables_number   1
_chemical_formula_structural   CaB2(H2O3)2
_chemical_formula_sum   'Ca8 B16 H32 O48'
_cell_volume   860.91381747
_cell_formula_units_Z   8
loop_
 _symmetry_equiv_pos_site_id
 _symmetry_equiv_pos_as_xyz
  1  'x, y, z'
loop_
 _atom_site_type_symbol
 _atom_site_label
 _atom_site_symmetry_multiplicity
 _atom_site_fract_x
 _atom_site_fract_y
 _atom_site_fract_z
 _atom_site_occupancy
  Ca  Ca0  1  0.22006899  0.63549994  0.10070891  1
  Ca  Ca1  1  0.27993101  0.86450006  0.60070891  1
  Ca  Ca2  1  0.19825546  0.26156087  0.23902916  1
  Ca  Ca3  1  0.30174454  0.23843913  0.73902916  1
  Ca  Ca4  1  0.69825546  0.76156087  0.26097084  1
  Ca  Ca5  1  0.80174454  0.73843913  0.76097084  1
  Ca  Ca6  1  0.72006899  0.13549994  0.39929109  1
  Ca  Ca7  1  0.77993101  0.36450006  0.89929109  1
  B  B8  1  0.09850690  0.90490586  0.19729055  1
  B  B9  1  0.18402318  0.73480816  0.33537138  1
  B  B10  1  0.17462588  0.52010325  0.84859729  1
  B  B11  1  0.32537412  0.97989675  0.34859729  1
  B  B12  1  0.31597682  0.76519184  0.83537138  1
  B  B13  1  0.25693098  0.33671259  0.99100159  1
  B  B14  1  0.24306902  0.16328741  0.49100159  1
  B  B15  1  0.40149310  0.59509414  0.69729055  1
  B  B16  1  0.59850690  0.40490586  0.30270945  1
  B  B17  1  0.75693098  0.83671259  0.50899841  1
  B  B18  1  0.74306902  0.66328741  0.00899841  1
  B  B19  1  0.68402318  0.23480816  0.16462862  1
  B  B20  1  0.67462588  0.02010325  0.65140271  1
  B  B21  1  0.82537412  0.47989675  0.15140271  1
  B  B22  1  0.81597682  0.26519184  0.66462862  1
  B  B23  1  0.90149310  0.09509414  0.80270945  1
  H  H24  1  0.02102277  0.51034752  0.27498603  1
  H  H25  1  0.13174828  0.91371556  0.81033103  1
  H  H26  1  0.00781183  0.23769908  0.05281174  1
  H  H27  1  0.04898502  0.29214638  0.47655341  1
  H  H28  1  0.01443721  0.08123876  0.58517473  1
  H  H29  1  0.16037171  0.58987823  0.45041787  1
  H  H30  1  0.10289466  0.09171909  0.92001308  1
  H  H31  1  0.18165357  0.53300109  0.59665958  1
  H  H32  1  0.31834643  0.96699891  0.09665958  1
  H  H33  1  0.33962829  0.91012177  0.95041787  1
  H  H34  1  0.36825172  0.58628444  0.31033103  1
  H  H35  1  0.47897723  0.98965248  0.77498603  1
  H  H36  1  0.39710534  0.40828091  0.42001308  1
  H  H37  1  0.50781183  0.73769908  0.44718826  1
  H  H38  1  0.48556279  0.41876124  0.08517473  1
  H  H39  1  0.54898502  0.79214638  0.02344659  1
  H  H40  1  0.45101498  0.20785362  0.97655341  1
  H  H41  1  0.51443721  0.58123876  0.91482527  1
  H  H42  1  0.49218817  0.26230092  0.55281174  1
  H  H43  1  0.60289466  0.59171909  0.57998692  1
  H  H44  1  0.52102277  0.01034752  0.22501397  1
  H  H45  1  0.63174828  0.41371556  0.68966897  1
  H  H46  1  0.66037171  0.08987823  0.04958213  1
  H  H47  1  0.68165357  0.03300109  0.90334042  1
  H  H48  1  0.81834643  0.46699891  0.40334042  1
  H  H49  1  0.89710534  0.90828091  0.07998692  1
  H  H50  1  0.83962829  0.41012177  0.54958213  1
  H  H51  1  0.98556279  0.91876124  0.41482527  1
  H  H52  1  0.95101498  0.70785362  0.52344659  1
  H  H53  1  0.99218817  0.76230092  0.94718826  1
  H  H54  1  0.86825172  0.08628444  0.18966897  1
  H  H55  1  0.97897723  0.48965248  0.72501397  1
  O  O56  1  0.05529216  0.77304647  0.25226276  1
  O  O57  1  0.01638429  0.46300822  0.20522992  1
  O  O58  1  0.07099509  0.62308864  0.39953588  1
  O  O59  1  0.14955852  0.82123300  0.78165365  1
  O  O60  1  0.08887849  0.22128620  0.42886542  1
  O  O61  1  0.13149293  0.40763334  0.92557119  1
  O  O62  1  0.22522825  0.88499116  0.10149720  1
  O  O63  1  0.09168460  0.06320719  0.84421468  1
  O  O64  1  0.25413508  0.85119292  0.40554273  1
  O  O65  1  0.13964152  0.21719484  0.04354259  1
  O  O66  1  0.24586492  0.64880708  0.90554273  1
  O  O67  1  0.15227118  0.07448485  0.57926061  1
  O  O68  1  0.27477175  0.61500884  0.60149720  1
  O  O69  1  0.18719362  0.01376272  0.26637446  1
  O  O70  1  0.35044148  0.67876700  0.28165365  1
  O  O71  1  0.31280638  0.48623728  0.76637446  1
  O  O72  1  0.42900491  0.87691136  0.89953588  1
  O  O73  1  0.34772882  0.42551515  0.07926061  1
  O  O74  1  0.44470784  0.72695353  0.75226276  1
  O  O75  1  0.36035848  0.28280516  0.54354259  1
  O  O76  1  0.40831540  0.43679281  0.34421468  1
  O  O77  1  0.51638429  0.96300822  0.29477008  1
  O  O78  1  0.36850707  0.09236666  0.42557119  1
  O  O79  1  0.41112151  0.27871380  0.92886542  1
  O  O80  1  0.58887849  0.72128620  0.07113458  1
  O  O81  1  0.63149293  0.90763334  0.57442881  1
  O  O82  1  0.48361571  0.03699178  0.70522992  1
  O  O83  1  0.59168460  0.56320719  0.65578532  1
  O  O84  1  0.63964152  0.71719484  0.45645741  1
  O  O85  1  0.55529216  0.27304647  0.24773724  1
  O  O86  1  0.65227118  0.57448485  0.92073939  1
  O  O87  1  0.57099509  0.12308864  0.10046412  1
  O  O88  1  0.68719362  0.51376272  0.23362554  1
  O  O89  1  0.64955852  0.32123300  0.71834635  1
  O  O90  1  0.81280638  0.98623728  0.73362554  1
  O  O91  1  0.72522825  0.38499116  0.39850280  1
  O  O92  1  0.84772882  0.92551515  0.42073939  1
  O  O93  1  0.75413508  0.35119292  0.09445727  1
  O  O94  1  0.86035848  0.78280516  0.95645741  1
  O  O95  1  0.74586492  0.14880708  0.59445727  1
  O  O96  1  0.90831540  0.93679281  0.15578532  1
  O  O97  1  0.77477175  0.11500884  0.89850280  1
  O  O98  1  0.86850707  0.59236666  0.07442881  1
  O  O99  1  0.91112151  0.77871380  0.57113458  1
  O  O100  1  0.85044148  0.17876700  0.21834635  1
  O  O101  1  0.92900491  0.37691136  0.60046412  1
  O  O102  1  0.98361571  0.53699178  0.79477008  1
  O  O103  1  0.94470784  0.22695353  0.74773724  1
