# generated using pymatgen
data_Li4Cr3Fe3(SnO8)2
_symmetry_space_group_name_H-M   'P 1'
_cell_length_a   5.98626977
_cell_length_b   5.98624403
_cell_length_c   9.74699335
_cell_angle_alpha   89.90853589
_cell_angle_beta   90.47348228
_cell_angle_gamma   120.21729101
_symmetry_Int_Tables_number   1
_chemical_formula_structural   Li4Cr3Fe3(SnO8)2
_chemical_formula_sum   'Li4 Cr3 Fe3 Sn2 O16'
_cell_volume   301.81455227
_cell_formula_units_Z   1
loop_
 _symmetry_equiv_pos_site_id
 _symmetry_equiv_pos_as_xyz
  1  'x, y, z'
loop_
 _atom_site_type_symbol
 _atom_site_label
 _atom_site_symmetry_multiplicity
 _atom_site_fract_x
 _atom_site_fract_y
 _atom_site_fract_z
 _atom_site_occupancy
  Li  Li0  1  0.32891220  0.66000308  0.89615526  1
  Li  Li1  1  0.00245261  0.00323780  0.99343557  1
  Li  Li2  1  0.00027305  0.00024865  0.49351629  1
  Li  Li3  1  0.66730950  0.33066142  0.39466939  1
  Cr  Cr4  1  0.17005976  0.83151036  0.21451707  1
  Cr  Cr5  1  0.17659166  0.34299333  0.21768952  1
  Cr  Cr6  1  0.34440025  0.16796222  0.71710033  1
  Fe  Fe7  1  0.66363961  0.83458149  0.21247043  1
  Fe  Fe8  1  0.83030196  0.66060640  0.71507437  1
  Fe  Fe9  1  0.83631167  0.17334806  0.71301813  1
  Sn  Sn10  1  0.33480260  0.67057655  0.49168273  1
  Sn  Sn11  1  0.66657982  0.33660254  0.99310443  1
  O  O12  1  0.16148454  0.83992292  0.59969999  1
  O  O13  1  0.03536565  0.51430656  0.33747849  1
  O  O14  1  0.31999652  0.64904317  0.10859526  1
  O  O15  1  0.01020752  0.01518981  0.30669896  1
  O  O16  1  0.01465149  0.00847211  0.80631190  1
  O  O17  1  0.16812448  0.32226310  0.59977235  1
  O  O18  1  0.48677435  0.96477986  0.33735391  1
  O  O19  1  0.47356933  0.50673847  0.33621248  1
  O  O20  1  0.32118576  0.16314877  0.10084852  1
  O  O21  1  0.67993352  0.84301512  0.59979596  1
  O  O22  1  0.51275886  0.47893853  0.83929644  1
  O  O23  1  0.50231527  0.03230665  0.83701850  1
  O  O24  1  0.64889718  0.32597651  0.60723624  1
  O  O25  1  0.83740138  0.68208100  0.09978315  1
  O  O26  1  0.96228451  0.47651670  0.83985010  1
  O  O27  1  0.84341393  0.16526886  0.09945422  1
