# generated using pymatgen
data_LiTiFeO4
_symmetry_space_group_name_H-M   'P 1'
_cell_length_a   6.00792770
_cell_length_b   6.00620527
_cell_length_c   6.00620459
_cell_angle_alpha   59.74980563
_cell_angle_beta   59.99050374
_cell_angle_gamma   59.99050747
_symmetry_Int_Tables_number   1
_chemical_formula_structural   LiTiFeO4
_chemical_formula_sum   'Li2 Ti2 Fe2 O8'
_cell_volume   152.93960724
_cell_formula_units_Z   2
loop_
 _symmetry_equiv_pos_site_id
 _symmetry_equiv_pos_as_xyz
  1  'x, y, z'
loop_
 _atom_site_type_symbol
 _atom_site_label
 _atom_site_symmetry_multiplicity
 _atom_site_fract_x
 _atom_site_fract_y
 _atom_site_fract_z
 _atom_site_occupancy
  Li  Li0  1  0.12862501  0.12137499  0.12137499  1
  Li  Li1  1  0.87137499  0.87862501  0.87862501  1
  Ti  Ti2  1  0.50000000  0.00000000  0.50000000  1
  Ti  Ti3  1  0.50000000  0.50000000  0.00000000  1
  Fe  Fe4  1  0.00000000  0.50000000  0.50000000  1
  Fe  Fe5  1  0.50000000  0.50000000  0.50000000  1
  O  O6  1  0.27267416  0.25629590  0.25629590  1
  O  O7  1  0.26845148  0.25285433  0.71024271  1
  O  O8  1  0.26845148  0.71024271  0.25285433  1
  O  O9  1  0.71473404  0.25629590  0.25629590  1
  O  O10  1  0.28526596  0.74370410  0.74370410  1
  O  O11  1  0.73154852  0.74714567  0.28975729  1
  O  O12  1  0.73154852  0.28975729  0.74714567  1
  O  O13  1  0.72732584  0.74370410  0.74370410  1
