# generated using pymatgen
data_FeH4C3O5
_symmetry_space_group_name_H-M   'P 1'
_cell_length_a   6.28927750
_cell_length_b   9.81336099
_cell_length_c   9.68011859
_cell_angle_alpha   102.84996744
_cell_angle_beta   90.00000000
_cell_angle_gamma   90.00000000
_symmetry_Int_Tables_number   1
_chemical_formula_structural   FeH4C3O5
_chemical_formula_sum   'Fe4 H16 C12 O20'
_cell_volume   582.48416681
_cell_formula_units_Z   4
loop_
 _symmetry_equiv_pos_site_id
 _symmetry_equiv_pos_as_xyz
  1  'x, y, z'
loop_
 _atom_site_type_symbol
 _atom_site_label
 _atom_site_symmetry_multiplicity
 _atom_site_fract_x
 _atom_site_fract_y
 _atom_site_fract_z
 _atom_site_occupancy
  Fe  Fe0  1  0.22290731  0.36383175  0.66204320  1
  Fe  Fe1  1  0.27655902  0.63401926  0.22318810  1
  Fe  Fe2  1  0.72344098  0.63401926  0.72318810  1
  Fe  Fe3  1  0.77709269  0.36383175  0.16204320  1
  H  H4  1  0.68258910  0.06648217  0.52352566  1
  H  H5  1  0.10903663  0.92190919  0.84550502  1
  H  H6  1  0.10626836  0.71572658  0.61806478  1
  H  H7  1  0.88064112  0.94239429  0.16638612  1
  H  H8  1  0.59937863  0.28604338  0.51854919  1
  H  H9  1  0.89373164  0.71572658  0.11806478  1
  H  H10  1  0.59125883  0.05457761  0.96747336  1
  H  H11  1  0.40874117  0.05457761  0.46747336  1
  H  H12  1  0.47364969  0.06615970  0.64953901  1
  H  H13  1  0.52635031  0.06615970  0.14953901  1
  H  H14  1  0.13155778  0.94675259  0.25526338  1
  H  H15  1  0.31741090  0.06648217  0.02352566  1
  H  H16  1  0.86844222  0.94675259  0.75526338  1
  H  H17  1  0.89096337  0.92190919  0.34550502  1
  H  H18  1  0.11935888  0.94239429  0.66638612  1
  H  H19  1  0.40062137  0.28604338  0.01854919  1
  C  C20  1  0.39947076  0.57593797  0.92583176  1
  C  C21  1  0.47247849  0.70802588  0.49845448  1
  C  C22  1  0.60052924  0.57593797  0.42583176  1
  C  C23  1  0.02719311  0.89948026  0.74277530  1
  C  C24  1  0.51933097  0.09994596  0.55326610  1
  C  C25  1  0.48066903  0.09994596  0.05326610  1
  C  C26  1  0.02628926  0.28883617  0.90301953  1
  C  C27  1  0.89935213  0.42150509  0.89054184  1
  C  C28  1  0.97371074  0.28883617  0.40301953  1
  C  C29  1  0.97280689  0.89948026  0.24277530  1
  C  C30  1  0.10064787  0.42150509  0.39054184  1
  C  C31  1  0.52752151  0.70802588  0.99845448  1
  O  O32  1  0.50914659  0.25122399  0.58528585  1
  O  O33  1  0.49085341  0.25122399  0.08528585  1
  O  O34  1  0.97659447  0.23575675  0.00606165  1
  O  O35  1  0.21967435  0.47321461  0.49418091  1
  O  O36  1  0.28093717  0.52376535  0.00605770  1
  O  O37  1  0.99804887  0.74998312  0.19220561  1
  O  O38  1  0.71906283  0.52376535  0.50605770  1
  O  O39  1  0.67301802  0.75219372  0.92865588  1
  O  O40  1  0.47984301  0.76025699  0.12601107  1
  O  O41  1  0.92418111  0.46932500  0.77917330  1
  O  O42  1  0.00195113  0.74998312  0.69220561  1
  O  O43  1  0.02340553  0.23575675  0.50606165  1
  O  O44  1  0.52015699  0.76025699  0.62601107  1
  O  O45  1  0.42342657  0.52881509  0.79272852  1
  O  O46  1  0.57657343  0.52881509  0.29272852  1
  O  O47  1  0.07581889  0.46932500  0.27917330  1
  O  O48  1  0.78032565  0.47321461  0.99418091  1
  O  O49  1  0.82777196  0.24500752  0.31352268  1
  O  O50  1  0.17222804  0.24500752  0.81352268  1
  O  O51  1  0.32698198  0.75219372  0.42865588  1
