# generated using pymatgen
data_Li2SiNiO4
_symmetry_space_group_name_H-M   'P 1'
_cell_length_a   6.29163904
_cell_length_b   5.35259479
_cell_length_c   4.91877973
_cell_angle_alpha   90.00000000
_cell_angle_beta   90.00000000
_cell_angle_gamma   90.00000000
_symmetry_Int_Tables_number   1
_chemical_formula_structural   Li2SiNiO4
_chemical_formula_sum   'Li4 Si2 Ni2 O8'
_cell_volume   165.64774964
_cell_formula_units_Z   2
loop_
 _symmetry_equiv_pos_site_id
 _symmetry_equiv_pos_as_xyz
  1  'x, y, z'
loop_
 _atom_site_type_symbol
 _atom_site_label
 _atom_site_symmetry_multiplicity
 _atom_site_fract_x
 _atom_site_fract_y
 _atom_site_fract_z
 _atom_site_occupancy
  Li  Li0  1  0.24972573  0.32943668  0.99279283  1
  Li  Li1  1  0.25027427  0.67056332  0.49279283  1
  Li  Li2  1  0.75027427  0.32943668  0.99279283  1
  Li  Li3  1  0.74972573  0.67056332  0.49279283  1
  Si  Si4  1  0.00000000  0.16499064  0.50201137  1
  Si  Si5  1  0.50000000  0.83500936  0.00201137  1
  Ni  Ni6  1  0.00000000  0.82472175  0.99014751  1
  Ni  Ni7  1  0.50000000  0.17527825  0.49014751  1
  O  O8  1  0.00000000  0.16608247  0.83677696  1
  O  O9  1  0.00000000  0.87233657  0.39366687  1
  O  O10  1  0.28488701  0.68753039  0.89590531  1
  O  O11  1  0.21511299  0.31246961  0.39590531  1
  O  O12  1  0.50000000  0.12766343  0.89366687  1
  O  O13  1  0.50000000  0.83391753  0.33677696  1
  O  O14  1  0.78488701  0.31246961  0.39590531  1
  O  O15  1  0.71511299  0.68753039  0.89590531  1
