# generated using pymatgen
data_Li2U(WO5)2
_symmetry_space_group_name_H-M   'P 1'
_cell_length_a   7.81124348
_cell_length_b   12.94894775
_cell_length_c   7.63243865
_cell_angle_alpha   90.00005291
_cell_angle_beta   89.99920089
_cell_angle_gamma   90.00001570
_symmetry_Int_Tables_number   1
_chemical_formula_structural   Li2U(WO5)2
_chemical_formula_sum   'Li8 U4 W8 O40'
_cell_volume   772.00120055
_cell_formula_units_Z   4
loop_
 _symmetry_equiv_pos_site_id
 _symmetry_equiv_pos_as_xyz
  1  'x, y, z'
loop_
 _atom_site_type_symbol
 _atom_site_label
 _atom_site_symmetry_multiplicity
 _atom_site_fract_x
 _atom_site_fract_y
 _atom_site_fract_z
 _atom_site_occupancy
  Li  Li0  1  0.00000004  0.48836143  0.24999994  1
  Li  Li1  1  0.00000156  0.50850967  0.74999994  1
  Li  Li2  1  0.19062713  0.50609756  0.99933147  1
  Li  Li3  1  0.30937281  0.99390365  0.49931742  1
  Li  Li4  1  0.49999975  0.99149191  0.24999989  1
  Li  Li5  1  0.50000073  0.01164047  0.74999977  1
  Li  Li6  1  0.69062716  0.99390365  0.00068207  1
  Li  Li7  1  0.80937372  0.50609796  0.50066783  1
  U  U8  1  -0.00000035  0.01997682  0.24999984  1
  U  U9  1  -0.00000762  0.98026231  0.75000083  1
  U  U10  1  0.49999472  0.51973924  0.24999971  1
  U  U11  1  0.49998510  0.48002647  0.75000078  1
  W  W12  1  0.01756062  0.74199672  0.50069642  1
  W  W13  1  0.02292834  0.25752638  0.00031245  1
  W  W14  1  0.47707139  0.24247495  0.50031051  1
  W  W15  1  0.48243916  0.75800292  0.00069758  1
  W  W16  1  0.52292760  0.24247522  0.99968941  1
  W  W17  1  0.51756029  0.75800334  0.49930275  1
  W  W18  1  0.97707289  0.25752604  0.49968732  1
  W  W19  1  0.98243984  0.74199641  0.99930346  1
  O  O20  1  0.00000008  0.21245759  0.25000023  1
  O  O21  1  -0.00000002  0.27101464  0.74999980  1
  O  O22  1  0.00000004  0.72860875  0.24999996  1
  O  O23  1  0.00000012  0.78848322  0.74999974  1
  O  O24  1  0.99835861  0.09814761  0.96966393  1
  O  O25  1  0.01001215  0.90134285  0.46905966  1
  O  O26  1  0.02559968  0.39420319  0.04887427  1
  O  O27  1  0.98615332  0.60662247  0.55024893  1
  O  O28  1  0.23920524  0.02205977  0.25951926  1
  O  O29  1  0.23924378  0.97713685  0.74102207  1
  O  O30  1  0.23977179  0.25694878  0.49642766  1
  O  O31  1  0.24598780  0.75689397  0.00306965  1
  O  O32  1  0.26022787  0.24305091  0.99642809  1
  O  O33  1  0.25401238  0.74310643  0.50306934  1
  O  O34  1  0.26072650  0.52286173  0.24101553  1
  O  O35  1  0.26084161  0.47793905  0.75951013  1
  O  O36  1  0.47439932  0.10579659  0.54887669  1
  O  O37  1  0.51384647  0.89337655  0.05024672  1
  O  O38  1  0.50164184  0.40184986  0.46967971  1
  O  O39  1  0.48998900  0.59865388  0.96904527  1
  O  O40  1  0.50000016  0.22898604  0.25000030  1
  O  O41  1  0.50000030  0.71151806  0.25000005  1
  O  O42  1  0.50000025  0.77139242  0.74999991  1
  O  O43  1  0.50000070  0.28754282  0.75000009  1
  O  O44  1  0.49835968  0.40185009  0.03032105  1
  O  O45  1  0.51001135  0.59865404  0.53095446  1
  O  O46  1  0.52560013  0.10579700  0.95112328  1
  O  O47  1  0.48615366  0.89337676  0.44975351  1
  O  O48  1  0.73917287  0.47793918  0.74048961  1
  O  O49  1  0.73927504  0.52286207  0.25898535  1
  O  O50  1  0.73977253  0.24305095  0.50357164  1
  O  O51  1  0.74598801  0.74310589  0.99693052  1
  O  O52  1  0.76022837  0.25694903  0.00357215  1
  O  O53  1  0.75401262  0.75689348  0.49693076  1
  O  O54  1  0.76079336  0.02206018  0.24048070  1
  O  O55  1  0.76076368  0.97713720  0.75897751  1
  O  O56  1  0.97439920  0.39420362  0.45112606  1
  O  O57  1  0.01384673  0.60662309  0.94975088  1
  O  O58  1  0.00164151  0.09814742  0.53033539  1
  O  O59  1  0.98998737  0.90134286  0.03094072  1
