# generated using pymatgen
data_Na2FePCO7
_symmetry_space_group_name_H-M   'P 1'
_cell_length_a   10.34180909
_cell_length_b   8.38652437
_cell_length_c   8.41347621
_cell_angle_alpha   77.44209052
_cell_angle_beta   71.00623219
_cell_angle_gamma   107.74020642
_symmetry_Int_Tables_number   1
_chemical_formula_structural   Na2FePCO7
_chemical_formula_sum   'Na8 Fe4 P4 C4 O28'
_cell_volume   615.22951046
_cell_formula_units_Z   4
loop_
 _symmetry_equiv_pos_site_id
 _symmetry_equiv_pos_as_xyz
  1  'x, y, z'
loop_
 _atom_site_type_symbol
 _atom_site_label
 _atom_site_symmetry_multiplicity
 _atom_site_fract_x
 _atom_site_fract_y
 _atom_site_fract_z
 _atom_site_occupancy
  Na  Na0  1  0.91871157  0.72213539  0.53959669  1
  Na  Na1  1  0.91011691  0.18344015  0.07612377  1
  Na  Na2  1  0.74303141  0.49416011  0.00672130  1
  Na  Na3  1  0.74264729  0.24299999  0.75427801  1
  Na  Na4  1  0.26289054  0.75135749  0.23860423  1
  Na  Na5  1  0.26323438  0.25277412  0.73821901  1
  Na  Na6  1  0.08010924  0.27963315  0.43770106  1
  Na  Na7  1  0.08282733  0.79526547  0.94914477  1
  Fe  Fe8  1  0.65420787  0.31006798  0.43879073  1
  Fe  Fe9  1  0.65409899  0.81123622  0.93901817  1
  Fe  Fe10  1  0.34234017  0.19557122  0.06911540  1
  Fe  Fe11  1  0.34837611  0.69685043  0.56541981  1
  P  P12  1  0.57473996  0.55424789  0.69503314  1
  P  P13  1  0.57623208  0.06087571  0.18835052  1
  P  P14  1  0.42416520  0.44579916  0.31031916  1
  P  P15  1  0.42385618  0.94364444  0.80831116  1
  C  C16  1  0.93650128  0.48106957  0.27536563  1
  C  C17  1  0.93634997  0.97752490  0.77258067  1
  C  C18  1  0.06466443  0.01942394  0.22309214  1
  C  C19  1  0.06351002  0.51855912  0.72437724  1
  O  O20  1  0.92433056  0.93983063  0.30589660  1
  O  O21  1  0.92088719  0.43314720  0.81216059  1
  O  O22  1  0.87245767  0.33982647  0.42351120  1
  O  O23  1  0.87286724  0.82242401  0.90483946  1
  O  O24  1  0.84316048  0.52000655  0.21593740  1
  O  O25  1  0.84251564  0.02893895  0.72432512  1
  O  O26  1  0.68014291  0.99482845  0.06566750  1
  O  O27  1  0.67089969  0.66249695  0.77558933  1
  O  O28  1  0.67781558  0.47885217  0.58334580  1
  O  O29  1  0.67276570  0.18029799  0.25994019  1
  O  O30  1  0.56835496  0.59347860  0.15272086  1
  O  O31  1  0.56839078  0.09700069  0.65644476  1
  O  O32  1  0.53387617  0.18507291  0.06410130  1
  O  O33  1  0.52653744  0.67139523  0.57748765  1
  O  O34  1  0.46942866  0.82826386  0.93434356  1
  O  O35  1  0.46944139  0.33037505  0.43633324  1
  O  O36  1  0.43328457  0.90536292  0.33761711  1
  O  O37  1  0.43048882  0.39781162  0.84479732  1
  O  O38  1  0.32700057  0.82773562  0.73511283  1
  O  O39  1  0.32369735  0.52356877  0.42026428  1
  O  O40  1  0.32492600  0.32588331  0.24168006  1
  O  O41  1  0.32090439  0.01657209  0.92240858  1
  O  O42  1  0.15817689  0.96931533  0.27482368  1
  O  O43  1  0.15630895  0.46924031  0.77455653  1
  O  O44  1  0.13159909  0.16582544  0.07797643  1
  O  O45  1  0.12464262  0.66274003  0.58156418  1
  O  O46  1  0.07644798  0.57106733  0.19608946  1
  O  O47  1  0.07604076  0.06954308  0.69784136  1
