# generated using pymatgen
data_NaLiMn2Fe4(PO4)6
_symmetry_space_group_name_H-M   'P 1'
_cell_length_a   8.68452334
_cell_length_b   8.75474861
_cell_length_c   6.47192671
_cell_angle_alpha   73.30068993
_cell_angle_beta   106.28241648
_cell_angle_gamma   87.27906939
_symmetry_Int_Tables_number   1
_chemical_formula_structural   NaLiMn2Fe4(PO4)6
_chemical_formula_sum   'Na1 Li1 Mn2 Fe4 P6 O24'
_cell_volume   448.00145823
_cell_formula_units_Z   1
loop_
 _symmetry_equiv_pos_site_id
 _symmetry_equiv_pos_as_xyz
  1  'x, y, z'
loop_
 _atom_site_type_symbol
 _atom_site_label
 _atom_site_symmetry_multiplicity
 _atom_site_fract_x
 _atom_site_fract_y
 _atom_site_fract_z
 _atom_site_occupancy
  Na  Na0  1  0.50168164  0.50089866  0.99855315  1
  Li  Li1  1  0.98916889  0.99014689  0.24649835  1
  Mn  Mn2  1  0.73012446  0.72989890  0.74722039  1
  Mn  Mn3  1  0.27688504  0.27727086  0.25410289  1
  Fe  Fe4  1  0.06549581  0.62172904  0.63515384  1
  Fe  Fe5  1  0.37001448  0.93298791  0.12811599  1
  Fe  Fe6  1  0.62392029  0.06760402  0.86406114  1
  Fe  Fe7  1  0.93439742  0.37176745  0.37269387  1
  P  P8  1  0.34341650  0.86930550  0.62501717  1
  P  P9  1  0.13391131  0.65147658  0.12991187  1
  P  P10  1  0.28712079  0.28536465  0.75139649  1
  P  P11  1  0.71341514  0.71524683  0.24900087  1
  P  P12  1  0.86739205  0.34552052  0.87934488  1
  P  P13  1  0.65285402  0.13116831  0.36634442  1
  O  O14  1  0.00495983  0.66578160  0.89674424  1
  O  O15  1  0.39016562  0.95496665  0.81307009  1
  O  O16  1  0.17007230  0.81988655  0.59485933  1
  O  O17  1  0.33085786  0.99793268  0.39295110  1
  O  O18  1  0.04960686  0.59472043  0.32068885  1
  O  O19  1  0.17747547  0.82240259  0.12474106  1
  O  O20  1  0.47457850  0.72724125  0.68999136  1
  O  O21  1  0.25821306  0.45870677  0.76317198  1
  O  O22  1  0.26300062  0.16905292  0.96956312  1
  O  O23  1  0.16994749  0.26425724  0.53290270  1
  O  O24  1  0.27888122  0.52947772  0.17253968  1
  O  O25  1  0.53818680  0.74308568  0.25390336  1
  O  O26  1  0.46217437  0.25862323  0.74282311  1
  O  O27  1  0.72542897  0.47238542  0.83185604  1
  O  O28  1  0.83270803  0.74035701  0.46493741  1
  O  O29  1  0.74256013  0.83372434  0.03399163  1
  O  O30  1  0.74324236  0.54184310  0.23981933  1
  O  O31  1  0.52688247  0.27662556  0.30632965  1
  O  O32  1  0.82182411  0.17195329  0.90602139  1
  O  O33  1  0.94845983  0.39777986  0.68417289  1
  O  O34  1  0.66394799  0.00761777  0.60130374  1
  O  O35  1  0.82409861  0.17862967  0.37439665  1
  O  O36  1  0.60117362  0.04282592  0.18224027  1
  O  O37  1  0.00107605  0.32905960  0.10956671  1
