# generated using pymatgen
data_Li2MnVP2(O4F)2
_symmetry_space_group_name_H-M   'P 1'
_cell_length_a   7.96393488
_cell_length_b   6.95135526
_cell_length_c   7.54609007
_cell_angle_alpha   61.62959304
_cell_angle_beta   88.97546745
_cell_angle_gamma   91.64842252
_symmetry_Int_Tables_number   1
_chemical_formula_structural   Li2MnVP2(O4F)2
_chemical_formula_sum   'Li4 Mn2 V2 P4 O16 F4'
_cell_volume   367.18947996
_cell_formula_units_Z   2
loop_
 _symmetry_equiv_pos_site_id
 _symmetry_equiv_pos_as_xyz
  1  'x, y, z'
loop_
 _atom_site_type_symbol
 _atom_site_label
 _atom_site_symmetry_multiplicity
 _atom_site_fract_x
 _atom_site_fract_y
 _atom_site_fract_z
 _atom_site_occupancy
  Li  Li0  1  0.17134824  0.55744037  0.18637762  1
  Li  Li1  1  0.67517061  0.05712680  0.18984059  1
  Li  Li2  1  0.32482939  0.94287320  0.81015941  1
  Li  Li3  1  0.82865176  0.44255963  0.81362238  1
  Mn  Mn4  1  0.00000000  0.00000000  0.00000000  1
  Mn  Mn5  1  0.50000000  0.50000000  0.50000000  1
  V  V6  1  0.00000000  0.00000000  0.50000000  1
  V  V7  1  0.50000000  0.50000000  0.00000000  1
  P  P8  1  0.16156278  0.51640157  0.76112390  1
  P  P9  1  0.66131054  0.02164606  0.76466084  1
  P  P10  1  0.33868946  0.97835394  0.23533916  1
  P  P11  1  0.83843722  0.48359843  0.23887610  1
  O  O12  1  0.23134929  0.01681287  0.38481569  1
  O  O13  1  0.44051202  0.18925436  0.08770337  1
  O  O14  1  0.06235556  0.30199111  0.91612046  1
  O  O15  1  0.01707103  0.67076216  0.65639249  1
  O  O16  1  0.27064924  0.47776336  0.61145670  1
  O  O17  1  0.51792924  0.18159820  0.66006289  1
  O  O18  1  0.22953070  0.89478873  0.11189413  1
  O  O19  1  0.73250739  0.39474022  0.11970105  1
  O  O20  1  0.26749261  0.60525978  0.88029895  1
  O  O21  1  0.77046930  0.10521127  0.88810587  1
  O  O22  1  0.48207076  0.81840180  0.33993711  1
  O  O23  1  0.72935076  0.52223664  0.38854330  1
  O  O24  1  0.98292897  0.32923784  0.34360751  1
  O  O25  1  0.93764444  0.69800889  0.08387954  1
  O  O26  1  0.55948798  0.81074564  0.91229663  1
  O  O27  1  0.76865071  0.98318713  0.61518431  1
  F  F28  1  0.10603476  0.02955313  0.72775082  1
  F  F29  1  0.39608777  0.47038076  0.25056208  1
  F  F30  1  0.60391223  0.52961924  0.74943792  1
  F  F31  1  0.89396524  0.97044687  0.27224918  1
