# generated using pymatgen
data_Li2V5O12
_symmetry_space_group_name_H-M   'P 1'
_cell_length_a   12.66710392
_cell_length_b   9.20584352
_cell_length_c   9.12142309
_cell_angle_alpha   90.00000000
_cell_angle_beta   90.00000000
_cell_angle_gamma   90.00000000
_symmetry_Int_Tables_number   1
_chemical_formula_structural   Li2V5O12
_chemical_formula_sum   'Li8 V20 O48'
_cell_volume   1063.66170252
_cell_formula_units_Z   4
loop_
 _symmetry_equiv_pos_site_id
 _symmetry_equiv_pos_as_xyz
  1  'x, y, z'
loop_
 _atom_site_type_symbol
 _atom_site_label
 _atom_site_symmetry_multiplicity
 _atom_site_fract_x
 _atom_site_fract_y
 _atom_site_fract_z
 _atom_site_occupancy
  Li  Li0  1  0.18846204  0.22177493  0.27192374  1
  Li  Li1  1  0.18846204  0.77822507  0.77192374  1
  Li  Li2  1  0.31153796  0.27822507  0.77192374  1
  Li  Li3  1  0.31153796  0.72177493  0.27192374  1
  Li  Li4  1  0.68846204  0.27822507  0.72807626  1
  Li  Li5  1  0.68846204  0.72177493  0.22807626  1
  Li  Li6  1  0.81153796  0.22177493  0.22807626  1
  Li  Li7  1  0.81153796  0.77822507  0.72807626  1
  V  V8  1  0.00000000  0.46675819  0.25000000  1
  V  V9  1  0.00000000  0.53324181  0.75000000  1
  V  V10  1  0.12053354  0.25329312  0.96823150  1
  V  V11  1  0.12053354  0.74670688  0.46823150  1
  V  V12  1  0.37946646  0.75329312  0.96823150  1
  V  V13  1  0.37946646  0.24670688  0.46823150  1
  V  V14  1  0.50000000  0.03324181  0.75000000  1
  V  V15  1  0.50000000  0.96675819  0.25000000  1
  V  V16  1  0.62053354  0.24670688  0.03176850  1
  V  V17  1  0.62053354  0.75329312  0.53176850  1
  V  V18  1  0.87946646  0.25329312  0.53176850  1
  V  V19  1  0.87946646  0.74670688  0.03176850  1
  V  V20  1  0.14184650  0.10162224  0.60484813  1
  V  V21  1  0.14184650  0.89837776  0.10484813  1
  V  V22  1  0.35815350  0.39837776  0.10484813  1
  V  V23  1  0.35815350  0.60162224  0.60484813  1
  V  V24  1  0.64184650  0.39837776  0.39515187  1
  V  V25  1  0.64184650  0.60162224  0.89515187  1
  V  V26  1  0.85815350  0.10162224  0.89515187  1
  V  V27  1  0.85815350  0.89837776  0.39515187  1
  O  O28  1  0.01701327  0.15500049  0.55617013  1
  O  O29  1  0.01701327  0.84499951  0.05617013  1
  O  O30  1  0.07204718  0.57572660  0.36910368  1
  O  O31  1  0.07204718  0.42427340  0.86910368  1
  O  O32  1  0.08840095  0.35335007  0.15760953  1
  O  O33  1  0.08840095  0.64664993  0.65760953  1
  O  O34  1  0.15871711  0.08851026  0.10013959  1
  O  O35  1  0.15871711  0.91148974  0.60013959  1
  O  O36  1  0.17277321  0.16431187  0.77926523  1
  O  O37  1  0.17277321  0.83568813  0.27926523  1
  O  O38  1  0.22965348  0.82135442  0.97686676  1
  O  O39  1  0.22965348  0.17864558  0.47686676  1
  O  O40  1  0.27034652  0.32135442  0.97686676  1
  O  O41  1  0.27034652  0.67864558  0.47686676  1
  O  O42  1  0.32722679  0.66431187  0.77926523  1
  O  O43  1  0.32722679  0.33568813  0.27926523  1
  O  O44  1  0.34128289  0.41148974  0.60013959  1
  O  O45  1  0.34128289  0.58851026  0.10013959  1
  O  O46  1  0.41159905  0.14664993  0.65760953  1
  O  O47  1  0.41159905  0.85335007  0.15760953  1
  O  O48  1  0.42795282  0.07572660  0.36910368  1
  O  O49  1  0.42795282  0.92427340  0.86910368  1
  O  O50  1  0.48298673  0.65500049  0.55617013  1
  O  O51  1  0.48298673  0.34499951  0.05617013  1
  O  O52  1  0.51701327  0.34499951  0.44382987  1
  O  O53  1  0.51701327  0.65500049  0.94382987  1
  O  O54  1  0.57204718  0.07572660  0.13089632  1
  O  O55  1  0.57204718  0.92427340  0.63089632  1
  O  O56  1  0.58840095  0.14664993  0.84239047  1
  O  O57  1  0.58840095  0.85335007  0.34239047  1
  O  O58  1  0.65871711  0.41148974  0.89986041  1
  O  O59  1  0.65871711  0.58851026  0.39986041  1
  O  O60  1  0.67277321  0.33568813  0.22073477  1
  O  O61  1  0.67277321  0.66431187  0.72073477  1
  O  O62  1  0.72965348  0.32135442  0.52313324  1
  O  O63  1  0.72965348  0.67864558  0.02313324  1
  O  O64  1  0.77034652  0.17864558  0.02313324  1
  O  O65  1  0.77034652  0.82135442  0.52313324  1
  O  O66  1  0.82722679  0.16431187  0.72073477  1
  O  O67  1  0.82722679  0.83568813  0.22073477  1
  O  O68  1  0.84128289  0.08851026  0.39986041  1
  O  O69  1  0.84128289  0.91148974  0.89986041  1
  O  O70  1  0.91159905  0.35335007  0.34239047  1
  O  O71  1  0.91159905  0.64664993  0.84239047  1
  O  O72  1  0.92795282  0.42427340  0.63089632  1
  O  O73  1  0.92795282  0.57572660  0.13089632  1
  O  O74  1  0.98298673  0.15500049  0.94382987  1
  O  O75  1  0.98298673  0.84499951  0.44382987  1
