# generated using pymatgen
data_Li8TiMn7(PO4)12
_symmetry_space_group_name_H-M   'P 1'
_cell_length_a   8.56324587
_cell_length_b   8.83247233
_cell_length_c   11.98747191
_cell_angle_alpha   89.93538284
_cell_angle_beta   90.11198644
_cell_angle_gamma   91.38874664
_symmetry_Int_Tables_number   1
_chemical_formula_structural   Li8TiMn7(PO4)12
_chemical_formula_sum   'Li8 Ti1 Mn7 P12 O48'
_cell_volume   906.39945198
_cell_formula_units_Z   1
loop_
 _symmetry_equiv_pos_site_id
 _symmetry_equiv_pos_as_xyz
  1  'x, y, z'
loop_
 _atom_site_type_symbol
 _atom_site_label
 _atom_site_symmetry_multiplicity
 _atom_site_fract_x
 _atom_site_fract_y
 _atom_site_fract_z
 _atom_site_occupancy
  Li  Li0  1  0.21469898  0.72341662  0.18044612  1
  Li  Li1  1  0.21628105  0.77927018  0.81840460  1
  Li  Li2  1  0.28258044  0.21997934  0.31924157  1
  Li  Li3  1  0.28421180  0.27514062  0.68270571  1
  Li  Li4  1  0.71578586  0.72417456  0.31819270  1
  Li  Li5  1  0.71681824  0.77880441  0.68214540  1
  Li  Li6  1  0.78287520  0.22093493  0.18080607  1
  Li  Li7  1  0.78409366  0.27640664  0.82034664  1
  Ti  Ti8  1  0.75361382  0.46214538  0.61266985  1
  Mn  Mn9  1  0.25004391  0.96425277  0.61378549  1
  Mn  Mn10  1  0.24806275  0.53805190  0.38644155  1
  Mn  Mn11  1  0.25153581  0.03599128  0.11469324  1
  Mn  Mn12  1  0.25188656  0.46296688  0.88773745  1
  Mn  Mn13  1  0.74816573  0.53800326  0.11358696  1
  Mn  Mn14  1  0.74939206  0.96498501  0.88662382  1
  Mn  Mn15  1  0.75112191  0.03534257  0.38542821  1
  P  P16  1  0.03681917  0.25137347  0.49948315  1
  P  P17  1  0.46478694  0.74793520  0.00027691  1
  P  P18  1  0.53424780  0.25372758  0.99931028  1
  P  P19  1  0.96709121  0.74914244  0.50014266  1
  P  P20  1  0.10623523  0.39384742  0.14851212  1
  P  P21  1  0.10535862  0.10564990  0.85651069  1
  P  P22  1  0.39281482  0.60571318  0.64826813  1
  P  P23  1  0.39596473  0.89481368  0.35230680  1
  P  P24  1  0.60522345  0.10291698  0.64540011  1
  P  P25  1  0.60412246  0.39400054  0.34983780  1
  P  P26  1  0.89483188  0.60439158  0.85419403  1
  P  P27  1  0.89516697  0.89531808  0.14685942  1
  O  O28  1  0.06000178  0.64288800  0.42428121  1
  O  O29  1  0.06101108  0.85630262  0.57595731  1
  O  O30  1  0.07579632  0.89634050  0.15858379  1
  O  O31  1  0.07610502  0.60111856  0.84420667  1
  O  O32  1  0.14077016  0.17093837  0.58255490  1
  O  O33  1  0.14320369  0.34227810  0.41565458  1
  O  O34  1  0.15559169  0.43885549  0.02929613  1
  O  O35  1  0.15307915  0.06634607  0.97504609  1
  O  O36  1  0.15770977  0.23614230  0.18215910  1
  O  O37  1  0.16010930  0.26936959  0.82289852  1
  O  O38  1  0.18012234  0.51777689  0.22689016  1
  O  O39  1  0.17525055  0.98738109  0.77740070  1
  O  O40  1  0.32587414  0.01364228  0.27154253  1
  O  O41  1  0.32024087  0.48131273  0.72689931  1
  O  O42  1  0.34212030  0.76284002  0.68251222  1
  O  O43  1  0.34125638  0.73110385  0.31959386  1
  O  O44  1  0.34366232  0.56179257  0.52853487  1
  O  O45  1  0.34522624  0.93886130  0.46850382  1
  O  O46  1  0.35747080  0.83174432  0.08034302  1
  O  O47  1  0.35622479  0.65820096  0.91618250  1
  O  O48  1  0.42418832  0.10212317  0.65657400  1
  O  O49  1  0.42347403  0.39655505  0.34253163  1
  O  O50  1  0.44131199  0.14491648  0.07449757  1
  O  O51  1  0.43987952  0.36028406  0.92404403  1
  O  O52  1  0.55806962  0.64196847  0.07630878  1
  O  O53  1  0.55900222  0.85634974  0.92532744  1
  O  O54  1  0.57416384  0.59783269  0.65526984  1
  O  O55  1  0.57688641  0.89613809  0.34055336  1
  O  O56  1  0.64212434  0.34274891  0.08423424  1
  O  O57  1  0.64005341  0.17097460  0.91805953  1
  O  O58  1  0.65380338  0.06102417  0.52774012  1
  O  O59  1  0.65786466  0.43660914  0.47007572  1
  O  O60  1  0.65677754  0.23657481  0.31760497  1
  O  O61  1  0.66052591  0.26728699  0.67574930  1
  O  O62  1  0.67806590  0.51843533  0.27276888  1
  O  O63  1  0.67676237  0.98585973  0.72588471  1
  O  O64  1  0.82488727  0.01427345  0.22678383  1
  O  O65  1  0.82379439  0.48179954  0.77364616  1
  O  O66  1  0.83994240  0.73201185  0.17981877  1
  O  O67  1  0.84333791  0.76147850  0.81886938  1
  O  O68  1  0.84506153  0.56156430  0.97342628  1
  O  O69  1  0.84500172  0.93825788  0.02963746  1
  O  O70  1  0.85734996  0.65550454  0.58144206  1
  O  O71  1  0.85800632  0.83099867  0.42027726  1
  O  O72  1  0.92397481  0.10528912  0.84511633  1
  O  O73  1  0.92517868  0.39673119  0.15800868  1
  O  O74  1  0.94239003  0.14227652  0.42533603  1
  O  O75  1  0.93346483  0.36020000  0.56701188  1
