# generated using pymatgen
data_Lu2P4O13
_symmetry_space_group_name_H-M   'P 1'
_cell_length_a   8.74396286
_cell_length_b   9.49702354
_cell_length_c   13.83405622
_cell_angle_alpha   90.00000000
_cell_angle_beta   106.11747357
_cell_angle_gamma   90.00000000
_symmetry_Int_Tables_number   1
_chemical_formula_structural   Lu2P4O13
_chemical_formula_sum   'Lu8 P16 O52'
_cell_volume   1103.64824149
_cell_formula_units_Z   4
loop_
 _symmetry_equiv_pos_site_id
 _symmetry_equiv_pos_as_xyz
  1  'x, y, z'
loop_
 _atom_site_type_symbol
 _atom_site_label
 _atom_site_symmetry_multiplicity
 _atom_site_fract_x
 _atom_site_fract_y
 _atom_site_fract_z
 _atom_site_occupancy
  Lu  Lu0  1  0.02792931  0.00339967  0.72090354  1
  Lu  Lu1  1  0.02792931  0.49660033  0.22090354  1
  Lu  Lu2  1  0.44641834  0.99872627  0.73759916  1
  Lu  Lu3  1  0.55358166  0.49872627  0.76240084  1
  Lu  Lu4  1  0.44641834  0.50127373  0.23759916  1
  Lu  Lu5  1  0.55358166  0.00127373  0.26240084  1
  Lu  Lu6  1  0.97207069  0.50339967  0.77909646  1
  Lu  Lu7  1  0.97207069  0.99660033  0.27909646  1
  P  P8  1  0.14431539  0.23969845  0.93624901  1
  P  P9  1  0.28745090  0.73019596  0.84569885  1
  P  P10  1  0.21716497  0.29535207  0.65758293  1
  P  P11  1  0.14431539  0.26030155  0.43624901  1
  P  P12  1  0.49590946  0.24982193  0.93910942  1
  P  P13  1  0.28745090  0.76980404  0.34569885  1
  P  P14  1  0.21716497  0.20464793  0.15758293  1
  P  P15  1  0.50409054  0.74982193  0.56089058  1
  P  P16  1  0.49590946  0.25017807  0.43910942  1
  P  P17  1  0.78283503  0.79535207  0.84241707  1
  P  P18  1  0.71254910  0.23019596  0.65430115  1
  P  P19  1  0.50409054  0.75017807  0.06089058  1
  P  P20  1  0.85568461  0.73969845  0.56375099  1
  P  P21  1  0.78283503  0.70464793  0.34241707  1
  P  P22  1  0.71254910  0.26980404  0.15430115  1
  P  P23  1  0.85568461  0.76030155  0.06375099  1
  O  O24  1  0.03884148  0.36781591  0.91155937  1
  O  O25  1  0.11022958  0.12077243  0.86168794  1
  O  O26  1  0.13704134  0.66275994  0.85871898  1
  O  O27  1  0.11906954  0.37188053  0.71582463  1
  O  O28  1  0.03884148  0.13218409  0.41155937  1
  O  O29  1  0.12846343  0.32464172  0.54000045  1
  O  O30  1  0.32788585  0.29496012  0.96056831  1
  O  O31  1  0.25163243  0.86551614  0.77903149  1
  O  O32  1  0.21995906  0.13203974  0.67328505  1
  O  O33  1  0.11022958  0.37922757  0.36168794  1
  O  O34  1  0.39213887  0.79362887  0.95304678  1
  O  O35  1  0.13704134  0.83724006  0.35871898  1
  O  O36  1  0.11906954  0.12811947  0.21582463  1
  O  O37  1  0.39032735  0.62687662  0.80860279  1
  O  O38  1  0.46960208  0.11914379  0.87543124  1
  O  O39  1  0.38473995  0.35258091  0.67623689  1
  O  O40  1  0.12846343  0.17535828  0.04000045  1
  O  O41  1  0.32788585  0.20503988  0.46056831  1
  O  O42  1  0.25163243  0.63448386  0.27903149  1
  O  O43  1  0.21995906  0.36796026  0.17328505  1
  O  O44  1  0.43589977  0.87631619  0.60001406  1
  O  O45  1  0.39213887  0.70637113  0.45304678  1
  O  O46  1  0.56410023  0.37631619  0.89998594  1
  O  O47  1  0.61526005  0.85258091  0.82376311  1
  O  O48  1  0.53039792  0.61914379  0.62456876  1
  O  O49  1  0.39032735  0.87312338  0.30860279  1
  O  O50  1  0.60967265  0.12687662  0.69139721  1
  O  O51  1  0.46960208  0.38085621  0.37543124  1
  O  O52  1  0.38473995  0.14741909  0.17623689  1
  O  O53  1  0.43589977  0.62368381  0.10001406  1
  O  O54  1  0.60786113  0.29362887  0.54695322  1
  O  O55  1  0.56410023  0.12368381  0.39998594  1
  O  O56  1  0.78004094  0.63203974  0.82671495  1
  O  O57  1  0.74836757  0.36551614  0.72096851  1
  O  O58  1  0.67211415  0.79496012  0.53943169  1
  O  O59  1  0.87153657  0.82464172  0.95999955  1
  O  O60  1  0.61526005  0.64741909  0.32376311  1
  O  O61  1  0.53039792  0.88085621  0.12456876  1
  O  O62  1  0.60967265  0.37312338  0.19139721  1
  O  O63  1  0.88093046  0.87188053  0.78417537  1
  O  O64  1  0.86295866  0.16275994  0.64128102  1
  O  O65  1  0.60786113  0.20637113  0.04695322  1
  O  O66  1  0.88977042  0.62077243  0.63831206  1
  O  O67  1  0.78004094  0.86796026  0.32671495  1
  O  O68  1  0.74836757  0.13448386  0.22096851  1
  O  O69  1  0.67211415  0.70503988  0.03943169  1
  O  O70  1  0.87153657  0.67535828  0.45999955  1
  O  O71  1  0.96115852  0.86781591  0.58844063  1
  O  O72  1  0.88093046  0.62811947  0.28417537  1
  O  O73  1  0.86295866  0.33724006  0.14128102  1
  O  O74  1  0.88977042  0.87922757  0.13831206  1
  O  O75  1  0.96115852  0.63218409  0.08844063  1
