# generated using pymatgen
data_V2O5
_symmetry_space_group_name_H-M   'P 1'
_cell_length_a   7.96492189
_cell_length_b   6.61126625
_cell_length_c   7.60255874
_cell_angle_alpha   90.00000000
_cell_angle_beta   90.00000000
_cell_angle_gamma   90.00000000
_symmetry_Int_Tables_number   1
_chemical_formula_structural   V2O5
_chemical_formula_sum   'V8 O20'
_cell_volume   400.33720518
_cell_formula_units_Z   4
loop_
 _symmetry_equiv_pos_site_id
 _symmetry_equiv_pos_as_xyz
  1  'x, y, z'
loop_
 _atom_site_type_symbol
 _atom_site_label
 _atom_site_symmetry_multiplicity
 _atom_site_fract_x
 _atom_site_fract_y
 _atom_site_fract_z
 _atom_site_occupancy
  V  V0  1  0.16909278  0.25000000  0.73941183  1
  V  V1  1  0.33090722  0.75000000  0.23941183  1
  V  V2  1  0.66909278  0.25000000  0.76058817  1
  V  V3  1  0.83090722  0.75000000  0.26058817  1
  V  V4  1  0.11948587  0.75000000  0.62365440  1
  V  V5  1  0.38051413  0.25000000  0.12365440  1
  V  V6  1  0.61948587  0.75000000  0.87634560  1
  V  V7  1  0.88051413  0.25000000  0.37634560  1
  O  O8  1  0.05447655  0.25000000  0.51150745  1
  O  O9  1  0.13698707  0.75000000  0.17260582  1
  O  O10  1  0.12286265  0.53102802  0.75195892  1
  O  O11  1  0.12286265  0.96897198  0.75195892  1
  O  O12  1  0.20619183  0.25000000  0.98463654  1
  O  O13  1  0.29380817  0.75000000  0.48463654  1
  O  O14  1  0.37713735  0.03102802  0.25195892  1
  O  O15  1  0.37713735  0.46897198  0.25195892  1
  O  O16  1  0.36301293  0.25000000  0.67260582  1
  O  O17  1  0.44552345  0.75000000  0.01150745  1
  O  O18  1  0.55447655  0.25000000  0.98849255  1
  O  O19  1  0.63698707  0.75000000  0.32739418  1
  O  O20  1  0.62286265  0.53102802  0.74804108  1
  O  O21  1  0.62286265  0.96897198  0.74804108  1
  O  O22  1  0.70619183  0.25000000  0.51536346  1
  O  O23  1  0.79380817  0.75000000  0.01536346  1
  O  O24  1  0.87713735  0.03102802  0.24804108  1
  O  O25  1  0.87713735  0.46897198  0.24804108  1
  O  O26  1  0.86301293  0.25000000  0.82739418  1
  O  O27  1  0.94552345  0.75000000  0.48849255  1
