# generated using pymatgen
data_KLiTi2(PO5)2
_symmetry_space_group_name_H-M   'P 1'
_cell_length_a   12.81447589
_cell_length_b   6.50799488
_cell_length_c   10.69698238
_cell_angle_alpha   90.00000000
_cell_angle_beta   90.00000000
_cell_angle_gamma   90.00000000
_symmetry_Int_Tables_number   1
_chemical_formula_structural   KLiTi2(PO5)2
_chemical_formula_sum   'K4 Li4 Ti8 P8 O40'
_cell_volume   892.09135618
_cell_formula_units_Z   4
loop_
 _symmetry_equiv_pos_site_id
 _symmetry_equiv_pos_as_xyz
  1  'x, y, z'
loop_
 _atom_site_type_symbol
 _atom_site_label
 _atom_site_symmetry_multiplicity
 _atom_site_fract_x
 _atom_site_fract_y
 _atom_site_fract_z
 _atom_site_occupancy
  K  K0  1  0.10044791  0.31021356  0.79995968  1
  K  K1  1  0.39955209  0.81021356  0.29995968  1
  K  K2  1  0.60044791  0.18978644  0.79995968  1
  K  K3  1  0.89955209  0.68978644  0.29995968  1
  Li  Li4  1  0.10634464  0.95817189  0.02940299  1
  Li  Li5  1  0.39365536  0.45817189  0.52940299  1
  Li  Li6  1  0.60634464  0.54182811  0.02940299  1
  Li  Li7  1  0.89365536  0.04182811  0.52940299  1
  Ti  Ti8  1  0.13542992  0.00435640  0.50406809  1
  Ti  Ti9  1  0.25351796  0.77085578  0.75702237  1
  Ti  Ti10  1  0.24648204  0.27085578  0.25702237  1
  Ti  Ti11  1  0.36457008  0.50435640  0.00406809  1
  Ti  Ti12  1  0.63542992  0.49564360  0.50406809  1
  Ti  Ti13  1  0.75351796  0.72914422  0.75702237  1
  Ti  Ti14  1  0.74648204  0.22914422  0.25702237  1
  Ti  Ti15  1  0.86457008  0.99564360  0.00406809  1
  P  P16  1  0.00063671  0.84384661  0.76331289  1
  P  P17  1  0.18395701  0.50744962  0.51150432  1
  P  P18  1  0.31604299  0.00744962  0.01150432  1
  P  P19  1  0.49936329  0.34384661  0.26331289  1
  P  P20  1  0.50063671  0.65615339  0.76331289  1
  P  P21  1  0.68395701  0.99255038  0.51150432  1
  P  P22  1  0.81604299  0.49255038  0.01150432  1
  P  P23  1  0.99936329  0.15615339  0.26331289  1
  O  O24  1  0.00508592  0.98691692  0.64829778  1
  O  O25  1  0.00500379  0.02733822  0.38691715  1
  O  O26  1  0.09498580  0.30199735  0.25140712  1
  O  O27  1  0.09980103  0.70846435  0.77442832  1
  O  O28  1  0.11553127  0.69611866  0.48333901  1
  O  O29  1  0.11754119  0.31548534  0.53938397  1
  O  O30  1  0.22645900  0.04620425  0.38392658  1
  O  O31  1  0.22319695  0.96709765  0.64119394  1
  O  O32  1  0.24023384  0.04893116  0.12426933  1
  O  O33  1  0.23756260  0.96749079  0.90159746  1
  O  O34  1  0.26243740  0.46749079  0.40159746  1
  O  O35  1  0.25976616  0.54893116  0.62426933  1
  O  O36  1  0.27680305  0.46709765  0.14119394  1
  O  O37  1  0.27354100  0.54620425  0.88392658  1
  O  O38  1  0.38245881  0.81548534  0.03938397  1
  O  O39  1  0.38446873  0.19611866  0.98333901  1
  O  O40  1  0.40019897  0.20846435  0.27442832  1
  O  O41  1  0.40501420  0.80199735  0.75140712  1
  O  O42  1  0.49499621  0.52733822  0.88691715  1
  O  O43  1  0.49491408  0.48691692  0.14829778  1
  O  O44  1  0.50508592  0.51308308  0.64829778  1
  O  O45  1  0.50500379  0.47266178  0.38691715  1
  O  O46  1  0.59498580  0.19800265  0.25140712  1
  O  O47  1  0.59980103  0.79153565  0.77442832  1
  O  O48  1  0.61553127  0.80388134  0.48333901  1
  O  O49  1  0.61754119  0.18451466  0.53938397  1
  O  O50  1  0.72645900  0.45379575  0.38392658  1
  O  O51  1  0.72319695  0.53290235  0.64119394  1
  O  O52  1  0.74023384  0.45106884  0.12426933  1
  O  O53  1  0.73756260  0.53250921  0.90159746  1
  O  O54  1  0.76243740  0.03250921  0.40159746  1
  O  O55  1  0.75976616  0.95106884  0.62426933  1
  O  O56  1  0.77680305  0.03290235  0.14119394  1
  O  O57  1  0.77354100  0.95379575  0.88392658  1
  O  O58  1  0.88245881  0.68451466  0.03938397  1
  O  O59  1  0.88446873  0.30388134  0.98333901  1
  O  O60  1  0.90019897  0.29153565  0.27442832  1
  O  O61  1  0.90501420  0.69800265  0.75140712  1
  O  O62  1  0.99499621  0.97266178  0.88691715  1
  O  O63  1  0.99491408  0.01308308  0.14829778  1
