# generated using pymatgen
data_Si3PH27C9BrN2
_symmetry_space_group_name_H-M   'P 1'
_cell_length_a   9.20509958
_cell_length_b   9.74866427
_cell_length_c   12.67255359
_cell_angle_alpha   76.26109783
_cell_angle_beta   81.31903378
_cell_angle_gamma   62.87677231
_symmetry_Int_Tables_number   1
_chemical_formula_structural   Si3PH27C9BrN2
_chemical_formula_sum   'Si6 P2 H54 C18 Br2 N4'
_cell_volume   981.98528097
_cell_formula_units_Z   2
loop_
 _symmetry_equiv_pos_site_id
 _symmetry_equiv_pos_as_xyz
  1  'x, y, z'
loop_
 _atom_site_type_symbol
 _atom_site_label
 _atom_site_symmetry_multiplicity
 _atom_site_fract_x
 _atom_site_fract_y
 _atom_site_fract_z
 _atom_site_occupancy
  Si  Si0  1  0.21100601  0.01688777  0.76639784  1
  Si  Si1  1  0.11659904  0.55204867  0.20541030  1
  Si  Si2  1  0.23023866  0.72702174  0.33362377  1
  Si  Si3  1  0.78899399  0.98311223  0.23360216  1
  Si  Si4  1  0.88340096  0.44795133  0.79458970  1
  Si  Si5  1  0.76976134  0.27297826  0.66637623  1
  P  P6  1  0.09873508  0.91886316  0.06245294  1
  P  P7  1  0.90126492  0.08113684  0.93754706  1
  H  H8  1  0.25567347  0.40470599  0.05674642  1
  H  H9  1  0.62630018  0.50853393  0.91233930  1
  H  H10  1  0.85077930  0.61857647  0.60710660  1
  H  H11  1  0.96123283  0.03354487  0.58919456  1
  H  H12  1  0.36849977  0.75294348  0.72558218  1
  H  H13  1  0.84200374  0.18681356  0.29102562  1
  H  H14  1  0.78589304  0.75495605  0.37379653  1
  H  H15  1  0.14922070  0.38142353  0.39289340  1
  H  H16  1  0.14788524  0.13455161  0.56927711  1
  H  H17  1  0.15204228  0.01743759  0.29420410  1
  H  H18  1  0.65561613  0.65261107  0.67350748  1
  H  H19  1  0.64224225  0.93866002  0.40665259  1
  H  H20  1  0.34438387  0.34738893  0.32649252  1
  H  H21  1  0.37369982  0.49146607  0.08766070  1
  H  H22  1  0.44365983  0.74180630  0.19048462  1
  H  H23  1  0.49512272  0.92569133  0.80680286  1
  H  H24  1  0.55634017  0.25819370  0.80951538  1
  H  H25  1  0.31976380  0.60086333  0.51962196  1
  H  H26  1  0.37482607  0.10382264  0.85458262  1
  H  H27  1  0.71707937  0.53087026  0.53496159  1
  H  H28  1  0.28292063  0.46912974  0.46503841  1
  H  H29  1  0.75245338  0.08225961  0.58041644  1
  H  H30  1  0.22169600  0.27386540  0.28598465  1
  H  H31  1  0.37774589  0.92463091  0.93100795  1
  H  H32  1  0.15799626  0.81318644  0.70897438  1
  H  H33  1  0.84795772  0.98256241  0.70579590  1
  H  H34  1  0.83564223  0.57588109  0.26579518  1
  H  H35  1  0.92806030  0.45833784  0.16515600  1
  H  H36  1  0.50487728  0.07430867  0.19319714  1
  H  H37  1  0.23518866  0.74549533  0.84104734  1
  H  H38  1  0.20038159  0.60715728  0.00723515  1
  H  H39  1  0.50345791  0.45630939  0.74561037  1
  H  H40  1  0.84218564  0.66552548  0.12607655  1
  H  H41  1  0.21410696  0.24504395  0.62620347  1
  H  H42  1  0.62517393  0.89617736  0.14541738  1
  H  H43  1  0.79961841  0.39284272  0.99276485  1
  H  H44  1  0.07193970  0.54166216  0.83484400  1
  H  H45  1  0.15781436  0.33447452  0.87392345  1
  H  H46  1  0.77830400  0.72613460  0.71401535  1
  H  H47  1  0.68023620  0.39913667  0.48037804  1
  H  H48  1  0.11626587  0.63054312  0.51224798  1
  H  H49  1  0.03876717  0.96645513  0.41080544  1
  H  H50  1  0.76481134  0.25450467  0.15895266  1
  H  H51  1  0.47482348  0.33092011  0.67830815  1
  H  H52  1  0.63150023  0.24705652  0.27441782  1
  H  H53  1  0.85211476  0.86544839  0.43072289  1
  H  H54  1  0.88373413  0.36945688  0.48775202  1
  H  H55  1  0.16435777  0.42411891  0.73420482  1
  H  H56  1  0.49654209  0.54369061  0.25438963  1
  H  H57  1  0.74432653  0.59529401  0.94325358  1
  H  H58  1  0.52517652  0.66907989  0.32169185  1
  H  H59  1  0.62225411  0.07536909  0.06899205  1
  H  H60  1  0.24754662  0.91774039  0.41958356  1
  H  H61  1  0.35775775  0.06133998  0.59334741  1
  C  C62  1  0.62209625  0.00776942  0.15165589  1
  C  C63  1  0.15814681  0.92698894  0.36620229  1
  C  C64  1  0.76282243  0.40704968  0.53067995  1
  C  C65  1  0.24869089  0.51133256  0.07719933  1
  C  C66  1  0.91065389  0.56635995  0.18929120  1
  C  C67  1  0.75633958  0.18592337  0.23999118  1
  C  C68  1  0.55673455  0.33570410  0.73081109  1
  C  C69  1  0.76765334  0.87418783  0.37419945  1
  C  C70  1  0.23234666  0.12581217  0.62580055  1
  C  C71  1  0.08934611  0.43364005  0.81070880  1
  C  C72  1  0.37790375  0.99223058  0.84834411  1
  C  C73  1  0.23717757  0.59295032  0.46932005  1
  C  C74  1  0.78204659  0.62589522  0.68589001  1
  C  C75  1  0.44326545  0.66429590  0.26918891  1
  C  C76  1  0.21795341  0.37410478  0.31410999  1
  C  C77  1  0.24366042  0.81407663  0.76000882  1
  C  C78  1  0.75130911  0.48866744  0.92280067  1
  C  C79  1  0.84185319  0.07301106  0.63379771  1
  Br  Br80  1  0.13356291  0.13787229  0.08212674  1
  Br  Br81  1  0.86643709  0.86212771  0.91787326  1
  N  N82  1  0.00709955  0.12681200  0.82393052  1
  N  N83  1  0.90253469  0.27599348  0.75463970  1
  N  N84  1  0.99290045  0.87318800  0.17606948  1
  N  N85  1  0.09746531  0.72400652  0.24536030  1
