# generated using pymatgen
data_Li32Ti3Cr13O48
_symmetry_space_group_name_H-M   'P 1'
_cell_length_a   5.04741753
_cell_length_b   8.72896631
_cell_length_c   19.51627086
_cell_angle_alpha   98.47042203
_cell_angle_beta   94.78255338
_cell_angle_gamma   90.19676361
_symmetry_Int_Tables_number   1
_chemical_formula_structural   Li32Ti3Cr13O48
_chemical_formula_sum   'Li32 Ti3 Cr13 O48'
_cell_volume   847.41404704
_cell_formula_units_Z   1
loop_
 _symmetry_equiv_pos_site_id
 _symmetry_equiv_pos_as_xyz
  1  'x, y, z'
loop_
 _atom_site_type_symbol
 _atom_site_label
 _atom_site_symmetry_multiplicity
 _atom_site_fract_x
 _atom_site_fract_y
 _atom_site_fract_z
 _atom_site_occupancy
  Li  Li0  1  0.99317541  0.16954479  0.24996274  1
  Li  Li1  1  0.87409030  0.37576059  0.37484511  1
  Li  Li2  1  0.75344645  0.24880107  0.99993714  1
  Li  Li3  1  0.74618991  0.92000265  0.00006325  1
  Li  Li4  1  0.98621406  0.16780342  0.75023539  1
  Li  Li5  1  0.75811835  0.58061726  0.50009068  1
  Li  Li6  1  0.87428158  0.37390547  0.87496238  1
  Li  Li7  1  0.74297933  0.25277181  0.50012111  1
  Li  Li8  1  0.74681214  0.91964251  0.49945205  1
  Li  Li9  1  0.62507236  0.12524672  0.12494823  1
  Li  Li10  1  0.75560221  0.57931763  0.00012416  1
  Li  Li11  1  0.50801377  0.33170290  0.24947738  1
  Li  Li12  1  0.62549785  0.12601625  0.62502123  1
  Li  Li13  1  0.50196479  0.99936895  0.24940068  1
  Li  Li14  1  0.49115538  0.66763757  0.24937428  1
  Li  Li15  1  0.51350969  0.33212632  0.74968253  1
  Li  Li16  1  0.37354072  0.87499860  0.37551110  1
  Li  Li17  1  0.49867940  0.00177784  0.74920658  1
  Li  Li18  1  0.24661573  0.75139598  0.00037286  1
  Li  Li19  1  0.49066781  0.66689692  0.74887097  1
  Li  Li20  1  0.24376060  0.41988114  0.00090310  1
  Li  Li21  1  0.37267590  0.87530535  0.87573774  1
  Li  Li22  1  0.25507436  0.07822768  0.49955579  1
  Li  Li23  1  0.24954678  0.74912940  0.49982370  1
  Li  Li24  1  0.12515640  0.62493154  0.12502144  1
  Li  Li25  1  0.24540887  0.42098546  0.50070730  1
  Li  Li26  1  0.00871830  0.83012100  0.25016923  1
  Li  Li27  1  0.25609096  0.07998170  0.99972928  1
  Li  Li28  1  0.12745741  0.62483679  0.62438221  1
  Li  Li29  1  0.99550253  0.50130773  0.25006849  1
  Li  Li30  1  0.00921307  0.83307825  0.75107077  1
  Li  Li31  1  0.00142119  0.49841464  0.75072518  1
  Ti  Ti32  1  0.37450407  0.53762091  0.37322508  1
  Ti  Ti33  1  0.37097835  0.21126597  0.87323009  1
  Ti  Ti34  1  0.12874539  0.28880701  0.62677524  1
  Cr  Cr35  1  0.87037918  0.71160439  0.37495668  1
  Cr  Cr36  1  0.87894159  0.04744841  0.37606405  1
  Cr  Cr37  1  0.87888303  0.70343467  0.87618421  1
  Cr  Cr38  1  0.87011315  0.03825818  0.87519975  1
  Cr  Cr39  1  0.62050076  0.78945057  0.12458942  1
  Cr  Cr40  1  0.62967038  0.46007930  0.12501073  1
  Cr  Cr41  1  0.62092880  0.79669313  0.62385761  1
  Cr  Cr42  1  0.62989243  0.46200364  0.62499941  1
  Cr  Cr43  1  0.37637757  0.20274052  0.37482748  1
  Cr  Cr44  1  0.37836773  0.54745370  0.87560376  1
  Cr  Cr45  1  0.13034878  0.96023240  0.12554317  1
  Cr  Cr46  1  0.12018062  0.28959992  0.12492382  1
  Cr  Cr47  1  0.12152249  0.95277715  0.62463672  1
  O  O48  1  0.96477428  0.11134740  0.06896058  1
  O  O49  1  0.92535456  0.78589296  0.06953088  1
  O  O50  1  0.91816362  0.42904451  0.06747065  1
  O  O51  1  0.96467409  0.10323817  0.56878970  1
  O  O52  1  0.82464999  0.96391095  0.18089319  1
  O  O53  1  0.83194226  0.32091785  0.18240856  1
  O  O54  1  0.93567082  0.78723419  0.56856565  1
  O  O55  1  0.92099589  0.42883928  0.56750525  1
  O  O56  1  0.78531688  0.63858796  0.18105763  1
  O  O57  1  0.71765890  0.85523692  0.31991546  1
  O  O58  1  0.81459809  0.95958676  0.68152436  1
  O  O59  1  0.82505622  0.32166739  0.68368627  1
  O  O60  1  0.67530447  0.53257236  0.31699530  1
  O  O61  1  0.68450107  0.17203035  0.31732354  1
  O  O62  1  0.78323515  0.64228009  0.67991078  1
  O  O63  1  0.71679851  0.85784700  0.82022923  1
  O  O64  1  0.46312291  0.61130923  0.06854859  1
  O  O65  1  0.57971709  0.71697223  0.43146477  1
  O  O66  1  0.56496624  0.07541992  0.43238570  1
  O  O67  1  0.68510862  0.54047733  0.81860931  1
  O  O68  1  0.67482331  0.17854082  0.81645313  1
  O  O69  1  0.41793624  0.92865636  0.06774523  1
  O  O70  1  0.42656562  0.28568124  0.06946619  1
  O  O71  1  0.53498609  0.39086653  0.43109589  1
  O  O72  1  0.46284866  0.61096958  0.56841970  1
  O  O73  1  0.56469200  0.71287877  0.93170239  1
  O  O74  1  0.57920341  0.07138503  0.93268919  1
  O  O75  1  0.33239549  0.82100823  0.18262634  1
  O  O76  1  0.32335649  0.46448102  0.18045482  1
  O  O77  1  0.43347094  0.92515574  0.56734252  1
  O  O78  1  0.43131263  0.28693665  0.56877709  1
  O  O79  1  0.53469423  0.39701946  0.93144745  1
  O  O80  1  0.28668867  0.13843144  0.18141985  1
  O  O81  1  0.21308299  0.35223997  0.31815293  1
  O  O82  1  0.31421864  0.82524012  0.68224190  1
  O  O83  1  0.32561680  0.46750797  0.68138236  1
  O  O84  1  0.17508836  0.67916775  0.31753133  1
  O  O85  1  0.18676560  0.03734558  0.31861825  1
  O  O86  1  0.28662193  0.14033714  0.68175488  1
  O  O87  1  0.21328553  0.35990313  0.81838560  1
  O  O88  1  0.06926165  0.57462520  0.43200772  1
  O  O89  1  0.06525702  0.21289476  0.43160213  1
  O  O90  1  0.18585743  0.67481125  0.81793026  1
  O  O91  1  0.17434688  0.03272528  0.81874276  1
  O  O92  1  0.03819229  0.89851080  0.43120039  1
  O  O93  1  0.06599040  0.57496105  0.93285535  1
  O  O94  1  0.06846186  0.21318106  0.93139659  1
  O  O95  1  0.03738026  0.88911843  0.93159902  1
