# generated using pymatgen
data_Li32Ti3Cr13O48
_symmetry_space_group_name_H-M   'P 1'
_cell_length_a   5.05917078
_cell_length_b   8.72229259
_cell_length_c   19.52519631
_cell_angle_alpha   98.10298365
_cell_angle_beta   95.08605593
_cell_angle_gamma   89.73535310
_symmetry_Int_Tables_number   1
_chemical_formula_structural   Li32Ti3Cr13O48
_chemical_formula_sum   'Li32 Ti3 Cr13 O48'
_cell_volume   849.61185333
_cell_formula_units_Z   1
loop_
 _symmetry_equiv_pos_site_id
 _symmetry_equiv_pos_as_xyz
  1  'x, y, z'
loop_
 _atom_site_type_symbol
 _atom_site_label
 _atom_site_symmetry_multiplicity
 _atom_site_fract_x
 _atom_site_fract_y
 _atom_site_fract_z
 _atom_site_occupancy
  Li  Li0  1  0.99372509  0.16935374  0.24952790  1
  Li  Li1  1  0.87700205  0.37507179  0.37439297  1
  Li  Li2  1  0.74844425  0.25112354  0.00075602  1
  Li  Li3  1  0.74336503  0.92058563  0.00027476  1
  Li  Li4  1  0.99350016  0.17022175  0.74997859  1
  Li  Li5  1  0.75735131  0.57894095  0.50057220  1
  Li  Li6  1  0.87654162  0.37492633  0.87461322  1
  Li  Li7  1  0.74351410  0.25024553  0.50074834  1
  Li  Li8  1  0.74492488  0.92139373  0.50062279  1
  Li  Li9  1  0.62459962  0.12652660  0.12500448  1
  Li  Li10  1  0.75556873  0.58008294  0.00039890  1
  Li  Li11  1  0.50633127  0.33098106  0.25029142  1
  Li  Li12  1  0.62444390  0.12555647  0.62501891  1
  Li  Li13  1  0.49511696  0.00147580  0.25034300  1
  Li  Li14  1  0.49499110  0.66961638  0.24944809  1
  Li  Li15  1  0.51022675  0.33370714  0.75088607  1
  Li  Li16  1  0.37575675  0.87575708  0.37506252  1
  Li  Li17  1  0.49984630  0.00008419  0.75008160  1
  Li  Li18  1  0.25604878  0.74828058  0.99961866  1
  Li  Li19  1  0.48965376  0.66631777  0.74939682  1
  Li  Li20  1  0.24216465  0.42110126  0.00026983  1
  Li  Li21  1  0.37566559  0.87440407  0.87510713  1
  Li  Li22  1  0.26221014  0.08082320  0.49954270  1
  Li  Li23  1  0.24836595  0.75069778  0.49929135  1
  Li  Li24  1  0.12470235  0.62347060  0.12489650  1
  Li  Li25  1  0.24213672  0.41790867  0.49951900  1
  Li  Li26  1  0.00749821  0.83022741  0.25014938  1
  Li  Li27  1  0.25469726  0.07971622  0.99995379  1
  Li  Li28  1  0.12359964  0.62515153  0.62536563  1
  Li  Li29  1  0.00159265  0.49844035  0.24957207  1
  Li  Li30  1  0.00675476  0.82988230  0.75018601  1
  Li  Li31  1  0.00037515  0.49998681  0.75012136  1
  Ti  Ti32  1  0.87784261  0.03937663  0.37647539  1
  Ti  Ti33  1  0.87406640  0.71226947  0.87659927  1
  Ti  Ti34  1  0.12608411  0.28781538  0.62356720  1
  Cr  Cr35  1  0.87145085  0.70278003  0.37440855  1
  Cr  Cr36  1  0.87368000  0.04719967  0.87517959  1
  Cr  Cr37  1  0.62884432  0.79739910  0.12581908  1
  Cr  Cr38  1  0.62005012  0.46103724  0.12487192  1
  Cr  Cr39  1  0.62940589  0.79736360  0.62611595  1
  Cr  Cr40  1  0.62030758  0.46110608  0.62504250  1
  Cr  Cr41  1  0.37187733  0.54728598  0.37398996  1
  Cr  Cr42  1  0.37791318  0.21150497  0.37485848  1
  Cr  Cr43  1  0.37977809  0.53886900  0.87512754  1
  Cr  Cr44  1  0.37057938  0.20264679  0.87410027  1
  Cr  Cr45  1  0.12543324  0.95239452  0.12487884  1
  Cr  Cr46  1  0.12618665  0.28823728  0.12449492  1
  Cr  Cr47  1  0.12619042  0.95279487  0.62492440  1
  O  O48  1  0.96516505  0.10470677  0.06936829  1
  O  O49  1  0.93505092  0.78907834  0.06884413  1
  O  O50  1  0.92175726  0.42769157  0.06759873  1
  O  O51  1  0.96394753  0.10313201  0.56835564  1
  O  O52  1  0.81597194  0.96221170  0.18149724  1
  O  O53  1  0.82809648  0.32387663  0.18178551  1
  O  O54  1  0.93588465  0.78777700  0.56900607  1
  O  O55  1  0.92372942  0.42926341  0.56755088  1
  O  O56  1  0.78573474  0.64636595  0.18086752  1
  O  O57  1  0.71459560  0.85382065  0.31859710  1
  O  O58  1  0.81624484  0.96216581  0.68127304  1
  O  O59  1  0.82082385  0.32452124  0.68233042  1
  O  O60  1  0.68485564  0.53792400  0.31879202  1
  O  O61  1  0.66910258  0.17869017  0.31721320  1
  O  O62  1  0.78697322  0.64757133  0.68141032  1
  O  O63  1  0.71439550  0.85967073  0.81870496  1
  O  O64  1  0.46702138  0.60707594  0.06967409  1
  O  O65  1  0.56587335  0.70926539  0.43140464  1
  O  O66  1  0.57581426  0.07092728  0.43343323  1
  O  O67  1  0.67093884  0.53335635  0.81886012  1
  O  O68  1  0.68317166  0.17509195  0.81766665  1
  O  O69  1  0.43353937  0.92358251  0.06776680  1
  O  O70  1  0.41855637  0.28568385  0.06860459  1
  O  O71  1  0.53261331  0.39142711  0.42958160  1
  O  O72  1  0.46714540  0.60562295  0.56976054  1
  O  O73  1  0.57470619  0.71678179  0.93264227  1
  O  O74  1  0.56679144  0.07772626  0.93265230  1
  O  O75  1  0.31771382  0.82552460  0.18267749  1
  O  O76  1  0.33075709  0.46383929  0.18084939  1
  O  O77  1  0.43324801  0.92226505  0.56758934  1
  O  O78  1  0.42585120  0.28342375  0.56765319  1
  O  O79  1  0.53230527  0.39422409  0.93015859  1
  O  O80  1  0.28288870  0.14159013  0.18033782  1
  O  O81  1  0.21287616  0.36179178  0.31858217  1
  O  O82  1  0.31644347  0.82490576  0.68237891  1
  O  O83  1  0.32915035  0.46669278  0.68122790  1
  O  O84  1  0.18216047  0.67506181  0.31718978  1
  O  O85  1  0.18059886  0.03705926  0.31855050  1
  O  O86  1  0.28569351  0.14016398  0.68135470  1
  O  O87  1  0.21302242  0.35250046  0.81857814  1
  O  O88  1  0.06582886  0.57506904  0.43220698  1
  O  O89  1  0.07537445  0.21647429  0.43085072  1
  O  O90  1  0.17952411  0.67553089  0.81777555  1
  O  O91  1  0.18362690  0.03775467  0.81873719  1
  O  O92  1  0.03752265  0.88961507  0.43152500  1
  O  O93  1  0.07607677  0.57061344  0.93244007  1
  O  O94  1  0.06362438  0.21195019  0.93092878  1
  O  O95  1  0.03680811  0.89680418  0.93170301  1
