# generated using pymatgen
data_Sc2H6(SeO4)3
_symmetry_space_group_name_H-M   'P 1'
_cell_length_a   9.04317361
_cell_length_b   9.04317361
_cell_length_c   9.04317372
_cell_angle_alpha   65.94271186
_cell_angle_beta   65.94271186
_cell_angle_gamma   65.94271655
_symmetry_Int_Tables_number   1
_chemical_formula_structural   Sc2H6(SeO4)3
_chemical_formula_sum   'Sc4 H12 Se6 O24'
_cell_volume   590.22185642
_cell_formula_units_Z   2
loop_
 _symmetry_equiv_pos_site_id
 _symmetry_equiv_pos_as_xyz
  1  'x, y, z'
loop_
 _atom_site_type_symbol
 _atom_site_label
 _atom_site_symmetry_multiplicity
 _atom_site_fract_x
 _atom_site_fract_y
 _atom_site_fract_z
 _atom_site_occupancy
  Sc  Sc0  1  0.15820334  0.15820334  0.15820334  1
  Sc  Sc1  1  0.39206994  0.39206994  0.39206994  1
  Sc  Sc2  1  0.89206994  0.89206994  0.89206994  1
  Sc  Sc3  1  0.65820334  0.65820334  0.65820334  1
  H  H4  1  0.20588532  0.92133165  0.88373903  1
  H  H5  1  0.24414422  0.88609076  0.71207292  1
  H  H6  1  0.38609076  0.74414422  0.21207292  1
  H  H7  1  0.42133165  0.70588532  0.38373903  1
  H  H8  1  0.21207292  0.38609076  0.74414422  1
  H  H9  1  0.38373903  0.42133165  0.70588532  1
  H  H10  1  0.92133165  0.88373903  0.20588532  1
  H  H11  1  0.88609076  0.71207292  0.24414422  1
  H  H12  1  0.70588532  0.38373903  0.42133165  1
  H  H13  1  0.71207292  0.24414422  0.88609076  1
  H  H14  1  0.74414422  0.21207292  0.38609076  1
  H  H15  1  0.88373903  0.20588532  0.92133165  1
  Se  Se16  1  0.45874139  0.99899410  0.37348702  1
  Se  Se17  1  0.49899410  0.95874139  0.87348702  1
  Se  Se18  1  0.37348702  0.45874139  0.99899410  1
  Se  Se19  1  0.95874139  0.87348702  0.49899410  1
  Se  Se20  1  0.87348702  0.49899410  0.95874139  1
  Se  Se21  1  0.99899410  0.37348702  0.45874139  1
  O  O22  1  0.15336668  0.90976788  0.81411121  1
  O  O23  1  0.30681710  0.96519032  0.03226793  1
  O  O24  1  0.14252742  0.48407340  0.39862004  1
  O  O25  1  0.46519032  0.80681710  0.53226793  1
  O  O26  1  0.02273112  0.35437425  0.26861394  1
  O  O27  1  0.03226793  0.30681710  0.96519032  1
  O  O28  1  0.64252742  0.89862004  0.98407340  1
  O  O29  1  0.52273112  0.76861394  0.85437425  1
  O  O30  1  0.40976788  0.65336668  0.31411121  1
  O  O31  1  0.31411121  0.40976788  0.65336668  1
  O  O32  1  0.76861394  0.85437425  0.52273112  1
  O  O33  1  0.89862004  0.98407340  0.64252742  1
  O  O34  1  0.53226793  0.46519032  0.80681710  1
  O  O35  1  0.48407340  0.39862004  0.14252742  1
  O  O36  1  0.35437425  0.26861394  0.02273112  1
  O  O37  1  0.90976788  0.81411121  0.15336668  1
  O  O38  1  0.26861394  0.02273112  0.35437425  1
  O  O39  1  0.39862004  0.14252742  0.48407340  1
  O  O40  1  0.80681710  0.53226793  0.46519032  1
  O  O41  1  0.65336668  0.31411121  0.40976788  1
  O  O42  1  0.85437425  0.52273112  0.76861394  1
  O  O43  1  0.98407340  0.64252742  0.89862004  1
  O  O44  1  0.81411121  0.15336668  0.90976788  1
  O  O45  1  0.96519032  0.03226793  0.30681710  1
