# generated using pymatgen
data_Li32Mn3Cr13O48
_symmetry_space_group_name_H-M   'P 1'
_cell_length_a   5.02353915
_cell_length_b   8.73402561
_cell_length_c   19.50254585
_cell_angle_alpha   97.92975699
_cell_angle_beta   94.65203516
_cell_angle_gamma   89.43864924
_symmetry_Int_Tables_number   1
_chemical_formula_structural   Li32Mn3Cr13O48
_chemical_formula_sum   'Li32 Mn3 Cr13 O48'
_cell_volume   844.71326007
_cell_formula_units_Z   1
loop_
 _symmetry_equiv_pos_site_id
 _symmetry_equiv_pos_as_xyz
  1  'x, y, z'
loop_
 _atom_site_type_symbol
 _atom_site_label
 _atom_site_symmetry_multiplicity
 _atom_site_fract_x
 _atom_site_fract_y
 _atom_site_fract_z
 _atom_site_occupancy
  Li  Li0  1  0.98829416  0.16846910  0.24975506  1
  Li  Li1  1  0.87386995  0.37398615  0.37500894  1
  Li  Li2  1  0.75053982  0.25013247  0.00004015  1
  Li  Li3  1  0.74498461  0.92062381  0.99974693  1
  Li  Li4  1  0.99265986  0.16780108  0.74983281  1
  Li  Li5  1  0.75506186  0.57928643  0.49961647  1
  Li  Li6  1  0.87484762  0.37507737  0.87495982  1
  Li  Li7  1  0.75346529  0.24997095  0.50016669  1
  Li  Li8  1  0.74063405  0.92004846  0.50012878  1
  Li  Li9  1  0.62626193  0.12643046  0.12487795  1
  Li  Li10  1  0.75858879  0.57928843  0.99961973  1
  Li  Li11  1  0.51016269  0.33224954  0.25048465  1
  Li  Li12  1  0.62424718  0.12404219  0.62497481  1
  Li  Li13  1  0.49952897  0.00098470  0.25057071  1
  Li  Li14  1  0.49244690  0.66842335  0.24997661  1
  Li  Li15  1  0.50665715  0.33072343  0.75000924  1
  Li  Li16  1  0.37454746  0.87491625  0.37488604  1
  Li  Li17  1  0.50286045  0.99981746  0.75012214  1
  Li  Li18  1  0.25158338  0.74903968  0.99942759  1
  Li  Li19  1  0.48906190  0.66880129  0.74960025  1
  Li  Li20  1  0.24100129  0.42059403  0.00027132  1
  Li  Li21  1  0.37396742  0.87459639  0.87500358  1
  Li  Li22  1  0.25772361  0.08054175  0.49999751  1
  Li  Li23  1  0.25029017  0.75072950  0.49977978  1
  Li  Li24  1  0.12360634  0.62348080  0.12509236  1
  Li  Li25  1  0.24397639  0.41967447  0.50023788  1
  Li  Li26  1  0.00800634  0.83095999  0.25047305  1
  Li  Li27  1  0.25368795  0.07931390  0.99965550  1
  Li  Li28  1  0.12447234  0.62495358  0.62495822  1
  Li  Li29  1  0.00170258  0.50013318  0.24989020  1
  Li  Li30  1  0.00969076  0.83221445  0.75033792  1
  Li  Li31  1  0.00030563  0.50074063  0.74973357  1
  Mn  Mn32  1  0.87510165  0.04135893  0.87469722  1
  Mn  Mn33  1  0.37581717  0.54179306  0.37497933  1
  Mn  Mn34  1  0.12520930  0.29169701  0.62470133  1
  Cr  Cr35  1  0.86902555  0.70535576  0.37461025  1
  Cr  Cr36  1  0.87924901  0.03850110  0.37515813  1
  Cr  Cr37  1  0.87215415  0.71265431  0.87549857  1
  Cr  Cr38  1  0.62842085  0.79757605  0.12588628  1
  Cr  Cr39  1  0.62024217  0.46191243  0.12517479  1
  Cr  Cr40  1  0.63068599  0.78864925  0.62543652  1
  Cr  Cr41  1  0.61815901  0.45544654  0.62457894  1
  Cr  Cr42  1  0.37118458  0.21231361  0.37518839  1
  Cr  Cr43  1  0.38221672  0.53920296  0.87547559  1
  Cr  Cr44  1  0.36592411  0.20728983  0.87455340  1
  Cr  Cr45  1  0.12236169  0.95238465  0.12421306  1
  Cr  Cr46  1  0.13001632  0.28792104  0.12488871  1
  Cr  Cr47  1  0.12336147  0.96237046  0.62524937  1
  O  O48  1  0.96389411  0.10328136  0.06889809  1
  O  O49  1  0.93749875  0.78784591  0.06875232  1
  O  O50  1  0.92530416  0.42678903  0.06769886  1
  O  O51  1  0.96401904  0.10876029  0.56928961  1
  O  O52  1  0.81300065  0.96225589  0.18129780  1
  O  O53  1  0.82470029  0.32337385  0.18228563  1
  O  O54  1  0.92086703  0.78668575  0.56878698  1
  O  O55  1  0.93193824  0.42775177  0.56768614  1
  O  O56  1  0.78614143  0.64669792  0.18114539  1
  O  O57  1  0.71782988  0.85355917  0.31888149  1
  O  O58  1  0.83014692  0.96441230  0.68130283  1
  O  O59  1  0.82330362  0.32420589  0.68189380  1
  O  O60  1  0.67719908  0.53497598  0.31914185  1
  O  O61  1  0.67296143  0.17696289  0.31756654  1
  O  O62  1  0.78273969  0.64378827  0.68131325  1
  O  O63  1  0.71506290  0.85780037  0.81953384  1
  O  O64  1  0.46810498  0.60702276  0.06957850  1
  O  O65  1  0.56741061  0.71396748  0.43071824  1
  O  O66  1  0.57625098  0.07396555  0.43227640  1
  O  O67  1  0.67040738  0.53556486  0.81869009  1
  O  O68  1  0.68003293  0.17790715  0.81793512  1
  O  O69  1  0.43436491  0.92323835  0.06710568  1
  O  O70  1  0.41949866  0.28518459  0.06851411  1
  O  O71  1  0.53847203  0.39606089  0.43117697  1
  O  O72  1  0.46882374  0.60320312  0.56899919  1
  O  O73  1  0.58139734  0.71510362  0.93160767  1
  O  O74  1  0.57343969  0.07389964  0.93177300  1
  O  O75  1  0.31638995  0.82680946  0.18293406  1
  O  O76  1  0.33030437  0.46487147  0.18129706  1
  O  O77  1  0.42254859  0.92623855  0.56775172  1
  O  O78  1  0.42725015  0.28466357  0.56918345  1
  O  O79  1  0.53299194  0.39637664  0.93145653  1
  O  O80  1  0.28147641  0.14303571  0.18041493  1
  O  O81  1  0.21509890  0.35814487  0.31935811  1
  O  O82  1  0.32698498  0.82329687  0.68246826  1
  O  O83  1  0.31777212  0.46366985  0.68087027  1
  O  O84  1  0.18146147  0.67762193  0.31769340  1
  O  O85  1  0.16979929  0.03631711  0.31851612  1
  O  O86  1  0.28768507  0.14523367  0.68097549  1
  O  O87  1  0.21849623  0.35200453  0.81876908  1
  O  O88  1  0.07344450  0.57403587  0.43186110  1
  O  O89  1  0.08019690  0.21413888  0.43109064  1
  O  O90  1  0.17425098  0.67581328  0.81801638  1
  O  O91  1  0.17529513  0.03289243  0.81876951  1
  O  O92  1  0.03223022  0.89365821  0.43114072  1
  O  O93  1  0.07449658  0.57271230  0.93233439  1
  O  O94  1  0.07054293  0.21343411  0.93049569  1
  O  O95  1  0.03860724  0.89629581  0.93122358  1
