# generated using pymatgen
data_Na3CoO3
_symmetry_space_group_name_H-M   'P 1'
_cell_length_a   3.99372960
_cell_length_b   10.99460123
_cell_length_c   10.16034862
_cell_angle_alpha   90.00000000
_cell_angle_beta   101.72219321
_cell_angle_gamma   90.00000000
_symmetry_Int_Tables_number   1
_chemical_formula_structural   Na3CoO3
_chemical_formula_sum   'Na12 Co4 O12'
_cell_volume   436.83094826
_cell_formula_units_Z   4
loop_
 _symmetry_equiv_pos_site_id
 _symmetry_equiv_pos_as_xyz
  1  'x, y, z'
loop_
 _atom_site_type_symbol
 _atom_site_label
 _atom_site_symmetry_multiplicity
 _atom_site_fract_x
 _atom_site_fract_y
 _atom_site_fract_z
 _atom_site_occupancy
  Na  Na0  1  0.09688180  0.57039303  0.63647225  1
  Na  Na1  1  0.27798768  0.01497395  0.61621994  1
  Na  Na2  1  0.49959319  0.76976845  0.97993475  1
  Na  Na3  1  0.09688180  0.92960697  0.13647225  1
  Na  Na4  1  0.27798768  0.48502605  0.11621994  1
  Na  Na5  1  0.50040681  0.26976845  0.52006525  1
  Na  Na6  1  0.49959319  0.73023155  0.47993475  1
  Na  Na7  1  0.72201232  0.51497395  0.88378006  1
  Na  Na8  1  0.90311820  0.07039303  0.86352775  1
  Na  Na9  1  0.50040681  0.23023155  0.02006525  1
  Na  Na10  1  0.72201232  0.98502605  0.38378006  1
  Na  Na11  1  0.90311820  0.42960697  0.36352775  1
  Co  Co12  1  0.18957220  0.31034249  0.75452058  1
  Co  Co13  1  0.18957220  0.18965751  0.25452058  1
  Co  Co14  1  0.81042780  0.81034249  0.74547942  1
  Co  Co15  1  0.81042780  0.68965751  0.24547942  1
  O  O16  1  0.02824959  0.36234922  0.58904823  1
  O  O17  1  0.22903171  0.40863544  0.89601179  1
  O  O18  1  0.02824959  0.13765078  0.08904823  1
  O  O19  1  0.36332714  0.16134305  0.78437743  1
  O  O20  1  0.22903171  0.09136456  0.39601179  1
  O  O21  1  0.36332714  0.33865695  0.28437743  1
  O  O22  1  0.63667286  0.66134305  0.71562257  1
  O  O23  1  0.77096829  0.90863544  0.60398821  1
  O  O24  1  0.63667286  0.83865695  0.21562257  1
  O  O25  1  0.97175041  0.86234922  0.91095177  1
  O  O26  1  0.77096829  0.59136456  0.10398821  1
  O  O27  1  0.97175041  0.63765078  0.41095177  1
