# generated using pymatgen
data_Li32Ti3Cr13O48
_symmetry_space_group_name_H-M   'P 1'
_cell_length_a   5.06604602
_cell_length_b   8.72442795
_cell_length_c   19.55797187
_cell_angle_alpha   98.25723733
_cell_angle_beta   95.08585705
_cell_angle_gamma   89.90572262
_symmetry_Int_Tables_number   1
_chemical_formula_structural   Li32Ti3Cr13O48
_chemical_formula_sum   'Li32 Ti3 Cr13 O48'
_cell_volume   852.04693672
_cell_formula_units_Z   1
loop_
 _symmetry_equiv_pos_site_id
 _symmetry_equiv_pos_as_xyz
  1  'x, y, z'
loop_
 _atom_site_type_symbol
 _atom_site_label
 _atom_site_symmetry_multiplicity
 _atom_site_fract_x
 _atom_site_fract_y
 _atom_site_fract_z
 _atom_site_occupancy
  Li  Li0  1  0.99354022  0.17117426  0.24998501  1
  Li  Li1  1  0.87429314  0.37538719  0.37491537  1
  Li  Li2  1  0.74711078  0.25129950  0.99981440  1
  Li  Li3  1  0.74181145  0.91898674  0.99991386  1
  Li  Li4  1  0.99400256  0.17118450  0.75052474  1
  Li  Li5  1  0.75940591  0.58056856  0.50021347  1
  Li  Li6  1  0.87531999  0.37579318  0.87526446  1
  Li  Li7  1  0.74175308  0.25293002  0.50008307  1
  Li  Li8  1  0.74566283  0.92004413  0.49941721  1
  Li  Li9  1  0.62631320  0.12500754  0.12482198  1
  Li  Li10  1  0.76211673  0.58157096  0.00012003  1
  Li  Li11  1  0.51046711  0.33068091  0.24967902  1
  Li  Li12  1  0.62597651  0.12571667  0.62506097  1
  Li  Li13  1  0.50071417  0.99932201  0.24976867  1
  Li  Li14  1  0.49194138  0.66896616  0.24932076  1
  Li  Li15  1  0.51403649  0.33159478  0.74980177  1
  Li  Li16  1  0.37378427  0.87535813  0.37557032  1
  Li  Li17  1  0.49895938  0.00038453  0.74943939  1
  Li  Li18  1  0.24945665  0.74922436  0.00049162  1
  Li  Li19  1  0.49031319  0.66710739  0.74909087  1
  Li  Li20  1  0.24140960  0.42026128  0.00025216  1
  Li  Li21  1  0.37624130  0.87497245  0.87482101  1
  Li  Li22  1  0.25606272  0.07803387  0.49974175  1
  Li  Li23  1  0.24973012  0.74934644  0.49987817  1
  Li  Li24  1  0.12564975  0.62495265  0.12515890  1
  Li  Li25  1  0.24420900  0.42092420  0.50045654  1
  Li  Li26  1  0.00866461  0.82956774  0.25055778  1
  Li  Li27  1  0.25629385  0.07927060  0.00058774  1
  Li  Li28  1  0.12695397  0.62498087  0.62442426  1
  Li  Li29  1  0.99344459  0.50101223  0.25017324  1
  Li  Li30  1  0.00735556  0.82964116  0.75104377  1
  Li  Li31  1  0.99210545  0.50094972  0.75064900  1
  Ti  Ti32  1  0.37542069  0.53800299  0.37318839  1
  Ti  Ti33  1  0.37643205  0.53905001  0.87577835  1
  Ti  Ti34  1  0.12798297  0.28909005  0.62646945  1
  Cr  Cr35  1  0.87016535  0.71132915  0.37509661  1
  Cr  Cr36  1  0.87887868  0.04701963  0.37583908  1
  Cr  Cr37  1  0.87637943  0.71251057  0.87539578  1
  Cr  Cr38  1  0.87400199  0.04759296  0.87473070  1
  Cr  Cr39  1  0.61962541  0.79369448  0.12411087  1
  Cr  Cr40  1  0.63043512  0.45713871  0.12577365  1
  Cr  Cr41  1  0.62261238  0.79750524  0.62425745  1
  Cr  Cr42  1  0.62801533  0.46200440  0.62488039  1
  Cr  Cr43  1  0.37544828  0.20251299  0.37477274  1
  Cr  Cr44  1  0.37340091  0.20270896  0.87494305  1
  Cr  Cr45  1  0.11777609  0.95593539  0.12398803  1
  Cr  Cr46  1  0.13244824  0.29353161  0.12605779  1
  Cr  Cr47  1  0.12216188  0.95255158  0.62477225  1
  O  O48  1  0.96616861  0.10446108  0.06877241  1
  O  O49  1  0.92960368  0.78573956  0.06899741  1
  O  O50  1  0.92767301  0.42329724  0.06818106  1
  O  O51  1  0.96448906  0.10356752  0.56886844  1
  O  O52  1  0.82093949  0.96122615  0.18127605  1
  O  O53  1  0.82177711  0.32283589  0.18226052  1
  O  O54  1  0.93564211  0.78796051  0.56892826  1
  O  O55  1  0.91986243  0.42858049  0.56751650  1
  O  O56  1  0.78326219  0.64228899  0.18052737  1
  O  O57  1  0.71667702  0.85576340  0.31978587  1
  O  O58  1  0.81561982  0.95985301  0.68161897  1
  O  O59  1  0.82543920  0.32102524  0.68360682  1
  O  O60  1  0.67535476  0.53314233  0.31731418  1
  O  O61  1  0.68396189  0.17284247  0.31727291  1
  O  O62  1  0.78252759  0.64183871  0.67966127  1
  O  O63  1  0.71374598  0.86045821  0.81931343  1
  O  O64  1  0.46711769  0.60851573  0.06894076  1
  O  O65  1  0.57969067  0.71707388  0.43115266  1
  O  O66  1  0.56580457  0.07545839  0.43227658  1
  O  O67  1  0.68009040  0.53612645  0.81858046  1
  O  O68  1  0.68344020  0.17432885  0.81762171  1
  O  O69  1  0.42840490  0.92722389  0.06755689  1
  O  O70  1  0.42817993  0.28949071  0.06899995  1
  O  O71  1  0.53525073  0.39059657  0.43107699  1
  O  O72  1  0.46305684  0.61103783  0.56857516  1
  O  O73  1  0.57713403  0.71619291  0.93132392  1
  O  O74  1  0.56507001  0.07513001  0.93251909  1
  O  O75  1  0.32231832  0.82569889  0.18203788  1
  O  O76  1  0.32177604  0.46397955  0.18118662  1
  O  O77  1  0.43279255  0.92490452  0.56744670  1
  O  O78  1  0.43059256  0.28635884  0.56875101  1
  O  O79  1  0.53674263  0.38988963  0.93160580  1
  O  O80  1  0.28254260  0.14403513  0.18063815  1
  O  O81  1  0.21301847  0.35306972  0.31812526  1
  O  O82  1  0.31490992  0.82495674  0.68230909  1
  O  O83  1  0.32639679  0.46670237  0.68120278  1
  O  O84  1  0.17399723  0.67973251  0.31749380  1
  O  O85  1  0.18664421  0.03808203  0.31870797  1
  O  O86  1  0.28766751  0.13981591  0.68177084  1
  O  O87  1  0.21468011  0.35345949  0.81860586  1
  O  O88  1  0.07031638  0.57419204  0.43209179  1
  O  O89  1  0.06523274  0.21210357  0.43126474  1
  O  O90  1  0.16960246  0.67829050  0.81756153  1
  O  O91  1  0.18566307  0.03797063  0.81902311  1
  O  O92  1  0.03832255  0.89757248  0.43119082  1
  O  O93  1  0.07484937  0.57132101  0.93362691  1
  O  O94  1  0.06560092  0.21067490  0.93159079  1
  O  O95  1  0.03407131  0.89274110  0.93014500  1
