# generated using pymatgen
data_NaLi2V3O9
_symmetry_space_group_name_H-M   'P 1'
_cell_length_a   10.17767109
_cell_length_b   9.03843433
_cell_length_c   10.06577067
_cell_angle_alpha   89.97780550
_cell_angle_beta   73.20843050
_cell_angle_gamma   116.39294192
_symmetry_Int_Tables_number   1
_chemical_formula_structural   NaLi2V3O9
_chemical_formula_sum   'Na4 Li8 V12 O36'
_cell_volume   785.06349899
_cell_formula_units_Z   4
loop_
 _symmetry_equiv_pos_site_id
 _symmetry_equiv_pos_as_xyz
  1  'x, y, z'
loop_
 _atom_site_type_symbol
 _atom_site_label
 _atom_site_symmetry_multiplicity
 _atom_site_fract_x
 _atom_site_fract_y
 _atom_site_fract_z
 _atom_site_occupancy
  Na  Na0  1  0.50196237  0.46223166  0.24917359  1
  Na  Na1  1  0.83571641  0.20656752  0.08377730  1
  Na  Na2  1  0.16705122  0.79609071  0.91605132  1
  Na  Na3  1  0.83366099  0.12811145  0.58402752  1
  Li  Li4  1  0.16394431  0.49912969  0.41861412  1
  Li  Li5  1  0.17013591  0.85318050  0.41721143  1
  Li  Li6  1  0.50175001  0.83721267  0.24691507  1
  Li  Li7  1  0.83568224  0.83514731  0.08353617  1
  Li  Li8  1  0.16865203  0.16868328  0.91576667  1
  Li  Li9  1  0.49926708  0.51454380  0.75139423  1
  Li  Li10  1  0.50189297  0.16907581  0.75026139  1
  Li  Li11  1  0.83104617  0.50398325  0.58619394  1
  V  V12  1  0.02568288  0.10427672  0.27750075  1
  V  V13  1  0.30833316  0.56065881  0.05634714  1
  V  V14  1  0.35787822  0.08534892  0.11098060  1
  V  V15  1  0.02364144  0.41991311  0.77369537  1
  V  V16  1  0.30938311  0.24947433  0.55934920  1
  V  V17  1  0.35668416  0.77262323  0.60839777  1
  V  V18  1  0.64228897  0.22956723  0.39332914  1
  V  V19  1  0.68979524  0.75134392  0.44591883  1
  V  V20  1  0.97777879  0.58632003  0.22687178  1
  V  V21  1  0.64115714  0.91172533  0.89007729  1
  V  V22  1  0.69052931  0.44003774  0.94059716  1
  V  V23  1  0.97637080  0.89475566  0.72291418  1
  O  O24  1  0.12647335  0.57012202  0.08418115  1
  O  O25  1  0.29370917  0.38213694  0.99874596  1
  O  O26  1  0.03911964  0.28323550  0.33253622  1
  O  O27  1  0.03190364  0.62837767  0.37260743  1
  O  O28  1  0.20555744  0.09229435  0.25578630  1
  O  O29  1  0.37195524  0.92047596  0.16577198  1
  O  O30  1  0.35608077  0.58022324  0.20495972  1
  O  O31  1  0.54099727  0.27580269  0.08334060  1
  O  O32  1  0.68761990  0.93884363  0.03956309  1
  O  O33  1  0.13218493  0.05527936  0.58058039  1
  O  O34  1  0.30479629  0.75966188  0.46126948  1
  O  O35  1  0.29051580  0.40863389  0.49943375  1
  O  O36  1  0.46187021  0.23944712  0.41723262  1
  O  O37  1  0.64415453  0.72523596  0.29632794  1
  O  O38  1  0.03717983  0.25550967  0.83047650  1
  O  O39  1  0.62799075  0.05206980  0.33436182  1
  O  O40  1  0.02266348  0.91668141  0.87252323  1
  O  O41  1  0.79635874  0.39475706  0.25370113  1
  O  O42  1  0.20392609  0.60966732  0.75023522  1
  O  O43  1  0.97978729  0.08391299  0.12763692  1
  O  O44  1  0.37279980  0.94989912  0.66927149  1
  O  O45  1  0.96181297  0.74575053  0.16316643  1
  O  O46  1  0.36289211  0.28902213  0.70592199  1
  O  O47  1  0.53372728  0.75565267  0.58777074  1
  O  O48  1  0.70682858  0.58844200  0.50140445  1
  O  O49  1  0.68690676  0.24673062  0.54355171  1
  O  O50  1  0.87062025  0.94318541  0.41972700  1
  O  O51  1  0.31120622  0.06103894  0.96148323  1
  O  O52  1  0.46107293  0.72091848  0.91213639  1
  O  O53  1  0.63771254  0.42645165  0.79367345  1
  O  O54  1  0.62789898  0.07685803  0.83302403  1
  O  O55  1  0.79487940  0.90309492  0.74777022  1
  O  O56  1  0.97624448  0.39420236  0.62460680  1
  O  O57  1  0.96109174  0.71511978  0.66860506  1
  O  O58  1  0.70680345  0.61640491  0.00213344  1
  O  O59  1  0.87129621  0.43047030  0.91600014  1
