# generated using pymatgen
data_Li32Ti3Cr13O48
_symmetry_space_group_name_H-M   'P 1'
_cell_length_a   5.04713585
_cell_length_b   8.72597564
_cell_length_c   19.50216433
_cell_angle_alpha   98.06852289
_cell_angle_beta   94.92061785
_cell_angle_gamma   89.66399080
_symmetry_Int_Tables_number   1
_chemical_formula_structural   Li32Ti3Cr13O48
_chemical_formula_sum   'Li32 Ti3 Cr13 O48'
_cell_volume   847.24537011
_cell_formula_units_Z   1
loop_
 _symmetry_equiv_pos_site_id
 _symmetry_equiv_pos_as_xyz
  1  'x, y, z'
loop_
 _atom_site_type_symbol
 _atom_site_label
 _atom_site_symmetry_multiplicity
 _atom_site_fract_x
 _atom_site_fract_y
 _atom_site_fract_z
 _atom_site_occupancy
  Li  Li0  1  0.99221225  0.17095897  0.24947991  1
  Li  Li1  1  0.87557288  0.37543764  0.37501314  1
  Li  Li2  1  0.74924722  0.25166877  0.00028793  1
  Li  Li3  1  0.74126926  0.92110380  0.00079315  1
  Li  Li4  1  0.99108161  0.16924252  0.74996808  1
  Li  Li5  1  0.76185636  0.58016735  0.50018343  1
  Li  Li6  1  0.87318611  0.37495081  0.87594601  1
  Li  Li7  1  0.74158675  0.25281134  0.49998815  1
  Li  Li8  1  0.74318426  0.91954405  0.49937049  1
  Li  Li9  1  0.62560537  0.12446180  0.12496465  1
  Li  Li10  1  0.75731113  0.57858324  0.00004315  1
  Li  Li11  1  0.50925830  0.33013579  0.24985858  1
  Li  Li12  1  0.62544156  0.12576559  0.62503697  1
  Li  Li13  1  0.50274385  0.99806099  0.24965129  1
  Li  Li14  1  0.49258412  0.67022775  0.24985754  1
  Li  Li15  1  0.51562815  0.33399031  0.75083702  1
  Li  Li16  1  0.37558107  0.87490283  0.37450937  1
  Li  Li17  1  0.50020014  0.00011796  0.75019729  1
  Li  Li18  1  0.25503537  0.74932756  0.99973742  1
  Li  Li19  1  0.48501799  0.66615882  0.74928191  1
  Li  Li20  1  0.24369357  0.42071355  0.99968440  1
  Li  Li21  1  0.37419716  0.87458700  0.87498369  1
  Li  Li22  1  0.25740810  0.07891712  0.49980721  1
  Li  Li23  1  0.25018583  0.74892926  0.49998889  1
  Li  Li24  1  0.12485836  0.62524243  0.12498062  1
  Li  Li25  1  0.24378039  0.42045765  0.50062516  1
  Li  Li26  1  0.00790332  0.83016896  0.25027395  1
  Li  Li27  1  0.25547553  0.07823888  0.00008223  1
  Li  Li28  1  0.12533122  0.62475848  0.62464243  1
  Li  Li29  1  0.99397584  0.50116731  0.25032328  1
  Li  Li30  1  0.00877170  0.83044015  0.75024002  1
  Li  Li31  1  0.99918339  0.50047287  0.74990767  1
  Ti  Ti32  1  0.87048485  0.71151966  0.87361918  1
  Ti  Ti33  1  0.37812296  0.53834956  0.37539085  1
  Ti  Ti34  1  0.12823131  0.28809138  0.62510985  1
  Cr  Cr35  1  0.87617303  0.71175185  0.37504983  1
  Cr  Cr36  1  0.87393076  0.04680410  0.37457553  1
  Cr  Cr37  1  0.87853049  0.04746674  0.87581182  1
  Cr  Cr38  1  0.63237023  0.78943920  0.12467782  1
  Cr  Cr39  1  0.61861910  0.45979359  0.12511515  1
  Cr  Cr40  1  0.62719990  0.79775061  0.62542317  1
  Cr  Cr41  1  0.62280838  0.46173772  0.62463834  1
  Cr  Cr42  1  0.37192527  0.20206442  0.37415853  1
  Cr  Cr43  1  0.37131873  0.53871034  0.87509448  1
  Cr  Cr44  1  0.37792796  0.20344759  0.87595950  1
  Cr  Cr45  1  0.11900212  0.95991262  0.12533960  1
  Cr  Cr46  1  0.13101365  0.28973200  0.12468412  1
  Cr  Cr47  1  0.12402440  0.95307228  0.62474950  1
  O  O48  1  0.96567555  0.10168960  0.06862422  1
  O  O49  1  0.92105696  0.78435606  0.06886214  1
  O  O50  1  0.92597658  0.42749683  0.06847321  1
  O  O51  1  0.96429781  0.10355928  0.56878855  1
  O  O52  1  0.82901532  0.96636080  0.18143393  1
  O  O53  1  0.82356436  0.32289942  0.18172144  1
  O  O54  1  0.93598952  0.78814799  0.56896529  1
  O  O55  1  0.92254323  0.42915282  0.56777568  1
  O  O56  1  0.78434525  0.64836688  0.18140161  1
  O  O57  1  0.71377286  0.85938512  0.31919547  1
  O  O58  1  0.81540158  0.96097066  0.68127383  1
  O  O59  1  0.82162500  0.32343078  0.68304961  1
  O  O60  1  0.68046655  0.53594790  0.31834657  1
  O  O61  1  0.68303812  0.17387251  0.31702792  1
  O  O62  1  0.78364739  0.64514119  0.68036228  1
  O  O63  1  0.71262044  0.86044036  0.81847739  1
  O  O64  1  0.46588862  0.60146356  0.06882062  1
  O  O65  1  0.57706296  0.71700967  0.43114886  1
  O  O66  1  0.56452635  0.07538018  0.43206429  1
  O  O67  1  0.67496024  0.53306964  0.81912404  1
  O  O68  1  0.68549348  0.17465651  0.81786128  1
  O  O69  1  0.42807024  0.92591444  0.06814773  1
  O  O70  1  0.41812249  0.28342954  0.06877771  1
  O  O71  1  0.53621149  0.38991271  0.43133514  1
  O  O72  1  0.46574802  0.60758886  0.56933846  1
  O  O73  1  0.56771866  0.71271916  0.93126849  1
  O  O74  1  0.56662942  0.07502547  0.93299610  1
  O  O75  1  0.32361547  0.82432311  0.18160719  1
  O  O76  1  0.33072103  0.46665903  0.18123911  1
  O  O77  1  0.43268677  0.92363495  0.56714050  1
  O  O78  1  0.42892096  0.28477107  0.56833639  1
  O  O79  1  0.53744988  0.38854338  0.93134614  1
  O  O80  1  0.28408166  0.14782558  0.18118968  1
  O  O81  1  0.21438682  0.35423441  0.31870177  1
  O  O82  1  0.31540026  0.82488288  0.68196772  1
  O  O83  1  0.32787500  0.46648036  0.68117249  1
  O  O84  1  0.17166335  0.67978139  0.31759857  1
  O  O85  1  0.18580129  0.03832280  0.31849279  1
  O  O86  1  0.28666977  0.13985058  0.68164662  1
  O  O87  1  0.21713781  0.35905593  0.82014835  1
  O  O88  1  0.07351979  0.57259166  0.43327776  1
  O  O89  1  0.06377191  0.20998234  0.43099157  1
  O  O90  1  0.17399108  0.67854329  0.81619994  1
  O  O91  1  0.18537414  0.04034665  0.81888375  1
  O  O92  1  0.03514842  0.89327011  0.43010419  1
  O  O93  1  0.07979450  0.57070791  0.93263161  1
  O  O94  1  0.06393315  0.21168406  0.93136785  1
  O  O95  1  0.03453913  0.89576840  0.93135485  1
