# generated using pymatgen
data_Li3Cr2(PS4)3
_symmetry_space_group_name_H-M   'P 1'
_cell_length_a   17.50965460
_cell_length_b   10.73783634
_cell_length_c   9.70839810
_cell_angle_alpha   90.00000000
_cell_angle_beta   85.55444750
_cell_angle_gamma   90.00000000
_symmetry_Int_Tables_number   1
_chemical_formula_structural   Li3Cr2(PS4)3
_chemical_formula_sum   'Li12 Cr8 P12 S48'
_cell_volume   1819.84067197
_cell_formula_units_Z   4
loop_
 _symmetry_equiv_pos_site_id
 _symmetry_equiv_pos_as_xyz
  1  'x, y, z'
loop_
 _atom_site_type_symbol
 _atom_site_label
 _atom_site_symmetry_multiplicity
 _atom_site_fract_x
 _atom_site_fract_y
 _atom_site_fract_z
 _atom_site_occupancy
  Li  Li0  1  0.04020906  0.41968792  0.23793707  1
  Li  Li1  1  0.14897712  0.91025575  0.51333624  1
  Li  Li2  1  0.22480887  0.12649416  0.99387782  1
  Li  Li3  1  0.27519113  0.62649416  0.50612218  1
  Li  Li4  1  0.35102288  0.41025575  0.98666376  1
  Li  Li5  1  0.45979094  0.91968792  0.26206293  1
  Li  Li6  1  0.54020906  0.08031208  0.73793707  1
  Li  Li7  1  0.64897712  0.58974425  0.01333624  1
  Li  Li8  1  0.72480887  0.37350584  0.49387782  1
  Li  Li9  1  0.77519113  0.87350584  0.00612218  1
  Li  Li10  1  0.85102288  0.08974425  0.48666376  1
  Li  Li11  1  0.95979094  0.58031208  0.76206293  1
  Cr  Cr12  1  0.09852344  0.77697915  0.10215184  1
  Cr  Cr13  1  0.21366789  0.26673406  0.57458225  1
  Cr  Cr14  1  0.28633211  0.76673406  0.92541775  1
  Cr  Cr15  1  0.40147656  0.27697915  0.39784816  1
  Cr  Cr16  1  0.59852344  0.72302085  0.60215184  1
  Cr  Cr17  1  0.71366789  0.23326594  0.07458225  1
  Cr  Cr18  1  0.78633211  0.73326594  0.42541775  1
  Cr  Cr19  1  0.90147656  0.22302085  0.89784816  1
  P  P20  1  0.05611138  0.23653122  0.72974208  1
  P  P21  1  0.13197416  0.69701855  0.79311979  1
  P  P22  1  0.24951783  0.85840040  0.22881133  1
  P  P23  1  0.25048217  0.35840040  0.27118867  1
  P  P24  1  0.36802584  0.19701855  0.70688021  1
  P  P25  1  0.44388862  0.73653122  0.77025792  1
  P  P26  1  0.55611138  0.26346878  0.22974208  1
  P  P27  1  0.63197416  0.80298145  0.29311979  1
  P  P28  1  0.74951783  0.64159960  0.72881133  1
  P  P29  1  0.75048217  0.14159960  0.77118867  1
  P  P30  1  0.86802584  0.30298145  0.20688021  1
  P  P31  1  0.94388862  0.76346878  0.27025792  1
  S  S32  1  0.04281707  0.66347810  0.29545177  1
  S  S33  1  0.02266094  0.11936763  0.88789969  1
  S  S34  1  0.06100942  0.61636967  0.94512336  1
  S  S35  1  0.09902115  0.14657436  0.55174309  1
  S  S36  1  0.08106016  0.71664413  0.61852853  1
  S  S37  1  0.14485406  0.94628187  0.24054587  1
  S  S38  1  0.14205614  0.35800093  0.76454573  1
  S  S39  1  0.17773524  0.43775002  0.42366048  1
  S  S40  1  0.16220950  0.86425679  0.89047425  1
  S  S41  1  0.20590315  0.34730001  0.08600214  1
  S  S42  1  0.22368932  0.68567648  0.14071741  1
  S  S43  1  0.23823370  0.61208687  0.77295223  1
  S  S44  1  0.26176630  0.11208687  0.72704777  1
  S  S45  1  0.27631068  0.18567648  0.35928259  1
  S  S46  1  0.29409685  0.84730001  0.41399786  1
  S  S47  1  0.32226476  0.93775002  0.07633952  1
  S  S48  1  0.33779050  0.36425679  0.60952575  1
  S  S49  1  0.35514594  0.44628187  0.25945413  1
  S  S50  1  0.35794386  0.85800093  0.73545427  1
  S  S51  1  0.41893984  0.21664413  0.88147147  1
  S  S52  1  0.40097885  0.64657436  0.94825691  1
  S  S53  1  0.43899058  0.11636967  0.55487664  1
  S  S54  1  0.45718293  0.16347810  0.20454823  1
  S  S55  1  0.47733906  0.61936763  0.61210031  1
  S  S56  1  0.52266094  0.38063237  0.38789969  1
  S  S57  1  0.54281707  0.83652190  0.79545177  1
  S  S58  1  0.56100942  0.88363033  0.44512336  1
  S  S59  1  0.59902115  0.35342564  0.05174309  1
  S  S60  1  0.58106016  0.78335587  0.11852853  1
  S  S61  1  0.64205614  0.14199907  0.26454573  1
  S  S62  1  0.64485406  0.55371813  0.74054587  1
  S  S63  1  0.66220950  0.63574321  0.39047425  1
  S  S64  1  0.67773524  0.06224998  0.92366048  1
  S  S65  1  0.70590315  0.15269999  0.58600214  1
  S  S66  1  0.72368932  0.81432352  0.64071741  1
  S  S67  1  0.73823370  0.88791313  0.27295223  1
  S  S68  1  0.76176630  0.38791313  0.22704777  1
  S  S69  1  0.77631068  0.31432352  0.85928259  1
  S  S70  1  0.79409685  0.65269999  0.91399786  1
  S  S71  1  0.83779050  0.13574321  0.10952575  1
  S  S72  1  0.82226476  0.56224998  0.57633952  1
  S  S73  1  0.85794386  0.64199907  0.23545427  1
  S  S74  1  0.85514594  0.05371813  0.75945413  1
  S  S75  1  0.91893984  0.28335587  0.38147147  1
  S  S76  1  0.90097885  0.85342564  0.44825691  1
  S  S77  1  0.93899058  0.38363033  0.05487664  1
  S  S78  1  0.97733906  0.88063237  0.11210031  1
  S  S79  1  0.95718293  0.33652190  0.70454823  1
