# generated using pymatgen
data_Li14Co13O28
_symmetry_space_group_name_H-M   'P 1'
_cell_length_a   8.05935373
_cell_length_b   8.55269925
_cell_length_c   7.49918205
_cell_angle_alpha   104.52860918
_cell_angle_beta   105.43691644
_cell_angle_gamma   102.77987774
_symmetry_Int_Tables_number   1
_chemical_formula_structural   Li14Co13O28
_chemical_formula_sum   'Li14 Co13 O28'
_cell_volume   458.78553617
_cell_formula_units_Z   1
loop_
 _symmetry_equiv_pos_site_id
 _symmetry_equiv_pos_as_xyz
  1  'x, y, z'
loop_
 _atom_site_type_symbol
 _atom_site_label
 _atom_site_symmetry_multiplicity
 _atom_site_fract_x
 _atom_site_fract_y
 _atom_site_fract_z
 _atom_site_occupancy
  Li  Li0  1  0.27651318  0.20821426  0.93265564  1
  Li  Li1  1  0.07090142  0.43176666  0.85731763  1
  Li  Li2  1  0.42943662  0.07259599  0.64488675  1
  Li  Li3  1  0.21679880  0.28883200  0.57774237  1
  Li  Li4  1  0.86052527  0.65410411  0.79303910  1
  Li  Li5  1  0.00000000  0.50000000  0.50000000  1
  Li  Li6  1  0.65457633  0.86087642  0.72394518  1
  Li  Li7  1  0.34542367  0.13912358  0.27605482  1
  Li  Li8  1  0.13947473  0.34589589  0.20696090  1
  Li  Li9  1  0.78320120  0.71116800  0.42225763  1
  Li  Li10  1  0.50000000  0.00000000  0.00000000  1
  Li  Li11  1  0.57056338  0.92740401  0.35511325  1
  Li  Li12  1  0.92909858  0.56823334  0.14268237  1
  Li  Li13  1  0.72348682  0.79178574  0.06734436  1
  Co  Co14  1  0.78942091  0.21157346  0.92914648  1
  Co  Co15  1  0.57203116  0.42884775  0.85761817  1
  Co  Co16  1  0.92913100  0.07045521  0.64615660  1
  Co  Co17  1  0.35646830  0.64376835  0.78600816  1
  Co  Co18  1  0.71381537  0.28460391  0.57165078  1
  Co  Co19  1  0.13924579  0.86033657  0.71999286  1
  Co  Co20  1  0.50000000  0.50000000  0.50000000  1
  Co  Co21  1  0.86075421  0.13966343  0.28000714  1
  Co  Co22  1  0.28618463  0.71539609  0.42834922  1
  Co  Co23  1  0.64353170  0.35623165  0.21399184  1
  Co  Co24  1  0.07086900  0.92954479  0.35384340  1
  Co  Co25  1  0.42796884  0.57115225  0.14238183  1
  Co  Co26  1  0.21057909  0.78842654  0.07085352  1
  O  O27  1  0.01513807  0.21171090  0.90776682  1
  O  O28  1  0.55336964  0.23010144  0.93730583  1
  O  O29  1  0.33746404  0.44410344  0.86541741  1
  O  O30  1  0.16292911  0.05703122  0.63759743  1
  O  O31  1  0.80419492  0.41205926  0.84781198  1
  O  O32  1  0.69432510  0.08342622  0.65232176  1
  O  O33  1  0.24688023  0.97676752  0.98286786  1
  O  O34  1  0.12002739  0.65801449  0.79428693  1
  O  O35  1  0.59134061  0.62999283  0.77730047  1
  O  O36  1  0.48057746  0.30043087  0.58051215  1
  O  O37  1  0.94520094  0.26810664  0.55877839  1
  O  O38  1  0.37341211  0.84241988  0.70435171  1
  O  O39  1  0.26610083  0.51616241  0.50883984  1
  O  O40  1  0.09070168  0.13526810  0.30050364  1
  O  O41  1  0.90929832  0.86473190  0.69949636  1
  O  O42  1  0.73389917  0.48383759  0.49116016  1
  O  O43  1  0.62658789  0.15758012  0.29564829  1
  O  O44  1  0.05479906  0.73189336  0.44122161  1
  O  O45  1  0.51942254  0.69956913  0.41948685  1
  O  O46  1  0.40865939  0.37000717  0.22269953  1
  O  O47  1  0.87997261  0.34198551  0.20571307  1
  O  O48  1  0.75311977  0.02323248  0.01713214  1
  O  O49  1  0.30567490  0.91657378  0.34767824  1
  O  O50  1  0.19580508  0.58794074  0.15218802  1
  O  O51  1  0.83707089  0.94296878  0.36240257  1
  O  O52  1  0.66253596  0.55589656  0.13458259  1
  O  O53  1  0.44663036  0.76989856  0.06269417  1
  O  O54  1  0.98486193  0.78828910  0.09223318  1
