# generated using pymatgen
data_LiMnF3
_symmetry_space_group_name_H-M   'P 1'
_cell_length_a   8.90254884
_cell_length_b   5.03512438
_cell_length_c   10.77542937
_cell_angle_alpha   90.00000000
_cell_angle_beta   90.00000000
_cell_angle_gamma   90.00000000
_symmetry_Int_Tables_number   1
_chemical_formula_structural   LiMnF3
_chemical_formula_sum   'Li8 Mn8 F24'
_cell_volume   483.01337033
_cell_formula_units_Z   8
loop_
 _symmetry_equiv_pos_site_id
 _symmetry_equiv_pos_as_xyz
  1  'x, y, z'
loop_
 _atom_site_type_symbol
 _atom_site_label
 _atom_site_symmetry_multiplicity
 _atom_site_fract_x
 _atom_site_fract_y
 _atom_site_fract_z
 _atom_site_occupancy
  Li  Li0  1  0.21384219  0.00318466  0.59870025  1
  Li  Li1  1  0.21384219  0.49681534  0.09870025  1
  Li  Li2  1  0.28615781  0.00318466  0.09870025  1
  Li  Li3  1  0.28615781  0.49681534  0.59870025  1
  Li  Li4  1  0.71384219  0.50318466  0.40129975  1
  Li  Li5  1  0.71384219  0.99681534  0.90129975  1
  Li  Li6  1  0.78615781  0.50318466  0.90129975  1
  Li  Li7  1  0.78615781  0.99681534  0.40129975  1
  Mn  Mn8  1  0.08622077  0.49525524  0.36216546  1
  Mn  Mn9  1  0.08622077  0.00474476  0.86216546  1
  Mn  Mn10  1  0.41377923  0.49525524  0.86216546  1
  Mn  Mn11  1  0.41377923  0.00474476  0.36216546  1
  Mn  Mn12  1  0.58622077  0.50474476  0.13783454  1
  Mn  Mn13  1  0.58622077  0.99525524  0.63783454  1
  Mn  Mn14  1  0.91377923  0.50474476  0.63783454  1
  Mn  Mn15  1  0.91377923  0.99525524  0.13783454  1
  F  F16  1  0.08695910  0.72188583  0.19603503  1
  F  F17  1  0.08695910  0.77811417  0.69603503  1
  F  F18  1  0.09808273  0.30599883  0.54461441  1
  F  F19  1  0.09808273  0.19400117  0.04461441  1
  F  F20  1  0.25000000  0.25000000  0.27600421  1
  F  F21  1  0.25000000  0.25000000  0.77600421  1
  F  F22  1  0.25000000  0.75000000  0.45825632  1
  F  F23  1  0.25000000  0.75000000  0.95825632  1
  F  F24  1  0.40191727  0.19400117  0.54461441  1
  F  F25  1  0.40191727  0.30599883  0.04461441  1
  F  F26  1  0.41304090  0.72188583  0.69603503  1
  F  F27  1  0.41304090  0.77811417  0.19603503  1
  F  F28  1  0.58695910  0.27811417  0.30396497  1
  F  F29  1  0.58695910  0.22188583  0.80396497  1
  F  F30  1  0.59808273  0.80599883  0.45538559  1
  F  F31  1  0.59808273  0.69400117  0.95538559  1
  F  F32  1  0.75000000  0.25000000  0.04174368  1
  F  F33  1  0.75000000  0.25000000  0.54174368  1
  F  F34  1  0.75000000  0.75000000  0.22399579  1
  F  F35  1  0.75000000  0.75000000  0.72399579  1
  F  F36  1  0.90191727  0.80599883  0.95538559  1
  F  F37  1  0.90191727  0.69400117  0.45538559  1
  F  F38  1  0.91304090  0.27811417  0.80396497  1
  F  F39  1  0.91304090  0.22188583  0.30396497  1
