# generated using pymatgen
data_Li32Ti3Cr13O48
_symmetry_space_group_name_H-M   'P 1'
_cell_length_a   5.05093725
_cell_length_b   8.73635371
_cell_length_c   19.53713300
_cell_angle_alpha   98.52491739
_cell_angle_beta   94.85465397
_cell_angle_gamma   90.11996223
_symmetry_Int_Tables_number   1
_chemical_formula_structural   Li32Ti3Cr13O48
_chemical_formula_sum   'Li32 Ti3 Cr13 O48'
_cell_volume   849.43329429
_cell_formula_units_Z   1
loop_
 _symmetry_equiv_pos_site_id
 _symmetry_equiv_pos_as_xyz
  1  'x, y, z'
loop_
 _atom_site_type_symbol
 _atom_site_label
 _atom_site_symmetry_multiplicity
 _atom_site_fract_x
 _atom_site_fract_y
 _atom_site_fract_z
 _atom_site_occupancy
  Li  Li0  1  0.99387957  0.17193856  0.24996920  1
  Li  Li1  1  0.87542884  0.37623811  0.37511191  1
  Li  Li2  1  0.74891176  0.24944746  0.00018923  1
  Li  Li3  1  0.74196794  0.91872217  0.00106039  1
  Li  Li4  1  0.99380867  0.16967901  0.75039481  1
  Li  Li5  1  0.75939602  0.58057812  0.50017506  1
  Li  Li6  1  0.87729165  0.37482793  0.87436541  1
  Li  Li7  1  0.74294691  0.25242003  0.49995787  1
  Li  Li8  1  0.74482472  0.91951588  0.49989271  1
  Li  Li9  1  0.62454473  0.12534599  0.12501922  1
  Li  Li10  1  0.75793912  0.58197485  0.00060915  1
  Li  Li11  1  0.50819347  0.33238010  0.24924669  1
  Li  Li12  1  0.62553337  0.12566648  0.62514909  1
  Li  Li13  1  0.50146565  0.99882145  0.25025595  1
  Li  Li14  1  0.49210039  0.66700497  0.24965490  1
  Li  Li15  1  0.51025071  0.33159153  0.75049871  1
  Li  Li16  1  0.37721706  0.87487844  0.37453216  1
  Li  Li17  1  0.49352677  0.00237164  0.74995811  1
  Li  Li18  1  0.24645180  0.75218696  0.00025810  1
  Li  Li19  1  0.49341150  0.66853508  0.74945674  1
  Li  Li20  1  0.24123739  0.41847858  0.99982077  1
  Li  Li21  1  0.37582535  0.87586409  0.87515511  1
  Li  Li22  1  0.25644718  0.07954462  0.49987704  1
  Li  Li23  1  0.25053397  0.74771148  0.50036759  1
  Li  Li24  1  0.12520096  0.62464917  0.12499344  1
  Li  Li25  1  0.24488747  0.42120616  0.50064031  1
  Li  Li26  1  0.00700604  0.83021450  0.25085977  1
  Li  Li27  1  0.26304209  0.07948001  0.99987732  1
  Li  Li28  1  0.12718103  0.62503695  0.62445529  1
  Li  Li29  1  0.99609181  0.49999254  0.24968013  1
  Li  Li30  1  0.00733347  0.83087180  0.75029646  1
  Li  Li31  1  0.00071208  0.49805710  0.75033329  1
  Ti  Ti32  1  0.87794498  0.03903154  0.87688264  1
  Ti  Ti33  1  0.37700746  0.53892155  0.37602166  1
  Ti  Ti34  1  0.12779846  0.28903085  0.62634863  1
  Cr  Cr35  1  0.87794410  0.71181351  0.37494353  1
  Cr  Cr36  1  0.87212644  0.04710357  0.37404672  1
  Cr  Cr37  1  0.87147239  0.70318994  0.87477561  1
  Cr  Cr38  1  0.61571649  0.78851954  0.12369404  1
  Cr  Cr39  1  0.63419836  0.46100622  0.12613478  1
  Cr  Cr40  1  0.62160127  0.79663781  0.62410143  1
  Cr  Cr41  1  0.62895544  0.46171071  0.62510759  1
  Cr  Cr42  1  0.37245377  0.20316251  0.37452350  1
  Cr  Cr43  1  0.37095472  0.54698213  0.87419870  1
  Cr  Cr44  1  0.37879732  0.21187549  0.87524451  1
  Cr  Cr45  1  0.11526557  0.96026020  0.12398809  1
  Cr  Cr46  1  0.13518536  0.28991769  0.12621136  1
  Cr  Cr47  1  0.12204138  0.95295132  0.62467296  1
  O  O48  1  0.96689267  0.10185639  0.06857486  1
  O  O49  1  0.92114331  0.78211832  0.06889728  1
  O  O50  1  0.92228641  0.42477066  0.06839642  1
  O  O51  1  0.96472534  0.10274458  0.56845631  1
  O  O52  1  0.82827038  0.96169231  0.18050401  1
  O  O53  1  0.82805663  0.32011427  0.18207042  1
  O  O54  1  0.93501998  0.78758590  0.56867831  1
  O  O55  1  0.92062384  0.42848116  0.56765319  1
  O  O56  1  0.78437809  0.63896506  0.18117120  1
  O  O57  1  0.71319040  0.86097233  0.31863496  1
  O  O58  1  0.81549796  0.95981679  0.68149981  1
  O  O59  1  0.82540680  0.32157490  0.68354632  1
  O  O60  1  0.68113570  0.53674952  0.31852964  1
  O  O61  1  0.68357639  0.17443509  0.31724904  1
  O  O62  1  0.78354605  0.64205280  0.67975510  1
  O  O63  1  0.71473849  0.85310390  0.81870967  1
  O  O64  1  0.46431244  0.61009713  0.06831746  1
  O  O65  1  0.57611847  0.71687141  0.43110298  1
  O  O66  1  0.56454125  0.07546315  0.43197652  1
  O  O67  1  0.68447296  0.53762550  0.81868979  1
  O  O68  1  0.67030219  0.17841512  0.81788153  1
  O  O69  1  0.42208000  0.92965730  0.06799837  1
  O  O70  1  0.42342320  0.28842002  0.06965412  1
  O  O71  1  0.53661977  0.39024343  0.43124391  1
  O  O72  1  0.46350412  0.61084435  0.56877309  1
  O  O73  1  0.56520466  0.70961523  0.93134542  1
  O  O74  1  0.57489203  0.07178398  0.93392183  1
  O  O75  1  0.32839508  0.82496138  0.18128062  1
  O  O76  1  0.32782975  0.46795561  0.18115409  1
  O  O77  1  0.43317886  0.92461996  0.56738584  1
  O  O78  1  0.43111054  0.28685792  0.56867790  1
  O  O79  1  0.53230624  0.39209640  0.93010484  1
  O  O80  1  0.28476731  0.14843692  0.18149284  1
  O  O81  1  0.21476427  0.35319167  0.31860639  1
  O  O82  1  0.31452938  0.82536875  0.68207392  1
  O  O83  1  0.32577165  0.46716496  0.68118084  1
  O  O84  1  0.17046637  0.67854496  0.31725173  1
  O  O85  1  0.18516793  0.03754809  0.31834776  1
  O  O86  1  0.28656443  0.14017170  0.68135291  1
  O  O87  1  0.21368549  0.36082666  0.81884592  1
  O  O88  1  0.07513925  0.57178480  0.43339312  1
  O  O89  1  0.06572639  0.21014812  0.43135876  1
  O  O90  1  0.18271803  0.67495277  0.81744168  1
  O  O91  1  0.18065330  0.03689308  0.81889795  1
  O  O92  1  0.03352179  0.89236746  0.42959985  1
  O  O93  1  0.06404918  0.57533193  0.93210238  1
  O  O94  1  0.07505367  0.21716592  0.93159898  1
  O  O95  1  0.03657954  0.89019102  0.93161345  1
