# generated using pymatgen
data_Rb2MgO2
_symmetry_space_group_name_H-M   'P 1'
_cell_length_a   9.78014140
_cell_length_b   6.48934807
_cell_length_c   16.20919916
_cell_angle_alpha   90.00000000
_cell_angle_beta   118.31391992
_cell_angle_gamma   90.00000000
_symmetry_Int_Tables_number   1
_chemical_formula_structural   Rb2MgO2
_chemical_formula_sum   'Rb16 Mg8 O16'
_cell_volume   905.66820827
_cell_formula_units_Z   8
loop_
 _symmetry_equiv_pos_site_id
 _symmetry_equiv_pos_as_xyz
  1  'x, y, z'
loop_
 _atom_site_type_symbol
 _atom_site_label
 _atom_site_symmetry_multiplicity
 _atom_site_fract_x
 _atom_site_fract_y
 _atom_site_fract_z
 _atom_site_occupancy
  Rb  Rb0  1  0.14731065  0.66794540  0.97057212  1
  Rb  Rb1  1  0.07948941  0.12877730  0.83501655  1
  Rb  Rb2  1  0.31936536  0.91588248  0.74003062  1
  Rb  Rb3  1  0.43153607  0.43484459  0.87903573  1
  Rb  Rb4  1  0.14731065  0.83205460  0.47057212  1
  Rb  Rb5  1  0.07948941  0.37122270  0.33501655  1
  Rb  Rb6  1  0.56846393  0.93484459  0.62096427  1
  Rb  Rb7  1  0.68063464  0.41588248  0.75996938  1
  Rb  Rb8  1  0.31936536  0.58411752  0.24003062  1
  Rb  Rb9  1  0.43153607  0.06515541  0.37903573  1
  Rb  Rb10  1  0.92051059  0.62877730  0.66498345  1
  Rb  Rb11  1  0.85268935  0.16794540  0.52942788  1
  Rb  Rb12  1  0.56846393  0.56515541  0.12096427  1
  Rb  Rb13  1  0.68063464  0.08411752  0.25996938  1
  Rb  Rb14  1  0.92051059  0.87122270  0.16498345  1
  Rb  Rb15  1  0.85268935  0.33205460  0.02942788  1
  Mg  Mg16  1  0.24328574  0.37149383  0.62739698  1
  Mg  Mg17  1  0.58812377  0.95016308  0.95967653  1
  Mg  Mg18  1  0.41187623  0.45016308  0.54032347  1
  Mg  Mg19  1  0.75671426  0.87149383  0.87260302  1
  Mg  Mg20  1  0.24328574  0.12850617  0.12739698  1
  Mg  Mg21  1  0.58812377  0.54983692  0.45967653  1
  Mg  Mg22  1  0.41187623  0.04983692  0.04032347  1
  Mg  Mg23  1  0.75671426  0.62850617  0.37260302  1
  O  O24  1  0.13779417  0.30439193  0.69671372  1
  O  O25  1  0.37111334  0.87150521  0.92967472  1
  O  O26  1  0.26008192  0.22526547  0.52732463  1
  O  O27  1  0.38306163  0.59791349  0.64222183  1
  O  O28  1  0.61693837  0.09791349  0.85777817  1
  O  O29  1  0.73991808  0.72526547  0.97267537  1
  O  O30  1  0.13779417  0.19560807  0.19671372  1
  O  O31  1  0.37111334  0.62849479  0.42967472  1
  O  O32  1  0.62888666  0.37150521  0.57032528  1
  O  O33  1  0.86220583  0.80439193  0.80328628  1
  O  O34  1  0.26008192  0.27473453  0.02732463  1
  O  O35  1  0.38306163  0.90208651  0.14222183  1
  O  O36  1  0.61693837  0.40208651  0.35777817  1
  O  O37  1  0.73991808  0.77473453  0.47267537  1
  O  O38  1  0.62888666  0.12849479  0.07032528  1
  O  O39  1  0.86220583  0.69560807  0.30328628  1
