# generated using pymatgen
data_Li2Cr3TeO8
_symmetry_space_group_name_H-M   'P 1'
_cell_length_a   5.99185751
_cell_length_b   5.99184125
_cell_length_c   9.77148742
_cell_angle_alpha   89.99942718
_cell_angle_beta   90.00028102
_cell_angle_gamma   119.99991690
_symmetry_Int_Tables_number   1
_chemical_formula_structural   Li2Cr3TeO8
_chemical_formula_sum   'Li4 Cr6 Te2 O16'
_cell_volume   303.81796346
_cell_formula_units_Z   2
loop_
 _symmetry_equiv_pos_site_id
 _symmetry_equiv_pos_as_xyz
  1  'x, y, z'
loop_
 _atom_site_type_symbol
 _atom_site_label
 _atom_site_symmetry_multiplicity
 _atom_site_fract_x
 _atom_site_fract_y
 _atom_site_fract_z
 _atom_site_occupancy
  Li  Li0  1  0.33331728  0.66667135  0.90521092  1
  Li  Li1  1  0.00001382  0.00002028  0.99158100  1
  Li  Li2  1  0.99998618  0.00000646  0.49158100  1
  Li  Li3  1  0.66668272  0.33335406  0.40521092  1
  Cr  Cr4  1  0.16967408  0.83032732  0.21496756  1
  Cr  Cr5  1  0.16965063  0.33937050  0.21496922  1
  Cr  Cr6  1  0.66067158  0.83033108  0.21499569  1
  Cr  Cr7  1  0.33932842  0.16966049  0.71499569  1
  Cr  Cr8  1  0.83032592  0.66065324  0.71496756  1
  Cr  Cr9  1  0.83034937  0.16971888  0.71496922  1
  Te  Te10  1  0.33331649  0.66667276  0.48939033  1
  Te  Te11  1  0.66668351  0.33335727  0.98939033  1
  O  O12  1  0.16017821  0.83982110  0.59670437  1
  O  O13  1  0.03304657  0.51653387  0.33805778  1
  O  O14  1  0.33332760  0.66667098  0.11031753  1
  O  O15  1  0.00000470  0.00000569  0.30819504  1
  O  O16  1  0.99999530  0.00000099  0.80819504  1
  O  O17  1  0.16018092  0.32037762  0.59670785  1
  O  O18  1  0.48348068  0.96699110  0.33805310  1
  O  O19  1  0.48347087  0.51650927  0.33805910  1
  O  O20  1  0.32036142  0.16019452  0.09671052  1
  O  O21  1  0.67963858  0.83983410  0.59671052  1
  O  O22  1  0.51651932  0.48351042  0.83805310  1
  O  O23  1  0.51652913  0.03303840  0.83805910  1
  O  O24  1  0.66667240  0.33334237  0.61031753  1
  O  O25  1  0.83982179  0.67964288  0.09670437  1
  O  O26  1  0.96695343  0.48348729  0.83805778  1
  O  O27  1  0.83981908  0.16019670  0.09670785  1
