# generated using pymatgen
data_Li32Ti3Cr13O48
_symmetry_space_group_name_H-M   'P 1'
_cell_length_a   5.06372720
_cell_length_b   8.73273709
_cell_length_c   19.55448794
_cell_angle_alpha   98.39642919
_cell_angle_beta   94.94190430
_cell_angle_gamma   90.07561828
_symmetry_Int_Tables_number   1
_chemical_formula_structural   Li32Ti3Cr13O48
_chemical_formula_sum   'Li32 Ti3 Cr13 O48'
_cell_volume   852.17018153
_cell_formula_units_Z   1
loop_
 _symmetry_equiv_pos_site_id
 _symmetry_equiv_pos_as_xyz
  1  'x, y, z'
loop_
 _atom_site_type_symbol
 _atom_site_label
 _atom_site_symmetry_multiplicity
 _atom_site_fract_x
 _atom_site_fract_y
 _atom_site_fract_z
 _atom_site_occupancy
  Li  Li0  1  0.99223033  0.16989454  0.24907029  1
  Li  Li1  1  0.87314065  0.37510225  0.37564070  1
  Li  Li2  1  0.74678776  0.25227257  0.00024928  1
  Li  Li3  1  0.74282547  0.92148334  0.00021768  1
  Li  Li4  1  0.99131722  0.16999103  0.74979839  1
  Li  Li5  1  0.75446521  0.57839061  0.50003575  1
  Li  Li6  1  0.87303886  0.37523057  0.87571087  1
  Li  Li7  1  0.74199995  0.25313727  0.50045567  1
  Li  Li8  1  0.74489718  0.92197833  0.50042506  1
  Li  Li9  1  0.62453691  0.12715990  0.12538591  1
  Li  Li10  1  0.75403003  0.57872055  0.00003747  1
  Li  Li11  1  0.51049027  0.33314789  0.24999512  1
  Li  Li12  1  0.62548751  0.12609529  0.62516616  1
  Li  Li13  1  0.50224558  0.99960491  0.25047754  1
  Li  Li14  1  0.48458702  0.66638636  0.24953034  1
  Li  Li15  1  0.51546156  0.33416398  0.75062178  1
  Li  Li16  1  0.37435541  0.87387625  0.37474768  1
  Li  Li17  1  0.50019440  0.99986660  0.75003185  1
  Li  Li18  1  0.25740643  0.74743103  0.99974955  1
  Li  Li19  1  0.48523701  0.66593961  0.74941809  1
  Li  Li20  1  0.24448799  0.42117796  0.00022306  1
  Li  Li21  1  0.37446453  0.87430743  0.87481833  1
  Li  Li22  1  0.25495202  0.07791057  0.49935358  1
  Li  Li23  1  0.25828792  0.74678035  0.49928484  1
  Li  Li24  1  0.12680142  0.62260421  0.12452336  1
  Li  Li25  1  0.24571606  0.42134051  0.49976139  1
  Li  Li26  1  0.00917589  0.83061962  0.25033300  1
  Li  Li27  1  0.25531162  0.07903424  0.00007692  1
  Li  Li28  1  0.12590288  0.62447164  0.62432994  1
  Li  Li29  1  0.00314327  0.49950064  0.24937262  1
  Li  Li30  1  0.00846361  0.82992101  0.75029932  1
  Li  Li31  1  0.99964506  0.49988083  0.74998983  1
  Ti  Ti32  1  0.87227519  0.71080100  0.37371184  1
  Ti  Ti33  1  0.87149981  0.71118562  0.87364941  1
  Ti  Ti34  1  0.12762826  0.28888392  0.62546396  1
  Cr  Cr35  1  0.87699163  0.04724169  0.37516709  1
  Cr  Cr36  1  0.87806587  0.04731569  0.87536603  1
  Cr  Cr37  1  0.62409259  0.79727547  0.12463360  1
  Cr  Cr38  1  0.62805954  0.46200587  0.12520778  1
  Cr  Cr39  1  0.62465520  0.79752189  0.62482059  1
  Cr  Cr40  1  0.62657764  0.46234745  0.62510091  1
  Cr  Cr41  1  0.37191089  0.53776199  0.37473014  1
  Cr  Cr42  1  0.37659895  0.20263017  0.37557828  1
  Cr  Cr43  1  0.37064223  0.53849672  0.87485283  1
  Cr  Cr44  1  0.37826810  0.20350400  0.87601031  1
  Cr  Cr45  1  0.12388796  0.95182246  0.12492931  1
  Cr  Cr46  1  0.12763960  0.28764234  0.12550795  1
  Cr  Cr47  1  0.12371297  0.95288385  0.62469345  1
  O  O48  1  0.96740342  0.10464590  0.06976866  1
  O  O49  1  0.93470482  0.78825248  0.06843511  1
  O  O50  1  0.91808036  0.42687527  0.06812557  1
  O  O51  1  0.96362915  0.10305670  0.56865871  1
  O  O52  1  0.81442341  0.96144457  0.18153453  1
  O  O53  1  0.83178284  0.32241014  0.18253844  1
  O  O54  1  0.93637693  0.78775229  0.56877030  1
  O  O55  1  0.92073745  0.42830322  0.56771257  1
  O  O56  1  0.78280534  0.64389042  0.18019531  1
  O  O57  1  0.71272768  0.86007622  0.31846473  1
  O  O58  1  0.81574487  0.96087978  0.68166394  1
  O  O59  1  0.82418768  0.32212584  0.68337433  1
  O  O60  1  0.67337205  0.53357397  0.31878851  1
  O  O61  1  0.68621049  0.17490304  0.31780321  1
  O  O62  1  0.78299772  0.64397722  0.68021238  1
  O  O63  1  0.71231337  0.85987788  0.81853791  1
  O  O64  1  0.46233692  0.61040161  0.06922086  1
  O  O65  1  0.56941439  0.71369753  0.43131481  1
  O  O66  1  0.56557264  0.07565066  0.43269992  1
  O  O67  1  0.67452693  0.53299476  0.81901371  1
  O  O68  1  0.68591569  0.17458309  0.81784246  1
  O  O69  1  0.43614102  0.92502961  0.06745733  1
  O  O70  1  0.42128416  0.28687386  0.06913618  1
  O  O71  1  0.53734124  0.38926483  0.43098420  1
  O  O72  1  0.46480574  0.60898916  0.56932583  1
  O  O73  1  0.56848322  0.71309505  0.93117861  1
  O  O74  1  0.56547823  0.07509210  0.93273723  1
  O  O75  1  0.31612844  0.82627120  0.18251707  1
  O  O76  1  0.32805621  0.46503972  0.18116626  1
  O  O77  1  0.43401155  0.92357191  0.56724281  1
  O  O78  1  0.42896558  0.28496545  0.56831514  1
  O  O79  1  0.53690000  0.38865565  0.93130241  1
  O  O80  1  0.28488549  0.14120586  0.18096031  1
  O  O81  1  0.21735288  0.35750577  0.32025960  1
  O  O82  1  0.31394991  0.82506921  0.68202380  1
  O  O83  1  0.32771332  0.46601979  0.68133527  1
  O  O84  1  0.17417157  0.67860625  0.31621567  1
  O  O85  1  0.18483729  0.03962307  0.31838707  1
  O  O86  1  0.28689227  0.14027606  0.68156205  1
  O  O87  1  0.21665970  0.35914368  0.81993054  1
  O  O88  1  0.08031982  0.57143021  0.43236652  1
  O  O89  1  0.06353124  0.21203245  0.43134077  1
  O  O90  1  0.17335269  0.67924033  0.81617586  1
  O  O91  1  0.18495677  0.04053087  0.81856338  1
  O  O92  1  0.03602477  0.89670196  0.43118900  1
  O  O93  1  0.08030627  0.57100493  0.93239363  1
  O  O94  1  0.06327154  0.21210601  0.93126578  1
  O  O95  1  0.03532452  0.89654140  0.93143785  1
