# generated using pymatgen
data_Li32Mn3Cr13O48
_symmetry_space_group_name_H-M   'P 1'
_cell_length_a   5.03147072
_cell_length_b   8.71141394
_cell_length_c   19.49499498
_cell_angle_alpha   98.09066667
_cell_angle_beta   94.83812371
_cell_angle_gamma   89.62602672
_symmetry_Int_Tables_number   1
_chemical_formula_structural   Li32Mn3Cr13O48
_chemical_formula_sum   'Li32 Mn3 Cr13 O48'
_cell_volume   842.95777684
_cell_formula_units_Z   1
loop_
 _symmetry_equiv_pos_site_id
 _symmetry_equiv_pos_as_xyz
  1  'x, y, z'
loop_
 _atom_site_type_symbol
 _atom_site_label
 _atom_site_symmetry_multiplicity
 _atom_site_fract_x
 _atom_site_fract_y
 _atom_site_fract_z
 _atom_site_occupancy
  Li  Li0  1  0.99012377  0.16733053  0.24931985  1
  Li  Li1  1  0.87381861  0.37422037  0.37504633  1
  Li  Li2  1  0.75084979  0.24906226  0.99935279  1
  Li  Li3  1  0.74078551  0.91956270  0.00009267  1
  Li  Li4  1  0.99171444  0.16905187  0.74917450  1
  Li  Li5  1  0.75199890  0.57972752  0.49958524  1
  Li  Li6  1  0.87457479  0.37515131  0.87506562  1
  Li  Li7  1  0.75155801  0.24890511  0.50042733  1
  Li  Li8  1  0.74156231  0.92137865  0.49957207  1
  Li  Li9  1  0.62324190  0.12329548  0.12518179  1
  Li  Li10  1  0.75612418  0.57979566  0.99987002  1
  Li  Li11  1  0.50774384  0.33028482  0.25033858  1
  Li  Li12  1  0.62494082  0.12764078  0.62530070  1
  Li  Li13  1  0.49902612  0.00041325  0.24962530  1
  Li  Li14  1  0.49000455  0.66981091  0.25010671  1
  Li  Li15  1  0.50787085  0.33001547  0.74941063  1
  Li  Li16  1  0.37471009  0.87488741  0.37502554  1
  Li  Li17  1  0.49893284  0.00149626  0.75011180  1
  Li  Li18  1  0.24793645  0.74979600  0.00050528  1
  Li  Li19  1  0.49460740  0.66894500  0.75027154  1
  Li  Li20  1  0.24343378  0.42079810  -0.00002037  1
  Li  Li21  1  0.37627960  0.87639048  0.87494078  1
  Li  Li22  1  0.25801790  0.08173934  0.50043800  1
  Li  Li23  1  0.25142858  0.74879689  0.49973347  1
  Li  Li24  1  0.12706382  0.62654459  0.12479826  1
  Li  Li25  1  0.24680354  0.41984132  0.50076725  1
  Li  Li26  1  0.01108623  0.83233204  0.25037526  1
  Li  Li27  1  0.26083428  0.08002377  0.00000334  1
  Li  Li28  1  0.12725661  0.62321798  0.62466241  1
  Li  Li29  1  0.00220272  0.50080962  0.25059322  1
  Li  Li30  1  0.00627319  0.83158173  0.75085838  1
  Li  Li31  1  0.99941894  0.49819540  0.74975849  1
  Mn  Mn32  1  0.87320479  0.70739460  0.87456339  1
  Mn  Mn33  1  0.37496294  0.54196208  0.37500296  1
  Mn  Mn34  1  0.12857935  0.29022698  0.62591037  1
  Cr  Cr35  1  0.86856272  0.70525941  0.37453598  1
  Cr  Cr36  1  0.87987399  0.03854876  0.37518667  1
  Cr  Cr37  1  0.87960407  0.03802711  0.87469814  1
  Cr  Cr38  1  0.62966577  0.78802081  0.12464102  1
  Cr  Cr39  1  0.62293320  0.45226658  0.12394914  1
  Cr  Cr40  1  0.62191597  0.79708989  0.62391207  1
  Cr  Cr41  1  0.63089338  0.46009484  0.62521314  1
  Cr  Cr42  1  0.37184373  0.21221098  0.37534525  1
  Cr  Cr43  1  0.37777716  0.54601389  0.87541944  1
  Cr  Cr44  1  0.37198023  0.21213928  0.87524383  1
  Cr  Cr45  1  0.11976026  0.96170415  0.12539014  1
  Cr  Cr46  1  0.12839120  0.29764929  0.12616354  1
  Cr  Cr47  1  0.12123900  0.95356291  0.62458839  1
  O  O48  1  0.96934106  0.10595932  0.06967908  1
  O  O49  1  0.91850869  0.78419483  0.06859177  1
  O  O50  1  0.93458678  0.42252676  0.06730608  1
  O  O51  1  0.96652923  0.10746574  0.56978569  1
  O  O52  1  0.83117671  0.96597653  0.18134371  1
  O  O53  1  0.81597247  0.32710727  0.18283376  1
  O  O54  1  0.93528704  0.78906635  0.56821197  1
  O  O55  1  0.92514475  0.42604737  0.56844570  1
  O  O56  1  0.78120433  0.64358931  0.18011915  1
  O  O57  1  0.71873152  0.85236946  0.31866840  1
  O  O58  1  0.81330111  0.95924615  0.68131575  1
  O  O59  1  0.82780092  0.31955114  0.68267757  1
  O  O60  1  0.67551171  0.53441347  0.31887872  1
  O  O61  1  0.67228885  0.17655440  0.31790133  1
  O  O62  1  0.77931625  0.64113474  0.68003738  1
  O  O63  1  0.71015967  0.85284715  0.81865682  1
  O  O64  1  0.46303183  0.60212410  0.06880249  1
  O  O65  1  0.56845944  0.71407653  0.43062412  1
  O  O66  1  0.57695516  0.07417393  0.43212225  1
  O  O67  1  0.68325486  0.53583708  0.81900581  1
  O  O68  1  0.67291687  0.17539704  0.81829439  1
  O  O69  1  0.42621574  0.92669427  0.06800821  1
  O  O70  1  0.43760556  0.28738757  0.06880914  1
  O  O71  1  0.53895675  0.39697949  0.43124568  1
  O  O72  1  0.46428427  0.61055606  0.56877006  1
  O  O73  1  0.57230697  0.71387482  0.93053752  1
  O  O74  1  0.57714362  0.07231050  0.93230162  1
  O  O75  1  0.32406091  0.82348644  0.18181288  1
  O  O76  1  0.31316257  0.46271059  0.18134866  1
  O  O77  1  0.43394871  0.92510678  0.56694627  1
  O  O78  1  0.42791446  0.28695630  0.56958129  1
  O  O79  1  0.53320916  0.39661127  0.93126976  1
  O  O80  1  0.28623133  0.14798138  0.18125338  1
  O  O81  1  0.21449182  0.35814314  0.31936067  1
  O  O82  1  0.31460971  0.82710137  0.68255033  1
  O  O83  1  0.32141333  0.46397671  0.68094104  1
  O  O84  1  0.18122800  0.67752305  0.31786650  1
  O  O85  1  0.16898209  0.03606016  0.31877367  1
  O  O86  1  0.28693901  0.14242684  0.68063345  1
  O  O87  1  0.21936059  0.35769324  0.81954225  1
  O  O88  1  0.07356897  0.57390200  0.43151969  1
  O  O89  1  0.08179051  0.21482458  0.43123890  1
  O  O90  1  0.17584845  0.67628358  0.81819543  1
  O  O91  1  0.16812443  0.03553952  0.81872761  1
  O  O92  1  0.03221851  0.89413505  0.43113866  1
  O  O93  1  0.06781926  0.57312827  0.93212708  1
  O  O94  1  0.08139395  0.21358701  0.93149553  1
  O  O95  1  0.03428297  0.89214717  0.93064653  1
