# generated using pymatgen
data_Gd2(WO4)3
_symmetry_space_group_name_H-M   'P 1'
_cell_length_a   10.25675224
_cell_length_b   10.37139439
_cell_length_c   14.26737006
_cell_angle_alpha   90.00000000
_cell_angle_beta   90.39250510
_cell_angle_gamma   90.00000000
_symmetry_Int_Tables_number   1
_chemical_formula_structural   Gd2(WO4)3
_chemical_formula_sum   'Gd8 W12 O48'
_cell_volume   1517.68188108
_cell_formula_units_Z   4
loop_
 _symmetry_equiv_pos_site_id
 _symmetry_equiv_pos_as_xyz
  1  'x, y, z'
loop_
 _atom_site_type_symbol
 _atom_site_label
 _atom_site_symmetry_multiplicity
 _atom_site_fract_x
 _atom_site_fract_y
 _atom_site_fract_z
 _atom_site_occupancy
  Gd  Gd0  1  0.24797213  0.97061599  0.88141348  1
  Gd  Gd1  1  0.24414764  0.03372733  0.38192348  1
  Gd  Gd2  1  0.25585236  0.53372733  0.11807652  1
  Gd  Gd3  1  0.25202787  0.47061599  0.61858652  1
  Gd  Gd4  1  0.74797213  0.52938401  0.38141348  1
  Gd  Gd5  1  0.74414764  0.46627267  0.88192348  1
  Gd  Gd6  1  0.75585236  0.96627267  0.61807652  1
  Gd  Gd7  1  0.75202787  0.02938401  0.11858652  1
  W  W8  1  0.02597401  0.74875493  0.50006656  1
  W  W9  1  0.10330053  0.61958867  0.85669676  1
  W  W10  1  0.10733997  0.87990308  0.14268808  1
  W  W11  1  0.39266003  0.37990308  0.35731192  1
  W  W12  1  0.39669947  0.11958867  0.64330324  1
  W  W13  1  0.47402599  0.24875493  0.99993344  1
  W  W14  1  0.52597401  0.75124507  0.00006656  1
  W  W15  1  0.60330053  0.88041133  0.35669676  1
  W  W16  1  0.60733997  0.62009692  0.64268808  1
  W  W17  1  0.89266003  0.12009692  0.85731192  1
  W  W18  1  0.89669947  0.38041133  0.14330324  1
  W  W19  1  0.97402599  0.25124507  0.49993344  1
  O  O20  1  0.06755690  0.09893026  0.86778930  1
  O  O21  1  0.07608960  0.34287450  0.58002208  1
  O  O22  1  0.07546167  0.17638141  0.41197174  1
  O  O23  1  0.07068931  0.41013286  0.13720566  1
  O  O24  1  0.11186005  0.87256725  0.43558155  1
  O  O25  1  0.13292297  0.78931275  0.83379207  1
  O  O26  1  0.14264985  0.71198865  0.16762102  1
  O  O27  1  0.14230970  0.64271312  0.55677014  1
  O  O28  1  0.16935266  0.98094265  0.23652356  1
  O  O29  1  0.17484168  0.52256601  0.76442429  1
  O  O30  1  0.17937882  0.57811758  0.96748719  1
  O  O31  1  0.18343907  0.92597344  0.03384368  1
  O  O32  1  0.31656093  0.42597344  0.46615632  1
  O  O33  1  0.32062118  0.07811758  0.53251281  1
  O  O34  1  0.32515832  0.02256601  0.73557571  1
  O  O35  1  0.33064734  0.48094265  0.26347644  1
  O  O36  1  0.35769030  0.14271312  0.94322986  1
  O  O37  1  0.35735015  0.21198865  0.33237898  1
  O  O38  1  0.36707703  0.28931275  0.66620793  1
  O  O39  1  0.38813995  0.37256725  0.06441845  1
  O  O40  1  0.42391040  0.84287450  0.91997792  1
  O  O41  1  0.42931069  0.91013286  0.36279434  1
  O  O42  1  0.42453833  0.67638141  0.08802826  1
  O  O43  1  0.43244310  0.59893026  0.63221070  1
  O  O44  1  0.56755690  0.40106974  0.36778930  1
  O  O45  1  0.57546167  0.32361859  0.91197174  1
  O  O46  1  0.57068931  0.08986714  0.63720566  1
  O  O47  1  0.57608960  0.15712550  0.08002208  1
  O  O48  1  0.61186005  0.62743275  0.93558155  1
  O  O49  1  0.63292297  0.71068725  0.33379207  1
  O  O50  1  0.64264985  0.78801135  0.66762102  1
  O  O51  1  0.64230970  0.85728688  0.05677014  1
  O  O52  1  0.66935266  0.51905735  0.73652356  1
  O  O53  1  0.67484168  0.97743399  0.26442429  1
  O  O54  1  0.67937882  0.92188242  0.46748719  1
  O  O55  1  0.68343907  0.57402656  0.53384368  1
  O  O56  1  0.81656093  0.07402656  0.96615632  1
  O  O57  1  0.82062118  0.42188242  0.03251281  1
  O  O58  1  0.82515832  0.47743399  0.23557571  1
  O  O59  1  0.83064734  0.01905735  0.76347644  1
  O  O60  1  0.85769030  0.35728688  0.44322986  1
  O  O61  1  0.85735015  0.28801135  0.83237898  1
  O  O62  1  0.86707703  0.21068725  0.16620793  1
  O  O63  1  0.88813995  0.12743275  0.56441845  1
  O  O64  1  0.92931069  0.58986714  0.86279434  1
  O  O65  1  0.92453833  0.82361859  0.58802826  1
  O  O66  1  0.92391040  0.65712550  0.41997792  1
  O  O67  1  0.93244310  0.90106974  0.13221070  1
