# generated using pymatgen
data_LiVP4(H2O7)2
_symmetry_space_group_name_H-M   'P 1'
_cell_length_a   5.15723266
_cell_length_b   7.13161759
_cell_length_c   7.98799392
_cell_angle_alpha   82.09681243
_cell_angle_beta   81.46507890
_cell_angle_gamma   70.62183065
_symmetry_Int_Tables_number   1
_chemical_formula_structural   LiVP4(H2O7)2
_chemical_formula_sum   'Li1 V1 P4 H4 O14'
_cell_volume   272.85152017
_cell_formula_units_Z   1
loop_
 _symmetry_equiv_pos_site_id
 _symmetry_equiv_pos_as_xyz
  1  'x, y, z'
loop_
 _atom_site_type_symbol
 _atom_site_label
 _atom_site_symmetry_multiplicity
 _atom_site_fract_x
 _atom_site_fract_y
 _atom_site_fract_z
 _atom_site_occupancy
  Li  Li0  1  0.00000000  0.00000000  0.00000000  1
  V  V1  1  0.00000000  0.50000000  0.00000000  1
  P  P2  1  0.32419341  0.21869116  0.30739633  1
  P  P3  1  0.38538869  0.62674168  0.22864270  1
  P  P4  1  0.61461131  0.37325832  0.77135730  1
  P  P5  1  0.67580659  0.78130884  0.69260367  1
  H  H6  1  0.09645178  0.79799068  0.43209968  1
  H  H7  1  0.69733122  0.98422231  0.37794960  1
  H  H8  1  0.30266878  0.01577769  0.62205040  1
  H  H9  1  0.90354822  0.20200932  0.56790032  1
  O  O10  1  0.17465585  0.24815056  0.14997288  1
  O  O11  1  0.18420244  0.15138474  0.47386412  1
  O  O12  1  0.20647464  0.68148987  0.08084113  1
  O  O13  1  0.30891596  0.40342553  0.81957934  1
  O  O14  1  0.34365965  0.43145105  0.33925712  1
  O  O15  1  0.28247520  0.78565544  0.35850469  1
  O  O16  1  0.62880035  0.07751876  0.27065430  1
  O  O17  1  0.37119965  0.92248124  0.72934570  1
  O  O18  1  0.71752480  0.21434456  0.64149531  1
  O  O19  1  0.65634035  0.56854895  0.66074288  1
  O  O20  1  0.69108404  0.59657447  0.18042066  1
  O  O21  1  0.79352536  0.31851013  0.91915887  1
  O  O22  1  0.81579756  0.84861526  0.52613588  1
  O  O23  1  0.82534415  0.75184944  0.85002712  1
