# generated using pymatgen
data_Be2P2O7
_symmetry_space_group_name_H-M   'P 1'
_cell_length_a   4.61241609
_cell_length_b   13.22929272
_cell_length_c   15.95900289
_cell_angle_alpha   90.00000000
_cell_angle_beta   90.00000000
_cell_angle_gamma   90.00000000
_symmetry_Int_Tables_number   1
_chemical_formula_structural   Be2P2O7
_chemical_formula_sum   'Be16 P16 O56'
_cell_volume   973.80243886
_cell_formula_units_Z   8
loop_
 _symmetry_equiv_pos_site_id
 _symmetry_equiv_pos_as_xyz
  1  'x, y, z'
loop_
 _atom_site_type_symbol
 _atom_site_label
 _atom_site_symmetry_multiplicity
 _atom_site_fract_x
 _atom_site_fract_y
 _atom_site_fract_z
 _atom_site_occupancy
  Be  Be0  1  0.15455681  0.46647867  0.07273935  1
  Be  Be1  1  0.15455681  0.03352133  0.57273935  1
  Be  Be2  1  0.15455681  0.46647867  0.42726065  1
  Be  Be3  1  0.15455681  0.03352133  0.92726065  1
  Be  Be4  1  0.24514393  0.19628696  0.17630903  1
  Be  Be5  1  0.24514393  0.19628696  0.32369097  1
  Be  Be6  1  0.24514393  0.30371304  0.67630903  1
  Be  Be7  1  0.24514393  0.30371304  0.82369097  1
  Be  Be8  1  0.75485607  0.69628696  0.17630903  1
  Be  Be9  1  0.75485607  0.69628696  0.32369097  1
  Be  Be10  1  0.75485607  0.80371304  0.67630903  1
  Be  Be11  1  0.75485607  0.80371304  0.82369097  1
  Be  Be12  1  0.84544319  0.96647867  0.07273935  1
  Be  Be13  1  0.84544319  0.96647867  0.42726065  1
  Be  Be14  1  0.84544319  0.53352133  0.57273935  1
  Be  Be15  1  0.84544319  0.53352133  0.92726065  1
  P  P16  1  0.03201014  -0.00005687  0.25000000  1
  P  P17  1  0.03201014  0.50005687  0.75000000  1
  P  P18  1  0.22069992  0.79258323  0.25000000  1
  P  P19  1  0.22069992  0.70741677  0.75000000  1
  P  P20  1  0.44365058  0.64404419  0.01697860  1
  P  P21  1  0.44365058  0.64404419  0.48302140  1
  P  P22  1  0.44365058  0.85595581  0.51697860  1
  P  P23  1  0.44365058  0.85595581  0.98302140  1
  P  P24  1  0.55634942  0.14404419  0.01697860  1
  P  P25  1  0.55634942  0.14404419  0.48302140  1
  P  P26  1  0.55634942  0.35595581  0.51697860  1
  P  P27  1  0.55634942  0.35595581  0.98302140  1
  P  P28  1  0.77930008  0.29258323  0.25000000  1
  P  P29  1  0.77930008  0.20741677  0.75000000  1
  P  P30  1  0.96798986  0.49994313  0.25000000  1
  P  P31  1  0.96798986  0.00005687  0.75000000  1
  O  O32  1  0.05494526  0.76197231  0.17108756  1
  O  O33  1  0.05494526  0.76197231  0.32891244  1
  O  O34  1  0.05494526  0.73802769  0.67108756  1
  O  O35  1  0.05494526  0.73802769  0.82891244  1
  O  O36  1  0.13184563  0.48720044  0.16897510  1
  O  O37  1  0.13184563  0.48720044  0.33102490  1
  O  O38  1  0.13184563  0.01279956  0.66897510  1
  O  O39  1  0.13184563  0.01279956  0.83102490  1
  O  O40  1  0.19557004  0.93501469  0.98666065  1
  O  O41  1  0.19557004  0.56498531  0.48666065  1
  O  O42  1  0.19557004  0.93501469  0.51333935  1
  O  O43  1  0.19557004  0.56498531  0.01333935  1
  O  O44  1  0.18326952  0.10433458  0.25000000  1
  O  O45  1  0.18326952  0.39566542  0.75000000  1
  O  O46  1  0.27924246  0.58666729  0.75000000  1
  O  O47  1  0.27924246  0.91333271  0.25000000  1
  O  O48  1  0.28519284  0.75000000  0.00000000  1
  O  O49  1  0.28519284  0.75000000  0.50000000  1
  O  O50  1  0.40636986  0.14730257  0.10102077  1
  O  O51  1  0.40636986  0.14730257  0.39897923  1
  O  O52  1  0.40636986  0.35269743  0.60102077  1
  O  O53  1  0.40636986  0.35269743  0.89897923  1
  O  O54  1  0.34524832  0.12812234  0.55524575  1
  O  O55  1  0.34524832  0.37187766  0.05524575  1
  O  O56  1  0.34524832  0.12812234  0.94475425  1
  O  O57  1  0.34524832  0.37187766  0.44475425  1
  O  O58  1  0.53887805  0.75397043  0.25000000  1
  O  O59  1  0.53887805  0.74602957  0.75000000  1
  O  O60  1  0.46112195  0.24602957  0.75000000  1
  O  O61  1  0.46112195  0.25397043  0.25000000  1
  O  O62  1  0.65475168  0.62812234  0.55524575  1
  O  O63  1  0.65475168  0.87187766  0.05524575  1
  O  O64  1  0.65475168  0.62812234  0.94475425  1
  O  O65  1  0.65475168  0.87187766  0.44475425  1
  O  O66  1  0.59363014  0.64730257  0.10102077  1
  O  O67  1  0.59363014  0.64730257  0.39897923  1
  O  O68  1  0.59363014  0.85269743  0.60102077  1
  O  O69  1  0.59363014  0.85269743  0.89897923  1
  O  O70  1  0.71480716  0.25000000  0.00000000  1
  O  O71  1  0.71480716  0.25000000  0.50000000  1
  O  O72  1  0.72075754  0.08666729  0.75000000  1
  O  O73  1  0.72075754  0.41333271  0.25000000  1
  O  O74  1  0.81673048  0.60433458  0.25000000  1
  O  O75  1  0.81673048  0.89566542  0.75000000  1
  O  O76  1  0.80442996  0.43501469  0.98666065  1
  O  O77  1  0.80442996  0.06498531  0.48666065  1
  O  O78  1  0.80442996  0.06498531  0.01333935  1
  O  O79  1  0.80442996  0.43501469  0.51333935  1
  O  O80  1  0.86815437  0.98720044  0.16897510  1
  O  O81  1  0.86815437  0.98720044  0.33102490  1
  O  O82  1  0.86815437  0.51279956  0.66897510  1
  O  O83  1  0.86815437  0.51279956  0.83102490  1
  O  O84  1  0.94505474  0.26197231  0.17108756  1
  O  O85  1  0.94505474  0.26197231  0.32891244  1
  O  O86  1  0.94505474  0.23802769  0.67108756  1
  O  O87  1  0.94505474  0.23802769  0.82891244  1
