# generated using pymatgen
data_Na2CoO3
_symmetry_space_group_name_H-M   'P 1'
_cell_length_a   5.18784914
_cell_length_b   5.18784914
_cell_length_c   5.64523903
_cell_angle_alpha   80.68699008
_cell_angle_beta   99.31300992
_cell_angle_gamma   60.16331836
_symmetry_Int_Tables_number   1
_chemical_formula_structural   Na2CoO3
_chemical_formula_sum   'Na4 Co2 O6'
_cell_volume   124.73729687
_cell_formula_units_Z   2
loop_
 _symmetry_equiv_pos_site_id
 _symmetry_equiv_pos_as_xyz
  1  'x, y, z'
loop_
 _atom_site_type_symbol
 _atom_site_label
 _atom_site_symmetry_multiplicity
 _atom_site_fract_x
 _atom_site_fract_y
 _atom_site_fract_z
 _atom_site_occupancy
  Na  Na0  1  0.15768884  0.15768884  0.50000000  1
  Na  Na1  1  0.84231116  0.84231116  0.50000000  1
  Na  Na2  1  0.50000000  0.50000000  0.50000000  1
  Na  Na3  1  0.00000000  0.00000000  0.00000000  1
  Co  Co4  1  0.67067548  0.67067548  0.00000000  1
  Co  Co5  1  0.32932452  0.32932452  0.00000000  1
  O  O6  1  0.31282433  0.68717567  0.80118127  1
  O  O7  1  0.06309959  0.55412116  0.19812613  1
  O  O8  1  0.44587884  0.93690041  0.19812613  1
  O  O9  1  0.93690041  0.44587884  0.80187387  1
  O  O10  1  0.55412116  0.06309959  0.80187387  1
  O  O11  1  0.68717567  0.31282433  0.19881873  1
