# generated using pymatgen
data_Li24TiCr11O36
_symmetry_space_group_name_H-M   'P 1'
_cell_length_a   5.08821817
_cell_length_b   13.06490342
_cell_length_c   10.59499105
_cell_angle_alpha   67.14717104
_cell_angle_beta   84.37706989
_cell_angle_gamma   96.74866246
_symmetry_Int_Tables_number   1
_chemical_formula_structural   Li24TiCr11O36
_chemical_formula_sum   'Li24 Ti1 Cr11 O36'
_cell_volume   636.55426547
_cell_formula_units_Z   1
loop_
 _symmetry_equiv_pos_site_id
 _symmetry_equiv_pos_as_xyz
  1  'x, y, z'
loop_
 _atom_site_type_symbol
 _atom_site_label
 _atom_site_symmetry_multiplicity
 _atom_site_fract_x
 _atom_site_fract_y
 _atom_site_fract_z
 _atom_site_occupancy
  Li  Li0  1  0.77144831  0.05922596  0.93949482  1
  Li  Li1  1  0.66576979  0.08351936  0.66687428  1
  Li  Li2  1  0.88843180  0.27317610  0.72739395  1
  Li  Li3  1  0.33523876  0.16729475  0.83368074  1
  Li  Li4  1  0.55189577  0.10598282  0.39434550  1
  Li  Li5  1  0.99968099  0.24997886  0.99898450  1
  Li  Li6  1  0.99897078  0.00000648  0.49940607  1
  Li  Li7  1  0.77980098  0.55959205  0.93943060  1
  Li  Li8  1  0.44996800  0.39366216  0.60723771  1
  Li  Li9  1  0.66746500  0.58353993  0.66734933  1
  Li  Li10  1  0.66753070  0.33394783  0.16576999  1
  Li  Li11  1  0.11310422  0.22734142  0.27177848  1
  Li  Li12  1  0.88510069  0.77291712  0.72739809  1
  Li  Li13  1  0.33198425  0.66732453  0.83370836  1
  Li  Li14  1  0.33323604  0.41692432  0.33221807  1
  Li  Li15  1  0.55085077  0.60659639  0.39333966  1
  Li  Li16  1  0.00001792  0.50021289  0.49995469  1
  Li  Li17  1  0.22002516  0.44014952  0.05985822  1
  Li  Li18  1  0.45307598  0.89317133  0.60775313  1
  Li  Li19  1  0.67037597  0.83404072  0.16472915  1
  Li  Li20  1  0.11314681  0.72645536  0.27368837  1
  Li  Li21  1  0.33337886  0.91653213  0.33362451  1
  Li  Li22  1  0.99769600  0.74863350  0.00066066  1
  Li  Li23  1  0.21937343  0.94036944  0.06033551  1
  Ti  Ti24  1  0.11054602  0.97463131  0.77891569  1
  Cr  Cr25  1  0.88962431  0.03115094  0.21950283  1
  Cr  Cr26  1  0.55758243  0.36387344  0.88606453  1
  Cr  Cr27  1  0.77753310  0.30238331  0.44698247  1
  Cr  Cr28  1  0.22546394  0.19928571  0.55032232  1
  Cr  Cr29  1  0.44251325  0.13541166  0.11450542  1
  Cr  Cr30  1  0.11146137  0.46928928  0.78007889  1
  Cr  Cr31  1  0.89190207  0.53039001  0.21986870  1
  Cr  Cr32  1  0.54960363  0.85996176  0.89017872  1
  Cr  Cr33  1  0.77631367  0.80217437  0.44692933  1
  Cr  Cr34  1  0.22330017  0.69818483  0.55288647  1
  Cr  Cr35  1  0.44597030  0.63383560  0.11406474  1
  O  O36  1  0.42382481  0.00450201  0.86033889  1
  O  O37  1  0.64302070  0.21199432  0.92429396  1
  O  O38  1  0.90156827  0.16712464  0.47015607  1
  O  O39  1  0.30963679  0.04692647  0.58756528  1
  O  O40  1  0.88572969  0.40876879  0.95386942  1
  O  O41  1  0.02379244  0.12416023  0.74175360  1
  O  O42  1  0.55341386  0.24263955  0.62006337  1
  O  O43  1  0.78208928  0.42474462  0.71227293  1
  O  O44  1  0.76571024  0.16652218  0.19631325  1
  O  O45  1  0.23595628  0.33310032  0.80440045  1
  O  O46  1  0.21914547  0.07542616  0.28799980  1
  O  O47  1  0.44790538  0.25915362  0.37746569  1
  O  O48  1  0.43131228  0.49954529  0.86248323  1
  O  O49  1  0.97646560  0.37856503  0.25700011  1
  O  O50  1  0.11332432  0.09100583  0.04620170  1
  O  O51  1  0.69249599  0.45424647  0.40930089  1
  O  O52  1  0.10057097  0.33404282  0.52820880  1
  O  O53  1  0.64251227  0.70853531  0.92622867  1
  O  O54  1  0.35883285  0.28773805  0.07585721  1
  O  O55  1  0.90049463  0.66670053  0.47078847  1
  O  O56  1  0.30773328  0.54556726  0.59080468  1
  O  O57  1  0.87262730  0.90437684  0.95796216  1
  O  O58  1  0.02397103  0.62156449  0.74253095  1
  O  O59  1  0.56867888  0.49856447  0.13859944  1
  O  O60  1  0.55296264  0.74217072  0.62069926  1
  O  O61  1  0.78433571  0.92609200  0.71165956  1
  O  O62  1  0.76450618  0.66561343  0.19651831  1
  O  O63  1  0.24716556  0.82992152  0.80807573  1
  O  O64  1  0.21893028  0.57573405  0.28733258  1
  O  O65  1  0.44658584  0.75784640  0.37883103  1
  O  O66  1  0.97556279  0.87881407  0.25750256  1
  O  O67  1  0.11517300  0.59068420  0.04641983  1
  O  O68  1  0.69093257  0.95421730  0.40939220  1
  O  O69  1  0.09907108  0.83344925  0.52934992  1
  O  O70  1  0.35769279  0.78864432  0.07465335  1
  O  O71  1  0.56688675  0.00013020  0.13779018  1
