# generated using pymatgen
data_Li32Mn3Cr13O48
_symmetry_space_group_name_H-M   'P 1'
_cell_length_a   5.03711523
_cell_length_b   8.72059281
_cell_length_c   19.50966385
_cell_angle_alpha   97.95031752
_cell_angle_beta   94.85397474
_cell_angle_gamma   89.53627919
_symmetry_Int_Tables_number   1
_chemical_formula_structural   Li32Mn3Cr13O48
_chemical_formula_sum   'Li32 Mn3 Cr13 O48'
_cell_volume   845.70705083
_cell_formula_units_Z   1
loop_
 _symmetry_equiv_pos_site_id
 _symmetry_equiv_pos_as_xyz
  1  'x, y, z'
loop_
 _atom_site_type_symbol
 _atom_site_label
 _atom_site_symmetry_multiplicity
 _atom_site_fract_x
 _atom_site_fract_y
 _atom_site_fract_z
 _atom_site_occupancy
  Li  Li0  1  0.98963468  0.16964299  0.25003392  1
  Li  Li1  1  0.87511376  0.37503040  0.37508525  1
  Li  Li2  1  0.75095949  0.25003142  0.00006899  1
  Li  Li3  1  0.74380886  0.92095284  0.99976058  1
  Li  Li4  1  0.99209774  0.16896404  0.74954293  1
  Li  Li5  1  0.76071861  0.57943729  0.49964348  1
  Li  Li6  1  0.87426411  0.37514341  0.87491129  1
  Li  Li7  1  0.75259132  0.24969942  0.50024454  1
  Li  Li8  1  0.74197860  0.92079867  0.49951524  1
  Li  Li9  1  0.62682227  0.12646346  0.12469844  1
  Li  Li10  1  0.75952577  0.57939815  0.99976943  1
  Li  Li11  1  0.51229535  0.33157845  0.25019624  1
  Li  Li12  1  0.62459110  0.12578709  0.62474248  1
  Li  Li13  1  0.50192483  0.00013226  0.25065161  1
  Li  Li14  1  0.48960417  0.66829336  0.24933763  1
  Li  Li15  1  0.50759316  0.32964400  0.74968930  1
  Li  Li16  1  0.37477112  0.87408087  0.37495541  1
  Li  Li17  1  0.50349520  0.00150459  0.75056295  1
  Li  Li18  1  0.25277570  0.74911490  0.99947142  1
  Li  Li19  1  0.48988068  0.66912562  0.74982217  1
  Li  Li20  1  0.23929442  0.42087767  0.00021825  1
  Li  Li21  1  0.37484623  0.87395439  0.87487561  1
  Li  Li22  1  0.25440304  0.08054043  0.50034701  1
  Li  Li23  1  0.25344445  0.74940013  0.49960508  1
  Li  Li24  1  0.12324438  0.62339767  0.12516584  1
  Li  Li25  1  0.24051859  0.41987289  0.50044118  1
  Li  Li26  1  0.00795058  0.83052543  0.25059856  1
  Li  Li27  1  0.25361684  0.07897129  0.99995913  1
  Li  Li28  1  0.12269258  0.62327966  0.62523281  1
  Li  Li29  1  0.99946126  0.50052530  0.24957602  1
  Li  Li30  1  0.00718396  0.83053317  0.75076050  1
  Li  Li31  1  0.99837926  0.50098258  0.74922899  1
  Mn  Mn32  1  0.87461821  0.04208734  0.37452466  1
  Mn  Mn33  1  0.87358508  0.04164883  0.87422657  1
  Mn  Mn34  1  0.12364719  0.29005861  0.62435917  1
  Cr  Cr35  1  0.87451764  0.71231890  0.37529323  1
  Cr  Cr36  1  0.87640846  0.71210078  0.87535594  1
  Cr  Cr37  1  0.62838380  0.79741387  0.12594750  1
  Cr  Cr38  1  0.61956347  0.46167767  0.12534490  1
  Cr  Cr39  1  0.63093925  0.79700608  0.62643875  1
  Cr  Cr40  1  0.61690581  0.45823640  0.62450834  1
  Cr  Cr41  1  0.38086321  0.53849166  0.37559516  1
  Cr  Cr42  1  0.36847703  0.20526635  0.37462520  1
  Cr  Cr43  1  0.38273249  0.53915465  0.87577652  1
  Cr  Cr44  1  0.36610386  0.20612744  0.87462533  1
  Cr  Cr45  1  0.12208228  0.95236855  0.12410438  1
  Cr  Cr46  1  0.13019740  0.28813098  0.12471635  1
  Cr  Cr47  1  0.12710567  0.95393068  0.62510828  1
  O  O48  1  0.96347307  0.10238395  0.06869162  1
  O  O49  1  0.93667953  0.78740573  0.06874611  1
  O  O50  1  0.92619878  0.42682602  0.06797173  1
  O  O51  1  0.96341310  0.10758017  0.56955429  1
  O  O52  1  0.81351637  0.96283895  0.18128287  1
  O  O53  1  0.82395466  0.32375401  0.18210687  1
  O  O54  1  0.93744328  0.79052264  0.56891918  1
  O  O55  1  0.93006118  0.42756552  0.56772601  1
  O  O56  1  0.78584567  0.64787976  0.18140555  1
  O  O57  1  0.71245578  0.85940429  0.31915313  1
  O  O58  1  0.81463783  0.96269262  0.68156707  1
  O  O59  1  0.82330930  0.32419821  0.68165362  1
  O  O60  1  0.67094144  0.53717305  0.31911361  1
  O  O61  1  0.68108053  0.17803981  0.31772518  1
  O  O62  1  0.78331694  0.64564727  0.68149056  1
  O  O63  1  0.71166580  0.85930973  0.81918203  1
  O  O64  1  0.46820876  0.60603737  0.06961966  1
  O  O65  1  0.58133471  0.71457010  0.43139711  1
  O  O66  1  0.57393458  0.07349971  0.43161398  1
  O  O67  1  0.67160306  0.53745909  0.81902832  1
  O  O68  1  0.68052129  0.17836389  0.81796452  1
  O  O69  1  0.43376150  0.92327591  0.06718020  1
  O  O70  1  0.41846550  0.28440662  0.06853560  1
  O  O71  1  0.53250619  0.39285705  0.43130144  1
  O  O72  1  0.47130325  0.60577977  0.56948030  1
  O  O73  1  0.57998473  0.71508416  0.93144666  1
  O  O74  1  0.57364995  0.07369201  0.93163189  1
  O  O75  1  0.31627629  0.82670840  0.18285586  1
  O  O76  1  0.33068202  0.46589771  0.18143632  1
  O  O77  1  0.43476358  0.92270738  0.56727093  1
  O  O78  1  0.42429474  0.28348000  0.56874108  1
  O  O79  1  0.53217423  0.39466047  0.93154974  1
  O  O80  1  0.28175162  0.14370188  0.18044286  1
  O  O81  1  0.21926989  0.35321645  0.31872119  1
  O  O82  1  0.31718890  0.82661533  0.68310246  1
  O  O83  1  0.32074484  0.46286567  0.68056829  1
  O  O84  1  0.17106862  0.67651847  0.31797149  1
  O  O85  1  0.17564745  0.03456751  0.31881593  1
  O  O86  1  0.28519743  0.14293693  0.68053814  1
  O  O87  1  0.21940575  0.35263491  0.81890446  1
  O  O88  1  0.07854907  0.57326240  0.43243061  1
  O  O89  1  0.06812151  0.21355630  0.43038482  1
  O  O90  1  0.17165421  0.67548150  0.81795864  1
  O  O91  1  0.17456619  0.03348267  0.81883729  1
  O  O92  1  0.03733458  0.89559156  0.43099411  1
  O  O93  1  0.07666250  0.57240039  0.93239430  1
  O  O94  1  0.06936409  0.21315518  0.93046147  1
  O  O95  1  0.03640270  0.89460984  0.93086934  1
