# generated using pymatgen
data_Li32Mn3Cr13O48
_symmetry_space_group_name_H-M   'P 1'
_cell_length_a   5.01578913
_cell_length_b   8.71760180
_cell_length_c   19.45281311
_cell_angle_alpha   98.06877347
_cell_angle_beta   94.62709267
_cell_angle_gamma   89.57459974
_symmetry_Int_Tables_number   1
_chemical_formula_structural   Li32Mn3Cr13O48
_chemical_formula_sum   'Li32 Mn3 Cr13 O48'
_cell_volume   839.41508958
_cell_formula_units_Z   1
loop_
 _symmetry_equiv_pos_site_id
 _symmetry_equiv_pos_as_xyz
  1  'x, y, z'
loop_
 _atom_site_type_symbol
 _atom_site_label
 _atom_site_symmetry_multiplicity
 _atom_site_fract_x
 _atom_site_fract_y
 _atom_site_fract_z
 _atom_site_occupancy
  Li  Li0  1  0.98950197  0.16782744  0.24964649  1
  Li  Li1  1  0.87367591  0.37408882  0.37499017  1
  Li  Li2  1  0.74826010  0.24969000  0.99937423  1
  Li  Li3  1  0.73952697  0.91894804  0.00010801  1
  Li  Li4  1  0.99633355  0.16882172  0.74966257  1
  Li  Li5  1  0.75586597  0.58011575  0.49974658  1
  Li  Li6  1  0.87450087  0.37620932  0.87494211  1
  Li  Li7  1  0.75448569  0.24965077  0.49996737  1
  Li  Li8  1  0.73911792  0.91978619  0.50037415  1
  Li  Li9  1  0.62337609  0.12304890  0.12498462  1
  Li  Li10  1  0.75845593  0.58125257  0.00001141  1
  Li  Li11  1  0.50834883  0.33052534  0.25061635  1
  Li  Li12  1  0.62308740  0.12327118  0.62514027  1
  Li  Li13  1  0.49924206  0.00051005  0.24994195  1
  Li  Li14  1  0.49070203  0.66930203  0.25028340  1
  Li  Li15  1  0.50417320  0.33070767  0.74984297  1
  Li  Li16  1  0.37477669  0.87513230  0.37500207  1
  Li  Li17  1  0.50057765  0.00008088  0.75012625  1
  Li  Li18  1  0.25096011  0.75030593  0.00024222  1
  Li  Li19  1  0.48949916  0.66834725  0.75000710  1
  Li  Li20  1  0.24415589  0.42079724  0.99991066  1
  Li  Li21  1  0.37474799  0.87475992  0.87491072  1
  Li  Li22  1  0.25954209  0.07974654  0.50000634  1
  Li  Li23  1  0.24944799  0.75107666  0.50014918  1
  Li  Li24  1  0.12561245  0.62638933  0.12479957  1
  Li  Li25  1  0.24364499  0.42029890  0.50021481  1
  Li  Li26  1  0.01103408  0.83225514  0.25032518  1
  Li  Li27  1  0.25828288  0.07821344  0.99944347  1
  Li  Li28  1  0.12432556  0.62486640  0.62466328  1
  Li  Li29  1  0.00259924  0.50067661  0.25066570  1
  Li  Li30  1  0.01001800  0.83066461  0.75007762  1
  Li  Li31  1  0.99956980  0.50126440  0.74969902  1
  Mn  Mn32  1  0.37492292  0.54190208  0.37484335  1
  Mn  Mn33  1  0.37624064  0.20808502  0.87562695  1
  Mn  Mn34  1  0.12813095  0.29265496  0.62573420  1
  Cr  Cr35  1  0.86740396  0.70575175  0.37446756  1
  Cr  Cr36  1  0.88094852  0.03796204  0.37530965  1
  Cr  Cr37  1  0.86866948  0.71210834  0.87425162  1
  Cr  Cr38  1  0.88226344  0.04491363  0.87550793  1
  Cr  Cr39  1  0.62693934  0.78681368  0.12459816  1
  Cr  Cr40  1  0.62528031  0.45189458  0.12462795  1
  Cr  Cr41  1  0.62483298  0.78678861  0.62435161  1
  Cr  Cr42  1  0.62477198  0.45356927  0.62491785  1
  Cr  Cr43  1  0.37206517  0.21245407  0.37527676  1
  Cr  Cr44  1  0.37454983  0.53734801  0.87477818  1
  Cr  Cr45  1  0.11832202  0.96205901  0.12481287  1
  Cr  Cr46  1  0.12968269  0.29768875  0.12624366  1
  Cr  Cr47  1  0.11953561  0.96199503  0.62500105  1
  O  O48  1  0.96805016  0.10725108  0.06964881  1
  O  O49  1  0.91882050  0.78473280  0.06831775  1
  O  O50  1  0.93626504  0.42273436  0.06727210  1
  O  O51  1  0.96617559  0.10784499  0.56944882  1
  O  O52  1  0.82912823  0.96434568  0.18115930  1
  O  O53  1  0.81589194  0.32604220  0.18321792  1
  O  O54  1  0.91952603  0.78576154  0.56835021  1
  O  O55  1  0.93260214  0.42687081  0.56776518  1
  O  O56  1  0.78288459  0.64141954  0.18032083  1
  O  O57  1  0.71855523  0.85203263  0.31857784  1
  O  O58  1  0.82992456  0.96391020  0.68126246  1
  O  O59  1  0.82385822  0.32272798  0.68206689  1
  O  O60  1  0.67576498  0.53359978  0.31864115  1
  O  O61  1  0.67292938  0.17661307  0.31775809  1
  O  O62  1  0.78049681  0.64062799  0.68077746  1
  O  O63  1  0.71745965  0.85661312  0.81886863  1
  O  O64  1  0.46464437  0.60330036  0.06917976  1
  O  O65  1  0.56832335  0.71390987  0.43038855  1
  O  O66  1  0.57602642  0.07400797  0.43221254  1
  O  O67  1  0.66939731  0.53497606  0.81846758  1
  O  O68  1  0.67697355  0.17619284  0.81840019  1
  O  O69  1  0.42419543  0.92767506  0.06744602  1
  O  O70  1  0.43876976  0.28868137  0.06875297  1
  O  O71  1  0.53883625  0.39681160  0.43119355  1
  O  O72  1  0.46640926  0.60504342  0.56878403  1
  O  O73  1  0.57843382  0.71289053  0.93103747  1
  O  O74  1  0.56794787  0.07225788  0.93234918  1
  O  O75  1  0.32572085  0.82432609  0.18195001  1
  O  O76  1  0.31295872  0.46278469  0.18171040  1
  O  O77  1  0.42316986  0.92843929  0.56735858  1
  O  O78  1  0.42917177  0.28723333  0.56938514  1
  O  O79  1  0.53789681  0.39060302  0.93114689  1
  O  O80  1  0.28566706  0.14753955  0.18114723  1
  O  O81  1  0.21391223  0.35813630  0.31930191  1
  O  O82  1  0.32668853  0.82507816  0.68187721  1
  O  O83  1  0.31570939  0.46445273  0.68114536  1
  O  O84  1  0.18138269  0.67779329  0.31775580  1
  O  O85  1  0.16976343  0.03590751  0.31857503  1
  O  O86  1  0.29028192  0.14671633  0.68140190  1
  O  O87  1  0.21258266  0.35494325  0.81946781  1
  O  O88  1  0.07314331  0.57406057  0.43160561  1
  O  O89  1  0.08138591  0.21491861  0.43147500  1
  O  O90  1  0.17223917  0.67712688  0.81749543  1
  O  O91  1  0.18251237  0.03654496  0.81934183  1
  O  O92  1  0.03217779  0.89452016  0.43113397  1
  O  O93  1  0.07865272  0.57414128  0.93224657  1
  O  O94  1  0.07377822  0.21566297  0.93132729  1
  O  O95  1  0.03090325  0.89757407  0.93125854  1
