# generated using pymatgen
data_ZnTe2O5
_symmetry_space_group_name_H-M   'P 1'
_cell_length_a   9.11250564
_cell_length_b   12.35937753
_cell_length_c   8.65333934
_cell_angle_alpha   90.00000000
_cell_angle_beta   90.00000000
_cell_angle_gamma   90.00000000
_symmetry_Int_Tables_number   1
_chemical_formula_structural   ZnTe2O5
_chemical_formula_sum   'Zn8 Te16 O40'
_cell_volume   974.58145576
_cell_formula_units_Z   8
loop_
 _symmetry_equiv_pos_site_id
 _symmetry_equiv_pos_as_xyz
  1  'x, y, z'
loop_
 _atom_site_type_symbol
 _atom_site_label
 _atom_site_symmetry_multiplicity
 _atom_site_fract_x
 _atom_site_fract_y
 _atom_site_fract_z
 _atom_site_occupancy
  Zn  Zn0  1  0.01478647  0.12301025  0.51836468  1
  Zn  Zn1  1  0.01478647  0.37698975  0.51836468  1
  Zn  Zn2  1  0.48521353  0.62301025  0.01836468  1
  Zn  Zn3  1  0.48521353  0.87698975  0.01836468  1
  Zn  Zn4  1  0.51478647  0.12301025  0.98163532  1
  Zn  Zn5  1  0.51478647  0.37698975  0.98163532  1
  Zn  Zn6  1  0.98521353  0.87698975  0.48163532  1
  Zn  Zn7  1  0.98521353  0.62301025  0.48163532  1
  Te  Te8  1  0.10475627  0.25000000  0.19856862  1
  Te  Te9  1  0.14946780  0.51464752  0.83855378  1
  Te  Te10  1  0.14946780  0.98535248  0.83855378  1
  Te  Te11  1  0.16668416  0.75000000  0.18222152  1
  Te  Te12  1  0.33331584  0.25000000  0.68222152  1
  Te  Te13  1  0.35053220  0.01464752  0.33855378  1
  Te  Te14  1  0.35053220  0.48535248  0.33855378  1
  Te  Te15  1  0.39524373  0.75000000  0.69856862  1
  Te  Te16  1  0.60475627  0.25000000  0.30143138  1
  Te  Te17  1  0.64946780  0.51464752  0.66144622  1
  Te  Te18  1  0.64946780  0.98535248  0.66144622  1
  Te  Te19  1  0.66668416  0.75000000  0.31777848  1
  Te  Te20  1  0.83331584  0.25000000  0.81777848  1
  Te  Te21  1  0.85053220  0.01464752  0.16144622  1
  Te  Te22  1  0.85053220  0.48535248  0.16144622  1
  Te  Te23  1  0.89524373  0.75000000  0.80143138  1
  O  O24  1  0.00832743  0.62773256  0.90667555  1
  O  O25  1  0.00832743  0.87226744  0.90667555  1
  O  O26  1  0.03148341  0.75000000  0.63348062  1
  O  O27  1  0.11803832  0.51223076  0.62040691  1
  O  O28  1  0.11803832  0.98776924  0.62040691  1
  O  O29  1  0.12366120  0.25000000  0.65798378  1
  O  O30  1  0.15613766  0.63054774  0.32229115  1
  O  O31  1  0.15613766  0.86945226  0.32229115  1
  O  O32  1  0.19146056  0.11418171  0.34970922  1
  O  O33  1  0.19146056  0.38581829  0.34970922  1
  O  O34  1  0.30853944  0.61418171  0.84970922  1
  O  O35  1  0.30853944  0.88581829  0.84970922  1
  O  O36  1  0.34386234  0.13054774  0.82229115  1
  O  O37  1  0.34386234  0.36945226  0.82229115  1
  O  O38  1  0.37633880  0.75000000  0.15798378  1
  O  O39  1  0.38196168  0.01223076  0.12040691  1
  O  O40  1  0.38196168  0.48776924  0.12040691  1
  O  O41  1  0.46851659  0.25000000  0.13348062  1
  O  O42  1  0.49167257  0.37226744  0.40667555  1
  O  O43  1  0.49167257  0.12773256  0.40667555  1
  O  O44  1  0.50832743  0.87226744  0.59332445  1
  O  O45  1  0.50832743  0.62773256  0.59332445  1
  O  O46  1  0.53148341  0.75000000  0.86651938  1
  O  O47  1  0.61803832  0.51223076  0.87959309  1
  O  O48  1  0.61803832  0.98776924  0.87959309  1
  O  O49  1  0.62366120  0.25000000  0.84201622  1
  O  O50  1  0.65613766  0.86945226  0.17770885  1
  O  O51  1  0.65613766  0.63054774  0.17770885  1
  O  O52  1  0.69146056  0.11418171  0.15029078  1
  O  O53  1  0.69146056  0.38581829  0.15029078  1
  O  O54  1  0.80853944  0.88581829  0.65029078  1
  O  O55  1  0.80853944  0.61418171  0.65029078  1
  O  O56  1  0.84386234  0.13054774  0.67770885  1
  O  O57  1  0.84386234  0.36945226  0.67770885  1
  O  O58  1  0.87633880  0.75000000  0.34201622  1
  O  O59  1  0.88196168  0.01223076  0.37959309  1
  O  O60  1  0.88196168  0.48776924  0.37959309  1
  O  O61  1  0.96851659  0.25000000  0.36651938  1
  O  O62  1  0.99167257  0.12773256  0.09332445  1
  O  O63  1  0.99167257  0.37226744  0.09332445  1
