# generated using pymatgen
data_Ho2P4O13
_symmetry_space_group_name_H-M   'P 1'
_cell_length_a   8.86007414
_cell_length_b   9.60698627
_cell_length_c   13.96089288
_cell_angle_alpha   90.00000000
_cell_angle_beta   106.43259521
_cell_angle_gamma   90.00000000
_symmetry_Int_Tables_number   1
_chemical_formula_structural   Ho2P4O13
_chemical_formula_sum   'Ho8 P16 O52'
_cell_volume   1139.79225001
_cell_formula_units_Z   4
loop_
 _symmetry_equiv_pos_site_id
 _symmetry_equiv_pos_as_xyz
  1  'x, y, z'
loop_
 _atom_site_type_symbol
 _atom_site_label
 _atom_site_symmetry_multiplicity
 _atom_site_fract_x
 _atom_site_fract_y
 _atom_site_fract_z
 _atom_site_occupancy
  Ho  Ho0  1  0.02643339  0.00375023  0.72161728  1
  Ho  Ho1  1  0.02643339  0.49624977  0.22161728  1
  Ho  Ho2  1  0.44727343  0.99893601  0.73752817  1
  Ho  Ho3  1  0.55272657  0.49893601  0.76247183  1
  Ho  Ho4  1  0.44727343  0.50106399  0.23752817  1
  Ho  Ho5  1  0.55272657  0.00106399  0.26247183  1
  Ho  Ho6  1  0.97356661  0.50375023  0.77838272  1
  Ho  Ho7  1  0.97356661  0.99624977  0.27838272  1
  P  P8  1  0.14750029  0.23982397  0.93712556  1
  P  P9  1  0.28863480  0.73116296  0.84631313  1
  P  P10  1  0.21671065  0.29400123  0.65669343  1
  P  P11  1  0.14750029  0.26017603  0.43712556  1
  P  P12  1  0.49492871  0.24938526  0.93998183  1
  P  P13  1  0.28863480  0.76883704  0.34631313  1
  P  P14  1  0.21671065  0.20599877  0.15669343  1
  P  P15  1  0.50507129  0.74938526  0.56001817  1
  P  P16  1  0.49492871  0.25061474  0.43998183  1
  P  P17  1  0.78328935  0.79400123  0.84330657  1
  P  P18  1  0.71136520  0.23116296  0.65368687  1
  P  P19  1  0.50507129  0.75061474  0.06001817  1
  P  P20  1  0.85249971  0.73982397  0.56287444  1
  P  P21  1  0.78328935  0.70599877  0.34330657  1
  P  P22  1  0.71136520  0.26883704  0.15368687  1
  P  P23  1  0.85249971  0.76017603  0.06287444  1
  O  O24  1  0.04411756  0.36694547  0.91182716  1
  O  O25  1  0.11225089  0.12228454  0.86333766  1
  O  O26  1  0.14002807  0.66486331  0.85885082  1
  O  O27  1  0.11888956  0.37004055  0.71328181  1
  O  O28  1  0.04411756  0.13305453  0.41182716  1
  O  O29  1  0.13033582  0.32189067  0.53974921  1
  O  O30  1  0.32896157  0.29236705  0.96105402  1
  O  O31  1  0.25271766  0.86501757  0.78065870  1
  O  O32  1  0.21882037  0.13303480  0.67296217  1
  O  O33  1  0.11225089  0.37771546  0.36333766  1
  O  O34  1  0.39312987  0.79236073  0.95311509  1
  O  O35  1  0.14002807  0.83513669  0.35885082  1
  O  O36  1  0.11888956  0.12995945  0.21328181  1
  O  O37  1  0.38891152  0.62961189  0.80815117  1
  O  O38  1  0.47032635  0.12027286  0.87690744  1
  O  O39  1  0.38260335  0.34982658  0.67647889  1
  O  O40  1  0.13033582  0.17810933  0.03974921  1
  O  O41  1  0.32896157  0.20763295  0.46105402  1
  O  O42  1  0.25271766  0.63498243  0.28065870  1
  O  O43  1  0.21882037  0.36696520  0.17296217  1
  O  O44  1  0.43996890  0.87524715  0.59910361  1
  O  O45  1  0.39312987  0.70763927  0.45311509  1
  O  O46  1  0.56003110  0.37524715  0.90089639  1
  O  O47  1  0.61739665  0.84982658  0.82352111  1
  O  O48  1  0.52967365  0.62027286  0.62309256  1
  O  O49  1  0.38891152  0.87038811  0.30815117  1
  O  O50  1  0.61108848  0.12961189  0.69184883  1
  O  O51  1  0.47032635  0.37972714  0.37690744  1
  O  O52  1  0.38260335  0.15017342  0.17647889  1
  O  O53  1  0.43996890  0.62475285  0.09910361  1
  O  O54  1  0.60687013  0.29236073  0.54688491  1
  O  O55  1  0.56003110  0.12475285  0.40089639  1
  O  O56  1  0.78117963  0.63303480  0.82703783  1
  O  O57  1  0.74728234  0.36501757  0.71934130  1
  O  O58  1  0.67103843  0.79236705  0.53894598  1
  O  O59  1  0.86966418  0.82189067  0.96025079  1
  O  O60  1  0.61739665  0.65017342  0.32352111  1
  O  O61  1  0.52967365  0.87972714  0.12309256  1
  O  O62  1  0.61108848  0.37038811  0.19184883  1
  O  O63  1  0.88111044  0.87004055  0.78671819  1
  O  O64  1  0.85997193  0.16486331  0.64114918  1
  O  O65  1  0.60687013  0.20763927  0.04688491  1
  O  O66  1  0.88774911  0.62228454  0.63666234  1
  O  O67  1  0.78117963  0.86696520  0.32703783  1
  O  O68  1  0.74728234  0.13498243  0.21934130  1
  O  O69  1  0.67103843  0.70763295  0.03894598  1
  O  O70  1  0.86966418  0.67810933  0.46025079  1
  O  O71  1  0.95588244  0.86694547  0.58817284  1
  O  O72  1  0.88111044  0.62995945  0.28671819  1
  O  O73  1  0.85997193  0.33513669  0.14114918  1
  O  O74  1  0.88774911  0.87771546  0.13666234  1
  O  O75  1  0.95588244  0.63305453  0.08817284  1
