# generated using pymatgen
data_V6O11F
_symmetry_space_group_name_H-M   'P 1'
_cell_length_a   4.61609397
_cell_length_b   7.53219660
_cell_length_c   5.53104804
_cell_angle_alpha   94.18686976
_cell_angle_beta   90.98944192
_cell_angle_gamma   89.22114759
_symmetry_Int_Tables_number   1
_chemical_formula_structural   V6O11F
_chemical_formula_sum   'V6 O11 F1'
_cell_volume   191.75432309
_cell_formula_units_Z   1
loop_
 _symmetry_equiv_pos_site_id
 _symmetry_equiv_pos_as_xyz
  1  'x, y, z'
loop_
 _atom_site_type_symbol
 _atom_site_label
 _atom_site_symmetry_multiplicity
 _atom_site_fract_x
 _atom_site_fract_y
 _atom_site_fract_z
 _atom_site_occupancy
  V  V0  1  0.52316905  0.67356615  0.15255148  1
  V  V1  1  0.48108720  0.99005723  0.51807431  1
  V  V2  1  0.49195626  0.33387580  0.83077484  1
  V  V3  1  0.98440412  0.66234181  0.67897336  1
  V  V4  1  0.98069421  0.31130696  0.33452291  1
  V  V5  1  0.00786906  0.00823436  0.99531702  1
  O  O6  1  0.80203973  0.43174145  0.63408111  1
  O  O7  1  0.79714958  0.10805476  0.30851109  1
  O  O8  1  0.80957930  0.77092511  0.95851561  1
  O  O9  1  0.69165356  0.10380416  0.79624595  1
  O  O10  1  0.71266054  0.76442997  0.46363014  1
  O  O11  1  0.69504894  0.44625973  0.13628908  1
  O  O12  1  0.30105677  0.57419127  0.86033695  1
  O  O13  1  0.30476468  0.23218294  0.53560501  1
  O  O14  1  0.31304394  0.88737979  0.19959276  1
  O  O15  1  0.20772156  0.24325096  0.03741530  1
  O  O16  1  0.20125798  0.89901989  0.69283224  1
  F  F17  1  0.19484152  0.55937867  0.36673083  1
