# generated using pymatgen
data_Li32Mn3Cr13O48
_symmetry_space_group_name_H-M   'P 1'
_cell_length_a   5.03853061
_cell_length_b   8.69274333
_cell_length_c   19.49329775
_cell_angle_alpha   98.08294050
_cell_angle_beta   95.04290636
_cell_angle_gamma   89.69788832
_symmetry_Int_Tables_number   1
_chemical_formula_structural   Li32Mn3Cr13O48
_chemical_formula_sum   'Li32 Mn3 Cr13 O48'
_cell_volume   842.00460868
_cell_formula_units_Z   1
loop_
 _symmetry_equiv_pos_site_id
 _symmetry_equiv_pos_as_xyz
  1  'x, y, z'
loop_
 _atom_site_type_symbol
 _atom_site_label
 _atom_site_symmetry_multiplicity
 _atom_site_fract_x
 _atom_site_fract_y
 _atom_site_fract_z
 _atom_site_occupancy
  Li  Li0  1  0.98934015  0.16916332  0.25000051  1
  Li  Li1  1  0.87489488  0.37547778  0.37514361  1
  Li  Li2  1  0.75108057  0.25058777  0.00009164  1
  Li  Li3  1  0.74333316  0.92012639  0.99966668  1
  Li  Li4  1  0.99347394  0.16943418  0.74891136  1
  Li  Li5  1  0.75759301  0.58044331  0.49999463  1
  Li  Li6  1  0.87379273  0.37636035  0.87522814  1
  Li  Li7  1  0.75167349  0.24951506  0.50017991  1
  Li  Li8  1  0.74239040  0.92069601  0.49921481  1
  Li  Li9  1  0.62661663  0.12550320  0.12467649  1
  Li  Li10  1  0.75788123  0.57887032  0.99937067  1
  Li  Li11  1  0.51132470  0.33151275  0.25042385  1
  Li  Li12  1  0.62473859  0.12665231  0.62519543  1
  Li  Li13  1  0.50187546  0.00057830  0.25059691  1
  Li  Li14  1  0.48986665  0.66869475  0.24954475  1
  Li  Li15  1  0.50692043  0.33056747  0.74934901  1
  Li  Li16  1  0.37358259  0.87433828  0.37498693  1
  Li  Li17  1  0.50016003  0.00016137  0.75001345  1
  Li  Li18  1  0.24840886  0.75012374  0.99929521  1
  Li  Li19  1  0.49335253  0.66923181  0.75052318  1
  Li  Li20  1  0.24089337  0.41892756  0.99975188  1
  Li  Li21  1  0.37576844  0.87435573  0.87474189  1
  Li  Li22  1  0.25467917  0.08011256  0.50025371  1
  Li  Li23  1  0.25220067  0.74844002  0.49997208  1
  Li  Li24  1  0.12279370  0.62392592  0.12519816  1
  Li  Li25  1  0.24366793  0.42181922  0.50095283  1
  Li  Li26  1  0.00785086  0.83091349  0.25060419  1
  Li  Li27  1  0.25814114  0.07934187  0.00037754  1
  Li  Li28  1  0.12711158  0.62313231  0.62475853  1
  Li  Li29  1  0.99912942  0.50088395  0.24974271  1
  Li  Li30  1  0.00611280  0.83075959  0.75113196  1
  Li  Li31  1  0.00013455  0.49929228  0.74995491  1
  Mn  Mn32  1  0.87475335  0.04171055  0.37472915  1
  Mn  Mn33  1  0.87182329  0.70896576  0.87393699  1
  Mn  Mn34  1  0.12838127  0.29071403  0.62596175  1
  Cr  Cr35  1  0.87338811  0.71195159  0.37549298  1
  Cr  Cr36  1  0.88035079  0.04559608  0.87534618  1
  Cr  Cr37  1  0.62802292  0.79686926  0.12599682  1
  Cr  Cr38  1  0.62004660  0.46111219  0.12546809  1
  Cr  Cr39  1  0.62163549  0.79612402  0.62387770  1
  Cr  Cr40  1  0.62998173  0.45890052  0.62525458  1
  Cr  Cr41  1  0.38125470  0.53932986  0.37546772  1
  Cr  Cr42  1  0.36736014  0.20632006  0.37462883  1
  Cr  Cr43  1  0.37038903  0.54163100  0.87460341  1
  Cr  Cr44  1  0.37936431  0.20507912  0.87609210  1
  Cr  Cr45  1  0.12244555  0.95262806  0.12408251  1
  Cr  Cr46  1  0.12973284  0.28852927  0.12455911  1
  Cr  Cr47  1  0.12075912  0.95396039  0.62463801  1
  O  O48  1  0.96365466  0.10192207  0.06852206  1
  O  O49  1  0.93618240  0.78698313  0.06881495  1
  O  O50  1  0.92623344  0.42702849  0.06817777  1
  O  O51  1  0.96601531  0.10786747  0.56961440  1
  O  O52  1  0.81373697  0.96288343  0.18121605  1
  O  O53  1  0.82397067  0.32335101  0.18193672  1
  O  O54  1  0.93454647  0.78878871  0.56837837  1
  O  O55  1  0.92657760  0.42651055  0.56829313  1
  O  O56  1  0.78621442  0.64791990  0.18163367  1
  O  O57  1  0.71357008  0.85800299  0.31920801  1
  O  O58  1  0.81496707  0.95949088  0.68140599  1
  O  O59  1  0.82731919  0.32005214  0.68251773  1
  O  O60  1  0.66924758  0.53593534  0.31893975  1
  O  O61  1  0.67991618  0.17807301  0.31791212  1
  O  O62  1  0.77915943  0.64062310  0.68019370  1
  O  O63  1  0.71131913  0.85603534  0.81906608  1
  O  O64  1  0.46873219  0.60580015  0.06960026  1
  O  O65  1  0.58255871  0.71565854  0.43128091  1
  O  O66  1  0.57435570  0.07392751  0.43152616  1
  O  O67  1  0.68079908  0.53537968  0.81899549  1
  O  O68  1  0.68226082  0.17304285  0.81783335  1
  O  O69  1  0.43344458  0.92283746  0.06729750  1
  O  O70  1  0.41827880  0.28387516  0.06887919  1
  O  O71  1  0.53291843  0.39524835  0.43136805  1
  O  O72  1  0.46500307  0.60961431  0.56842286  1
  O  O73  1  0.57268043  0.71236975  0.93052151  1
  O  O74  1  0.56813950  0.07366698  0.93279833  1
  O  O75  1  0.31666889  0.82673965  0.18275780  1
  O  O76  1  0.33116832  0.46624128  0.18129194  1
  O  O77  1  0.43299600  0.92586483  0.56697556  1
  O  O78  1  0.42713770  0.28729007  0.56935320  1
  O  O79  1  0.53403391  0.39100204  0.93172037  1
  O  O80  1  0.28122512  0.14383611  0.18039645  1
  O  O81  1  0.21866093  0.35214474  0.31854541  1
  O  O82  1  0.31623174  0.82693044  0.68238236  1
  O  O83  1  0.32027123  0.46439555  0.68105211  1
  O  O84  1  0.17254139  0.67657569  0.31813193  1
  O  O85  1  0.17400455  0.03332249  0.31868157  1
  O  O86  1  0.28844499  0.14329566  0.68088577  1
  O  O87  1  0.22016571  0.35972296  0.81968440  1
  O  O88  1  0.07626459  0.57304128  0.43207382  1
  O  O89  1  0.07025639  0.21385672  0.43040818  1
  O  O90  1  0.17276316  0.67943307  0.81759516  1
  O  O91  1  0.18345948  0.04031329  0.81871554  1
  O  O92  1  0.03851332  0.89684206  0.43131693  1
  O  O93  1  0.07251785  0.57314680  0.93174338  1
  O  O94  1  0.06717218  0.21189928  0.93147408  1
  O  O95  1  0.03322373  0.89185193  0.93047745  1
