# generated using pymatgen
data_Na6Bi2B4SO16
_symmetry_space_group_name_H-M   'P 1'
_cell_length_a   10.25883882
_cell_length_b   10.25883884
_cell_length_c   10.25883882
_cell_angle_alpha   59.99999667
_cell_angle_beta   119.99999575
_cell_angle_gamma   89.99999925
_symmetry_Int_Tables_number   1
_chemical_formula_structural   Na6Bi2B4SO16
_chemical_formula_sum   'Na12 Bi4 B8 S2 O32'
_cell_volume   763.44828828
_cell_formula_units_Z   2
loop_
 _symmetry_equiv_pos_site_id
 _symmetry_equiv_pos_as_xyz
  1  'x, y, z'
loop_
 _atom_site_type_symbol
 _atom_site_label
 _atom_site_symmetry_multiplicity
 _atom_site_fract_x
 _atom_site_fract_y
 _atom_site_fract_z
 _atom_site_occupancy
  Na  Na0  1  0.08369538  0.66630462  0.16739077  1
  Na  Na1  1  0.08369538  0.08369538  0.75000000  1
  Na  Na2  1  0.33369538  0.33369538  0.25000000  1
  Na  Na3  1  0.66630462  0.08369538  0.33260923  1
  Na  Na4  1  0.91630462  0.33369538  0.25000000  1
  Na  Na5  1  0.33369538  0.91630462  0.25000000  1
  Na  Na6  1  0.66630462  0.08369538  0.75000000  1
  Na  Na7  1  0.08369538  0.66630462  0.75000000  1
  Na  Na8  1  0.33369538  0.91630462  0.66739077  1
  Na  Na9  1  0.91630462  0.33369538  0.83260923  1
  Na  Na10  1  0.91630462  0.91630462  0.25000000  1
  Na  Na11  1  0.66630462  0.66630462  0.75000000  1
  Bi  Bi12  1  0.50000000  0.00000000  0.00000000  1
  Bi  Bi13  1  0.00000000  0.50000000  0.50000000  1
  Bi  Bi14  1  0.50000000  0.50000000  0.00000000  1
  Bi  Bi15  1  0.50000000  0.50000000  0.50000000  1
  B  B16  1  0.33326395  0.72224535  0.05550930  1
  B  B17  1  0.27775465  0.27775465  0.55550930  1
  B  B18  1  0.72224535  0.33326395  0.44449070  1
  B  B19  1  0.72224535  0.72224535  0.05550930  1
  B  B20  1  0.27775465  0.27775465  0.94449070  1
  B  B21  1  0.27775465  0.66673605  0.55550930  1
  B  B22  1  0.66673605  0.27775465  0.94449070  1
  B  B23  1  0.72224535  0.72224535  0.44449070  1
  S  S24  1  0.12500000  0.12500000  0.25000000  1
  S  S25  1  0.87500000  0.87500000  0.75000000  1
  O  O26  1  0.06535103  0.06535103  0.13070106  1
  O  O27  1  0.06535103  0.06535103  0.36929894  1
  O  O28  1  0.06535103  0.30394891  0.13070106  1
  O  O29  1  0.40548830  0.13561213  0.07489110  1
  O  O30  1  0.30394891  0.06535103  0.36929894  1
  O  O31  1  0.13561213  0.40548830  0.42510890  1
  O  O32  1  0.66940280  0.28949676  0.07489110  1
  O  O33  1  0.28949676  0.13561213  0.69498507  1
  O  O34  1  0.33059720  0.59451170  0.19498507  1
  O  O35  1  0.59451170  0.33059720  0.30501493  1
  O  O36  1  0.13561213  0.28949676  0.80501493  1
  O  O37  1  0.40548830  0.28949676  0.54110144  1
  O  O38  1  0.33059720  0.86438787  0.04110144  1
  O  O39  1  0.71050324  0.59451170  0.04110144  1
  O  O40  1  0.13561213  0.66940280  0.54110144  1
  O  O41  1  0.28949676  0.66940280  0.42510890  1
  O  O42  1  0.71050324  0.33059720  0.57489110  1
  O  O43  1  0.28949676  0.40548830  0.95889856  1
  O  O44  1  0.86438787  0.33059720  0.45889856  1
  O  O45  1  0.66940280  0.13561213  0.95889856  1
  O  O46  1  0.59451170  0.71050324  0.45889856  1
  O  O47  1  0.86438787  0.71050324  0.19498507  1
  O  O48  1  0.40548830  0.66940280  0.69498507  1
  O  O49  1  0.66940280  0.40548830  0.80501493  1
  O  O50  1  0.71050324  0.86438787  0.30501493  1
  O  O51  1  0.33059720  0.71050324  0.92510890  1
  O  O52  1  0.86438787  0.59451170  0.57489110  1
  O  O53  1  0.69605109  0.93464997  0.63070106  1
  O  O54  1  0.59451170  0.86438787  0.92510890  1
  O  O55  1  0.93464997  0.69605109  0.86929894  1
  O  O56  1  0.93464997  0.93464997  0.63070106  1
  O  O57  1  0.93464997  0.93464997  0.86929894  1
