# generated using pymatgen
data_Li32Mn3Cr13O48
_symmetry_space_group_name_H-M   'P 1'
_cell_length_a   5.04152664
_cell_length_b   8.70984629
_cell_length_c   19.52362422
_cell_angle_alpha   97.98546288
_cell_angle_beta   94.99144228
_cell_angle_gamma   89.60270930
_symmetry_Int_Tables_number   1
_chemical_formula_structural   Li32Mn3Cr13O48
_chemical_formula_sum   'Li32 Mn3 Cr13 O48'
_cell_volume   845.75625062
_cell_formula_units_Z   1
loop_
 _symmetry_equiv_pos_site_id
 _symmetry_equiv_pos_as_xyz
  1  'x, y, z'
loop_
 _atom_site_type_symbol
 _atom_site_label
 _atom_site_symmetry_multiplicity
 _atom_site_fract_x
 _atom_site_fract_y
 _atom_site_fract_z
 _atom_site_occupancy
  Li  Li0  1  0.99264396  0.16881087  0.24961881  1
  Li  Li1  1  0.87644039  0.37653333  0.37488578  1
  Li  Li2  1  0.75005786  0.24840790  0.99958992  1
  Li  Li3  1  0.74198942  0.92021760  0.99991053  1
  Li  Li4  1  0.99190455  0.16722409  0.74902440  1
  Li  Li5  1  0.75811138  0.57998613  0.49942841  1
  Li  Li6  1  0.87527240  0.37547407  0.87506643  1
  Li  Li7  1  0.75201065  0.24993329  0.50053054  1
  Li  Li8  1  0.74157817  0.91930445  0.49935979  1
  Li  Li9  1  0.62583255  0.12385283  0.12515828  1
  Li  Li10  1  0.75634584  0.57975646  0.99982290  1
  Li  Li11  1  0.50734325  0.33067754  0.25042871  1
  Li  Li12  1  0.62468649  0.12373334  0.62513651  1
  Li  Li13  1  0.49888065  0.99802381  0.24963262  1
  Li  Li14  1  0.49301242  0.67024568  0.24996509  1
  Li  Li15  1  0.50556995  0.33018788  0.74986948  1
  Li  Li16  1  0.37491323  0.87461628  0.37519778  1
  Li  Li17  1  0.50094965  0.00039115  0.74988488  1
  Li  Li18  1  0.24742889  0.74939406  0.00020092  1
  Li  Li19  1  0.49503145  0.66986593  0.75043511  1
  Li  Li20  1  0.24336027  0.42086513  -0.00008408  1
  Li  Li21  1  0.37673970  0.87659025  0.87497827  1
  Li  Li22  1  0.25769525  0.07938731  0.50059973  1
  Li  Li23  1  0.24775880  0.75110119  0.49946404  1
  Li  Li24  1  0.12702469  0.62663064  0.12505137  1
  Li  Li25  1  0.24173392  0.42060931  0.50053113  1
  Li  Li26  1  0.00927833  0.83214752  0.25065039  1
  Li  Li27  1  0.25951460  0.08059588  0.99992893  1
  Li  Li28  1  0.12532401  0.62380772  0.62480155  1
  Li  Li29  1  0.99962624  0.50022363  0.25088028  1
  Li  Li30  1  0.00635553  0.83269832  0.75052741  1
  Li  Li31  1  0.99945341  0.49962724  0.75007715  1
  Mn  Mn32  1  0.87646334  0.70969440  0.37580046  1
  Mn  Mn33  1  0.87252171  0.70744153  0.87434283  1
  Mn  Mn34  1  0.12425294  0.29116557  0.62493578  1
  Cr  Cr35  1  0.87282000  0.04614157  0.37492197  1
  Cr  Cr36  1  0.88080349  0.03907839  0.87469719  1
  Cr  Cr37  1  0.63150989  0.78853116  0.12518648  1
  Cr  Cr38  1  0.62076816  0.45238561  0.12389132  1
  Cr  Cr39  1  0.63168533  0.78905421  0.62499879  1
  Cr  Cr40  1  0.61839023  0.45476374  0.62417940  1
  Cr  Cr41  1  0.38228052  0.54220592  0.37557829  1
  Cr  Cr42  1  0.36937249  0.20324800  0.37366988  1
  Cr  Cr43  1  0.37690422  0.54637689  0.87512838  1
  Cr  Cr44  1  0.37418746  0.21200495  0.87544418  1
  Cr  Cr45  1  0.12425789  0.96262820  0.12544292  1
  Cr  Cr46  1  0.12529495  0.29790608  0.12524653  1
  Cr  Cr47  1  0.12351042  0.95918562  0.62606991  1
  O  O48  1  0.96684252  0.10853714  0.06926922  1
  O  O49  1  0.91977377  0.78618075  0.06891765  1
  O  O50  1  0.93312202  0.42415937  0.06703288  1
  O  O51  1  0.96597583  0.10703071  0.56918635  1
  O  O52  1  0.83226116  0.96513220  0.18156999  1
  O  O53  1  0.81598089  0.32669298  0.18269945  1
  O  O54  1  0.92302117  0.78767892  0.56920585  1
  O  O55  1  0.93135111  0.42710654  0.56769860  1
  O  O56  1  0.78238670  0.64293981  0.18038380  1
  O  O57  1  0.71534670  0.85686487  0.31947093  1
  O  O58  1  0.82491270  0.96687240  0.68149622  1
  O  O59  1  0.82401460  0.32445390  0.68166198  1
  O  O60  1  0.67849538  0.53713143  0.31930100  1
  O  O61  1  0.68233019  0.17360550  0.31705183  1
  O  O62  1  0.78125705  0.64467502  0.68091720  1
  O  O63  1  0.71012597  0.85354298  0.81853440  1
  O  O64  1  0.46399269  0.60281887  0.06862225  1
  O  O65  1  0.57537517  0.71652478  0.43101252  1
  O  O66  1  0.56635662  0.07754111  0.43267439  1
  O  O67  1  0.68310655  0.53579926  0.81876425  1
  O  O68  1  0.67272985  0.17488391  0.81819327  1
  O  O69  1  0.42244167  0.92549538  0.06797508  1
  O  O70  1  0.43575956  0.28720084  0.06858229  1
  O  O71  1  0.52938427  0.39455729  0.43072617  1
  O  O72  1  0.46822108  0.60237616  0.56858360  1
  O  O73  1  0.57258026  0.71336931  0.93043159  1
  O  O74  1  0.57645393  0.07143493  0.93244068  1
  O  O75  1  0.32726810  0.82175649  0.18246856  1
  O  O76  1  0.31413642  0.46144318  0.18134654  1
  O  O77  1  0.42803930  0.92608939  0.56791496  1
  O  O78  1  0.42578901  0.28469496  0.56920667  1
  O  O79  1  0.53290195  0.39554934  0.93116243  1
  O  O80  1  0.28535598  0.14557416  0.18069882  1
  O  O81  1  0.21622216  0.35459895  0.31868698  1
  O  O82  1  0.32406445  0.82515180  0.68214358  1
  O  O83  1  0.31855324  0.46369958  0.68092852  1
  O  O84  1  0.17591275  0.67595486  0.31847407  1
  O  O85  1  0.18490728  0.03710543  0.31856875  1
  O  O86  1  0.28730035  0.14514694  0.68146181  1
  O  O87  1  0.21832953  0.35852977  0.81921738  1
  O  O88  1  0.07014127  0.57264719  0.43235974  1
  O  O89  1  0.06412807  0.20956918  0.43109050  1
  O  O90  1  0.17565045  0.67693275  0.81808087  1
  O  O91  1  0.16982925  0.03579815  0.81889516  1
  O  O92  1  0.03627451  0.89258405  0.43072773  1
  O  O93  1  0.06824859  0.57320621  0.93216249  1
  O  O94  1  0.08098102  0.21395647  0.93121455  1
  O  O95  1  0.03347297  0.89267111  0.93069309  1
