# generated using pymatgen
data_La2WO6
_symmetry_space_group_name_H-M   'P 1'
_cell_length_a   9.11902154
_cell_length_b   21.96385667
_cell_length_c   5.52391562
_cell_angle_alpha   90.00000000
_cell_angle_beta   90.00000000
_cell_angle_gamma   90.00000000
_symmetry_Int_Tables_number   1
_chemical_formula_structural   La2WO6
_chemical_formula_sum   'La16 W8 O48'
_cell_volume   1106.37888421
_cell_formula_units_Z   8
loop_
 _symmetry_equiv_pos_site_id
 _symmetry_equiv_pos_as_xyz
  1  'x, y, z'
loop_
 _atom_site_type_symbol
 _atom_site_label
 _atom_site_symmetry_multiplicity
 _atom_site_fract_x
 _atom_site_fract_y
 _atom_site_fract_z
 _atom_site_occupancy
  La  La0  1  0.08842418  0.43478321  0.45963679  1
  La  La1  1  0.10678395  0.66491536  0.41851998  1
  La  La2  1  0.24599112  0.93234486  0.53801269  1
  La  La3  1  0.24563440  0.20025671  0.49350944  1
  La  La4  1  0.25436560  0.79974329  0.99350944  1
  La  La5  1  0.25400888  0.06765514  0.03801269  1
  La  La6  1  0.39321605  0.33508464  0.91851998  1
  La  La7  1  0.41157582  0.56521679  0.95963679  1
  La  La8  1  0.58842418  0.06521679  0.54036321  1
  La  La9  1  0.60678395  0.83508464  0.58148002  1
  La  La10  1  0.74599112  0.56765514  0.46198731  1
  La  La11  1  0.74563440  0.29974329  0.50649056  1
  La  La12  1  0.75436560  0.70025671  0.00649056  1
  La  La13  1  0.75400888  0.43234486  0.96198731  1
  La  La14  1  0.89321605  0.16491536  0.08148002  1
  La  La15  1  0.91157582  0.93478321  0.04036321  1
  W  W16  1  0.01578925  0.55648874  0.93588949  1
  W  W17  1  0.02008010  0.31258229  0.98822560  1
  W  W18  1  0.47991990  0.68741771  0.48822560  1
  W  W19  1  0.48421075  0.44351126  0.43588949  1
  W  W20  1  0.51578925  0.94351126  0.06411051  1
  W  W21  1  0.52008010  0.18741771  0.01177440  1
  W  W22  1  0.97991990  0.81258229  0.51177440  1
  W  W23  1  0.98421075  0.05648874  0.56411051  1
  O  O24  1  0.03084693  0.25170524  0.24320522  1
  O  O25  1  0.04704557  0.11918139  0.78304390  1
  O  O26  1  0.05213904  0.87109221  0.76085082  1
  O  O27  1  0.04819038  0.00062617  0.31547064  1
  O  O28  1  0.10684248  0.11876695  0.32795061  1
  O  O29  1  0.11411846  0.00342566  0.77703867  1
  O  O30  1  0.12026876  0.85833466  0.29032134  1
  O  O31  1  0.12179855  0.75721721  0.66815309  1
  O  O32  1  0.16675713  0.36693794  0.11743200  1
  O  O33  1  0.17532291  0.59628388  0.10011547  1
  O  O34  1  0.16795344  0.51752106  0.76633330  1
  O  O35  1  0.17280073  0.28027612  0.78215004  1
  O  O36  1  0.32719927  0.71972388  0.28215004  1
  O  O37  1  0.33204656  0.48247894  0.26633330  1
  O  O38  1  0.32467709  0.40371612  0.60011547  1
  O  O39  1  0.33324287  0.63306206  0.61743200  1
  O  O40  1  0.37820145  0.24278279  0.16815309  1
  O  O41  1  0.37973124  0.14166534  0.79032134  1
  O  O42  1  0.38588154  0.99657434  0.27703867  1
  O  O43  1  0.39315752  0.88123305  0.82795061  1
  O  O44  1  0.45180962  0.99937383  0.81547064  1
  O  O45  1  0.44786096  0.12890779  0.26085082  1
  O  O46  1  0.45295443  0.88081861  0.28304390  1
  O  O47  1  0.46915307  0.74829476  0.74320522  1
  O  O48  1  0.53084693  0.24829476  0.75679478  1
  O  O49  1  0.54704557  0.38081861  0.21695610  1
  O  O50  1  0.55213904  0.62890779  0.23914918  1
  O  O51  1  0.54819038  0.49937383  0.68452936  1
  O  O52  1  0.60684248  0.38123305  0.67204939  1
  O  O53  1  0.61411846  0.49657434  0.22296133  1
  O  O54  1  0.62026876  0.64166534  0.70967866  1
  O  O55  1  0.62179855  0.74278279  0.33184691  1
  O  O56  1  0.66675713  0.13306206  0.88256800  1
  O  O57  1  0.67532291  0.90371612  0.89988453  1
  O  O58  1  0.66795344  0.98247894  0.23366670  1
  O  O59  1  0.67280073  0.21972388  0.21784996  1
  O  O60  1  0.82719927  0.78027612  0.71784996  1
  O  O61  1  0.83204656  0.01752106  0.73366670  1
  O  O62  1  0.82467709  0.09628388  0.39988453  1
  O  O63  1  0.83324287  0.86693794  0.38256800  1
  O  O64  1  0.87820145  0.25721721  0.83184691  1
  O  O65  1  0.87973124  0.35833466  0.20967866  1
  O  O66  1  0.88588154  0.50342566  0.72296133  1
  O  O67  1  0.89315752  0.61876695  0.17204939  1
  O  O68  1  0.95180962  0.50062617  0.18452936  1
  O  O69  1  0.94786096  0.37109221  0.73914918  1
  O  O70  1  0.95295443  0.61918139  0.71695610  1
  O  O71  1  0.96915307  0.75170524  0.25679478  1
