# generated using pymatgen
data_Li32Mn5Cr11O48
_symmetry_space_group_name_H-M   'P 1'
_cell_length_a   5.01600937
_cell_length_b   5.01600867
_cell_length_c   38.43013120
_cell_angle_alpha   89.01250002
_cell_angle_beta   90.98750021
_cell_angle_gamma   60.33680045
_symmetry_Int_Tables_number   1
_chemical_formula_structural   Li32Mn5Cr11O48
_chemical_formula_sum   'Li32 Mn5 Cr11 O48'
_cell_volume   839.70651039
_cell_formula_units_Z   1
loop_
 _symmetry_equiv_pos_site_id
 _symmetry_equiv_pos_as_xyz
  1  'x, y, z'
loop_
 _atom_site_type_symbol
 _atom_site_label
 _atom_site_symmetry_multiplicity
 _atom_site_fract_x
 _atom_site_fract_y
 _atom_site_fract_z
 _atom_site_occupancy
  Li  Li0  1  0.08703462  0.09331268  0.24992415  1
  Li  Li1  1  0.00087482  0.49940428  0.00008104  1
  Li  Li2  1  0.06212535  0.43712535  0.18750000  1
  Li  Li3  1  0.12440428  0.37587482  0.37491896  1
  Li  Li4  1  0.19132963  0.31308147  0.56255975  1
  Li  Li5  1  0.25098666  0.24942897  0.74997007  1
  Li  Li6  1  0.31168314  0.18870716  0.93752472  1
  Li  Li7  1  0.03435653  0.78815963  0.12491997  1
  Li  Li8  1  0.37171965  0.12295316  0.12502334  1
  Li  Li9  1  0.16596909  0.65490565  0.50017392  1
  Li  Li10  1  0.27990565  0.54096909  0.87482608  1
  Li  Li11  1  0.43873797  0.06521937  0.31250605  1
  Li  Li12  1  0.49949600  0.00054504  0.50013365  1
  Li  Li13  1  0.41315963  0.40935653  0.25008003  1
  Li  Li14  1  0.53012805  0.28752120  0.62488305  1
  Li  Li15  1  0.21968129  0.96052530  0.62512754  1
  Li  Li16  1  0.33577072  0.84156873  0.99986339  1
  Li  Li17  1  0.66393392  0.15816585  0.00015957  1
  Li  Li18  1  0.78316585  0.03893392  0.37484043  1
  Li  Li19  1  0.46656873  0.71077072  0.37513661  1
  Li  Li20  1  0.58552530  0.59468129  0.74987246  1
  Li  Li21  1  0.56248603  0.93748603  0.68750000  1
  Li  Li22  1  0.71831268  0.46203462  0.12507585  1
  Li  Li23  1  0.83322685  0.34425781  0.49997783  1
  Li  Li24  1  0.62554504  0.87449600  0.87486635  1
  Li  Li25  1  0.96925781  0.20822685  0.87502217  1
  Li  Li26  1  0.69021937  0.81373797  0.06249395  1
  Li  Li27  1  0.74795316  0.74671965  0.24997666  1
  Li  Li28  1  0.81370716  0.68668314  0.43747528  1
  Li  Li29  1  0.87442897  0.62598666  0.62502993  1
  Li  Li30  1  0.93808147  0.56632963  0.81244025  1
  Li  Li31  1  0.91252120  0.90512805  0.75011695  1
  Mn  Mn32  1  0.01954748  0.14443067  0.06240882  1
  Mn  Mn33  1  0.26945251  0.89577449  0.81236035  1
  Mn  Mn34  1  0.39556157  0.77056157  0.18750000  1
  Mn  Mn35  1  0.52077449  0.64445251  0.56263965  1
  Mn  Mn36  1  0.76943067  0.39454748  0.31259118  1
  Cr  Cr37  1  0.14164349  0.02754100  0.43743699  1
  Cr  Cr38  1  0.10742517  0.73266155  0.31254833  1
  Cr  Cr39  1  0.23298159  0.60798159  0.68750000  1
  Cr  Cr40  1  0.35766155  0.48242517  0.06245167  1
  Cr  Cr41  1  0.48421768  0.34774234  0.43774724  1
  Cr  Cr42  1  0.60577798  0.23474465  0.81247475  1
  Cr  Cr43  1  0.72945211  0.10445211  0.18750000  1
  Cr  Cr44  1  0.65254100  0.51664349  0.93756301  1
  Cr  Cr45  1  0.89140254  0.26640254  0.68750000  1
  Cr  Cr46  1  0.85974465  0.98077798  0.56252525  1
  Cr  Cr47  1  0.97274234  0.85921768  0.93725276  1
  O  O48  1  0.08852996  0.05111671  0.34047994  1
  O  O49  1  0.05710639  0.08788155  0.15942710  1
  O  O50  1  0.07040478  0.42929890  0.28424959  1
  O  O51  1  0.19490026  0.30456647  0.65904227  1
  O  O52  1  0.05429890  0.44540478  0.09075041  1
  O  O53  1  0.17300106  0.31645645  0.46650680  1
  O  O54  1  0.30786207  0.19290811  0.84081818  1
  O  O55  1  0.32114785  0.17890638  0.03412298  1
  O  O56  1  0.45073550  0.06038087  0.40872964  1
  O  O57  1  0.07024338  0.78637061  0.21556672  1
  O  O58  1  0.42735586  0.07159354  0.21620718  1
  O  O59  1  0.20080957  0.65761883  0.59083657  1
  O  O60  1  0.31993565  0.53596727  0.96524072  1
  O  O61  1  0.03128870  0.82844848  0.03394234  1
  O  O62  1  0.16096727  0.69493565  0.40975928  1
  O  O63  1  0.28261883  0.57580957  0.78416343  1
  O  O64  1  0.21787383  0.91833231  0.71579054  1
  O  O65  1  0.17952305  0.96115990  0.53468774  1
  O  O66  1  0.30529105  0.83661515  0.90965341  1
  O  O67  1  0.45344848  0.40628870  0.34105766  1
  O  O68  1  0.58139635  0.28173793  0.71586767  1
  O  O69  1  0.41137060  0.44524338  0.15943328  1
  O  O70  1  0.53171740  0.32699176  0.53416403  1
  O  O71  1  0.66819129  0.18341959  0.90916803  1
  O  O72  1  0.33835689  0.80113333  0.09030301  1
  O  O73  1  0.46161515  0.68029105  0.46534659  1
  O  O74  1  0.58615990  0.55452305  0.84031226  1
  O  O75  1  0.42613333  0.71335689  0.28469699  1
  O  O76  1  0.54333231  0.59287383  0.65920946  1
  O  O77  1  0.70361373  0.15595354  0.09094622  1
  O  O78  1  0.80841959  0.04319129  0.46583197  1
  O  O79  1  0.78095354  0.07861373  0.28405378  1
  O  O80  1  0.71288155  0.43210639  0.21557290  1
  O  O81  1  0.83384443  0.30151433  0.59049014  1
  O  O82  1  0.95611871  0.19238240  0.96580763  1
  O  O83  1  0.67611671  0.46352996  0.03452006  1
  O  O84  1  0.81738240  0.33111871  0.40919237  1
  O  O85  1  0.56981581  0.92753156  0.78384449  1
  O  O86  1  0.92651433  0.20884443  0.78450986  1
  O  O87  1  0.55253156  0.94481581  0.59115551  1
  O  O88  1  0.68538087  0.82573550  0.96627036  1
  O  O89  1  0.69659354  0.80235586  0.15879282  1
  O  O90  1  0.81790811  0.68286207  0.53418182  1
  O  O91  1  0.94145645  0.54800106  0.90849320  1
  O  O92  1  0.80390638  0.69614785  0.34087702  1
  O  O93  1  0.92956647  0.56990026  0.71595773  1
  O  O94  1  0.95199176  0.90671740  0.84083597  1
  O  O95  1  0.90673793  0.95639635  0.65913233  1
