# generated using pymatgen
data_Li32Mn3Cr13O48
_symmetry_space_group_name_H-M   'P 1'
_cell_length_a   5.03006516
_cell_length_b   8.70810648
_cell_length_c   19.48256555
_cell_angle_alpha   97.91390485
_cell_angle_beta   94.89726409
_cell_angle_gamma   89.51607408
_symmetry_Int_Tables_number   1
_chemical_formula_structural   Li32Mn3Cr13O48
_chemical_formula_sum   'Li32 Mn3 Cr13 O48'
_cell_volume   842.16403537
_cell_formula_units_Z   1
loop_
 _symmetry_equiv_pos_site_id
 _symmetry_equiv_pos_as_xyz
  1  'x, y, z'
loop_
 _atom_site_type_symbol
 _atom_site_label
 _atom_site_symmetry_multiplicity
 _atom_site_fract_x
 _atom_site_fract_y
 _atom_site_fract_z
 _atom_site_occupancy
  Li  Li0  1  0.98905349  0.16981180  0.24993570  1
  Li  Li1  1  0.87543983  0.37490813  0.37510692  1
  Li  Li2  1  0.75093935  0.24973655  0.99981435  1
  Li  Li3  1  0.74372654  0.92053232  0.99967901  1
  Li  Li4  1  0.99257458  0.16872633  0.74970636  1
  Li  Li5  1  0.75858978  0.57920957  0.49954268  1
  Li  Li6  1  0.87469145  0.37493589  0.87493325  1
  Li  Li7  1  0.75319050  0.24932579  0.50045498  1
  Li  Li8  1  0.74137860  0.92038273  0.49951902  1
  Li  Li9  1  0.62623547  0.12641401  0.12481125  1
  Li  Li10  1  0.76047303  0.57926096  0.99973946  1
  Li  Li11  1  0.51098608  0.33083221  0.25028785  1
  Li  Li12  1  0.62493254  0.12550892  0.62491497  1
  Li  Li13  1  0.49770384  0.00076277  0.25056538  1
  Li  Li14  1  0.49498998  0.67014308  0.25007200  1
  Li  Li15  1  0.50695445  0.33015824  0.74978503  1
  Li  Li16  1  0.37547152  0.87625430  0.37514801  1
  Li  Li17  1  0.50302935  0.00104139  0.75049371  1
  Li  Li18  1  0.25177864  0.74885161  0.99949993  1
  Li  Li19  1  0.48992511  0.66857168  0.74941672  1
  Li  Li20  1  0.23971489  0.42035437  -0.00001624  1
  Li  Li21  1  0.37508016  0.87463884  0.87478017  1
  Li  Li22  1  0.25928364  0.08141060  0.50060627  1
  Li  Li23  1  0.24852357  0.74955021  0.49961075  1
  Li  Li24  1  0.12372622  0.62372202  0.12517401  1
  Li  Li25  1  0.24088556  0.41954669  0.50041418  1
  Li  Li26  1  0.00707463  0.83054463  0.25070553  1
  Li  Li27  1  0.25458565  0.07909272  0.99967824  1
  Li  Li28  1  0.12352824  0.62326032  0.62503922  1
  Li  Li29  1  0.99874872  0.49985528  0.25013232  1
  Li  Li30  1  0.00728042  0.83107811  0.75065649  1
  Li  Li31  1  0.99929383  0.50032533  0.74916295  1
  Mn  Mn32  1  0.87496716  0.70842133  0.37531570  1
  Mn  Mn33  1  0.87316194  0.04140290  0.87413343  1
  Mn  Mn34  1  0.12398007  0.29031848  0.62453383  1
  Cr  Cr35  1  0.87646925  0.03814452  0.37472654  1
  Cr  Cr36  1  0.87770282  0.71193887  0.87527315  1
  Cr  Cr37  1  0.62707411  0.79706148  0.12572111  1
  Cr  Cr38  1  0.62108964  0.46176895  0.12533531  1
  Cr  Cr39  1  0.62962720  0.79635250  0.62612230  1
  Cr  Cr40  1  0.61777032  0.45767867  0.62434265  1
  Cr  Cr41  1  0.38146830  0.54452330  0.37544036  1
  Cr  Cr42  1  0.36960506  0.21183295  0.37468838  1
  Cr  Cr43  1  0.38378480  0.54056486  0.87591056  1
  Cr  Cr44  1  0.36565692  0.20728716  0.87438005  1
  Cr  Cr45  1  0.12124894  0.95281994  0.12419184  1
  Cr  Cr46  1  0.13030839  0.28855920  0.12493870  1
  Cr  Cr47  1  0.12622438  0.95415073  0.62501554  1
  O  O48  1  0.96449131  0.10242024  0.06861590  1
  O  O49  1  0.93607405  0.78717430  0.06870001  1
  O  O50  1  0.92522598  0.42627900  0.06793070  1
  O  O51  1  0.96454376  0.10739787  0.56947221  1
  O  O52  1  0.81394002  0.96213935  0.18118675  1
  O  O53  1  0.82468991  0.32300455  0.18213155  1
  O  O54  1  0.93629267  0.78989871  0.56889762  1
  O  O55  1  0.93048306  0.42736033  0.56767110  1
  O  O56  1  0.78612471  0.64714365  0.18116840  1
  O  O57  1  0.71132463  0.85454710  0.31890469  1
  O  O58  1  0.81469093  0.96230348  0.68151295  1
  O  O59  1  0.82323242  0.32407100  0.68164008  1
  O  O60  1  0.68109346  0.53643784  0.31950624  1
  O  O61  1  0.67258295  0.17708371  0.31757214  1
  O  O62  1  0.78332910  0.64511196  0.68132018  1
  O  O63  1  0.71147329  0.85939099  0.81916521  1
  O  O64  1  0.46844606  0.60661955  0.06956638  1
  O  O65  1  0.57490000  0.71592857  0.43107300  1
  O  O66  1  0.57881330  0.07348258  0.43212737  1
  O  O67  1  0.67311185  0.53753092  0.81908861  1
  O  O68  1  0.67988206  0.17816863  0.81799246  1
  O  O69  1  0.43315806  0.92350241  0.06725090  1
  O  O70  1  0.41887540  0.28457184  0.06862737  1
  O  O71  1  0.53159714  0.39722346  0.43133285  1
  O  O72  1  0.47008165  0.60540175  0.56918399  1
  O  O73  1  0.57890699  0.71499678  0.93144282  1
  O  O74  1  0.57358787  0.07344268  0.93151697  1
  O  O75  1  0.31632901  0.82683388  0.18272999  1
  O  O76  1  0.33183261  0.46546460  0.18143394  1
  O  O77  1  0.43405382  0.92279456  0.56730237  1
  O  O78  1  0.42584408  0.28390138  0.56919229  1
  O  O79  1  0.53184404  0.39582445  0.93145961  1
  O  O80  1  0.28183018  0.14391391  0.18045587  1
  O  O81  1  0.21738419  0.35657713  0.31868456  1
  O  O82  1  0.31684426  0.82633147  0.68294660  1
  O  O83  1  0.32007288  0.46309242  0.68072377  1
  O  O84  1  0.17578822  0.67692897  0.31832042  1
  O  O85  1  0.16856977  0.03534933  0.31851074  1
  O  O86  1  0.28573536  0.14290310  0.68061955  1
  O  O87  1  0.21897841  0.35244154  0.81879728  1
  O  O88  1  0.06913942  0.57228046  0.43210309  1
  O  O89  1  0.08001435  0.21335745  0.43094818  1
  O  O90  1  0.17274977  0.67454378  0.81812580  1
  O  O91  1  0.17452192  0.03279295  0.81885486  1
  O  O92  1  0.03635075  0.89143902  0.43088663  1
  O  O93  1  0.07415250  0.57187020  0.93263262  1
  O  O94  1  0.07097216  0.21291442  0.93045066  1
  O  O95  1  0.03610871  0.89423849  0.93078685  1
