# generated using pymatgen
data_CoO2
_symmetry_space_group_name_H-M   'P 1'
_cell_length_a   2.83616023
_cell_length_b   2.83802240
_cell_length_c   10.94590664
_cell_angle_alpha   83.36759052
_cell_angle_beta   103.43451985
_cell_angle_gamma   120.23094430
_symmetry_Int_Tables_number   1
_chemical_formula_structural   CoO2
_chemical_formula_sum   'Co2 O4'
_cell_volume   74.03946595
_cell_formula_units_Z   2
loop_
 _symmetry_equiv_pos_site_id
 _symmetry_equiv_pos_as_xyz
  1  'x, y, z'
loop_
 _atom_site_type_symbol
 _atom_site_label
 _atom_site_symmetry_multiplicity
 _atom_site_fract_x
 _atom_site_fract_y
 _atom_site_fract_z
 _atom_site_occupancy
  Co  Co0  1  0.03144803  0.99066058  0.99210359  1
  Co  Co1  1  0.04309548  -0.00065749  0.49620328  1
  O  O2  1  0.28275307  0.65686461  0.90349795  1
  O  O3  1  0.45429266  0.66745849  0.58450340  1
  O  O4  1  0.77964817  0.32479185  0.08078298  1
  O  O5  1  0.63096459  0.33237796  0.40762979  1
