# generated using pymatgen
data_Li2CuNiO4
_symmetry_space_group_name_H-M   'P 1'
_cell_length_a   5.07974408
_cell_length_b   5.07974463
_cell_length_c   5.07974461
_cell_angle_alpha   132.62349791
_cell_angle_beta   132.62349518
_cell_angle_gamma   69.24604254
_symmetry_Int_Tables_number   1
_chemical_formula_structural   Li2CuNiO4
_chemical_formula_sum   'Li2 Cu1 Ni1 O4'
_cell_volume   69.64186070
_cell_formula_units_Z   1
loop_
 _symmetry_equiv_pos_site_id
 _symmetry_equiv_pos_as_xyz
  1  'x, y, z'
loop_
 _atom_site_type_symbol
 _atom_site_label
 _atom_site_symmetry_multiplicity
 _atom_site_fract_x
 _atom_site_fract_y
 _atom_site_fract_z
 _atom_site_occupancy
  Li  Li0  1  0.25000000  0.75000000  0.50000000  1
  Li  Li1  1  0.50000000  0.50000000  0.00000000  1
  Cu  Cu2  1  0.75000000  0.25000000  0.50000000  1
  Ni  Ni3  1  0.00000000  0.00000000  0.00000000  1
  O  O4  1  0.52231981  0.02231981  0.50000000  1
  O  O5  1  0.23403249  0.23403249  0.00000000  1
  O  O6  1  0.97768019  0.47768019  0.50000000  1
  O  O7  1  0.76596751  0.76596751  0.00000000  1
