# generated using pymatgen
data_CoO2
_symmetry_space_group_name_H-M   'P 1'
_cell_length_a   10.50777419
_cell_length_b   2.84663810
_cell_length_c   11.26659506
_cell_angle_alpha   67.63625193
_cell_angle_beta   25.65817112
_cell_angle_gamma   89.73811153
_symmetry_Int_Tables_number   1
_chemical_formula_structural   CoO2
_chemical_formula_sum   'Co2 O4'
_cell_volume   72.14987750
_cell_formula_units_Z   2
loop_
 _symmetry_equiv_pos_site_id
 _symmetry_equiv_pos_as_xyz
  1  'x, y, z'
loop_
 _atom_site_type_symbol
 _atom_site_label
 _atom_site_symmetry_multiplicity
 _atom_site_fract_x
 _atom_site_fract_y
 _atom_site_fract_z
 _atom_site_occupancy
  Co  Co0  1  0.00040373  0.99747172  0.99940980  1
  Co  Co1  1  0.50019102  0.49936491  0.99848598  1
  O  O2  1  0.36589867  0.90891682  0.72457460  1
  O  O3  1  0.80305018  0.59068349  0.60488158  1
  O  O4  1  0.19735673  0.40790086  0.39217155  1
  O  O5  1  0.63486867  0.08604320  0.27422749  1
