# generated using pymatgen
data_RbAu(CN)2
_symmetry_space_group_name_H-M   'P 1'
_cell_length_a   9.33265391
_cell_length_b   10.36980676
_cell_length_c   13.88256745
_cell_angle_alpha   104.86249125
_cell_angle_beta   90.00000000
_cell_angle_gamma   116.74315134
_symmetry_Int_Tables_number   1
_chemical_formula_structural   RbAu(CN)2
_chemical_formula_sum   'Rb8 Au8 C16 N16'
_cell_volume   1149.25564723
_cell_formula_units_Z   8
loop_
 _symmetry_equiv_pos_site_id
 _symmetry_equiv_pos_as_xyz
  1  'x, y, z'
loop_
 _atom_site_type_symbol
 _atom_site_label
 _atom_site_symmetry_multiplicity
 _atom_site_fract_x
 _atom_site_fract_y
 _atom_site_fract_z
 _atom_site_occupancy
  Rb  Rb0  1  0.77209158  0.34978326  0.98269499  1
  Rb  Rb1  1  0.42230832  0.65021674  0.51730501  1
  Rb  Rb2  1  0.57769168  0.34978326  0.48269499  1
  Rb  Rb3  1  0.98935884  0.50552139  0.31628957  1
  Rb  Rb4  1  0.22790842  0.65021674  0.01730501  1
  Rb  Rb5  1  0.01064116  0.49447861  0.68371043  1
  Rb  Rb6  1  0.48383745  0.49447861  0.18371043  1
  Rb  Rb7  1  0.51616255  0.50552139  0.81628957  1
  Au  Au8  1  0.51300699  0.00000000  0.75000000  1
  Au  Au9  1  0.16781577  0.03257696  0.57698349  1
  Au  Au10  1  0.83218423  0.96742304  0.42301651  1
  Au  Au11  1  0.86476120  0.03257696  0.07698349  1
  Au  Au12  1  0.09971770  0.00000000  0.25000000  1
  Au  Au13  1  0.48699301  0.00000000  0.25000000  1
  Au  Au14  1  0.90028230  0.00000000  0.75000000  1
  Au  Au15  1  0.13523880  0.96742304  0.92301651  1
  C  C16  1  0.41570798  0.81487137  0.79484662  1
  C  C17  1  0.77499444  0.75205686  0.40467411  1
  C  C18  1  0.39916339  0.81487137  0.29484662  1
  C  C19  1  0.13936640  0.82488640  0.55815327  1
  C  C20  1  0.78059971  0.77758923  0.68773175  1
  C  C21  1  0.31448000  0.17511360  0.94184673  1
  C  C22  1  0.22500556  0.24794314  0.59532589  1
  C  C23  1  0.68552000  0.82488640  0.05815327  1
  C  C24  1  0.99698952  0.77758923  0.18773175  1
  C  C25  1  0.86063360  0.17511360  0.44184673  1
  C  C26  1  0.60083661  0.18512863  0.70515338  1
  C  C27  1  0.21940029  0.22241077  0.31226825  1
  C  C28  1  0.97706242  0.75205686  0.90467411  1
  C  C29  1  0.02293758  0.24794314  0.09532589  1
  C  C30  1  0.58429202  0.18512863  0.20515338  1
  C  C31  1  0.00301048  0.22241077  0.81226825  1
  N  N32  1  0.10721938  0.37695513  0.10605449  1
  N  N33  1  0.94516416  0.64730714  0.15039315  1
  N  N34  1  0.35091110  0.70511654  0.32085948  1
  N  N35  1  0.26973575  0.37695513  0.60605449  1
  N  N36  1  0.64579456  0.29488346  0.17914052  1
  N  N37  1  0.35420544  0.70511654  0.82085948  1
  N  N38  1  0.57326560  0.70612592  0.04747139  1
  N  N39  1  0.13286032  0.70612592  0.54747139  1
  N  N40  1  0.86713968  0.29387408  0.45252861  1
  N  N41  1  0.89278062  0.62304487  0.89394551  1
  N  N42  1  0.05483584  0.35269286  0.84960685  1
  N  N43  1  0.73026425  0.62304487  0.39394551  1
  N  N44  1  0.64908890  0.29488346  0.67914052  1
  N  N45  1  0.29785702  0.35269286  0.34960685  1
  N  N46  1  0.70214298  0.64730714  0.65039315  1
  N  N47  1  0.42673440  0.29387408  0.95252861  1
