# generated using pymatgen
data_Li2MnVP2(HO5)2
_symmetry_space_group_name_H-M   'P 1'
_cell_length_a   5.50316576
_cell_length_b   7.30399780
_cell_length_c   5.15606127
_cell_angle_alpha   106.60975186
_cell_angle_beta   99.72992902
_cell_angle_gamma   107.24945241
_symmetry_Int_Tables_number   1
_chemical_formula_structural   Li2MnVP2(HO5)2
_chemical_formula_sum   'Li2 Mn1 V1 P2 H2 O10'
_cell_volume   182.23067559
_cell_formula_units_Z   1
loop_
 _symmetry_equiv_pos_site_id
 _symmetry_equiv_pos_as_xyz
  1  'x, y, z'
loop_
 _atom_site_type_symbol
 _atom_site_label
 _atom_site_symmetry_multiplicity
 _atom_site_fract_x
 _atom_site_fract_y
 _atom_site_fract_z
 _atom_site_occupancy
  Li  Li0  1  0.39187197  0.82291923  0.74563723  1
  Li  Li1  1  0.60812803  0.17708077  0.25436277  1
  Mn  Mn2  1  0.00000000  0.50000000  0.00000000  1
  V  V3  1  0.00000000  0.00000000  0.00000000  1
  P  P4  1  0.36369687  0.23360549  0.67186296  1
  P  P5  1  0.63630313  0.76639451  0.32813704  1
  H  H6  1  0.06533758  0.34381394  0.36097405  1
  H  H7  1  0.93466242  0.65618606  0.63902595  1
  O  O8  1  0.04385271  0.72045682  0.84093776  1
  O  O9  1  0.21422216  0.38234120  0.70860145  1
  O  O10  1  0.33942665  0.66086016  0.30714587  1
  O  O11  1  0.25427380  0.06996161  0.36840035  1
  O  O12  1  0.33819638  0.11738743  0.88411365  1
  O  O13  1  0.66180362  0.88261257  0.11588635  1
  O  O14  1  0.74572620  0.93003839  0.63159965  1
  O  O15  1  0.66057335  0.33913984  0.69285413  1
  O  O16  1  0.78577784  0.61765880  0.29139855  1
  O  O17  1  0.95614729  0.27954318  0.15906224  1
