# generated using pymatgen
data_V2O3F
_symmetry_space_group_name_H-M   'P 1'
_cell_length_a   4.68938273
_cell_length_b   9.87588519
_cell_length_c   6.05450918
_cell_angle_alpha   71.90316385
_cell_angle_beta   90.18225145
_cell_angle_gamma   88.01511536
_symmetry_Int_Tables_number   1
_chemical_formula_structural   V2O3F
_chemical_formula_sum   'V8 O12 F4'
_cell_volume   266.33631378
_cell_formula_units_Z   4
loop_
 _symmetry_equiv_pos_site_id
 _symmetry_equiv_pos_as_xyz
  1  'x, y, z'
loop_
 _atom_site_type_symbol
 _atom_site_label
 _atom_site_symmetry_multiplicity
 _atom_site_fract_x
 _atom_site_fract_y
 _atom_site_fract_z
 _atom_site_occupancy
  V  V0  1  0.44705818  0.22818698  0.63214397  1
  V  V1  1  0.49913987  0.74276239  0.38430737  1
  V  V2  1  0.54554819  0.27608492  0.11757127  1
  V  V3  1  0.53651195  0.75368995  0.85798420  1
  V  V4  1  0.01746660  0.49929575  0.74555467  1
  V  V5  1  0.98685726  0.99476649  0.50448132  1
  V  V6  1  0.94293044  0.00237892  0.00018663  1
  V  V7  1  0.01075747  0.50608104  0.25389229  1
  O  O8  1  0.81434931  0.40116694  0.05406078  1
  O  O9  1  0.79835728  0.90482884  0.80462654  1
  O  O10  1  0.80417499  0.89830904  0.29070065  1
  O  O11  1  0.68665719  0.65625834  0.15417169  1
  O  O12  1  0.69511462  0.15408834  0.92326329  1
  O  O13  1  0.68371534  0.15184889  0.42288751  1
  O  O14  1  0.71531939  0.64808346  0.68493989  1
  O  O15  1  0.31513694  0.34358359  0.82910756  1
  O  O16  1  0.31072672  0.84749302  0.59401446  1
  O  O17  1  0.30748386  0.34527133  0.32636151  1
  O  O18  1  0.18683166  0.09727680  0.71003797  1
  O  O19  1  0.20063811  0.59879661  0.44896076  1
  F  F20  1  0.80242622  0.39744589  0.55147944  1
  F  F21  1  0.28997495  0.85496374  0.06629591  1
  F  F22  1  0.21638502  0.60240055  0.94705781  1
  F  F23  1  0.18644143  0.09493820  0.19591353  1
