# generated using pymatgen
data_Li8Mn7Nb(PO4)12
_symmetry_space_group_name_H-M   'P 1'
_cell_length_a   8.56229459
_cell_length_b   8.78615609
_cell_length_c   12.26730064
_cell_angle_alpha   90.06534377
_cell_angle_beta   90.46961788
_cell_angle_gamma   90.90212688
_symmetry_Int_Tables_number   1
_chemical_formula_structural   Li8Mn7Nb(PO4)12
_chemical_formula_sum   'Li8 Mn7 Nb1 P12 O48'
_cell_volume   922.71868693
_cell_formula_units_Z   1
loop_
 _symmetry_equiv_pos_site_id
 _symmetry_equiv_pos_as_xyz
  1  'x, y, z'
loop_
 _atom_site_type_symbol
 _atom_site_label
 _atom_site_symmetry_multiplicity
 _atom_site_fract_x
 _atom_site_fract_y
 _atom_site_fract_z
 _atom_site_occupancy
  Li  Li0  1  0.21770816  0.72203445  0.18147428  1
  Li  Li1  1  0.21954993  0.78097805  0.81882386  1
  Li  Li2  1  0.27876119  0.22290077  0.31654485  1
  Li  Li3  1  0.27970358  0.27570169  0.68398626  1
  Li  Li4  1  0.71929671  0.72757300  0.31481926  1
  Li  Li5  1  0.72173821  0.78491749  0.68303274  1
  Li  Li6  1  0.77944215  0.22223400  0.18255535  1
  Li  Li7  1  0.78369431  0.27624112  0.82723985  1
  Mn  Mn8  1  0.25024706  0.96258751  0.61234764  1
  Mn  Mn9  1  0.25090716  0.53841494  0.38693922  1
  Mn  Mn10  1  0.25147540  0.03813771  0.11261664  1
  Mn  Mn11  1  0.25170078  0.46290536  0.88893252  1
  Mn  Mn12  1  0.74884835  0.53916455  0.11280574  1
  Mn  Mn13  1  0.74971054  0.96377264  0.88890688  1
  Mn  Mn14  1  0.74796579  0.03571388  0.38606477  1
  Nb  Nb15  1  0.75312468  0.46040583  0.61407855  1
  P  P16  1  0.04049086  0.24380281  0.49549785  1
  P  P17  1  0.46479357  0.75055325  0.00112698  1
  P  P18  1  0.53391335  0.25432392  0.00109930  1
  P  P19  1  0.97075652  0.75029502  0.49679565  1
  P  P20  1  0.10504537  0.39484474  0.14251718  1
  P  P21  1  0.10600952  0.10467760  0.85743295  1
  P  P22  1  0.39074067  0.60606634  0.65109914  1
  P  P23  1  0.39501568  0.89735261  0.35080411  1
  P  P24  1  0.60263458  0.09847386  0.64699892  1
  P  P25  1  0.60025993  0.39648583  0.35082523  1
  P  P26  1  0.90037238  0.60598042  0.85316957  1
  P  P27  1  0.89467024  0.89664596  0.14465432  1
  O  O28  1  0.06411030  0.63966897  0.42806408  1
  O  O29  1  0.06244660  0.85629837  0.57363266  1
  O  O30  1  0.07770635  0.89735617  0.15529938  1
  O  O31  1  0.08105445  0.60149916  0.84018962  1
  O  O32  1  0.14131734  0.16544621  0.58161620  1
  O  O33  1  0.14232932  0.33428924  0.41624955  1
  O  O34  1  0.15267828  0.43408414  0.02489780  1
  O  O35  1  0.15505596  0.06458641  0.97424938  1
  O  O36  1  0.15882592  0.23148952  0.17624502  1
  O  O37  1  0.16009604  0.26913306  0.82374336  1
  O  O38  1  0.17743618  0.51389160  0.21990335  1
  O  O39  1  0.17396858  0.98771127  0.77900510  1
  O  O40  1  0.32468831  0.01744322  0.27017967  1
  O  O41  1  0.32503747  0.48312175  0.73111971  1
  O  O42  1  0.34170058  0.76663741  0.68369954  1
  O  O43  1  0.34185280  0.73540338  0.31796774  1
  O  O44  1  0.34412019  0.55885629  0.53681176  1
  O  O45  1  0.34421995  0.94260585  0.46430474  1
  O  O46  1  0.35591682  0.83862308  0.08055426  1
  O  O47  1  0.35422358  0.66088707  0.92017286  1
  O  O48  1  0.42185919  0.10128022  0.65752161  1
  O  O49  1  0.41941289  0.39898675  0.34605883  1
  O  O50  1  0.43909250  0.14476976  0.07425497  1
  O  O51  1  0.43857077  0.36008268  0.92610966  1
  O  O52  1  0.55802596  0.64389394  0.07386846  1
  O  O53  1  0.55849457  0.85753076  0.92722325  1
  O  O54  1  0.57567193  0.60127980  0.65953384  1
  O  O55  1  0.57724112  0.89955774  0.34172462  1
  O  O56  1  0.63945974  0.34272436  0.08404661  1
  O  O57  1  0.63958238  0.17082269  0.92139844  1
  O  O58  1  0.65435535  0.06122935  0.53290715  1
  O  O59  1  0.65129219  0.42903344  0.47416636  1
  O  O60  1  0.65358213  0.23768716  0.31929731  1
  O  O61  1  0.65839599  0.26574829  0.67889278  1
  O  O62  1  0.67424208  0.52188406  0.28310128  1
  O  O63  1  0.67451059  0.98605054  0.72882023  1
  O  O64  1  0.82546431  0.01435578  0.22323138  1
  O  O65  1  0.83149169  0.48064508  0.77061297  1
  O  O66  1  0.84189133  0.73290154  0.17749801  1
  O  O67  1  0.84565299  0.76181703  0.81500866  1
  O  O68  1  0.84736818  0.56101307  0.96494127  1
  O  O69  1  0.84703002  0.93543588  0.02818092  1
  O  O70  1  0.86027599  0.65664366  0.57856756  1
  O  O71  1  0.85694713  0.83016125  0.42094844  1
  O  O72  1  0.92386392  0.10474910  0.84735141  1
  O  O73  1  0.92392776  0.39533246  0.15269001  1
  O  O74  1  0.93833840  0.13703479  0.42675242  1
  O  O75  1  0.93659323  0.35513126  0.56419918  1
