# generated using pymatgen
data_Na3VBPO7
_symmetry_space_group_name_H-M   'P 1'
_cell_length_a   9.00337675
_cell_length_b   6.61975545
_cell_length_c   5.28383014
_cell_angle_alpha   90.00000000
_cell_angle_beta   88.58200279
_cell_angle_gamma   90.00000000
_symmetry_Int_Tables_number   1
_chemical_formula_structural   Na3VBPO7
_chemical_formula_sum   'Na6 V2 B2 P2 O14'
_cell_volume   314.82064293
_cell_formula_units_Z   2
loop_
 _symmetry_equiv_pos_site_id
 _symmetry_equiv_pos_as_xyz
  1  'x, y, z'
loop_
 _atom_site_type_symbol
 _atom_site_label
 _atom_site_symmetry_multiplicity
 _atom_site_fract_x
 _atom_site_fract_y
 _atom_site_fract_z
 _atom_site_occupancy
  Na  Na0  1  0.07232777  0.25000000  0.75718470  1
  Na  Na1  1  0.25346310  0.00176319  0.25035113  1
  Na  Na2  1  0.25346310  0.49823681  0.25035113  1
  Na  Na3  1  0.74653690  0.50176319  0.74964887  1
  Na  Na4  1  0.74653690  0.99823681  0.74964887  1
  Na  Na5  1  0.92767223  0.75000000  0.24281530  1
  V  V6  1  0.33365410  0.75000000  0.77790294  1
  V  V7  1  0.66634590  0.25000000  0.22209706  1
  B  B8  1  0.06398944  0.75000000  0.73126872  1
  B  B9  1  0.93601056  0.25000000  0.26873128  1
  P  P10  1  0.42339540  0.25000000  0.71290159  1
  P  P11  1  0.57660460  0.75000000  0.28709841  1
  O  O12  1  0.08389279  0.25000000  0.29687490  1
  O  O13  1  0.13466900  0.75000000  0.96524355  1
  O  O14  1  0.16928561  0.75000000  0.52789350  1
  O  O15  1  0.32553739  0.06291457  0.78230887  1
  O  O16  1  0.32553739  0.43708543  0.78230887  1
  O  O17  1  0.46156597  0.25000000  0.42298676  1
  O  O18  1  0.43241796  0.75000000  0.13526809  1
  O  O19  1  0.56758204  0.25000000  0.86473191  1
  O  O20  1  0.53843403  0.75000000  0.57701324  1
  O  O21  1  0.67446261  0.56291457  0.21769113  1
  O  O22  1  0.67446261  0.93708543  0.21769113  1
  O  O23  1  0.83071439  0.25000000  0.47210650  1
  O  O24  1  0.86533100  0.25000000  0.03475645  1
  O  O25  1  0.91610721  0.75000000  0.70312510  1
