# generated using pymatgen
data_Li4Co3Ni3(SnO8)2
_symmetry_space_group_name_H-M   'P 1'
_cell_length_a   5.89070665
_cell_length_b   5.76676796
_cell_length_c   9.56641302
_cell_angle_alpha   89.99177913
_cell_angle_beta   92.15156393
_cell_angle_gamma   119.35648417
_symmetry_Int_Tables_number   1
_chemical_formula_structural   Li4Co3Ni3(SnO8)2
_chemical_formula_sum   'Li4 Co3 Ni3 Sn2 O16'
_cell_volume   282.98126321
_cell_formula_units_Z   1
loop_
 _symmetry_equiv_pos_site_id
 _symmetry_equiv_pos_as_xyz
  1  'x, y, z'
loop_
 _atom_site_type_symbol
 _atom_site_label
 _atom_site_symmetry_multiplicity
 _atom_site_fract_x
 _atom_site_fract_y
 _atom_site_fract_z
 _atom_site_occupancy
  Li  Li0  1  0.31919509  0.65933037  0.89381061  1
  Li  Li1  1  0.00639249  0.00296704  0.99393442  1
  Li  Li2  1  0.00445638  0.00244557  0.49459135  1
  Li  Li3  1  0.66417496  0.33247973  0.39179613  1
  Co  Co4  1  0.17337366  0.83283536  0.21577449  1
  Co  Co5  1  0.17346505  0.34040421  0.21573744  1
  Co  Co6  1  0.33793815  0.16902495  0.71515835  1
  Ni  Ni7  1  0.66339625  0.83168957  0.21418840  1
  Ni  Ni8  1  0.82953887  0.66253533  0.71480803  1
  Ni  Ni9  1  0.82945117  0.16719976  0.71488065  1
  Sn  Sn10  1  0.33999281  0.67001439  0.49228409  1
  Sn  Sn11  1  0.66649025  0.33293440  0.99311904  1
  O  O12  1  0.17579877  0.85290451  0.60182516  1
  O  O13  1  0.03250801  0.51591648  0.32993113  1
  O  O14  1  0.29862626  0.64941063  0.11330368  1
  O  O15  1  0.03131974  0.01546100  0.30633044  1
  O  O16  1  0.01401785  0.00664517  0.80428157  1
  O  O17  1  0.17559710  0.32347964  0.60229821  1
  O  O18  1  0.46876050  0.96645863  0.33529097  1
  O  O19  1  0.46873528  0.50259618  0.33529545  1
  O  O20  1  0.32001674  0.15984658  0.10660032  1
  O  O21  1  0.69687957  0.84889153  0.59858933  1
  O  O22  1  0.49588725  0.47036630  0.83851758  1
  O  O23  1  0.49621704  0.02534221  0.83803268  1
  O  O24  1  0.65201845  0.32681021  0.61628283  1
  O  O25  1  0.85389124  0.68916093  0.09948032  1
  O  O26  1  0.95791327  0.47882657  0.83250822  1
  O  O27  1  0.85394580  0.16431977  0.09918711  1
