# generated using pymatgen
data_Mn2Fe3Sn(PO4)6
_symmetry_space_group_name_H-M   'P 1'
_cell_length_a   8.67517258
_cell_length_b   8.67517190
_cell_length_c   8.67517232
_cell_angle_alpha   60.15159632
_cell_angle_beta   60.15159322
_cell_angle_gamma   60.15159015
_symmetry_Int_Tables_number   1
_chemical_formula_structural   Mn2Fe3Sn(PO4)6
_chemical_formula_sum   'Mn2 Fe3 Sn1 P6 O24'
_cell_volume   463.24208373
_cell_formula_units_Z   1
loop_
 _symmetry_equiv_pos_site_id
 _symmetry_equiv_pos_as_xyz
  1  'x, y, z'
loop_
 _atom_site_type_symbol
 _atom_site_label
 _atom_site_symmetry_multiplicity
 _atom_site_fract_x
 _atom_site_fract_y
 _atom_site_fract_z
 _atom_site_occupancy
  Mn  Mn0  1  0.00353109  0.00353109  0.00353109  1
  Mn  Mn1  1  0.49933705  0.49933705  0.49933705  1
  Fe  Fe2  1  0.14609397  0.14609397  0.14609397  1
  Fe  Fe3  1  0.35346574  0.35346574  0.35346574  1
  Fe  Fe4  1  0.64541512  0.64541512  0.64541512  1
  Sn  Sn5  1  0.85545595  0.85545595  0.85545595  1
  P  P6  1  0.25338493  0.54059437  0.95484611  1
  P  P7  1  0.54059437  0.95484611  0.25338493  1
  P  P8  1  0.95484611  0.25338493  0.54059437  1
  P  P9  1  0.04712214  0.74795809  0.45198771  1
  P  P10  1  0.45198771  0.04712214  0.74795809  1
  P  P11  1  0.74795809  0.45198771  0.04712214  1
  O  O12  1  0.10996743  0.31575545  0.50325387  1
  O  O13  1  0.31575545  0.50325387  0.10996743  1
  O  O14  1  0.06200033  0.91100947  0.25973515  1
  O  O15  1  0.50325387  0.10996743  0.31575545  1
  O  O16  1  0.01596713  0.80993896  0.60712532  1
  O  O17  1  0.24167911  0.58657916  0.43674930  1
  O  O18  1  0.25973515  0.06200033  0.91100947  1
  O  O19  1  0.43674930  0.24167911  0.58657916  1
  O  O20  1  0.18674621  0.38782450  0.99404643  1
  O  O21  1  0.58657916  0.43674930  0.24167911  1
  O  O22  1  0.09029080  0.73877395  0.94084012  1
  O  O23  1  0.38782450  0.99404643  0.18674621  1
  O  O24  1  0.60712532  0.01596713  0.80993896  1
  O  O25  1  0.91100947  0.25973515  0.06200033  1
  O  O26  1  0.41256793  0.55897656  0.75871260  1
  O  O27  1  0.80993896  0.60712532  0.01596713  1
  O  O28  1  0.55897656  0.75871260  0.41256793  1
  O  O29  1  0.73877395  0.94084012  0.09029080  1
  O  O30  1  0.75871260  0.41256793  0.55897656  1
  O  O31  1  0.99404643  0.18674621  0.38782450  1
  O  O32  1  0.49730924  0.88724099  0.68771976  1
  O  O33  1  0.94084012  0.09029080  0.73877395  1
  O  O34  1  0.68771976  0.49730924  0.88724099  1
  O  O35  1  0.88724099  0.68771976  0.49730924  1
