# generated using pymatgen
data_Na3Zn4As3H12O19
_symmetry_space_group_name_H-M   'P 1'
_cell_length_a   10.99717490
_cell_length_b   10.99717490
_cell_length_c   10.99717537
_cell_angle_alpha   60.66908336
_cell_angle_beta   60.66908336
_cell_angle_gamma   60.66908164
_symmetry_Int_Tables_number   1
_chemical_formula_structural   Na3Zn4As3H12O19
_chemical_formula_sum   'Na6 Zn8 As6 H24 O38'
_cell_volume   954.63890579
_cell_formula_units_Z   2
loop_
 _symmetry_equiv_pos_site_id
 _symmetry_equiv_pos_as_xyz
  1  'x, y, z'
loop_
 _atom_site_type_symbol
 _atom_site_label
 _atom_site_symmetry_multiplicity
 _atom_site_fract_x
 _atom_site_fract_y
 _atom_site_fract_z
 _atom_site_occupancy
  Na  Na0  1  0.06115823  0.66367688  0.94755737  1
  Na  Na1  1  0.16367688  0.56115823  0.44755737  1
  Na  Na2  1  0.66367688  0.94755737  0.06115823  1
  Na  Na3  1  0.56115823  0.44755737  0.16367688  1
  Na  Na4  1  0.44755737  0.16367688  0.56115823  1
  Na  Na5  1  0.94755737  0.06115823  0.66367688  1
  Zn  Zn6  1  0.00549348  0.98986840  0.29245724  1
  Zn  Zn7  1  0.50549348  0.79245724  0.48986840  1
  Zn  Zn8  1  0.48986840  0.50549348  0.79245724  1
  Zn  Zn9  1  0.99913323  0.99913323  0.99913323  1
  Zn  Zn10  1  0.49913323  0.49913323  0.49913323  1
  Zn  Zn11  1  0.29245724  0.00549348  0.98986840  1
  Zn  Zn12  1  0.79245724  0.48986840  0.50549348  1
  Zn  Zn13  1  0.98986840  0.29245724  0.00549348  1
  As  As14  1  0.30840208  0.83764980  0.80426234  1
  As  As15  1  0.33764980  0.80840208  0.30426234  1
  As  As16  1  0.30426234  0.33764980  0.80840208  1
  As  As17  1  0.83764980  0.80426234  0.30840208  1
  As  As18  1  0.80426234  0.30840208  0.83764980  1
  As  As19  1  0.80840208  0.30426234  0.33764980  1
  H  H20  1  0.00974385  0.74974643  0.68460646  1
  H  H21  1  0.14615964  0.80027699  0.61878431  1
  H  H22  1  0.03127681  0.45199212  0.23409282  1
  H  H23  1  0.30027699  0.64615964  0.11878431  1
  H  H24  1  0.73409282  0.95199212  0.53127581  1
  H  H25  1  0.24974643  0.50974385  0.18460646  1
  H  H26  1  0.11878431  0.30027699  0.64615964  1
  H  H27  1  0.62131056  0.88382317  0.67560660  1
  H  H28  1  0.17560660  0.38382317  0.12131056  1
  H  H29  1  0.53127581  0.73409282  0.95199212  1
  H  H30  1  0.18460646  0.24974643  0.50974385  1
  H  H31  1  0.12131056  0.17560660  0.38382317  1
  H  H32  1  0.67560660  0.62131056  0.88382317  1
  H  H33  1  0.74974643  0.68460646  0.00974385  1
  H  H34  1  0.23409282  0.03127681  0.45199212  1
  H  H35  1  0.88382317  0.67560660  0.62131056  1
  H  H36  1  0.38382317  0.12131056  0.17560660  1
  H  H37  1  0.80027699  0.61878431  0.14615964  1
  H  H38  1  0.45199212  0.23409282  0.03127681  1
  H  H39  1  0.50974385  0.18460646  0.24974643  1
  H  H40  1  0.95199212  0.53127581  0.73409282  1
  H  H41  1  0.61878431  0.14615964  0.80027699  1
  H  H42  1  0.64615964  0.11878431  0.30027699  1
  H  H43  1  0.68460646  0.00974385  0.74974643  1
  O  O44  1  0.13416926  0.96201610  0.80891315  1
  O  O45  1  0.04928747  0.80611700  0.69645008  1
  O  O46  1  0.16539441  0.80695875  0.34606670  1
  O  O47  1  0.38813527  0.93948059  0.13531777  1
  O  O48  1  0.32687113  0.85573955  0.43999118  1
  O  O49  1  0.35573955  0.82687113  0.93999118  1
  O  O50  1  0.43948059  0.88813527  0.63531777  1
  O  O51  1  0.30695875  0.66539441  0.84606670  1
  O  O52  1  0.13193289  0.45808990  0.16886705  1
  O  O53  1  0.66886705  0.95808990  0.63193289  1
  O  O54  1  0.13531777  0.38813527  0.93948059  1
  O  O55  1  0.30611700  0.54928747  0.19645008  1
  O  O56  1  0.66539441  0.84606670  0.30695875  1
  O  O57  1  0.46201610  0.63416926  0.30891215  1
  O  O58  1  0.30891215  0.46201610  0.63416926  1
  O  O59  1  0.82687113  0.93999118  0.35573955  1
  O  O60  1  0.19645008  0.30611700  0.54928747  1
  O  O61  1  0.63193289  0.66886705  0.95808990  1
  O  O62  1  0.07298291  0.07298291  0.07298291  1
  O  O63  1  0.57298291  0.57298291  0.57298291  1
  O  O64  1  0.16886705  0.13193289  0.45808990  1
  O  O65  1  0.80611700  0.69645008  0.04928747  1
  O  O66  1  0.43999118  0.32687113  0.85573955  1
  O  O67  1  0.96201610  0.80891315  0.13416926  1
  O  O68  1  0.34606670  0.16539441  0.80695875  1
  O  O69  1  0.63531777  0.43948059  0.88813527  1
  O  O70  1  0.88813527  0.63531777  0.43948059  1
  O  O71  1  0.45808990  0.16886705  0.13193289  1
  O  O72  1  0.95808990  0.63193289  0.66886705  1
  O  O73  1  0.63416926  0.30891215  0.46201610  1
  O  O74  1  0.54928747  0.19645008  0.30611700  1
  O  O75  1  0.85573955  0.43999118  0.32687113  1
  O  O76  1  0.80695875  0.34606670  0.16539441  1
  O  O77  1  0.84606670  0.30695875  0.66539441  1
  O  O78  1  0.93999118  0.35573955  0.82687113  1
  O  O79  1  0.69645008  0.04928747  0.80611700  1
  O  O80  1  0.80891315  0.13416926  0.96201610  1
  O  O81  1  0.93948059  0.13531777  0.38813527  1
