# generated using pymatgen
data_Ce3MgAlS7
_symmetry_space_group_name_H-M   'P 1'
_cell_length_a   10.11234479
_cell_length_b   10.11641546
_cell_length_c   6.10121102
_cell_angle_alpha   90.00000000
_cell_angle_beta   90.00000000
_cell_angle_gamma   120.03409666
_symmetry_Int_Tables_number   1
_chemical_formula_structural   Ce3MgAlS7
_chemical_formula_sum   'Ce6 Mg2 Al2 S14'
_cell_volume   540.35090779
_cell_formula_units_Z   2
loop_
 _symmetry_equiv_pos_site_id
 _symmetry_equiv_pos_as_xyz
  1  'x, y, z'
loop_
 _atom_site_type_symbol
 _atom_site_label
 _atom_site_symmetry_multiplicity
 _atom_site_fract_x
 _atom_site_fract_y
 _atom_site_fract_z
 _atom_site_occupancy
  Ce  Ce0  1  0.62426266  0.76461551  0.24217851  1
  Ce  Ce1  1  0.23540260  0.85967365  0.24178658  1
  Ce  Ce2  1  0.14033291  0.37577660  0.24200327  1
  Ce  Ce3  1  0.37573634  0.23538449  0.74217751  1
  Ce  Ce4  1  0.76459840  0.14032635  0.74178758  1
  Ce  Ce5  1  0.85966809  0.62422340  0.74200427  1
  Mg  Mg6  1  0.00000447  0.00001260  0.03444514  1
  Mg  Mg7  1  -0.00000447  -0.00001260  0.53444514  1
  Al  Al8  1  0.66645549  0.33339587  0.16150267  1
  Al  Al9  1  0.33354451  0.66660413  0.66150167  1
  S  S10  1  0.90074199  0.41950470  0.01257043  1
  S  S11  1  0.51867694  0.09944079  0.01272181  1
  S  S12  1  0.58065178  0.48102334  0.01280390  1
  S  S13  1  0.33335086  0.66667627  0.02943136  1
  S  S14  1  0.85316275  0.09083169  0.29154358  1
  S  S15  1  0.90906836  0.76228096  0.29149049  1
  S  S16  1  0.23786255  0.14689877  0.29152425  1
  S  S17  1  0.09925801  0.58049530  0.51256943  1
  S  S18  1  0.48132306  0.90055921  0.51272081  1
  S  S19  1  0.41934822  0.51897666  0.51280490  1
  S  S20  1  0.66664914  0.33332373  0.52943036  1
  S  S21  1  0.09093164  0.23771904  0.79148949  1
  S  S22  1  0.14683625  0.90916831  0.79154258  1
  S  S23  1  0.76213645  0.85310123  0.79152425  1
