# generated using pymatgen
data_Li7Mn4(P2O7)4
_symmetry_space_group_name_H-M   'P 1'
_cell_length_a   9.91238321
_cell_length_b   9.89214467
_cell_length_c   11.34728898
_cell_angle_alpha   90.16216704
_cell_angle_beta   102.87984235
_cell_angle_gamma   89.71684700
_symmetry_Int_Tables_number   1
_chemical_formula_structural   Li7Mn4(P2O7)4
_chemical_formula_sum   'Li14 Mn8 P16 O56'
_cell_volume   1084.64562450
_cell_formula_units_Z   2
loop_
 _symmetry_equiv_pos_site_id
 _symmetry_equiv_pos_as_xyz
  1  'x, y, z'
loop_
 _atom_site_type_symbol
 _atom_site_label
 _atom_site_symmetry_multiplicity
 _atom_site_fract_x
 _atom_site_fract_y
 _atom_site_fract_z
 _atom_site_occupancy
  Li  Li0  1  0.11061964  0.71992350  0.44599135  1
  Li  Li1  1  0.16796294  0.42435352  0.54333693  1
  Li  Li2  1  0.08784001  0.11125789  0.02780646  1
  Li  Li3  1  0.34320244  0.90855462  0.95866196  1
  Li  Li4  1  0.41339173  0.60631873  0.97208363  1
  Li  Li5  1  0.33688075  0.91969483  0.45713939  1
  Li  Li6  1  0.38866194  0.22131213  0.55149433  1
  Li  Li7  1  0.66330044  0.06904767  0.54010621  1
  Li  Li8  1  0.58427512  0.39119781  0.03040531  1
  Li  Li9  1  0.85029535  0.58852509  0.95713494  1
  Li  Li10  1  0.65420363  0.09232926  0.04393385  1
  Li  Li11  1  0.91507340  0.89382469  0.97171308  1
  Li  Li12  1  0.82329022  0.58356258  0.45196182  1
  Li  Li13  1  0.88825688  0.27939727  0.55340678  1
  Mn  Mn14  1  0.19991419  0.91945767  0.67328151  1
  Mn  Mn15  1  0.25577488  0.21714031  0.82645570  1
  Mn  Mn16  1  0.24470801  0.71193019  0.17527019  1
  Mn  Mn17  1  0.29470960  0.41911971  0.31724768  1
  Mn  Mn18  1  0.70061937  0.58119025  0.66977290  1
  Mn  Mn19  1  0.75851045  0.28568293  0.82577022  1
  Mn  Mn20  1  0.74168495  0.78362491  0.17862403  1
  Mn  Mn21  1  0.79669839  0.07741199  0.32613436  1
  P  P22  1  0.02486874  0.45416836  0.75737442  1
  P  P23  1  0.11948398  0.70619936  0.89191109  1
  P  P24  1  0.05957355  0.93182722  0.24306000  1
  P  P25  1  0.12320046  0.15003048  0.42611194  1
  P  P26  1  0.37738519  0.64756444  0.57477903  1
  P  P27  1  0.44113998  0.43298989  0.75604818  1
  P  P28  1  0.52527006  0.04691577  0.76052873  1
  P  P29  1  0.38129447  0.20568119  0.10875216  1
  P  P30  1  0.61884267  0.79526485  0.89198370  1
  P  P31  1  0.47427043  0.95202348  0.24270231  1
  P  P32  1  0.56001110  0.56880730  0.24362235  1
  P  P33  1  0.62143047  0.35101713  0.42591589  1
  P  P34  1  0.87629742  0.84952546  0.57290876  1
  P  P35  1  0.94055241  0.06734119  0.75562719  1
  P  P36  1  0.88206917  0.29373281  0.10872629  1
  P  P37  1  0.97456489  0.54668653  0.24181659  1
  O  O38  1  0.02067737  0.41965675  0.62605733  1
  O  O39  1  0.02517371  0.83703032  0.55435603  1
  O  O40  1  0.08641623  0.08587884  0.73009560  1
  O  O41  1  0.10937646  0.35568814  0.84807341  1
  O  O42  1  0.09747157  0.60025080  0.77863560  1
  O  O43  1  0.17947070  0.83141922  0.84330763  1
  O  O44  1  0.22844529  0.64534075  0.99802264  1
  O  O45  1  0.01761505  0.26941233  0.07658909  1
  O  O46  1  0.11300012  0.07947668  0.29552890  1
  O  O47  1  0.06430380  0.93551536  0.11066014  1
  O  O48  1  0.12492907  0.53983087  0.22075962  1
  O  O49  1  0.18807563  0.28987552  0.41829977  1
  O  O50  1  0.16431956  0.82614846  0.31158068  1
  O  O51  1  0.22456452  0.06349287  0.51816081  1
  O  O52  1  0.27536664  0.56350851  0.48191073  1
  O  O53  1  0.33738195  0.32647982  0.68819270  1
  O  O54  1  0.31522967  0.78951280  0.58193139  1
  O  O55  1  0.37616326  0.03617873  0.78544786  1
  O  O56  1  0.38202676  0.57956823  0.70625167  1
  O  O57  1  0.43912547  0.43423432  0.88903865  1
  O  O58  1  0.47992051  0.77699255  0.92408789  1
  O  O59  1  0.27756223  0.13424334  0.00207184  1
  O  O60  1  0.32242650  0.32885033  0.15832945  1
  O  O61  1  0.40568723  0.10037908  0.22152497  1
  O  O62  1  0.41556179  0.58857585  0.27134616  1
  O  O63  1  0.38621800  0.85947823  0.14521287  1
  O  O64  1  0.52308730  0.08593754  0.63088773  1
  O  O65  1  0.47330517  0.34275945  0.44430054  1
  O  O66  1  0.52622768  0.65156187  0.55977797  1
  O  O67  1  0.47526738  0.92028996  0.37178985  1
  O  O68  1  0.61581297  0.13721594  0.85681088  1
  O  O69  1  0.58668387  0.41630154  0.72830752  1
  O  O70  1  0.59469735  0.89802690  0.77671324  1
  O  O71  1  0.68318855  0.67037862  0.84646960  1
  O  O72  1  0.72309724  0.86460373  0.99903692  1
  O  O73  1  0.51889432  0.22262761  0.07356422  1
  O  O74  1  0.55979955  0.56283420  0.10975432  1
  O  O75  1  0.61371341  0.41996906  0.29576198  1
  O  O76  1  0.62331620  0.96253630  0.21485509  1
  O  O77  1  0.68545742  0.21002467  0.41917098  1
  O  O78  1  0.66976862  0.67017162  0.30771400  1
  O  O79  1  0.72364498  0.43611085  0.51872064  1
  O  O80  1  0.78314437  0.94131088  0.48224024  1
  O  O81  1  0.83644602  0.17370355  0.68737434  1
  O  O82  1  0.81942315  0.70772653  0.58704000  1
  O  O83  1  0.87478686  0.46969020  0.78196385  1
  O  O84  1  0.93604884  0.06472896  0.88824513  1
  O  O85  1  0.88659086  0.91977333  0.70479437  1
  O  O86  1  0.98072078  0.72431592  0.92441997  1
  O  O87  1  0.77629713  0.36619407  0.00361440  1
  O  O88  1  0.81293868  0.17264312  0.15594030  1
  O  O89  1  0.90718975  0.39892190  0.22408562  1
  O  O90  1  0.88584059  0.63950461  0.14532484  1
  O  O91  1  0.91406779  0.91252126  0.26834875  1
  O  O92  1  0.97575611  0.16164038  0.44541733  1
  O  O93  1  0.97382767  0.58508073  0.37160766  1
