# generated using pymatgen
data_KCSeN
_symmetry_space_group_name_H-M   'P 1'
_cell_length_a   4.60398548
_cell_length_b   7.75116355
_cell_length_c   12.08891013
_cell_angle_alpha   90.00353677
_cell_angle_beta   101.66029764
_cell_angle_gamma   90.00419676
_symmetry_Int_Tables_number   1
_chemical_formula_structural   KCSeN
_chemical_formula_sum   'K4 C4 Se4 N4'
_cell_volume   422.50487768
_cell_formula_units_Z   4
loop_
 _symmetry_equiv_pos_site_id
 _symmetry_equiv_pos_as_xyz
  1  'x, y, z'
loop_
 _atom_site_type_symbol
 _atom_site_label
 _atom_site_symmetry_multiplicity
 _atom_site_fract_x
 _atom_site_fract_y
 _atom_site_fract_z
 _atom_site_occupancy
  K  K0  1  0.72557971  0.69553784  0.09666838  1
  K  K1  1  0.27440816  0.30446865  0.90332405  1
  K  K2  1  0.22557579  0.80446230  0.59665945  1
  K  K3  1  0.77441048  0.19553058  0.40333768  1
  C  C4  1  0.04363691  0.77665036  0.88436695  1
  Se  Se5  1  0.65889303  0.44824228  0.69773993  1
  Se  Se6  1  0.84120573  0.94818001  0.80226113  1
  Se  Se7  1  0.15882150  0.05180255  0.19774795  1
  C  C8  1  0.54359919  0.72334843  0.38436225  1
  Se  Se9  1  0.34111298  0.55177078  0.30225631  1
  C  C10  1  0.95634570  0.22336702  0.11562362  1
  C  C11  1  0.45640774  0.27666327  0.61564161  1
  N  N12  1  0.17670683  0.66395531  0.93879137  1
  N  N13  1  0.67669842  0.83606058  0.43877827  1
  N  N14  1  0.32329181  0.16393886  0.56122278  1
  N  N15  1  0.82330600  0.33602117  0.06121827  1
