# generated using pymatgen
data_Nb16Tl16O53
_symmetry_space_group_name_H-M   'P 1'
_cell_length_a   10.77979676
_cell_length_b   13.20524996
_cell_length_c   10.77979676
_cell_angle_alpha   65.91049181
_cell_angle_beta   90.00000000
_cell_angle_gamma   114.08950819
_symmetry_Int_Tables_number   1
_chemical_formula_structural   Nb16Tl16O53
_chemical_formula_sum   'Nb16 Tl16 O53'
_cell_volume   1253.04694025
_cell_formula_units_Z   1
loop_
 _symmetry_equiv_pos_site_id
 _symmetry_equiv_pos_as_xyz
  1  'x, y, z'
loop_
 _atom_site_type_symbol
 _atom_site_label
 _atom_site_symmetry_multiplicity
 _atom_site_fract_x
 _atom_site_fract_y
 _atom_site_fract_z
 _atom_site_occupancy
  Nb  Nb0  1  0.75128534  0.00049054  0.75024420  1
  Nb  Nb1  1  0.49920520  0.00049054  0.49926526  1
  Nb  Nb2  1  0.25073474  0.00049054  0.25079480  1
  Nb  Nb3  1  0.99975580  0.00049054  0.99871466  1
  Nb  Nb4  1  0.37497360  0.24808033  0.37502640  1
  Nb  Nb5  1  0.12310673  0.24808033  0.62689327  1
  Nb  Nb6  1  0.62686734  0.25119197  0.12313266  1
  Nb  Nb7  1  0.87432363  0.25119197  0.87567637  1
  Nb  Nb8  1  0.25067637  0.49880803  0.25186734  1
  Nb  Nb9  1  0.49813266  0.49880803  0.49932363  1
  Nb  Nb10  1  0.00189327  0.50191967  -0.00002640  1
  Nb  Nb11  1  0.75002640  0.50191967  0.74810673  1
  Nb  Nb12  1  0.12524420  0.74950946  0.12420520  1
  Nb  Nb13  1  0.62579480  0.74950946  0.62475580  1
  Nb  Nb14  1  0.37371466  0.74950946  0.87573474  1
  Nb  Nb15  1  0.87426526  0.74950946  0.37628534  1
  Tl  Tl16  1  0.74521027  0.99230864  0.25290163  1
  Tl  Tl17  1  0.24927088  0.99924028  0.75003060  1
  Tl  Tl18  1  -0.00003060  0.99924028  0.50072912  1
  Tl  Tl19  1  0.49709837  0.99230864  0.00478973  1
  Tl  Tl20  1  0.36922873  0.25262234  0.87726561  1
  Tl  Tl21  1  0.62988795  0.25262234  0.61660639  1
  Tl  Tl22  1  0.13339361  0.25262234  0.12011205  1
  Tl  Tl23  1  0.87273439  0.25262234  0.38077127  1
  Tl  Tl24  1  0.25226561  0.49737766  0.75839361  1
  Tl  Tl25  1  0.75577127  0.49737766  0.25488795  1
  Tl  Tl26  1  0.99160639  0.49737766  0.49773439  1
  Tl  Tl27  1  0.49511205  0.49737766  0.99422873  1
  Tl  Tl28  1  0.37978973  0.75769136  0.37021027  1
  Tl  Tl29  1  0.12503060  0.75075972  0.62496940  1
  Tl  Tl30  1  0.62790163  0.75769136  0.12209837  1
  Tl  Tl31  1  0.87572912  0.75075972  0.87427088  1
  O  O32  1  0.15177945  0.05355790  0.09822055  1
  O  O33  1  0.65177945  0.05355790  0.59822055  1
  O  O34  1  0.93820000  0.12283749  0.62369433  1
  O  O35  1  0.12630567  0.12283749  0.81180000  1
  O  O36  1  0.75518941  0.12326459  0.81160399  1
  O  O37  1  0.94094213  0.10955255  0.33138958  1
  O  O38  1  0.24653082  0.12283749  0.31536250  1
  O  O39  1  0.61807418  0.12326459  0.31513242  1
  O  O40  1  0.93839601  0.12326459  0.99481059  1
  O  O41  1  0.41861042  0.10955255  0.80905787  1
  O  O42  1  0.43463750  0.12283749  0.50346918  1
  O  O43  1  0.43486758  0.12326459  0.13192582  1
  O  O44  1  0.20890948  0.16781895  0.54109052  1
  O  O45  1  0.71908054  0.18816208  0.03091946  1
  O  O46  1  0.02947385  0.30540172  0.72052615  1
  O  O47  1  0.52592687  0.30540172  0.22407313  1
  O  O48  1  0.99430201  0.37633568  0.93591222  1
  O  O49  1  0.31275310  0.37366432  0.61930201  1
  O  O50  1  0.13069799  0.37366432  0.43724690  1
  O  O51  1  0.63203367  0.37633568  0.93775310  1
  O  O52  1  0.31091222  0.37366432  0.25703367  1
  O  O53  1  0.49296633  0.37366432  0.43908778  1
  O  O54  1  0.81408778  0.37633568  0.75569799  1
  O  O55  1  0.81224690  0.37633568  0.11796633  1
  O  O56  1  0.59907313  0.44459828  0.65447385  1
  O  O57  1  0.09552615  0.44459828  0.15092687  1
  O  O58  1  0.91609052  0.58218105  0.83390948  1
  O  O59  1  0.40591946  0.56183792  0.34408054  1
  O  O60  1  0.99869433  0.62716251  0.05963750  1
  O  O61  1  0.50692582  0.62673541  0.56339601  1
  O  O62  1  0.18405787  0.64044745  0.56594213  1
  O  O63  1  0.36981059  0.62673541  0.05986758  1
  O  O64  1  0.69036250  0.62716251  0.75130567  1
  O  O65  1  0.18660399  0.62673541  0.24307418  1
  O  O66  1  0.70638958  0.64044745  0.04361042  1
  O  O67  1  0.69013242  0.62673541  0.38018941  1
  O  O68  1  0.18680000  0.62716251  0.87153082  1
  O  O69  1  0.87846918  0.62716251  0.56320000  1
  O  O70  1  0.97322055  0.69644210  0.27677945  1
  O  O71  1  0.47322055  0.69644210  0.77677945  1
  O  O72  1  0.78403511  0.81537018  0.46866594  1
  O  O73  1  0.28133406  0.81537018  0.96596489  1
  O  O74  1  0.56250000  0.87500000  0.50718459  1
  O  O75  1  0.06250000  0.87500000  0.98028974  1
  O  O76  1  0.76971026  0.87500000  0.68750000  1
  O  O77  1  0.35528974  0.87500000  0.68750000  1
  O  O78  1  0.24281541  0.87500000  0.18750000  1
  O  O79  1  0.56250000  0.87500000  0.86781541  1
  O  O80  1  0.06250000  0.87500000  0.68750000  1
  O  O81  1  0.88218459  0.87500000  0.18750000  1
  O  O82  1  0.06250000  0.87500000  0.39471026  1
  O  O83  1  0.84366594  0.93462982  0.90633406  1
  O  O84  1  0.34096489  0.93462982  0.40903511  1
