# generated using pymatgen
data_KTl3
_symmetry_space_group_name_H-M   'P 1'
_cell_length_a   7.91203678
_cell_length_b   7.91203584
_cell_length_c   5.36794462
_cell_angle_alpha   90.00000000
_cell_angle_beta   90.00000000
_cell_angle_gamma   120.00000394
_symmetry_Int_Tables_number   1
_chemical_formula_structural   KTl3
_chemical_formula_sum   'K2 Tl6'
_cell_volume   291.01487245
_cell_formula_units_Z   2
loop_
 _symmetry_equiv_pos_site_id
 _symmetry_equiv_pos_as_xyz
  1  'x, y, z'
loop_
 _atom_site_type_symbol
 _atom_site_label
 _atom_site_symmetry_multiplicity
 _atom_site_fract_x
 _atom_site_fract_y
 _atom_site_fract_z
 _atom_site_occupancy
  K  K0  1  0.66666700  0.33333300  0.25000000  1
  K  K1  1  0.33333300  0.66666700  0.75000000  1
  Tl  Tl2  1  0.85541673  0.14458127  0.75000000  1
  Tl  Tl3  1  0.28916454  0.14458127  0.75000000  1
  Tl  Tl4  1  0.85541673  0.71083446  0.75000000  1
  Tl  Tl5  1  0.14458227  0.85541873  0.25000000  1
  Tl  Tl6  1  0.71083446  0.85541773  0.25000000  1
  Tl  Tl7  1  0.14458227  0.28916554  0.25000000  1
