# generated using pymatgen
data_BaY2PdO5
_symmetry_space_group_name_H-M   'P 1'
_cell_length_a   5.93197446
_cell_length_b   6.59917348
_cell_length_c   6.59917348
_cell_angle_alpha   90.00000000
_cell_angle_beta   90.00000000
_cell_angle_gamma   90.00000000
_symmetry_Int_Tables_number   1
_chemical_formula_structural   BaY2PdO5
_chemical_formula_sum   'Ba2 Y4 Pd2 O10'
_cell_volume   258.33209331
_cell_formula_units_Z   2
loop_
 _symmetry_equiv_pos_site_id
 _symmetry_equiv_pos_as_xyz
  1  'x, y, z'
loop_
 _atom_site_type_symbol
 _atom_site_label
 _atom_site_symmetry_multiplicity
 _atom_site_fract_x
 _atom_site_fract_y
 _atom_site_fract_z
 _atom_site_occupancy
  O  O0  1  0.50000000  0.50000000  0.50000000  1
  O  O1  1  0.50000000  0.00000000  0.00000000  1
  O  O2  1  0.74014285  0.35979521  0.14020479  1
  O  O3  1  0.74014285  0.64020479  0.85979521  1
  O  O4  1  0.74014285  0.14020479  0.64020479  1
  O  O5  1  0.74014285  0.85979521  0.35979521  1
  O  O6  1  0.25985715  0.64020479  0.85979521  1
  O  O7  1  0.25985715  0.14020479  0.64020479  1
  O  O8  1  0.25985715  0.35979521  0.14020479  1
  O  O9  1  0.25985715  0.85979521  0.35979521  1
  Y  Y10  1  0.50000000  0.82608312  0.67391688  1
  Y  Y11  1  0.50000000  0.32608312  0.82608312  1
  Y  Y12  1  0.50000000  0.67391688  0.17391688  1
  Y  Y13  1  0.50000000  0.17391688  0.32608312  1
  Pd  Pd14  1  0.00000000  0.00000000  0.50000000  1
  Pd  Pd15  1  0.00000000  0.50000000  0.00000000  1
  Ba  Ba16  1  0.00000000  0.50000000  0.50000000  1
  Ba  Ba17  1  0.00000000  0.00000000  0.00000000  1
