# generated using pymatgen
data_LaNdI4
_symmetry_space_group_name_H-M   'P 1'
_cell_length_a   7.86212888
_cell_length_b   7.97722868
_cell_length_c   8.96260640
_cell_angle_alpha   112.16347616
_cell_angle_beta   111.70571240
_cell_angle_gamma   98.87744639
_symmetry_Int_Tables_number   1
_chemical_formula_structural   LaNdI4
_chemical_formula_sum   'La2 Nd2 I8'
_cell_volume   454.59339320
_cell_formula_units_Z   2
loop_
 _symmetry_equiv_pos_site_id
 _symmetry_equiv_pos_as_xyz
  1  'x, y, z'
loop_
 _atom_site_type_symbol
 _atom_site_label
 _atom_site_symmetry_multiplicity
 _atom_site_fract_x
 _atom_site_fract_y
 _atom_site_fract_z
 _atom_site_occupancy
  La  La0  1  0.23854058  0.48857352  0.97708272  1
  La  La1  1  0.76145942  0.51142648  0.02291728  1
  Nd  Nd2  1  0.11973871  0.86946563  0.73922439  1
  Nd  Nd3  1  0.88026129  0.13053437  0.26077561  1
  I  I4  1  0.84774073  0.44231486  0.62912124  1
  I  I5  1  0.15225927  0.55768514  0.37087876  1
  I  I6  1  0.71885663  0.81315827  0.37096441  1
  I  I7  1  0.49098714  0.24700057  0.11948632  1
  I  I8  1  0.28114337  0.18684173  0.62903559  1
  I  I9  1  0.50901286  0.75299943  0.88051368  1
  I  I10  1  0.12854486  0.87256638  0.11963091  1
  I  I11  1  0.87145514  0.12743362  0.88036909  1
