# generated using pymatgen
data_Cr3B4
_symmetry_space_group_name_H-M   'P 1'
_cell_length_a   2.94284456
_cell_length_b   2.91860012
_cell_length_c   6.84315070
_cell_angle_alpha   102.30879678
_cell_angle_beta   102.41676929
_cell_angle_gamma   89.99999996
_symmetry_Int_Tables_number   1
_chemical_formula_structural   Cr3B4
_chemical_formula_sum   'Cr3 B4'
_cell_volume   56.01669300
_cell_formula_units_Z   1
loop_
 _symmetry_equiv_pos_site_id
 _symmetry_equiv_pos_as_xyz
  1  'x, y, z'
loop_
 _atom_site_type_symbol
 _atom_site_label
 _atom_site_symmetry_multiplicity
 _atom_site_fract_x
 _atom_site_fract_y
 _atom_site_fract_z
 _atom_site_occupancy
  B  B0  1  0.93362170  0.43362577  0.86724340  1
  B  B1  1  0.06637830  0.56637423  0.13275660  1
  B  B2  1  0.36017942  0.36018585  0.72035884  1
  B  B3  1  0.63982058  0.63981415  0.27964116  1
  Cr  Cr4  1  0.18599103  0.18588901  0.37198205  1
  Cr  Cr5  1  0.81400897  0.81411099  0.62801795  1
  Cr  Cr6  1  0.50000000  0.00000000  0.00000000  1
