# generated using pymatgen
data_LiMg
_symmetry_space_group_name_H-M   'P 1'
_cell_length_a   3.32614928
_cell_length_b   5.77469064
_cell_length_c   7.01947320
_cell_angle_alpha   72.42430734
_cell_angle_beta   90.00000000
_cell_angle_gamma   106.73788105
_symmetry_Int_Tables_number   1
_chemical_formula_structural   LiMg
_chemical_formula_sum   'Li3 Mg3'
_cell_volume   122.52720457
_cell_formula_units_Z   3
loop_
 _symmetry_equiv_pos_site_id
 _symmetry_equiv_pos_as_xyz
  1  'x, y, z'
loop_
 _atom_site_type_symbol
 _atom_site_label
 _atom_site_symmetry_multiplicity
 _atom_site_fract_x
 _atom_site_fract_y
 _atom_site_fract_z
 _atom_site_occupancy
  Li  Li0  1  0.03171862  0.06343725  0.94751394  1
  Li  Li1  1  0.36875550  0.73750999  0.26837914  1
  Li  Li2  1  0.01773981  0.03548062  0.44293421  1
  Mg  Mg3  1  0.68971198  0.37942196  0.12662301  1
  Mg  Mg4  1  0.69016659  0.38033018  0.60100135  1
  Mg  Mg5  1  0.36857650  0.73715200  0.78021634  1
