# generated using pymatgen
data_CdN6
_symmetry_space_group_name_H-M   'P 1'
_cell_length_a   6.59566693
_cell_length_b   7.94095854
_cell_length_c   16.26776658
_cell_angle_alpha   90.00000000
_cell_angle_beta   90.00000000
_cell_angle_gamma   90.00000000
_symmetry_Int_Tables_number   1
_chemical_formula_structural   CdN6
_chemical_formula_sum   'Cd8 N48'
_cell_volume   852.03920250
_cell_formula_units_Z   8
loop_
 _symmetry_equiv_pos_site_id
 _symmetry_equiv_pos_as_xyz
  1  'x, y, z'
loop_
 _atom_site_type_symbol
 _atom_site_label
 _atom_site_symmetry_multiplicity
 _atom_site_fract_x
 _atom_site_fract_y
 _atom_site_fract_z
 _atom_site_occupancy
  Cd  Cd0  1  0.07841566  0.57648839  0.39503929  1
  Cd  Cd1  1  0.92158434  0.42351161  0.60496071  1
  Cd  Cd2  1  0.92158434  0.92351161  0.89503929  1
  Cd  Cd3  1  0.07841566  0.07648839  0.10496071  1
  Cd  Cd4  1  0.42158434  0.07648839  0.60496071  1
  Cd  Cd5  1  0.57841566  0.92351161  0.39503929  1
  Cd  Cd6  1  0.57841566  0.42351161  0.10496071  1
  Cd  Cd7  1  0.42158434  0.57648839  0.89503929  1
  N  N8  1  0.82262662  0.62095083  0.78994814  1
  N  N9  1  0.26276066  0.81147222  0.34630242  1
  N  N10  1  0.23723934  0.31147222  0.65369758  1
  N  N11  1  0.39834376  0.94025818  0.08388093  1
  N  N12  1  0.89834376  0.55974182  0.08388093  1
  N  N13  1  0.07923426  0.30346811  0.94119431  1
  N  N14  1  0.60165624  0.05974182  0.91611907  1
  N  N15  1  0.76276066  0.18852778  0.15369758  1
  N  N16  1  0.17737338  0.87904917  0.28994814  1
  N  N17  1  0.60165624  0.55974182  0.58388093  1
  N  N18  1  0.89834376  0.05974182  0.41611907  1
  N  N19  1  0.10165624  0.44025818  0.91611907  1
  N  N20  1  0.82262662  0.12095083  0.71005186  1
  N  N21  1  0.08730322  0.94269278  0.23681350  1
  N  N22  1  0.32262662  0.87904917  0.78994814  1
  N  N23  1  0.08730322  0.44269278  0.26318650  1
  N  N24  1  0.73723934  0.18852778  0.65369758  1
  N  N25  1  0.44732303  0.66389561  0.03313911  1
  N  N26  1  0.76276066  0.68852778  0.34630242  1
  N  N27  1  0.42076574  0.80346811  0.05880569  1
  N  N28  1  0.57923426  0.69653189  0.55880569  1
  N  N29  1  0.44732303  0.16389561  0.46686089  1
  N  N30  1  0.23723934  0.81147222  0.84630242  1
  N  N31  1  0.57923426  0.19653189  0.94119431  1
  N  N32  1  0.67737338  0.62095083  0.28994814  1
  N  N33  1  0.94732303  0.33610439  0.46686089  1
  N  N34  1  0.91269678  0.55730722  0.73681350  1
  N  N35  1  0.73723934  0.68852778  0.84630242  1
  N  N36  1  0.26276066  0.31147222  0.15369758  1
  N  N37  1  0.32262662  0.37904917  0.71005186  1
  N  N38  1  0.05267697  0.66389561  0.53313911  1
  N  N39  1  0.58730322  0.05730722  0.26318650  1
  N  N40  1  0.94732303  0.83610439  0.03313911  1
  N  N41  1  0.67737338  0.12095083  0.21005186  1
  N  N42  1  0.41269678  0.94269278  0.73681350  1
  N  N43  1  0.58730322  0.55730722  0.23681350  1
  N  N44  1  0.92076574  0.19653189  0.44119431  1
  N  N45  1  0.42076574  0.30346811  0.44119431  1
  N  N46  1  0.17737338  0.37904917  0.21005186  1
  N  N47  1  0.55267697  0.83610439  0.53313911  1
  N  N48  1  0.55267697  0.33610439  0.96686089  1
  N  N49  1  0.39834376  0.44025818  0.41611907  1
  N  N50  1  0.91269678  0.05730722  0.76318650  1
  N  N51  1  0.07923426  0.80346811  0.55880569  1
  N  N52  1  0.05267697  0.16389561  0.96686089  1
  N  N53  1  0.41269678  0.44269278  0.76318650  1
  N  N54  1  0.92076574  0.69653189  0.05880569  1
  N  N55  1  0.10165624  0.94025818  0.58388093  1
