# generated using pymatgen
data_Fe3B
_symmetry_space_group_name_H-M   'P 1'
_cell_length_a   5.40616887
_cell_length_b   6.66140146
_cell_length_c   4.36349515
_cell_angle_alpha   90.01488831
_cell_angle_beta   90.05117799
_cell_angle_gamma   89.98591966
_symmetry_Int_Tables_number   1
_chemical_formula_structural   Fe3B
_chemical_formula_sum   'Fe12 B4'
_cell_volume   157.14099976
_cell_formula_units_Z   4
loop_
 _symmetry_equiv_pos_site_id
 _symmetry_equiv_pos_as_xyz
  1  'x, y, z'
loop_
 _atom_site_type_symbol
 _atom_site_label
 _atom_site_symmetry_multiplicity
 _atom_site_fract_x
 _atom_site_fract_y
 _atom_site_fract_z
 _atom_site_occupancy
  Fe  Fe0  1  0.98000767  0.74985138  0.11792898  1
  Fe  Fe1  1  0.67594992  0.05600313  0.14849481  1
  Fe  Fe2  1  0.67595502  0.44414551  0.14842933  1
  Fe  Fe3  1  0.17611331  0.05592873  0.35138071  1
  Fe  Fe4  1  0.17605056  0.44421958  0.35143606  1
  Fe  Fe5  1  0.48001732  0.74986966  0.38206343  1
  Fe  Fe6  1  0.52001591  0.25012336  0.61822159  1
  Fe  Fe7  1  0.82394353  0.55549739  0.64868739  1
  Fe  Fe8  1  0.82387936  0.94436447  0.64870601  1
  Fe  Fe9  1  0.32415210  0.55561089  0.85141535  1
  Fe  Fe10  1  0.32415035  0.94425676  0.85138136  1
  Fe  Fe11  1  0.01994667  0.25014409  0.88185871  1
  B  B12  1  0.38210866  0.25012210  0.07444811  1
  B  B13  1  0.88162736  0.25014894  0.42542940  1
  B  B14  1  0.11816407  0.74983679  0.57507444  1
  B  B15  1  0.61791820  0.74987322  0.92504832  1
