# generated using pymatgen
data_Sm2Cu4Sn5
_symmetry_space_group_name_H-M   'P 1'
_cell_length_a   4.50962507
_cell_length_b   4.50962524
_cell_length_c   12.55286121
_cell_angle_alpha   100.34793727
_cell_angle_beta   100.34793762
_cell_angle_gamma   90.00000529
_symmetry_Int_Tables_number   1
_chemical_formula_structural   Sm2Cu4Sn5
_chemical_formula_sum   'Sm2 Cu4 Sn5'
_cell_volume   246.90985524
_cell_formula_units_Z   1
loop_
 _symmetry_equiv_pos_site_id
 _symmetry_equiv_pos_as_xyz
  1  'x, y, z'
loop_
 _atom_site_type_symbol
 _atom_site_label
 _atom_site_symmetry_multiplicity
 _atom_site_fract_x
 _atom_site_fract_y
 _atom_site_fract_z
 _atom_site_occupancy
  Sm  Sm0  1  0.00211803  0.00211803  0.00423607  1
  Sm  Sm1  1  0.68344820  0.68344820  0.36689640  1
  Cu  Cu2  1  0.55364597  0.55364597  0.10729194  1
  Cu  Cu3  1  0.59177499  0.09177499  0.18354998  1
  Cu  Cu4  1  0.45659915  0.45659915  0.91319830  1
  Cu  Cu5  1  0.09177499  0.59177499  0.18354998  1
  Sn  Sn6  1  0.77915417  0.27915417  0.55830835  1
  Sn  Sn7  1  0.27915417  0.77915417  0.55830835  1
  Sn  Sn8  1  0.39844277  0.89844277  0.79688553  1
  Sn  Sn9  1  0.89844277  0.39844277  0.79688553  1
  Sn  Sn10  1  0.15244479  0.15244479  0.30488957  1
