# generated using pymatgen
data_NaH6CN2ClO2
_symmetry_space_group_name_H-M   'P 1'
_cell_length_a   5.13278560
_cell_length_b   6.43967812
_cell_length_c   9.66787288
_cell_angle_alpha   109.04937703
_cell_angle_beta   105.39531147
_cell_angle_gamma   90.00160351
_symmetry_Int_Tables_number   1
_chemical_formula_structural   NaH6CN2ClO2
_chemical_formula_sum   'Na2 H12 C2 N4 Cl2 O4'
_cell_volume   289.89839731
_cell_formula_units_Z   2
loop_
 _symmetry_equiv_pos_site_id
 _symmetry_equiv_pos_as_xyz
  1  'x, y, z'
loop_
 _atom_site_type_symbol
 _atom_site_label
 _atom_site_symmetry_multiplicity
 _atom_site_fract_x
 _atom_site_fract_y
 _atom_site_fract_z
 _atom_site_occupancy
  Na  Na0  1  0.69407381  0.73992440  0.00395864  1
  Na  Na1  1  0.69010502  0.26015141  0.99605612  1
  H  H2  1  0.21067490  0.54070027  0.08643654  1
  H  H3  1  0.29897239  0.05095576  0.08801513  1
  H  H4  1  0.35830637  0.90115144  0.33258528  1
  H  H5  1  0.91787866  0.45092820  0.36095035  1
  H  H6  1  0.36314278  0.34361556  0.47208541  1
  H  H7  1  0.03281225  0.10706674  0.48918772  1
  H  H8  1  0.54363085  0.89290932  0.51080154  1
  H  H9  1  0.89104484  0.65636758  0.52790045  1
  H  H10  1  0.55694358  0.54907735  0.63905145  1
  H  H11  1  0.02574384  0.09885131  0.66741192  1
  H  H12  1  0.21095987  0.94903811  0.91199061  1
  H  H13  1  0.12422854  0.45929842  0.91357582  1
  C  C14  1  0.63482660  0.66676657  0.32462917  1
  C  C15  1  0.31022949  0.33321064  0.67532698  1
  N  N16  1  0.50687459  0.83593340  0.39551964  1
  N  N17  1  0.83797506  0.59183497  0.41215911  1
  N  N18  1  0.42585360  0.40814352  0.58785130  1
  N  N19  1  0.11137376  0.16403239  0.60448306  1
  Cl  Cl20  1  0.03920262  0.11325820  0.23611146  1
  Cl  Cl21  1  0.80308735  0.88676370  0.76390551  1
  O  O22  1  0.37531174  0.00001443  0.00000762  1
  O  O23  1  0.04239422  0.49999542  0.00000215  1
  O  O24  1  0.56849860  0.58227693  0.17996688  1
  O  O25  1  0.38852866  0.41773296  0.82003412  1
