# generated using pymatgen
data_Mn2Os(CN)6
_symmetry_space_group_name_H-M   'P 1'
_cell_length_a   6.08500684
_cell_length_b   6.08500649
_cell_length_c   6.75369365
_cell_angle_alpha   90.00000000
_cell_angle_beta   90.00000000
_cell_angle_gamma   120.00000181
_symmetry_Int_Tables_number   1
_chemical_formula_structural   Mn2Os(CN)6
_chemical_formula_sum   'Mn2 Os1 C6 N6'
_cell_volume   216.56790611
_cell_formula_units_Z   1
loop_
 _symmetry_equiv_pos_site_id
 _symmetry_equiv_pos_as_xyz
  1  'x, y, z'
loop_
 _atom_site_type_symbol
 _atom_site_label
 _atom_site_symmetry_multiplicity
 _atom_site_fract_x
 _atom_site_fract_y
 _atom_site_fract_z
 _atom_site_occupancy
  Mn  Mn0  1  0.33333300  0.66666700  0.50158340  1
  Mn  Mn1  1  0.66666700  0.33333300  0.49841660  1
  Os  Os2  1  0.00000000  0.00000000  0.00000000  1
  C  C3  1  0.74228028  0.74361591  0.18705555  1
  C  C4  1  0.25771972  0.25638409  0.81294445  1
  C  C5  1  0.25638409  0.99866437  0.18705555  1
  C  C6  1  0.00133563  0.25771972  0.18705555  1
  C  C7  1  0.99866437  0.74228028  0.81294445  1
  C  C8  1  0.74361591  0.00133563  0.81294445  1
  N  N9  1  0.61036130  0.00111667  0.68429621  1
  N  N10  1  0.99888333  0.60924463  0.68429621  1
  N  N11  1  0.38963870  0.99888333  0.31570379  1
  N  N12  1  0.00111667  0.39075537  0.31570379  1
  N  N13  1  0.39075537  0.38963870  0.68429621  1
  N  N14  1  0.60924463  0.61036130  0.31570379  1
