# generated using pymatgen
data_CaTlF3
_symmetry_space_group_name_H-M   'P 1'
_cell_length_a   4.51157039
_cell_length_b   4.51342388
_cell_length_c   4.51392430
_cell_angle_alpha   89.90938159
_cell_angle_beta   89.74683462
_cell_angle_gamma   89.95031699
_symmetry_Int_Tables_number   1
_chemical_formula_structural   CaTlF3
_chemical_formula_sum   'Ca1 Tl1 F3'
_cell_volume   91.91432204
_cell_formula_units_Z   1
loop_
 _symmetry_equiv_pos_site_id
 _symmetry_equiv_pos_as_xyz
  1  'x, y, z'
loop_
 _atom_site_type_symbol
 _atom_site_label
 _atom_site_symmetry_multiplicity
 _atom_site_fract_x
 _atom_site_fract_y
 _atom_site_fract_z
 _atom_site_occupancy
  Ca  Ca0  1  0.48678546  0.49876156  0.49529924  1
  Tl  Tl1  1  0.99398703  0.99452233  0.98782339  1
  F  F2  1  0.48341191  0.99921887  0.49804477  1
  F  F3  1  0.98632723  0.50805045  0.51264252  1
  F  F4  1  0.48949038  0.49944579  0.99619207  1
