# generated using pymatgen
data_CaV2O4
_symmetry_space_group_name_H-M   'P 1'
_cell_length_a   5.24470527
_cell_length_b   6.04632747
_cell_length_c   11.18374148
_cell_angle_alpha   90.54287171
_cell_angle_beta   90.13433861
_cell_angle_gamma   90.75898729
_symmetry_Int_Tables_number   1
_chemical_formula_structural   CaV2O4
_chemical_formula_sum   'Ca4 V8 O16'
_cell_volume   354.60180911
_cell_formula_units_Z   4
loop_
 _symmetry_equiv_pos_site_id
 _symmetry_equiv_pos_as_xyz
  1  'x, y, z'
loop_
 _atom_site_type_symbol
 _atom_site_label
 _atom_site_symmetry_multiplicity
 _atom_site_fract_x
 _atom_site_fract_y
 _atom_site_fract_z
 _atom_site_occupancy
  Ca  Ca0  1  0.84611881  0.25298458  0.74967983  1
  Ca  Ca1  1  0.15190892  0.75076220  0.24992126  1
  Ca  Ca2  1  0.53119643  0.25238734  0.25061391  1
  Ca  Ca3  1  0.46934841  0.74222106  0.75032998  1
  V  V4  1  0.50374170  0.74952711  0.48921285  1
  V  V5  1  0.51103878  0.74764094  0.01081204  1
  V  V6  1  0.48682314  0.24921159  0.51133849  1
  V  V7  1  0.49458644  0.25087353  0.98978349  1
  V  V8  1  0.99546730  0.49921179  0.49937424  1
  V  V9  1  0.00676286  0.00304616  0.00031803  1
  V  V10  1  0.99539531  0.99859946  0.50052284  1
  V  V11  1  0.00624081  0.50044595  0.99890589  1
  O  O12  1  0.83905141  0.74422580  0.40099905  1
  O  O13  1  0.84952301  0.74987546  0.09733239  1
  O  O14  1  0.15140489  0.25484498  0.59793159  1
  O  O15  1  0.16095922  0.25130018  0.89954218  1
  O  O16  1  0.17671865  0.75131637  0.58860546  1
  O  O17  1  0.19037320  0.74715365  0.91051191  1
  O  O18  1  0.81484355  0.24535861  0.41166803  1
  O  O19  1  0.81935954  0.25970851  0.08943695  1
  O  O20  1  0.65651347  0.49769027  0.60436124  1
  O  O21  1  0.66964481  0.99746800  0.90062526  1
  O  O22  1  0.33070959  0.00798691  0.39730623  1
  O  O23  1  0.34826629  0.49638663  0.10358938  1
  O  O24  1  0.33582384  0.50076921  0.39517069  1
  O  O25  1  0.32948727  0.00439094  0.10413134  1
  O  O26  1  0.65966318  0.99071408  0.60344469  1
  O  O27  1  0.66902920  0.50389870  0.89453077  1
