# generated using pymatgen
data_Mg(NiO2)2
_symmetry_space_group_name_H-M   'P 1'
_cell_length_a   5.89091148
_cell_length_b   5.89091158
_cell_length_c   5.89091166
_cell_angle_alpha   59.99999954
_cell_angle_beta   59.99999898
_cell_angle_gamma   59.99999683
_symmetry_Int_Tables_number   1
_chemical_formula_structural   Mg(NiO2)2
_chemical_formula_sum   'Mg2 Ni4 O8'
_cell_volume   144.55479361
_cell_formula_units_Z   2
loop_
 _symmetry_equiv_pos_site_id
 _symmetry_equiv_pos_as_xyz
  1  'x, y, z'
loop_
 _atom_site_type_symbol
 _atom_site_label
 _atom_site_symmetry_multiplicity
 _atom_site_fract_x
 _atom_site_fract_y
 _atom_site_fract_z
 _atom_site_occupancy
  Mg  Mg0  1  0.12500000  0.12500000  0.12500000  1
  Mg  Mg1  1  0.87500000  0.87500000  0.87500000  1
  Ni  Ni2  1  0.50000000  0.50000000  0.00000000  1
  Ni  Ni3  1  0.50000000  0.50000000  0.50000000  1
  Ni  Ni4  1  0.00000000  0.50000000  0.50000000  1
  Ni  Ni5  1  0.50000000  0.00000000  0.50000000  1
  O  O6  1  0.73786354  0.73786354  0.73786354  1
  O  O7  1  0.26213646  0.26213646  0.71359063  1
  O  O8  1  0.26213646  0.71359063  0.26213646  1
  O  O9  1  0.71359063  0.26213646  0.26213646  1
  O  O10  1  0.73786354  0.28640937  0.73786354  1
  O  O11  1  0.28640937  0.73786354  0.73786354  1
  O  O12  1  0.26213646  0.26213646  0.26213646  1
  O  O13  1  0.73786354  0.73786354  0.28640937  1
