# generated using pymatgen
data_Ca3Hg
_symmetry_space_group_name_H-M   'P 1'
_cell_length_a   8.83377824
_cell_length_b   8.83377877
_cell_length_c   8.83377876
_cell_angle_alpha   109.47121806
_cell_angle_beta   109.47121929
_cell_angle_gamma   109.47122082
_symmetry_Int_Tables_number   1
_chemical_formula_structural   Ca3Hg
_chemical_formula_sum   'Ca12 Hg4'
_cell_volume   530.66159600
_cell_formula_units_Z   4
loop_
 _symmetry_equiv_pos_site_id
 _symmetry_equiv_pos_as_xyz
  1  'x, y, z'
loop_
 _atom_site_type_symbol
 _atom_site_label
 _atom_site_symmetry_multiplicity
 _atom_site_fract_x
 _atom_site_fract_y
 _atom_site_fract_z
 _atom_site_occupancy
  Ca  Ca0  1  0.25000000  0.50000000  0.75000000  1
  Ca  Ca1  1  0.75000000  0.50000000  0.25000000  1
  Ca  Ca2  1  0.00000000  0.25000000  0.25000000  1
  Ca  Ca3  1  0.50000000  0.25000000  0.75000000  1
  Ca  Ca4  1  0.75000000  0.00000000  0.75000000  1
  Ca  Ca5  1  0.00000000  0.75000000  0.75000000  1
  Ca  Ca6  1  0.25000000  0.00000000  0.25000000  1
  Ca  Ca7  1  0.25000000  0.25000000  0.00000000  1
  Ca  Ca8  1  0.25000000  0.75000000  0.50000000  1
  Ca  Ca9  1  0.50000000  0.75000000  0.25000000  1
  Ca  Ca10  1  0.75000000  0.25000000  0.50000000  1
  Ca  Ca11  1  0.75000000  0.75000000  0.00000000  1
  Hg  Hg12  1  0.50000000  0.00000000  0.00000000  1
  Hg  Hg13  1  0.00000000  0.00000000  0.50000000  1
  Hg  Hg14  1  0.00000000  0.50000000  0.00000000  1
  Hg  Hg15  1  0.50000000  0.50000000  0.50000000  1
