# generated using pymatgen
data_MgVF6
_symmetry_space_group_name_H-M   'P 1'
_cell_length_a   5.42840523
_cell_length_b   5.42840467
_cell_length_c   5.42840435
_cell_angle_alpha   58.08668236
_cell_angle_beta   58.08668100
_cell_angle_gamma   58.08668574
_symmetry_Int_Tables_number   1
_chemical_formula_structural   MgVF6
_chemical_formula_sum   'Mg1 V1 F6'
_cell_volume   108.14817303
_cell_formula_units_Z   1
loop_
 _symmetry_equiv_pos_site_id
 _symmetry_equiv_pos_as_xyz
  1  'x, y, z'
loop_
 _atom_site_type_symbol
 _atom_site_label
 _atom_site_symmetry_multiplicity
 _atom_site_fract_x
 _atom_site_fract_y
 _atom_site_fract_z
 _atom_site_occupancy
  Mg  Mg0  1  0.50000000  0.50000000  0.50000000  1
  V  V1  1  0.00000000  0.00000000  0.00000000  1
  F  F2  1  0.32689510  0.15539955  0.76044511  1
  F  F3  1  0.15539955  0.76044511  0.32689510  1
  F  F4  1  0.23955489  0.67310490  0.84460045  1
  F  F5  1  0.84460045  0.23955489  0.67310490  1
  F  F6  1  0.67310490  0.84460045  0.23955489  1
  F  F7  1  0.76044511  0.32689510  0.15539955  1
