# generated using pymatgen
data_CuAgF3
_symmetry_space_group_name_H-M   'P 1'
_cell_length_a   4.00569783
_cell_length_b   4.01025042
_cell_length_c   4.00933712
_cell_angle_alpha   89.86493264
_cell_angle_beta   89.69577735
_cell_angle_gamma   89.96574330
_symmetry_Int_Tables_number   1
_chemical_formula_structural   CuAgF3
_chemical_formula_sum   'Cu1 Ag1 F3'
_cell_volume   64.40429778
_cell_formula_units_Z   1
loop_
 _symmetry_equiv_pos_site_id
 _symmetry_equiv_pos_as_xyz
  1  'x, y, z'
loop_
 _atom_site_type_symbol
 _atom_site_label
 _atom_site_symmetry_multiplicity
 _atom_site_fract_x
 _atom_site_fract_y
 _atom_site_fract_z
 _atom_site_occupancy
  Cu  Cu0  1  0.48674066  0.50004104  0.49797286  1
  Ag  Ag1  1  0.99531023  0.99898684  0.99676661  1
  F  F2  1  0.48497416  0.00021215  0.49554498  1
  F  F3  1  0.98680411  0.50218172  0.50130375  1
  F  F4  1  0.48617385  0.49857625  0.99841779  1
