# generated using pymatgen
data_RbSrSiHO4
_symmetry_space_group_name_H-M   'P 1'
_cell_length_a   5.93086704
_cell_length_b   7.87811221
_cell_length_c   5.93480347
_cell_angle_alpha   90.00000000
_cell_angle_beta   121.01856765
_cell_angle_gamma   90.00000000
_symmetry_Int_Tables_number   1
_chemical_formula_structural   RbSrSiHO4
_chemical_formula_sum   'Rb2 Sr2 Si2 H2 O8'
_cell_volume   237.64445812
_cell_formula_units_Z   2
loop_
 _symmetry_equiv_pos_site_id
 _symmetry_equiv_pos_as_xyz
  1  'x, y, z'
loop_
 _atom_site_type_symbol
 _atom_site_label
 _atom_site_symmetry_multiplicity
 _atom_site_fract_x
 _atom_site_fract_y
 _atom_site_fract_z
 _atom_site_occupancy
  Rb  Rb0  1  0.35652074  0.76820211  0.63916681  1
  Rb  Rb1  1  0.64347926  0.26820211  0.36083319  1
  Sr  Sr2  1  0.99498254  0.51630380  0.98751473  1
  Sr  Sr3  1  0.00501746  0.01630380  0.01248527  1
  Si  Si4  1  0.68890792  0.75423218  0.30957440  1
  Si  Si5  1  0.31109208  0.25423218  0.69042560  1
  H  H6  1  0.95280655  0.99344913  0.49096093  1
  H  H7  1  0.04719345  0.49344913  0.50903907  1
  O  O8  1  0.36575347  0.76157336  0.14398484  1
  O  O9  1  0.63424653  0.26157336  0.85601516  1
  O  O10  1  0.81608637  0.76019533  0.12084874  1
  O  O11  1  0.18391363  0.26019533  0.87915126  1
  O  O12  1  0.81274617  0.59671822  0.52155226  1
  O  O13  1  0.18725383  0.09671822  0.47844774  1
  O  O14  1  0.80974540  0.93232587  0.50810091  1
  O  O15  1  0.19025460  0.43232587  0.49189909  1
