# generated using pymatgen
data_InPbCl3
_symmetry_space_group_name_H-M   'P 1'
_cell_length_a   5.75568429
_cell_length_b   5.75700126
_cell_length_c   5.76349062
_cell_angle_alpha   89.19818346
_cell_angle_beta   88.85990453
_cell_angle_gamma   90.46991543
_symmetry_Int_Tables_number   1
_chemical_formula_structural   InPbCl3
_chemical_formula_sum   'In1 Pb1 Cl3'
_cell_volume   190.91266581
_cell_formula_units_Z   1
loop_
 _symmetry_equiv_pos_site_id
 _symmetry_equiv_pos_as_xyz
  1  'x, y, z'
loop_
 _atom_site_type_symbol
 _atom_site_label
 _atom_site_symmetry_multiplicity
 _atom_site_fract_x
 _atom_site_fract_y
 _atom_site_fract_z
 _atom_site_occupancy
  In  In0  1  0.08941673  0.08081787  0.10426375  1
  Pb  Pb1  1  0.48781040  0.49971520  0.49958148  1
  Cl  Cl2  1  0.44169138  0.00167947  0.46439938  1
  Cl  Cl3  1  0.98399422  0.45503598  0.44510705  1
  Cl  Cl4  1  0.43708827  0.46274749  0.99664534  1
