# generated using pymatgen
data_KMn2O4
_symmetry_space_group_name_H-M   'P 1'
_cell_length_a   5.86350762
_cell_length_b   9.82005113
_cell_length_c   13.48833681
_cell_angle_alpha   75.11980704
_cell_angle_beta   90.00240677
_cell_angle_gamma   90.00065889
_symmetry_Int_Tables_number   1
_chemical_formula_structural   KMn2O4
_chemical_formula_sum   'K8 Mn16 O32'
_cell_volume   750.61240146
_cell_formula_units_Z   8
loop_
 _symmetry_equiv_pos_site_id
 _symmetry_equiv_pos_as_xyz
  1  'x, y, z'
loop_
 _atom_site_type_symbol
 _atom_site_label
 _atom_site_symmetry_multiplicity
 _atom_site_fract_x
 _atom_site_fract_y
 _atom_site_fract_z
 _atom_site_occupancy
  K  K0  1  0.49999296  0.50863896  0.62647472  1
  K  K1  1  0.99999691  0.52661258  0.61524645  1
  K  K2  1  0.75000335  1.00942070  0.12567993  1
  K  K3  1  0.24999824  0.02639686  0.11534373  1
  K  K4  1  0.49999145  0.48999537  0.37485137  1
  K  K5  1  1.00001377  0.47389509  0.38440873  1
  K  K6  1  0.24997086  0.97366449  0.88453960  1
  K  K7  1  0.75001060  -0.00915681  0.87400470  1
  Mn  Mn8  1  0.50000120  0.64557762  0.83345815  1
  Mn  Mn9  1  -0.00006210  0.64548998  0.83342061  1
  Mn  Mn10  1  0.49999529  0.18335570  0.57295624  1
  Mn  Mn11  1  0.00029669  0.18296073  0.57438369  1
  Mn  Mn12  1  0.00021391  0.81705598  0.42574539  1
  Mn  Mn13  1  0.50000353  0.81651582  0.42720629  1
  Mn  Mn14  1  0.99998766  0.35452897  0.16648308  1
  Mn  Mn15  1  0.49993285  0.35443890  0.16651954  1
  Mn  Mn16  1  0.25005594  0.14540565  0.33348676  1
  Mn  Mn17  1  0.75002284  0.14565827  0.33345965  1
  Mn  Mn18  1  0.24986289  0.68302303  0.07438645  1
  Mn  Mn19  1  0.74988758  0.68345208  0.07270530  1
  Mn  Mn20  1  0.24988273  0.31704631  0.92545589  1
  Mn  Mn21  1  0.74983076  0.31663477  0.92708999  1
  Mn  Mn22  1  0.24999390  0.85464422  0.66651601  1
  Mn  Mn23  1  0.75007638  0.85436287  0.66659904  1
  O  O24  1  0.25005440  0.33957269  0.07816998  1
  O  O25  1  0.74985194  0.33965920  0.07838132  1
  O  O26  1  0.25057642  0.94307630  0.36447568  1
  O  O27  1  0.74965733  0.94303381  0.36395075  1
  O  O28  1  0.25057060  0.05682323  0.63568783  1
  O  O29  1  0.74968238  0.05687852  0.63623864  1
  O  O30  1  0.25004321  0.66050796  0.92160289  1
  O  O31  1  0.74985905  0.66042119  0.92139585  1
  O  O32  1  0.99996972  0.83951094  0.57836642  1
  O  O33  1  0.50013678  0.83963744  0.57861839  1
  O  O34  1  0.99953063  0.44316231  0.86426294  1
  O  O35  1  0.50023807  0.44317996  0.86378218  1
  O  O36  1  0.50025628  0.55696488  0.13598091  1
  O  O37  1  0.99949015  0.55695125  0.13552273  1
  O  O38  1  0.50013236  0.16036680  0.42156615  1
  O  O39  1  0.99996549  0.16045771  0.42180838  1
  O  O40  1  0.49998182  0.14985092  0.23360358  1
  O  O41  1  0.00004873  0.14985017  0.23365058  1
  O  O42  1  0.00005777  0.81899896  0.05349473  1
  O  O43  1  0.49964384  0.81894694  0.05367650  1
  O  O44  1  1.00009090  0.85009568  0.76631539  1
  O  O45  1  0.49996901  0.85014568  0.76637117  1
  O  O46  1  0.49968087  0.18122327  0.94608288  1
  O  O47  1  0.00006094  0.18115307  0.94630851  1
  O  O48  1  0.25004104  0.64989609  0.73369280  1
  O  O49  1  0.74990828  0.64992915  0.73362628  1
  O  O50  1  0.24998463  0.31884374  0.55364773  1
  O  O51  1  0.75030138  0.31879917  0.55387927  1
  O  O52  1  0.25003205  0.35017038  0.26630041  1
  O  O53  1  0.74994262  0.35016487  0.26637511  1
  O  O54  1  0.24994738  0.68101376  0.44651059  1
  O  O55  1  0.75033175  0.68106483  0.44627212  1
