# generated using pymatgen
data_ZnCu(PO3)4
_symmetry_space_group_name_H-M   'P 1'
_cell_length_a   7.28005400
_cell_length_b   7.29197734
_cell_length_c   9.83513966
_cell_angle_alpha   98.26825159
_cell_angle_beta   110.06323604
_cell_angle_gamma   109.97976153
_symmetry_Int_Tables_number   1
_chemical_formula_structural   ZnCu(PO3)4
_chemical_formula_sum   'Zn2 Cu2 P8 O24'
_cell_volume   440.29734577
_cell_formula_units_Z   2
loop_
 _symmetry_equiv_pos_site_id
 _symmetry_equiv_pos_as_xyz
  1  'x, y, z'
loop_
 _atom_site_type_symbol
 _atom_site_label
 _atom_site_symmetry_multiplicity
 _atom_site_fract_x
 _atom_site_fract_y
 _atom_site_fract_z
 _atom_site_occupancy
  Zn  Zn0  1  0.70114519  0.94793013  0.75173278  1
  Zn  Zn1  1  0.30455305  0.05294027  0.25009826  1
  Cu  Cu2  1  0.49838746  0.49953134  0.50094619  1
  Cu  Cu3  1  0.49991021  0.99809509  0.99939253  1
  P  P4  1  0.50639397  0.31244040  0.80333843  1
  P  P5  1  0.00869898  0.70374235  0.69460286  1
  P  P6  1  0.49132602  0.68535796  0.19588557  1
  P  P7  1  0.99038148  0.29553305  0.30484241  1
  P  P8  1  0.76962590  0.72886584  0.02343712  1
  P  P9  1  0.20687028  0.74528769  0.47656967  1
  P  P10  1  0.23075768  0.27049083  0.97695247  1
  P  P11  1  0.79424803  0.25453667  0.52442048  1
  O  O12  1  0.31328139  0.31581190  0.84697571  1
  O  O13  1  0.96957868  0.46807768  0.65195210  1
  O  O14  1  0.68307372  0.67965485  0.15093161  1
  O  O15  1  0.03194394  0.53199531  0.34868381  1
  O  O16  1  0.72074336  0.50390183  0.92992243  1
  O  O17  1  0.06977435  0.78701690  0.56588000  1
  O  O18  1  0.27966165  0.49661535  0.06652116  1
  O  O19  1  0.92885457  0.21166896  0.43358126  1
  O  O20  1  0.45715809  0.33481447  0.64890257  1
  O  O21  1  0.18674872  0.80970390  0.84860353  1
  O  O22  1  0.53753412  0.65982305  0.34912053  1
  O  O23  1  0.80972575  0.18956201  0.15215549  1
  O  O24  1  0.53793342  0.12136802  0.82674030  1
  O  O25  1  0.79506767  0.71419690  0.67139311  1
  O  O26  1  0.45867776  0.87611628  0.17286416  1
  O  O27  1  0.20414344  0.28652501  0.32686707  1
  O  O28  1  0.62826993  0.80934153  0.91809039  1
  O  O29  1  0.39129465  0.70941426  0.58351454  1
  O  O30  1  0.37367616  0.19126952  0.08214527  1
  O  O31  1  0.60890991  0.29127356  0.41963061  1
  O  O32  1  0.00544672  0.84922425  0.09684458  1
  O  O33  1  0.25352371  0.90865226  0.40377992  1
  O  O34  1  0.99433271  0.15392209  0.90637010  1
  O  O35  1  0.74975432  0.09166047  0.59789400  1
