# generated using pymatgen
data_MgCoO2
_symmetry_space_group_name_H-M   'P 1'
_cell_length_a   3.01138237
_cell_length_b   7.98633229
_cell_length_c   7.39423524
_cell_angle_alpha   107.50587949
_cell_angle_beta   89.93534067
_cell_angle_gamma   68.09396350
_symmetry_Int_Tables_number   1
_chemical_formula_structural   MgCoO2
_chemical_formula_sum   'Mg4 Co4 O8'
_cell_volume   156.05280525
_cell_formula_units_Z   4
loop_
 _symmetry_equiv_pos_site_id
 _symmetry_equiv_pos_as_xyz
  1  'x, y, z'
loop_
 _atom_site_type_symbol
 _atom_site_label
 _atom_site_symmetry_multiplicity
 _atom_site_fract_x
 _atom_site_fract_y
 _atom_site_fract_z
 _atom_site_occupancy
  Mg  Mg0  1  0.18735263  0.05393268  0.20149281  1
  Mg  Mg1  1  0.81379770  0.92679888  0.82431227  1
  Mg  Mg2  1  0.05989284  0.67807199  0.07400288  1
  Mg  Mg3  1  0.94107049  0.30281610  0.95178935  1
  Co  Co4  1  0.56466262  0.17781629  0.57755890  1
  Co  Co5  1  0.31307092  0.42873154  0.32449227  1
  Co  Co6  1  0.68792207  0.55213084  0.70140035  1
  Co  Co7  1  0.43618130  0.80319839  0.44782346  1
  O  O8  1  0.05121362  0.68229641  0.57663695  1
  O  O9  1  0.31561119  0.42958152  0.83086412  1
  O  O10  1  0.68512320  0.55142459  0.19454190  1
  O  O11  1  0.95052528  0.29804071  0.44912960  1
  O  O12  1  0.18294573  0.05630462  0.70608946  1
  O  O13  1  0.56838864  0.17434215  0.07372783  1
  O  O14  1  0.81824909  0.92441243  0.31965307  1
  O  O15  1  0.43246966  0.80673387  0.95200778  1
