# generated using pymatgen
data_CaMoF5
_symmetry_space_group_name_H-M   'P 1'
_cell_length_a   5.72396895
_cell_length_b   7.99452260
_cell_length_c   10.74768559
_cell_angle_alpha   90.00000000
_cell_angle_beta   90.00000000
_cell_angle_gamma   109.86212621
_symmetry_Int_Tables_number   1
_chemical_formula_structural   CaMoF5
_chemical_formula_sum   'Ca4 Mo4 F20'
_cell_volume   462.56154269
_cell_formula_units_Z   4
loop_
 _symmetry_equiv_pos_site_id
 _symmetry_equiv_pos_as_xyz
  1  'x, y, z'
loop_
 _atom_site_type_symbol
 _atom_site_label
 _atom_site_symmetry_multiplicity
 _atom_site_fract_x
 _atom_site_fract_y
 _atom_site_fract_z
 _atom_site_occupancy
  Ca  Ca0  1  0.47431147  0.74728309  0.01613904  1
  Ca  Ca1  1  0.52568853  0.75271691  0.51613904  1
  Ca  Ca2  1  0.52568853  0.25271691  0.98386096  1
  Ca  Ca3  1  0.47431147  0.24728309  0.48386096  1
  Mo  Mo4  1  0.89055017  0.59941743  0.75401401  1
  Mo  Mo5  1  0.10944983  0.90058257  0.25401401  1
  Mo  Mo6  1  0.10944983  0.40058257  0.24598599  1
  Mo  Mo7  1  0.89055017  0.09941743  0.74598599  1
  F  F8  1  0.60193375  0.55450705  0.88762606  1
  F  F9  1  0.39806625  0.94549295  0.38762606  1
  F  F10  1  0.39806625  0.44549295  0.11237394  1
  F  F11  1  0.60193375  0.05450705  0.61237394  1
  F  F12  1  0.63535917  0.50290299  0.60627519  1
  F  F13  1  0.36464083  0.99709701  0.10627519  1
  F  F14  1  0.36464083  0.49709701  0.39372481  1
  F  F15  1  0.63535917  0.00290299  0.89372481  1
  F  F16  1  0.86586099  0.80951581  0.40036104  1
  F  F17  1  0.13413901  0.69048419  0.90036104  1
  F  F18  1  0.13413901  0.19048419  0.59963896  1
  F  F19  1  0.86586099  0.30951581  0.09963896  1
  F  F20  1  0.81509464  0.85374477  0.13212331  1
  F  F21  1  0.18490536  0.64625523  0.63212331  1
  F  F22  1  0.18490536  0.14625523  0.86787669  1
  F  F23  1  0.81509464  0.35374477  0.36787669  1
  F  F24  1  0.85315719  0.83893864  0.68757569  1
  F  F25  1  0.14684281  0.66106136  0.18757569  1
  F  F26  1  0.14684281  0.16106136  0.31242431  1
  F  F27  1  0.85315719  0.33893864  0.81242431  1
