# generated using pymatgen
data_WF5
_symmetry_space_group_name_H-M   'P 1'
_cell_length_a   5.61320902
_cell_length_b   7.96447246
_cell_length_c   10.01454096
_cell_angle_alpha   90.00000000
_cell_angle_beta   90.00000000
_cell_angle_gamma   110.94551510
_symmetry_Int_Tables_number   1
_chemical_formula_structural   WF5
_chemical_formula_sum   'W4 F20'
_cell_volume   418.12806668
_cell_formula_units_Z   4
loop_
 _symmetry_equiv_pos_site_id
 _symmetry_equiv_pos_as_xyz
  1  'x, y, z'
loop_
 _atom_site_type_symbol
 _atom_site_label
 _atom_site_symmetry_multiplicity
 _atom_site_fract_x
 _atom_site_fract_y
 _atom_site_fract_z
 _atom_site_occupancy
  W  W0  1  0.88128337  0.59691882  0.75154563  1
  W  W1  1  0.11871663  0.90308118  0.25154563  1
  W  W2  1  0.11871663  0.40308118  0.24845437  1
  W  W3  1  0.88128337  0.09691882  0.74845437  1
  F  F4  1  0.59844828  0.56751809  0.86768178  1
  F  F5  1  0.40155172  0.93248191  0.36768178  1
  F  F6  1  0.40155172  0.43248191  0.13231822  1
  F  F7  1  0.59844828  0.06751809  0.63231822  1
  F  F8  1  0.64221599  0.48765223  0.61697393  1
  F  F9  1  0.35778401  0.01234777  0.11697393  1
  F  F10  1  0.35778401  0.51234777  0.38302607  1
  F  F11  1  0.64221599  0.98765223  0.88302607  1
  F  F12  1  0.88328157  0.79902021  0.38985296  1
  F  F13  1  0.11671843  0.70097979  0.88985296  1
  F  F14  1  0.11671843  0.20097979  0.61014704  1
  F  F15  1  0.88328157  0.29902021  0.11014704  1
  F  F16  1  0.83284681  0.87107397  0.13675144  1
  F  F17  1  0.16715319  0.62892603  0.63675144  1
  F  F18  1  0.16715319  0.12892603  0.86324856  1
  F  F19  1  0.83284681  0.37107397  0.36324856  1
  F  F20  1  0.88295534  0.84657025  0.69719897  1
  F  F21  1  0.11704466  0.65342975  0.19719897  1
  F  F22  1  0.11704466  0.15342975  0.30280103  1
  F  F23  1  0.88295534  0.34657025  0.80280103  1
