# generated using pymatgen
data_Li48P16S61
_symmetry_space_group_name_H-M   'P 1'
_cell_length_a   13.08833849
_cell_length_b   16.23034599
_cell_length_c   12.48874190
_cell_angle_alpha   90.00000000
_cell_angle_beta   90.15640850
_cell_angle_gamma   90.00000000
_symmetry_Int_Tables_number   1
_chemical_formula_structural   Li48P16S61
_chemical_formula_sum   'Li48 P16 S61'
_cell_volume   2652.95185208
_cell_formula_units_Z   1
loop_
 _symmetry_equiv_pos_site_id
 _symmetry_equiv_pos_as_xyz
  1  'x, y, z'
loop_
 _atom_site_type_symbol
 _atom_site_label
 _atom_site_symmetry_multiplicity
 _atom_site_fract_x
 _atom_site_fract_y
 _atom_site_fract_z
 _atom_site_occupancy
  Li  Li0  1  0.33241481  0.01770336  0.19450770  1
  Li  Li1  1  0.33167245  0.01956549  0.69263226  1
  Li  Li2  1  0.33183845  0.51777144  0.19528948  1
  Li  Li3  1  0.33455798  0.51900229  0.69295868  1
  Li  Li4  1  0.66720139  0.48363773  0.30550014  1
  Li  Li5  1  0.67009770  0.47275476  0.79255082  1
  Li  Li6  1  0.66834646  0.98457549  0.30619684  1
  Li  Li7  1  0.67005254  0.97337956  0.79245027  1
  Li  Li8  1  0.16689438  0.48414765  0.44454494  1
  Li  Li9  1  0.16824026  0.48379123  0.94321731  1
  Li  Li10  1  0.17164306  0.97215675  0.45878880  1
  Li  Li11  1  0.16820526  0.98455040  0.94345933  1
  Li  Li12  1  0.83250342  0.01725281  0.05462701  1
  Li  Li13  1  0.83128984  0.01954605  0.55758128  1
  Li  Li14  1  0.83345033  0.51621981  0.05674548  1
  Li  Li15  1  0.83048759  0.51604209  0.55431409  1
  Li  Li16  1  0.66834646  0.26542451  0.30619684  1
  Li  Li17  1  0.67005254  0.27662044  0.79245027  1
  Li  Li18  1  0.66720139  0.76636227  0.30550014  1
  Li  Li19  1  0.67009770  0.77724524  0.79255082  1
  Li  Li20  1  0.33241481  0.23229664  0.19450770  1
  Li  Li21  1  0.33167245  0.23043451  0.69263226  1
  Li  Li22  1  0.33183845  0.73222856  0.19528948  1
  Li  Li23  1  0.33455798  0.73099771  0.69295868  1
  Li  Li24  1  0.83250342  0.23274719  0.05462701  1
  Li  Li25  1  0.83128984  0.23045395  0.55758128  1
  Li  Li26  1  0.83345033  0.73378019  0.05674548  1
  Li  Li27  1  0.83048759  0.73395791  0.55431409  1
  Li  Li28  1  0.17164306  0.27784325  0.45878880  1
  Li  Li29  1  0.16820526  0.26544960  0.94345933  1
  Li  Li30  1  0.16689438  0.76585235  0.44454494  1
  Li  Li31  1  0.16824026  0.76620877  0.94321731  1
  Li  Li32  1  0.99294291  0.98695770  0.23276266  1
  Li  Li33  1  -0.00012406  0.00188570  0.74361092  1
  Li  Li34  1  0.00129050  0.50045301  0.25163262  1
  Li  Li35  1  0.99862534  0.49914096  0.74787375  1
  Li  Li36  1  0.49259444  0.98643997  0.01828401  1
  Li  Li37  1  0.50031642  0.00223562  0.50542287  1
  Li  Li38  1  0.49231948  0.48655900  0.01847964  1
  Li  Li39  1  0.50075964  0.50143401  0.50450255  1
  Li  Li40  1  0.99294291  0.26304230  0.23276266  1
  Li  Li41  1  -0.00012406  0.24811430  0.74361092  1
  Li  Li42  1  0.00129050  0.74954699  0.25163262  1
  Li  Li43  1  0.99862534  0.75085904  0.74787375  1
  Li  Li44  1  0.49259444  0.26356003  0.01828401  1
  Li  Li45  1  0.50031642  0.24776438  0.50542287  1
  Li  Li46  1  0.49231948  0.76344100  0.01847964  1
  Li  Li47  1  0.50075964  0.74856599  0.50450255  1
  P  P48  1  0.08951003  0.12500000  0.07819981  1
  P  P49  1  0.08895357  0.12500000  0.56284474  1
  P  P50  1  0.08963271  0.62500000  0.07603418  1
  P  P51  1  0.08951545  0.62500000  0.57687390  1
  P  P52  1  0.91115051  0.37345644  0.42415670  1
  P  P53  1  0.90966896  0.37426270  0.92348814  1
  P  P54  1  0.91115051  0.87654356  0.42415670  1
  P  P55  1  0.90966896  0.87573730  0.92348814  1
  P  P56  1  0.41123486  0.37445789  0.32653510  1
  P  P57  1  0.41073619  0.37499122  0.82472844  1
  P  P58  1  0.41123486  0.87554211  0.32653510  1
  P  P59  1  0.41073619  0.87500878  0.82472844  1
  P  P60  1  0.58966479  0.12500000  0.17126905  1
  P  P61  1  0.58919488  0.12500000  0.68751033  1
  P  P62  1  0.58964307  0.62500000  0.17134251  1
  P  P63  1  0.58916109  0.62500000  0.68739045  1
  S  S64  1  0.10020344  0.12500000  0.91544802  1
  S  S65  1  0.10057405  0.62500000  0.41342623  1
  S  S66  1  0.10010556  0.62500000  0.91326077  1
  S  S67  1  0.89832707  0.37439334  0.08726304  1
  S  S68  1  0.90043646  0.37448194  0.58658996  1
  S  S69  1  0.89832707  0.87560666  0.08726304  1
  S  S70  1  0.90043646  0.87551806  0.58658996  1
  S  S71  1  0.39836960  0.37471679  0.16161038  1
  S  S72  1  0.39884877  0.37526416  0.66262640  1
  S  S73  1  0.39836960  0.87528321  0.16161038  1
  S  S74  1  0.39884877  0.87473584  0.66262640  1
  S  S75  1  0.60072940  0.12500000  0.33397512  1
  S  S76  1  0.60126153  0.62500000  0.33412235  1
  S  S77  1  0.94050020  0.12500000  0.13895439  1
  S  S78  1  0.94050976  0.12500000  0.63696663  1
  S  S79  1  0.94060799  0.62500000  0.13697043  1
  S  S80  1  0.94008650  0.62500000  0.63585615  1
  S  S81  1  0.06091407  0.37373055  0.36328690  1
  S  S82  1  0.05817838  0.37482295  0.86364922  1
  S  S83  1  0.06091407  0.87626945  0.36328690  1
  S  S84  1  0.05817838  0.87517705  0.86364922  1
  S  S85  1  0.55967600  0.37429528  0.38620797  1
  S  S86  1  0.56082186  0.37510651  0.88651469  1
  S  S87  1  0.55967600  0.87570472  0.38620797  1
  S  S88  1  0.56082186  0.87489349  0.88651469  1
  S  S89  1  0.44042842  0.12500000  0.11016074  1
  S  S90  1  0.44056340  0.12500000  0.61312359  1
  S  S91  1  0.44025125  0.62500000  0.11069422  1
  S  S92  1  0.44072982  0.62500000  0.61202893  1
  S  S93  1  0.15380807  0.01835276  0.13706821  1
  S  S94  1  0.15481831  0.01957099  0.63613004  1
  S  S95  1  0.15369567  0.51818444  0.13456806  1
  S  S96  1  0.15374879  0.51820739  0.63516489  1
  S  S97  1  0.84729176  0.47971842  0.36349671  1
  S  S98  1  0.84458438  0.48123719  0.86568804  1
  S  S99  1  0.84934578  0.98374121  0.36476113  1
  S  S100  1  0.84521393  0.98200916  0.86408870  1
  S  S101  1  0.34656526  0.48091647  0.38393405  1
  S  S102  1  0.34912624  0.48211831  0.88511556  1
  S  S103  1  0.34609749  0.98215115  0.38393077  1
  S  S104  1  0.34935378  0.98180517  0.88552173  1
  S  S105  1  0.65392453  0.01840354  0.11244101  1
  S  S106  1  0.65465205  0.01945448  0.61463430  1
  S  S107  1  0.65376726  0.51845174  0.11228046  1
  S  S108  1  0.65506392  0.51954524  0.61481918  1
  S  S109  1  0.84934578  0.26625879  0.36476113  1
  S  S110  1  0.84521393  0.26799084  0.86408870  1
  S  S111  1  0.84729176  0.77028158  0.36349671  1
  S  S112  1  0.84458438  0.76876281  0.86568804  1
  S  S113  1  0.15380807  0.23164724  0.13706821  1
  S  S114  1  0.15481831  0.23042901  0.63613004  1
  S  S115  1  0.15369567  0.73181556  0.13456806  1
  S  S116  1  0.15374879  0.73179261  0.63516489  1
  S  S117  1  0.65392453  0.23159646  0.11244101  1
  S  S118  1  0.65465205  0.23054552  0.61463430  1
  S  S119  1  0.65376726  0.73154826  0.11228046  1
  S  S120  1  0.65506392  0.73045476  0.61481918  1
  S  S121  1  0.34609749  0.26784885  0.38393077  1
  S  S122  1  0.34935378  0.26819483  0.88552173  1
  S  S123  1  0.34656526  0.76908353  0.38393405  1
  S  S124  1  0.34912624  0.76788169  0.88511556  1
