# generated using pymatgen
data_SeS4N3Cl5
_symmetry_space_group_name_H-M   'P 1'
_cell_length_a   7.69486261
_cell_length_b   10.15885995
_cell_length_c   17.11220170
_cell_angle_alpha   90.00000000
_cell_angle_beta   90.00000000
_cell_angle_gamma   90.00000000
_symmetry_Int_Tables_number   1
_chemical_formula_structural   SeS4N3Cl5
_chemical_formula_sum   'Se4 S16 N12 Cl20'
_cell_volume   1337.67845966
_cell_formula_units_Z   4
loop_
 _symmetry_equiv_pos_site_id
 _symmetry_equiv_pos_as_xyz
  1  'x, y, z'
loop_
 _atom_site_type_symbol
 _atom_site_label
 _atom_site_symmetry_multiplicity
 _atom_site_fract_x
 _atom_site_fract_y
 _atom_site_fract_z
 _atom_site_occupancy
  Se  Se0  1  0.88374889  0.93095768  0.01273528  1
  Se  Se1  1  0.38374889  0.56904232  0.98726472  1
  Se  Se2  1  0.61625111  0.06904232  0.51273528  1
  Se  Se3  1  0.11625111  0.43095768  0.48726472  1
  S  S4  1  0.75229260  0.67068479  0.25639732  1
  S  S5  1  0.88738400  0.59066445  0.81308535  1
  S  S6  1  0.30181541  0.18683938  0.82549564  1
  S  S7  1  0.24770740  0.17068479  0.24360268  1
  S  S8  1  0.60783508  0.39869120  0.65740728  1
  S  S9  1  0.11261600  0.09066445  0.68691465  1
  S  S10  1  0.74770740  0.32931521  0.75639732  1
  S  S11  1  0.61261600  0.40933555  0.31308535  1
  S  S12  1  0.38738400  0.90933555  0.18691465  1
  S  S13  1  0.69818459  0.68683938  0.67450436  1
  S  S14  1  0.89216492  0.60130880  0.15740728  1
  S  S15  1  0.80181541  0.31316062  0.17450436  1
  S  S16  1  0.10783508  0.10130880  0.34259272  1
  S  S17  1  0.39216492  0.89869120  0.84259272  1
  S  S18  1  0.25229260  0.82931521  0.74360268  1
  S  S19  1  0.19818459  0.81316062  0.32549564  1
  N  N20  1  0.18150774  0.19110119  0.75041495  1
  N  N21  1  0.16030406  0.94349689  0.69774972  1
  N  N22  1  0.37661920  0.05136081  0.85006985  1
  N  N23  1  0.66030406  0.55650311  0.30225028  1
  N  N24  1  0.31849226  0.80889881  0.25041495  1
  N  N25  1  0.68150774  0.30889881  0.24958505  1
  N  N26  1  0.83969594  0.44349689  0.80225028  1
  N  N27  1  0.81849226  0.69110119  0.74958505  1
  N  N28  1  0.87661920  0.44863919  0.14993015  1
  N  N29  1  0.33969594  0.05650311  0.19774972  1
  N  N30  1  0.12338080  0.94863919  0.35006985  1
  N  N31  1  0.62338080  0.55136081  0.64993015  1
  Cl  Cl32  1  0.10658481  0.39665675  0.33841516  1
  Cl  Cl33  1  0.56842036  0.39283223  0.97211445  1
  Cl  Cl34  1  0.11248391  0.45647880  0.62222673  1
  Cl  Cl35  1  0.61248391  0.04352120  0.37777327  1
  Cl  Cl36  1  0.93157964  0.60716777  0.47211445  1
  Cl  Cl37  1  0.60658481  0.10334325  0.66158484  1
  Cl  Cl38  1  0.64614173  0.05493060  0.02626646  1
  Cl  Cl39  1  0.35385827  0.55493060  0.47373354  1
  Cl  Cl40  1  0.43157964  0.89283223  0.52788555  1
  Cl  Cl41  1  0.89341519  0.89665675  0.16158484  1
  Cl  Cl42  1  0.39341519  0.60334325  0.83841516  1
  Cl  Cl43  1  0.30611349  0.22307084  0.50427314  1
  Cl  Cl44  1  0.06842036  0.10716777  0.02788555  1
  Cl  Cl45  1  0.38751609  0.54352120  0.12222673  1
  Cl  Cl46  1  0.14614173  0.44506940  0.97373354  1
  Cl  Cl47  1  0.80611349  0.27692916  0.49572686  1
  Cl  Cl48  1  0.88751609  0.95647880  0.87777327  1
  Cl  Cl49  1  0.19388651  0.77692916  0.00427314  1
  Cl  Cl50  1  0.69388651  0.72307084  0.99572686  1
  Cl  Cl51  1  0.85385827  0.94506940  0.52626646  1
