# generated using pymatgen
data_Ca2TiIrO6
_symmetry_space_group_name_H-M   'P 1'
_cell_length_a   5.40240772
_cell_length_b   5.57839192
_cell_length_c   7.71870951
_cell_angle_alpha   90.00000000
_cell_angle_beta   89.88082660
_cell_angle_gamma   90.00000000
_symmetry_Int_Tables_number   1
_chemical_formula_structural   Ca2TiIrO6
_chemical_formula_sum   'Ca4 Ti2 Ir2 O12'
_cell_volume   232.61629709
_cell_formula_units_Z   2
loop_
 _symmetry_equiv_pos_site_id
 _symmetry_equiv_pos_as_xyz
  1  'x, y, z'
loop_
 _atom_site_type_symbol
 _atom_site_label
 _atom_site_symmetry_multiplicity
 _atom_site_fract_x
 _atom_site_fract_y
 _atom_site_fract_z
 _atom_site_occupancy
  Ca  Ca0  1  0.01410129  0.94556731  0.25002191  1
  Ca  Ca1  1  0.48589871  0.44556731  0.24997809  1
  Ca  Ca2  1  0.51410129  0.55443269  0.75002191  1
  Ca  Ca3  1  0.98589871  0.05443269  0.74997809  1
  Ti  Ti4  1  0.00000000  0.50000000  0.00000000  1
  Ti  Ti5  1  0.50000000  0.00000000  0.50000000  1
  Ir  Ir6  1  0.00000000  0.50000000  0.50000000  1
  Ir  Ir7  1  0.50000000  0.00000000  0.00000000  1
  O  O8  1  0.08659571  0.47637942  0.75243156  1
  O  O9  1  0.20019876  0.21010245  0.04627067  1
  O  O10  1  0.20478955  0.20274369  0.45570419  1
  O  O11  1  0.29521045  0.70274369  0.04429581  1
  O  O12  1  0.29980124  0.71010245  0.45372933  1
  O  O13  1  0.41340429  0.97637942  0.74756844  1
  O  O14  1  0.58659571  0.02362058  0.25243156  1
  O  O15  1  0.70019876  0.28989755  0.54627067  1
  O  O16  1  0.70478955  0.29725631  0.95570419  1
  O  O17  1  0.79980124  0.78989755  0.95372933  1
  O  O18  1  0.79521045  0.79725631  0.54429581  1
  O  O19  1  0.91340429  0.52362058  0.24756844  1
