# generated using pymatgen
data_Ca(MnS2)4
_symmetry_space_group_name_H-M   'P 1'
_cell_length_a   7.73818457
_cell_length_b   7.73818427
_cell_length_c   7.73818556
_cell_angle_alpha   51.38970688
_cell_angle_beta   51.38970189
_cell_angle_gamma   51.38970781
_symmetry_Int_Tables_number   1
_chemical_formula_structural   Ca(MnS2)4
_chemical_formula_sum   'Ca1 Mn4 S8'
_cell_volume   261.20654102
_cell_formula_units_Z   1
loop_
 _symmetry_equiv_pos_site_id
 _symmetry_equiv_pos_as_xyz
  1  'x, y, z'
loop_
 _atom_site_type_symbol
 _atom_site_label
 _atom_site_symmetry_multiplicity
 _atom_site_fract_x
 _atom_site_fract_y
 _atom_site_fract_z
 _atom_site_occupancy
  Ca  Ca0  1  0.50000000  0.50000100  0.49999900  1
  Mn  Mn1  1  0.50000100  0.99999900  0.50000100  1
  Mn  Mn2  1  0.99999900  0.50000000  0.50000100  1
  Mn  Mn3  1  0.50000000  0.50000000  0.00000000  1
  Mn  Mn4  1  0.00000000  0.00000000  0.00000000  1
  S  S5  1  0.76948567  0.26621193  0.76948567  1
  S  S6  1  0.23051333  0.23051433  0.73378807  1
  S  S7  1  0.23051333  0.73378907  0.23051333  1
  S  S8  1  0.73378707  0.23051433  0.23051433  1
  S  S9  1  0.26806683  0.26806783  0.26806683  1
  S  S10  1  0.73193317  0.73193317  0.73193317  1
  S  S11  1  0.26621293  0.76948667  0.76948567  1
  S  S12  1  0.76948667  0.76948667  0.26621193  1
