# generated using pymatgen
data_Al7Si3BO18
_symmetry_space_group_name_H-M   'P 1'
_cell_length_a   11.84345719
_cell_length_b   20.26361296
_cell_length_c   4.79576338
_cell_angle_alpha   90.00000000
_cell_angle_beta   90.00000000
_cell_angle_gamma   90.00000000
_symmetry_Int_Tables_number   1
_chemical_formula_structural   Al7Si3BO18
_chemical_formula_sum   'Al28 Si12 B4 O72'
_cell_volume   1150.94116486
_cell_formula_units_Z   4
loop_
 _symmetry_equiv_pos_site_id
 _symmetry_equiv_pos_as_xyz
  1  'x, y, z'
loop_
 _atom_site_type_symbol
 _atom_site_label
 _atom_site_symmetry_multiplicity
 _atom_site_fract_x
 _atom_site_fract_y
 _atom_site_fract_z
 _atom_site_occupancy
  Al  Al0  1  0.25000000  0.24962850  0.88958731  1
  Al  Al1  1  0.25000000  0.25037150  0.38958731  1
  Al  Al2  1  0.75000000  0.75037150  0.11041269  1
  Al  Al3  1  0.75000000  0.74962850  0.61041269  1
  Al  Al4  1  0.38989881  0.47221974  0.05877834  1
  Al  Al5  1  0.11010119  0.02778026  0.55877834  1
  Al  Al6  1  0.88989881  0.52778026  0.94122166  1
  Al  Al7  1  0.61010119  0.97221974  0.44122166  1
  Al  Al8  1  0.61010119  0.52778026  0.94122166  1
  Al  Al9  1  0.88989881  0.97221974  0.44122166  1
  Al  Al10  1  0.11010119  0.47221974  0.05877834  1
  Al  Al11  1  0.38989881  0.02778026  0.55877834  1
  Al  Al12  1  0.50865113  0.43062359  0.55974549  1
  Al  Al13  1  0.99134887  0.06937641  0.05974549  1
  Al  Al14  1  0.00865113  0.56937641  0.44025451  1
  Al  Al15  1  0.49134887  0.93062359  0.94025451  1
  Al  Al16  1  0.49134887  0.56937641  0.44025451  1
  Al  Al17  1  0.00865113  0.93062359  0.94025451  1
  Al  Al18  1  0.99134887  0.43062359  0.55974549  1
  Al  Al19  1  0.50865113  0.06937641  0.05974549  1
  Al  Al20  1  0.64359587  0.28705872  0.55403003  1
  Al  Al21  1  0.85640413  0.21294128  0.05403003  1
  Al  Al22  1  0.14359587  0.71294128  0.44596997  1
  Al  Al23  1  0.35640413  0.78705872  0.94596997  1
  Al  Al24  1  0.35640413  0.71294128  0.44596997  1
  Al  Al25  1  0.14359587  0.78705872  0.94596997  1
  Al  Al26  1  0.85640413  0.28705872  0.55403003  1
  Al  Al27  1  0.64359587  0.21294128  0.05403003  1
  Si  Si28  1  0.25000000  0.40373641  0.58901281  1
  Si  Si29  1  0.25000000  0.09626359  0.08901281  1
  Si  Si30  1  0.75000000  0.59626359  0.41098719  1
  Si  Si31  1  0.75000000  0.90373641  0.91098719  1
  Si  Si32  1  0.47454627  0.32754661  0.08703154  1
  Si  Si33  1  0.02545373  0.17245339  0.58703154  1
  Si  Si34  1  0.97454627  0.67245339  0.91296846  1
  Si  Si35  1  0.52545373  0.82754661  0.41296846  1
  Si  Si36  1  0.52545373  0.67245339  0.91296846  1
  Si  Si37  1  0.97454627  0.82754661  0.41296846  1
  Si  Si38  1  0.02545373  0.32754661  0.08703154  1
  Si  Si39  1  0.47454627  0.17245339  0.58703154  1
  B  B40  1  0.75000000  0.41607429  0.72266757  1
  B  B41  1  0.75000000  0.08392571  0.22266757  1
  B  B42  1  0.25000000  0.58392571  0.27733243  1
  B  B43  1  0.25000000  0.91607429  0.77733243  1
  O  O44  1  0.25000000  0.32303515  0.64270955  1
  O  O45  1  0.25000000  0.17696485  0.14270955  1
  O  O46  1  0.75000000  0.67696485  0.35729045  1
  O  O47  1  0.75000000  0.82303515  0.85729045  1
  O  O48  1  0.35707891  0.28576860  0.14013290  1
  O  O49  1  0.14292109  0.21423140  0.64013290  1
  O  O50  1  0.85707891  0.71423140  0.85986710  1
  O  O51  1  0.64292109  0.78576860  0.35986710  1
  O  O52  1  0.64292109  0.71423140  0.85986710  1
  O  O53  1  0.85707891  0.78576860  0.35986710  1
  O  O54  1  0.14292109  0.28576860  0.14013290  1
  O  O55  1  0.35707891  0.21423140  0.64013290  1
  O  O56  1  0.36035664  0.42359956  0.39779306  1
  O  O57  1  0.13964336  0.07640044  0.89779306  1
  O  O58  1  0.86035664  0.57640044  0.60220694  1
  O  O59  1  0.63964336  0.92359956  0.10220694  1
  O  O60  1  0.63964336  0.57640044  0.60220694  1
  O  O61  1  0.86035664  0.92359956  0.10220694  1
  O  O62  1  0.13964336  0.42359956  0.39779306  1
  O  O63  1  0.36035664  0.07640044  0.89779306  1
  O  O64  1  0.44858870  0.39296761  0.89660230  1
  O  O65  1  0.05141130  0.10703239  0.39660230  1
  O  O66  1  0.94858870  0.60703239  0.10339770  1
  O  O67  1  0.55141130  0.89296761  0.60339770  1
  O  O68  1  0.55141130  0.60703239  0.10339770  1
  O  O69  1  0.94858870  0.89296761  0.60339770  1
  O  O70  1  0.05141130  0.39296761  0.89660230  1
  O  O71  1  0.44858870  0.10703239  0.39660230  1
  O  O72  1  0.56165074  0.28278116  0.89607892  1
  O  O73  1  0.93834926  0.21721884  0.39607892  1
  O  O74  1  0.06165074  0.71721884  0.10392108  1
  O  O75  1  0.43834926  0.78278116  0.60392108  1
  O  O76  1  0.43834926  0.71721884  0.10392108  1
  O  O77  1  0.06165074  0.78278116  0.60392108  1
  O  O78  1  0.93834926  0.28278116  0.89607892  1
  O  O79  1  0.56165074  0.21721884  0.39607892  1
  O  O80  1  0.25000000  0.45230415  0.87753927  1
  O  O81  1  0.25000000  0.04769585  0.37753927  1
  O  O82  1  0.75000000  0.54769585  0.12246073  1
  O  O83  1  0.75000000  0.95230415  0.62246073  1
  O  O84  1  0.54341977  0.34889287  0.37905767  1
  O  O85  1  0.95658023  0.15110713  0.87905767  1
  O  O86  1  0.04341977  0.65110713  0.62094233  1
  O  O87  1  0.45658023  0.84889287  0.12094233  1
  O  O88  1  0.45658023  0.65110713  0.62094233  1
  O  O89  1  0.04341977  0.84889287  0.12094233  1
  O  O90  1  0.95658023  0.34889287  0.37905767  1
  O  O91  1  0.54341977  0.15110713  0.87905767  1
  O  O92  1  0.75000000  0.27072714  0.26096471  1
  O  O93  1  0.75000000  0.22927286  0.76096471  1
  O  O94  1  0.25000000  0.72927286  0.73903529  1
  O  O95  1  0.25000000  0.77072714  0.23903529  1
  O  O96  1  0.75000000  0.35140798  0.64975990  1
  O  O97  1  0.75000000  0.14859202  0.14975990  1
  O  O98  1  0.25000000  0.64859202  0.35024010  1
  O  O99  1  0.25000000  0.85140798  0.85024010  1
  O  O100  1  0.64862345  0.44810692  0.75561453  1
  O  O101  1  0.85137655  0.05189308  0.25561453  1
  O  O102  1  0.14862345  0.55189308  0.24438547  1
  O  O103  1  0.35137655  0.94810692  0.74438547  1
  O  O104  1  0.35137655  0.55189308  0.24438547  1
  O  O105  1  0.14862345  0.94810692  0.74438547  1
  O  O106  1  0.85137655  0.44810692  0.75561453  1
  O  O107  1  0.64862345  0.05189308  0.25561453  1
  O  O108  1  0.53378040  0.48794398  0.25041579  1
  O  O109  1  0.96621960  0.01205602  0.75041579  1
  O  O110  1  0.03378040  0.51205602  0.74958421  1
  O  O111  1  0.46621960  0.98794398  0.24958421  1
  O  O112  1  0.46621960  0.51205602  0.74958421  1
  O  O113  1  0.03378040  0.98794398  0.24958421  1
  O  O114  1  0.96621960  0.48794398  0.25041579  1
  O  O115  1  0.53378040  0.01205602  0.75041579  1
