# generated using pymatgen
data_Nd7Co3
_symmetry_space_group_name_H-M   'P 1'
_cell_length_a   9.82190860
_cell_length_b   9.82190865
_cell_length_c   6.31341393
_cell_angle_alpha   90.01747283
_cell_angle_beta   89.98252269
_cell_angle_gamma   119.98708437
_symmetry_Int_Tables_number   1
_chemical_formula_structural   Nd7Co3
_chemical_formula_sum   'Nd14 Co6'
_cell_volume   527.52513187
_cell_formula_units_Z   2
loop_
 _symmetry_equiv_pos_site_id
 _symmetry_equiv_pos_as_xyz
  1  'x, y, z'
loop_
 _atom_site_type_symbol
 _atom_site_label
 _atom_site_symmetry_multiplicity
 _atom_site_fract_x
 _atom_site_fract_y
 _atom_site_fract_z
 _atom_site_occupancy
  Nd  Nd0  1  0.33328933  0.66670967  0.01673786  1
  Nd  Nd1  1  0.66669952  0.33330048  0.51674001  1
  Nd  Nd2  1  0.53952651  0.46047349  0.05924253  1
  Nd  Nd3  1  0.46049719  0.53950181  0.55934270  1
  Nd  Nd4  1  0.53956637  0.07909980  0.05939970  1
  Nd  Nd5  1  0.92090120  0.46043463  0.05939970  1
  Nd  Nd6  1  0.07913293  0.53963656  0.55935369  1
  Nd  Nd7  1  0.46036544  0.92087007  0.55935369  1
  Nd  Nd8  1  0.12582586  0.87417214  0.24626722  1
  Nd  Nd9  1  0.87419835  0.12580065  0.74634673  1
  Nd  Nd10  1  0.12581287  0.25159670  0.24635608  1
  Nd  Nd11  1  0.74840130  0.87418713  0.24635608  1
  Nd  Nd12  1  0.25161654  0.12574198  0.74630833  1
  Nd  Nd13  1  0.87425402  0.74838246  0.74630833  1
  Co  Co14  1  0.81278462  0.18721438  0.29873569  1
  Co  Co15  1  0.18719301  0.81280599  0.79871576  1
  Co  Co16  1  0.81266921  0.62546666  0.29875709  1
  Co  Co17  1  0.37453234  0.18732979  0.29875709  1
  Co  Co18  1  0.62544642  0.81271603  0.79876085  1
  Co  Co19  1  0.18728397  0.37455258  0.79876085  1
