# generated using pymatgen
data_NaMn2O4
_symmetry_space_group_name_H-M   'P 1'
_cell_length_a   5.83918081
_cell_length_b   6.67775088
_cell_length_c   16.52488025
_cell_angle_alpha   68.31534096
_cell_angle_beta   89.99547835
_cell_angle_gamma   64.06684089
_symmetry_Int_Tables_number   1
_chemical_formula_structural   NaMn2O4
_chemical_formula_sum   'Na6 Mn12 O24'
_cell_volume   528.30479272
_cell_formula_units_Z   6
loop_
 _symmetry_equiv_pos_site_id
 _symmetry_equiv_pos_as_xyz
  1  'x, y, z'
loop_
 _atom_site_type_symbol
 _atom_site_label
 _atom_site_symmetry_multiplicity
 _atom_site_fract_x
 _atom_site_fract_y
 _atom_site_fract_z
 _atom_site_occupancy
  Na  Na0  1  0.41005513  0.18286373  0.15804160  1
  Na  Na1  1  0.90845249  0.17227758  0.16338740  1
  Na  Na2  1  0.65701765  0.18277310  0.65812115  1
  Na  Na3  1  0.16918271  0.17236151  0.66342453  1
  Na  Na4  1  0.35309737  0.79852094  0.35789859  1
  Na  Na5  1  0.09867701  0.79843232  0.85810361  1
  Mn  Mn6  1  0.74937946  0.99982807  0.50224211  1
  Mn  Mn7  1  0.24523802  0.01281245  0.50330900  1
  Mn  Mn8  1  0.42478774  0.64918483  0.16882468  1
  Mn  Mn9  1  0.92235584  0.65404570  0.16921810  1
  Mn  Mn10  1  0.58358536  0.33744554  0.83397561  1
  Mn  Mn11  1  0.07931463  0.33724681  0.83420266  1
  Mn  Mn12  1  0.50081989  0.99978857  0.00233492  1
  Mn  Mn13  1  0.99199575  0.01274819  0.00340940  1
  Mn  Mn14  1  0.67353921  0.65414086  0.66934121  1
  Mn  Mn15  1  0.17600098  0.64928860  0.66893409  1
  Mn  Mn16  1  0.83349678  0.33712922  0.33401133  1
  Mn  Mn17  1  0.32902577  0.33735455  0.33378391  1
  O  O18  1  0.75134593  0.00171662  0.92200300  1
  O  O19  1  0.24629954  -0.00009924  0.92497049  1
  O  O20  1  0.25092900  0.99928506  0.08824731  1
  O  O21  1  0.72798517  0.03842719  0.07606302  1
  O  O22  1  0.49702949  0.00168193  0.42190407  1
  O  O23  1  0.00388003  -0.00011682  0.42485985  1
  O  O24  1  0.48347611  0.03854949  0.57595635  1
  O  O25  1  0.99969746  0.99937122  0.58816319  1
  O  O26  1  0.30507398  0.38896085  0.89876213  1
  O  O27  1  0.80306355  0.39414174  0.89775717  1
  O  O28  1  0.19730479  0.61047603  0.10001159  1
  O  O29  1  0.69267127  0.60707242  0.10082485  1
  O  O30  1  0.55593292  0.38900427  0.39853398  1
  O  O31  1  0.05273683  0.39420653  0.39751749  1
  O  O32  1  0.44231070  0.61040182  0.60017587  1
  O  O33  1  0.95029709  0.60703827  0.60096990  1
  O  O34  1  0.34906748  0.30360755  0.75651285  1
  O  O35  1  0.86850937  0.26367635  0.76823044  1
  O  O36  1  0.16286166  0.68159570  0.24481864  1
  O  O37  1  0.65495837  0.68055443  0.24498897  1
  O  O38  1  0.59743590  0.30347678  0.25632017  1
  O  O39  1  0.11793988  0.26355051  0.26803074  1
  O  O40  1  0.40543324  0.68175731  0.74495329  1
  O  O41  1  0.91434346  0.68072942  0.74511775  1
