# generated using pymatgen
data_CdI2
_symmetry_space_group_name_H-M   'P 1'
_cell_length_a   4.34457276
_cell_length_b   4.34457303
_cell_length_c   44.01607942
_cell_angle_alpha   90.00000000
_cell_angle_beta   90.00000000
_cell_angle_gamma   119.99999795
_symmetry_Int_Tables_number   1
_chemical_formula_structural   CdI2
_chemical_formula_sum   'Cd6 I12'
_cell_volume   719.50890619
_cell_formula_units_Z   6
loop_
 _symmetry_equiv_pos_site_id
 _symmetry_equiv_pos_as_xyz
  1  'x, y, z'
loop_
 _atom_site_type_symbol
 _atom_site_label
 _atom_site_symmetry_multiplicity
 _atom_site_fract_x
 _atom_site_fract_y
 _atom_site_fract_z
 _atom_site_occupancy
  Cd  Cd0  1  0.33333300  0.66666700  0.53677999  1
  Cd  Cd1  1  0.33333300  0.66666700  0.04139856  1
  Cd  Cd2  1  0.00000000  0.00000000  0.63219707  1
  Cd  Cd3  1  0.33333300  0.66666700  0.20800820  1
  Cd  Cd4  1  0.66666700  0.33333300  0.37385746  1
  Cd  Cd5  1  0.33333300  0.66666700  0.87437009  1
  I  I6  1  0.00000000  0.00000000  0.16952841  1
  I  I7  1  0.33333300  0.66666700  0.41324395  1
  I  I8  1  0.66666700  0.33333300  0.08082319  1
  I  I9  1  0.66666700  0.33333300  0.91379769  1
  I  I10  1  0.33333300  0.66666700  0.66713332  1
  I  I11  1  0.00000000  0.00000000  0.33537283  1
  I  I12  1  0.00000000  0.00000000  0.00289890  1
  I  I13  1  0.66666700  0.33333300  0.58227655  1
  I  I14  1  0.66666700  0.33333300  0.24741288  1
  I  I15  1  0.00000000  0.00000000  0.83582422  1
  I  I16  1  0.00000000  0.00000000  0.49902916  1
  I  I17  1  0.66666700  0.33333300  0.73604755  1
