# generated using pymatgen
data_CaAl2SiO6
_symmetry_space_group_name_H-M   'P 1'
_cell_length_a   9.73356987
_cell_length_b   8.73929397
_cell_length_c   5.33814564
_cell_angle_alpha   89.35771756
_cell_angle_beta   106.39272059
_cell_angle_gamma   89.96428555
_symmetry_Int_Tables_number   1
_chemical_formula_structural   CaAl2SiO6
_chemical_formula_sum   'Ca4 Al8 Si4 O24'
_cell_volume   435.59737290
_cell_formula_units_Z   4
loop_
 _symmetry_equiv_pos_site_id
 _symmetry_equiv_pos_as_xyz
  1  'x, y, z'
loop_
 _atom_site_type_symbol
 _atom_site_label
 _atom_site_symmetry_multiplicity
 _atom_site_fract_x
 _atom_site_fract_y
 _atom_site_fract_z
 _atom_site_occupancy
  Ca  Ca0  1  -0.00024228  0.30901958  0.25568437  1
  Ca  Ca1  1  0.49775011  0.81167597  0.25202992  1
  Ca  Ca2  1  0.99982225  0.68770520  0.74674126  1
  Ca  Ca3  1  0.50155566  0.19119171  0.74627914  1
  Al  Al4  1  0.28413421  0.10053119  0.20782403  1
  Al  Al5  1  0.78686838  0.59792323  0.21238759  1
  Al  Al6  1  0.71527455  0.09480812  0.28715242  1
  Al  Al7  1  0.21449981  0.40404709  0.78957504  1
  Al  Al8  1  0.00065122  0.91069951  0.25411270  1
  Al  Al9  1  0.50466455  0.40574744  0.23811927  1
  Al  Al10  1  0.99895402  0.09327629  0.74845889  1
  Al  Al11  1  0.49685348  0.59102934  0.75791730  1
  Si  Si12  1  0.20962689  0.59879868  0.28676399  1
  Si  Si13  1  0.70861729  0.90152054  0.78529545  1
  Si  Si14  1  0.29163387  0.90579464  0.71738578  1
  Si  Si15  1  0.78869482  0.40375863  0.71348517  1
  O  O16  1  0.09465904  0.07728349  0.11344889  1
  O  O17  1  0.37186687  0.27215570  0.31046173  1
  O  O18  1  0.35586600  0.01554466  0.97323954  1
  O  O19  1  0.59791382  0.58583540  0.12486697  1
  O  O20  1  0.87706000  0.76667860  0.31953055  1
  O  O21  1  0.85324100  0.51177525  0.97162703  1
  O  O22  1  0.90332860  0.07764536  0.38685023  1
  O  O23  1  0.63322211  0.26801300  0.17717651  1
  O  O24  1  0.64328622  0.01130342  0.52512350  1
  O  O25  1  0.38821343  0.59011058  0.38499799  1
  O  O26  1  0.13735918  0.76579712  0.18877293  1
  O  O27  1  0.14295647  0.52585183  0.51135099  1
  O  O28  1  0.88680798  0.91331916  0.87017530  1
  O  O29  1  0.63498520  0.73477337  0.69778060  1
  O  O30  1  0.64604098  0.97291350  0.01336664  1
  O  O31  1  0.40169951  0.42192345  0.87126670  1
  O  O32  1  0.12839929  0.23247920  0.69032031  1
  O  O33  1  0.14777870  0.48849999  0.03050947  1
  O  O34  1  0.11421910  0.91304912  0.63028923  1
  O  O35  1  0.36432222  0.73906386  0.81251541  1
  O  O36  1  0.35356841  0.97819799  0.48685019  1
  O  O37  1  0.61085199  0.42164832  0.61815931  1
  O  O38  1  0.85623613  0.23377039  0.80239675  1
  O  O39  1  0.85675892  0.47484010  0.48971093  1
