# generated using pymatgen
data_CeSi2Rh
_symmetry_space_group_name_H-M   'P 1'
_cell_length_a   4.16999907
_cell_length_b   4.22501136
_cell_length_c   8.67928887
_cell_angle_alpha   104.08707223
_cell_angle_beta   90.00000000
_cell_angle_gamma   90.00000000
_symmetry_Int_Tables_number   1
_chemical_formula_structural   CeSi2Rh
_chemical_formula_sum   'Ce2 Si4 Rh2'
_cell_volume   148.31566125
_cell_formula_units_Z   2
loop_
 _symmetry_equiv_pos_site_id
 _symmetry_equiv_pos_as_xyz
  1  'x, y, z'
loop_
 _atom_site_type_symbol
 _atom_site_label
 _atom_site_symmetry_multiplicity
 _atom_site_fract_x
 _atom_site_fract_y
 _atom_site_fract_z
 _atom_site_occupancy
  Ce  Ce0  1  0.25000000  0.39436391  0.78872783  1
  Ce  Ce1  1  0.75000000  0.60563609  0.21127217  1
  Si  Si2  1  0.25000000  0.03698113  0.07396226  1
  Si  Si3  1  0.75000000  0.96301887  0.92603774  1
  Si  Si4  1  0.25000000  0.74882851  0.49765702  1
  Si  Si5  1  0.75000000  0.25117149  0.50234298  1
  Rh  Rh6  1  0.25000000  0.17795552  0.35591105  1
  Rh  Rh7  1  0.75000000  0.82204448  0.64408895  1
