# generated using pymatgen
data_CsB5O8
_symmetry_space_group_name_H-M   'P 1'
_cell_length_a   8.13346059
_cell_length_b   9.70831466
_cell_length_c   8.44862455
_cell_angle_alpha   90.00000000
_cell_angle_beta   90.00000000
_cell_angle_gamma   90.00000000
_symmetry_Int_Tables_number   1
_chemical_formula_structural   CsB5O8
_chemical_formula_sum   'Cs4 B20 O32'
_cell_volume   667.12193652
_cell_formula_units_Z   4
loop_
 _symmetry_equiv_pos_site_id
 _symmetry_equiv_pos_as_xyz
  1  'x, y, z'
loop_
 _atom_site_type_symbol
 _atom_site_label
 _atom_site_symmetry_multiplicity
 _atom_site_fract_x
 _atom_site_fract_y
 _atom_site_fract_z
 _atom_site_occupancy
  Cs  Cs0  1  0.53925531  0.25000000  0.21002062  1
  Cs  Cs1  1  0.03925531  0.25000000  0.28997938  1
  Cs  Cs2  1  0.46074469  0.75000000  0.78997938  1
  Cs  Cs3  1  0.96074469  0.75000000  0.71002062  1
  B  B4  1  0.08725902  0.75000000  0.11832343  1
  B  B5  1  0.58725902  0.75000000  0.38167657  1
  B  B6  1  0.91274098  0.25000000  0.88167657  1
  B  B7  1  0.41274098  0.25000000  0.61832343  1
  B  B8  1  0.27311291  0.63725427  0.34815294  1
  B  B9  1  0.77311291  0.86274573  0.15184706  1
  B  B10  1  0.72688709  0.13725427  0.65184706  1
  B  B11  1  0.22688709  0.36274573  0.84815294  1
  B  B12  1  0.72688709  0.36274573  0.65184706  1
  B  B13  1  0.22688709  0.13725427  0.84815294  1
  B  B14  1  0.27311291  0.86274573  0.34815294  1
  B  B15  1  0.77311291  0.63725427  0.15184706  1
  B  B16  1  0.24452542  0.52879072  0.08478724  1
  B  B17  1  0.74452542  0.97120928  0.41521276  1
  B  B18  1  0.75547458  0.02879072  0.91521276  1
  B  B19  1  0.25547458  0.47120928  0.58478724  1
  B  B20  1  0.75547458  0.47120928  0.91521276  1
  B  B21  1  0.25547458  0.02879072  0.58478724  1
  B  B22  1  0.24452542  0.97120928  0.08478724  1
  B  B23  1  0.74452542  0.52879072  0.41521276  1
  O  O24  1  0.34663046  0.25000000  0.78695042  1
  O  O25  1  0.84663046  0.25000000  0.71304958  1
  O  O26  1  0.65336954  0.75000000  0.21304958  1
  O  O27  1  0.15336954  0.75000000  0.28695042  1
  O  O28  1  0.31508335  0.53584858  0.23347173  1
  O  O29  1  0.81508335  0.96415142  0.26652827  1
  O  O30  1  0.68491665  0.03584858  0.76652827  1
  O  O31  1  0.18491665  0.46415142  0.73347173  1
  O  O32  1  0.68491665  0.46415142  0.76652827  1
  O  O33  1  0.18491665  0.03584858  0.73347173  1
  O  O34  1  0.31508335  0.96415142  0.23347173  1
  O  O35  1  0.81508335  0.53584858  0.26652827  1
  O  O36  1  0.13813514  0.62772698  0.03210883  1
  O  O37  1  0.63813514  0.87227302  0.46789117  1
  O  O38  1  0.86186486  0.12772698  0.96789117  1
  O  O39  1  0.36186486  0.37227302  0.53210883  1
  O  O40  1  0.86186486  0.37227302  0.96789117  1
  O  O41  1  0.36186486  0.12772698  0.53210883  1
  O  O42  1  0.13813514  0.87227302  0.03210883  1
  O  O43  1  0.63813514  0.62772698  0.46789117  1
  O  O44  1  0.09690066  0.25000000  0.87718454  1
  O  O45  1  0.59690066  0.25000000  0.62281546  1
  O  O46  1  0.90309934  0.75000000  0.12281546  1
  O  O47  1  0.40309934  0.75000000  0.37718454  1
  O  O48  1  0.28695265  0.41577604  0.99596241  1
  O  O49  1  0.78695265  0.08422396  0.50403759  1
  O  O50  1  0.71304735  0.91577604  0.00403759  1
  O  O51  1  0.21304735  0.58422396  0.49596241  1
  O  O52  1  0.71304735  0.58422396  0.00403759  1
  O  O53  1  0.21304735  0.91577604  0.49596241  1
  O  O54  1  0.28695265  0.08422396  0.99596241  1
  O  O55  1  0.78695265  0.41577604  0.50403759  1
