# generated using pymatgen
data_SnH14C4(Br2N)2
_symmetry_space_group_name_H-M   'P 1'
_cell_length_a   6.73121154
_cell_length_b   8.63605039
_cell_length_c   12.51559206
_cell_angle_alpha   90.00000000
_cell_angle_beta   90.00000000
_cell_angle_gamma   96.73047797
_symmetry_Int_Tables_number   1
_chemical_formula_structural   SnH14C4(Br2N)2
_chemical_formula_sum   'Sn2 H28 C8 Br8 N4'
_cell_volume   722.53099417
_cell_formula_units_Z   2
loop_
 _symmetry_equiv_pos_site_id
 _symmetry_equiv_pos_as_xyz
  1  'x, y, z'
loop_
 _atom_site_type_symbol
 _atom_site_label
 _atom_site_symmetry_multiplicity
 _atom_site_fract_x
 _atom_site_fract_y
 _atom_site_fract_z
 _atom_site_occupancy
  Sn  Sn0  1  0.00000000  0.00000000  0.00000000  1
  Sn  Sn1  1  0.00000000  0.50000000  0.50000000  1
  H  H2  1  0.10632838  0.87498639  0.40527426  1
  H  H3  1  0.66754955  0.97473217  0.80315416  1
  H  H4  1  0.66754955  0.47473217  0.69684584  1
  H  H5  1  0.82638031  0.83247957  0.76277828  1
  H  H6  1  0.43395453  0.22485884  0.21181958  1
  H  H7  1  0.17361969  0.66752043  0.26277828  1
  H  H8  1  0.37437695  0.14477562  0.02881558  1
  H  H9  1  0.62562305  0.85522438  0.97118442  1
  H  H10  1  0.33245045  0.02526783  0.19684584  1
  H  H11  1  0.43395453  0.72485884  0.28818042  1
  H  H12  1  0.62756007  0.58722790  0.91790142  1
  H  H13  1  0.33245045  0.52526783  0.30315416  1
  H  H14  1  0.10632838  0.37498639  0.09472574  1
  H  H15  1  0.56604547  0.77514116  0.78818042  1
  H  H16  1  0.37243993  0.91277210  0.41790142  1
  H  H17  1  0.82638031  0.33247957  0.73722172  1
  H  H18  1  0.22130236  0.35952326  0.96684988  1
  H  H19  1  0.89367162  0.62501361  0.90527426  1
  H  H20  1  0.17361969  0.16752043  0.23722172  1
  H  H21  1  0.62756007  0.08722790  0.58209858  1
  H  H22  1  0.77869764  0.14047674  0.46684988  1
  H  H23  1  0.62562305  0.35522438  0.52881558  1
  H  H24  1  0.22130236  0.85952326  0.53315012  1
  H  H25  1  0.77869764  0.64047674  0.03315012  1
  H  H26  1  0.89367162  0.12501361  0.59472574  1
  H  H27  1  0.56604547  0.27514116  0.71181958  1
  H  H28  1  0.37437695  0.64477562  0.47118442  1
  H  H29  1  0.37243993  0.41277210  0.08209858  1
  C  C30  1  0.30124187  0.14618798  0.18732959  1
  C  C31  1  0.76257295  0.65893980  0.94709819  1
  C  C32  1  0.23742705  0.34106020  0.05290181  1
  C  C33  1  0.30124187  0.64618798  0.31267041  1
  C  C34  1  0.23742705  0.84106020  0.44709819  1
  C  C35  1  0.69875813  0.35381202  0.68732959  1
  C  C36  1  0.69875813  0.85381202  0.81267041  1
  C  C37  1  0.76257295  0.15893980  0.55290181  1
  Br  Br38  1  0.15832144  0.08351768  0.81516005  1
  Br  Br39  1  0.74956115  0.71295974  0.51891028  1
  Br  Br40  1  0.25043885  0.28704026  0.48108972  1
  Br  Br41  1  0.15832144  0.58351768  0.68483995  1
  Br  Br42  1  0.84167856  0.41648232  0.31516005  1
  Br  Br43  1  0.84167856  0.91648232  0.18483995  1
  Br  Br44  1  0.74956115  0.21295974  0.98108972  1
  Br  Br45  1  0.25043885  0.78704026  0.01891028  1
  N  N46  1  0.25582664  0.67452104  0.42628112  1
  N  N47  1  0.25582664  0.17452104  0.07371888  1
  N  N48  1  0.74417336  0.82547896  0.92628112  1
  N  N49  1  0.74417336  0.32547896  0.57371888  1
