# generated using pymatgen
data_Mg14CuNiO16
_symmetry_space_group_name_H-M   'P 1'
_cell_length_a   8.52086626
_cell_length_b   8.52086626
_cell_length_c   4.24435020
_cell_angle_alpha   90.00000000
_cell_angle_beta   90.00000000
_cell_angle_gamma   90.00000000
_symmetry_Int_Tables_number   1
_chemical_formula_structural   Mg14CuNiO16
_chemical_formula_sum   'Mg14 Cu1 Ni1 O16'
_cell_volume   308.16173310
_cell_formula_units_Z   1
loop_
 _symmetry_equiv_pos_site_id
 _symmetry_equiv_pos_as_xyz
  1  'x, y, z'
loop_
 _atom_site_type_symbol
 _atom_site_label
 _atom_site_symmetry_multiplicity
 _atom_site_fract_x
 _atom_site_fract_y
 _atom_site_fract_z
 _atom_site_occupancy
  Mg  Mg0  1  0.00000000  0.50000000  0.00000000  1
  Mg  Mg1  1  0.50000000  0.00000000  0.00000000  1
  Mg  Mg2  1  0.00000000  0.24983877  0.50000000  1
  Mg  Mg3  1  0.00000000  0.75016123  0.50000000  1
  Mg  Mg4  1  0.50000000  0.25131366  0.50000000  1
  Mg  Mg5  1  0.50000000  0.74868634  0.50000000  1
  Mg  Mg6  1  0.24983877  0.00000000  0.50000000  1
  Mg  Mg7  1  0.25131366  0.50000000  0.50000000  1
  Mg  Mg8  1  0.75016123  0.00000000  0.50000000  1
  Mg  Mg9  1  0.74868634  0.50000000  0.50000000  1
  Mg  Mg10  1  0.24993962  0.24993962  0.00000000  1
  Mg  Mg11  1  0.24993962  0.75006038  0.00000000  1
  Mg  Mg12  1  0.75006038  0.24993962  0.00000000  1
  Mg  Mg13  1  0.75006038  0.75006038  0.00000000  1
  Cu  Cu14  1  0.00000000  0.00000000  0.00000000  1
  Ni  Ni15  1  0.50000000  0.50000000  0.00000000  1
  O  O16  1  0.25403182  0.00000000  0.00000000  1
  O  O17  1  0.24964199  0.50000000  0.00000000  1
  O  O18  1  0.74596818  0.00000000  0.00000000  1
  O  O19  1  0.75035801  0.50000000  0.00000000  1
  O  O20  1  0.24963195  0.24963195  0.50000000  1
  O  O21  1  0.24963195  0.75036805  0.50000000  1
  O  O22  1  0.75036805  0.24963195  0.50000000  1
  O  O23  1  0.75036805  0.75036805  0.50000000  1
  O  O24  1  0.00000000  0.00000000  0.50000000  1
  O  O25  1  0.00000000  0.50000000  0.50000000  1
  O  O26  1  0.50000000  0.00000000  0.50000000  1
  O  O27  1  0.50000000  0.50000000  0.50000000  1
  O  O28  1  0.00000000  0.25403182  0.00000000  1
  O  O29  1  0.00000000  0.74596818  0.00000000  1
  O  O30  1  0.50000000  0.24964199  0.00000000  1
  O  O31  1  0.50000000  0.75035801  0.00000000  1
