# generated using pymatgen
data_CaAl2SiO6
_symmetry_space_group_name_H-M   'P 1'
_cell_length_a   5.33711908
_cell_length_b   6.52999975
_cell_length_c   6.52999975
_cell_angle_alpha   83.79499711
_cell_angle_beta   78.09895010
_cell_angle_gamma   78.09895010
_symmetry_Int_Tables_number   1
_chemical_formula_structural   CaAl2SiO6
_chemical_formula_sum   'Ca2 Al4 Si2 O12'
_cell_volume   217.38975778
_cell_formula_units_Z   2
loop_
 _symmetry_equiv_pos_site_id
 _symmetry_equiv_pos_as_xyz
  1  'x, y, z'
loop_
 _atom_site_type_symbol
 _atom_site_label
 _atom_site_symmetry_multiplicity
 _atom_site_fract_x
 _atom_site_fract_y
 _atom_site_fract_z
 _atom_site_occupancy
  Ca  Ca0  1  0.25000000  0.31127731  0.68872269  1
  Ca  Ca1  1  0.75000000  0.68911962  0.31088038  1
  Al  Al2  1  0.21142837  0.81394390  0.61610739  1
  Al  Al3  1  0.28857163  0.38389261  0.18605610  1
  Al  Al4  1  0.25000000  0.90927979  0.09072021  1
  Al  Al5  1  0.75000000  0.09109376  0.90890624  1
  Si  Si6  1  0.78389342  0.19488411  0.38614413  1
  Si  Si7  1  0.71610658  0.61385587  0.80511589  1
  O  O8  1  0.11244385  0.98687442  0.82200259  1
  O  O9  1  0.32136368  0.89835295  0.35785960  1
  O  O10  1  0.97357022  0.65755960  0.62954922  1
  O  O11  1  0.38755615  0.17799741  0.01312558  1
  O  O12  1  0.17863632  0.64214040  0.10164705  1
  O  O13  1  0.52642978  0.37045078  0.34244040  1
  O  O14  1  0.86845713  0.03092946  0.19536769  1
  O  O15  1  0.69619473  0.09794786  0.62535576  1
  O  O16  1  0.01362849  0.32894338  0.37781978  1
  O  O17  1  0.63154287  0.80463231  0.96907054  1
  O  O18  1  0.80380527  0.37464424  0.90205214  1
  O  O19  1  0.48637151  0.62218022  0.67105662  1
