# generated using pymatgen
data_Ca2Mg
_symmetry_space_group_name_H-M   'P 1'
_cell_length_a   14.11799166
_cell_length_b   3.81487124
_cell_length_c   8.13958061
_cell_angle_alpha   90.00000000
_cell_angle_beta   106.39247217
_cell_angle_gamma   90.00000000
_symmetry_Int_Tables_number   1
_chemical_formula_structural   Ca2Mg
_chemical_formula_sum   'Ca8 Mg4'
_cell_volume   420.56428996
_cell_formula_units_Z   4
loop_
 _symmetry_equiv_pos_site_id
 _symmetry_equiv_pos_as_xyz
  1  'x, y, z'
loop_
 _atom_site_type_symbol
 _atom_site_label
 _atom_site_symmetry_multiplicity
 _atom_site_fract_x
 _atom_site_fract_y
 _atom_site_fract_z
 _atom_site_occupancy
  Ca  Ca0  1  0.15937558  -0.00000000  0.09736947  1
  Ca  Ca1  1  0.36151407  0.50000000  0.44542847  1
  Ca  Ca2  1  0.13848593  -0.00000000  0.55457153  1
  Ca  Ca3  1  0.34062442  0.50000000  0.90263053  1
  Ca  Ca4  1  0.65937558  0.50000000  0.09736947  1
  Ca  Ca5  1  0.86151407  -0.00000000  0.44542847  1
  Ca  Ca6  1  0.63848593  0.50000000  0.55457153  1
  Ca  Ca7  1  0.84062442  -0.00000000  0.90263053  1
  Mg  Mg8  1  0.48645942  0.00000000  0.22047477  1
  Mg  Mg9  1  0.01354058  0.50000000  0.77952523  1
  Mg  Mg10  1  0.98645942  0.50000000  0.22047477  1
  Mg  Mg11  1  0.51354058  0.00000000  0.77952523  1
