# generated using pymatgen
data_NaMg30MnO32
_symmetry_space_group_name_H-M   'P 1'
_cell_length_a   8.58582956
_cell_length_b   8.51229790
_cell_length_c   8.51229790
_cell_angle_alpha   90.00000000
_cell_angle_beta   90.00000000
_cell_angle_gamma   90.00000000
_symmetry_Int_Tables_number   1
_chemical_formula_structural   NaMg30MnO32
_chemical_formula_sum   'Na1 Mg30 Mn1 O32'
_cell_volume   622.12247466
_cell_formula_units_Z   1
loop_
 _symmetry_equiv_pos_site_id
 _symmetry_equiv_pos_as_xyz
  1  'x, y, z'
loop_
 _atom_site_type_symbol
 _atom_site_label
 _atom_site_symmetry_multiplicity
 _atom_site_fract_x
 _atom_site_fract_y
 _atom_site_fract_z
 _atom_site_occupancy
  Na  Na0  1  0.00000000  0.50000000  0.50000000  1
  Mg  Mg1  1  0.00000000  0.00000000  0.50000000  1
  Mg  Mg2  1  0.00000000  0.50000000  0.00000000  1
  Mg  Mg3  1  0.50000000  0.00000000  0.00000000  1
  Mg  Mg4  1  0.50000000  0.00000000  0.50000000  1
  Mg  Mg5  1  0.50000000  0.50000000  0.00000000  1
  Mg  Mg6  1  0.50000000  0.50000000  0.50000000  1
  Mg  Mg7  1  0.00000000  0.25393146  0.25393146  1
  Mg  Mg8  1  0.00000000  0.25393146  0.74606854  1
  Mg  Mg9  1  0.00000000  0.74606854  0.25393146  1
  Mg  Mg10  1  0.00000000  0.74606854  0.74606854  1
  Mg  Mg11  1  0.50000000  0.25113649  0.25113649  1
  Mg  Mg12  1  0.50000000  0.25113649  0.74886351  1
  Mg  Mg13  1  0.50000000  0.74886351  0.25113649  1
  Mg  Mg14  1  0.50000000  0.74886351  0.74886351  1
  Mg  Mg15  1  0.25349542  0.00000000  0.25042736  1
  Mg  Mg16  1  0.25349542  0.00000000  0.74957264  1
  Mg  Mg17  1  0.24939970  0.50000000  0.25181969  1
  Mg  Mg18  1  0.24939970  0.50000000  0.74818031  1
  Mg  Mg19  1  0.74650458  0.00000000  0.25042736  1
  Mg  Mg20  1  0.74650458  0.00000000  0.74957264  1
  Mg  Mg21  1  0.75060030  0.50000000  0.25181969  1
  Mg  Mg22  1  0.75060030  0.50000000  0.74818031  1
  Mg  Mg23  1  0.25349542  0.25042736  0.00000000  1
  Mg  Mg24  1  0.24939970  0.25181969  0.50000000  1
  Mg  Mg25  1  0.25349542  0.74957264  0.00000000  1
  Mg  Mg26  1  0.24939970  0.74818031  0.50000000  1
  Mg  Mg27  1  0.74650458  0.25042736  0.00000000  1
  Mg  Mg28  1  0.75060030  0.25181969  0.50000000  1
  Mg  Mg29  1  0.74650458  0.74957264  0.00000000  1
  Mg  Mg30  1  0.75060030  0.74818031  0.50000000  1
  Mn  Mn31  1  0.00000000  0.00000000  0.00000000  1
  O  O32  1  0.25743557  0.00000000  0.00000000  1
  O  O33  1  0.24931804  0.00000000  0.50000000  1
  O  O34  1  0.24931804  0.50000000  0.00000000  1
  O  O35  1  0.26274589  0.50000000  0.50000000  1
  O  O36  1  0.74256443  0.00000000  0.00000000  1
  O  O37  1  0.75068196  0.00000000  0.50000000  1
  O  O38  1  0.75068196  0.50000000  0.00000000  1
  O  O39  1  0.73725411  0.50000000  0.50000000  1
  O  O40  1  0.24883742  0.24926388  0.24926388  1
  O  O41  1  0.24883742  0.24926388  0.75073612  1
  O  O42  1  0.24883742  0.75073612  0.24926388  1
  O  O43  1  0.24883742  0.75073612  0.75073612  1
  O  O44  1  0.75116258  0.24926388  0.24926388  1
  O  O45  1  0.75116258  0.24926388  0.75073612  1
  O  O46  1  0.75116258  0.75073612  0.24926388  1
  O  O47  1  0.75116258  0.75073612  0.75073612  1
  O  O48  1  0.00000000  0.00000000  0.23580028  1
  O  O49  1  0.00000000  0.00000000  0.76419972  1
  O  O50  1  0.00000000  0.50000000  0.23485948  1
  O  O51  1  0.00000000  0.50000000  0.76514052  1
  O  O52  1  0.50000000  0.00000000  0.25027358  1
  O  O53  1  0.50000000  0.00000000  0.74972642  1
  O  O54  1  0.50000000  0.50000000  0.24716216  1
  O  O55  1  0.50000000  0.50000000  0.75283784  1
  O  O56  1  0.00000000  0.23580028  0.00000000  1
  O  O57  1  0.00000000  0.23485948  0.50000000  1
  O  O58  1  0.00000000  0.76419972  0.00000000  1
  O  O59  1  0.00000000  0.76514052  0.50000000  1
  O  O60  1  0.50000000  0.25027358  0.00000000  1
  O  O61  1  0.50000000  0.24716216  0.50000000  1
  O  O62  1  0.50000000  0.74972642  0.00000000  1
  O  O63  1  0.50000000  0.75283784  0.50000000  1
