# generated using pymatgen
data_MgCd2
_symmetry_space_group_name_H-M   'P 1'
_cell_length_a   5.41759764
_cell_length_b   5.41759770
_cell_length_c   15.71978039
_cell_angle_alpha   90.00000000
_cell_angle_beta   90.00000000
_cell_angle_gamma   119.99999965
_symmetry_Int_Tables_number   1
_chemical_formula_structural   MgCd2
_chemical_formula_sum   'Mg6 Cd12'
_cell_volume   399.56791445
_cell_formula_units_Z   6
loop_
 _symmetry_equiv_pos_site_id
 _symmetry_equiv_pos_as_xyz
  1  'x, y, z'
loop_
 _atom_site_type_symbol
 _atom_site_label
 _atom_site_symmetry_multiplicity
 _atom_site_fract_x
 _atom_site_fract_y
 _atom_site_fract_z
 _atom_site_occupancy
  Mg  Mg0  1  0.00000000  0.00000000  0.16692722  1
  Mg  Mg1  1  0.66666700  0.33333300  0.16640678  1
  Mg  Mg2  1  0.66666700  0.33333300  0.50026022  1
  Mg  Mg3  1  0.33333300  0.66666700  0.49973978  1
  Mg  Mg4  1  0.33333300  0.66666700  0.83359322  1
  Mg  Mg5  1  0.00000000  0.00000000  0.83307278  1
  Cd  Cd6  1  0.66640477  0.66640477  0.00000000  1
  Cd  Cd7  1  0.00000000  0.33359523  0.00000000  1
  Cd  Cd8  1  0.33333300  0.66666700  0.16666700  1
  Cd  Cd9  1  0.33359523  0.00000000  0.00000000  1
  Cd  Cd10  1  0.33307077  0.99973777  0.33333300  1
  Cd  Cd11  1  0.66666700  0.66692923  0.33333300  1
  Cd  Cd12  1  0.00000000  0.00000000  0.50000000  1
  Cd  Cd13  1  0.00026223  0.33333300  0.33333300  1
  Cd  Cd14  1  0.99973777  0.33307077  0.66666700  1
  Cd  Cd15  1  0.33333300  0.00026223  0.66666700  1
  Cd  Cd16  1  0.66666700  0.33333300  0.83333300  1
  Cd  Cd17  1  0.66692923  0.66666700  0.66666700  1
