# generated using pymatgen
data_Mg30VCrO32
_symmetry_space_group_name_H-M   'P 1'
_cell_length_a   8.56258096
_cell_length_b   8.56258096
_cell_length_c   8.50757834
_cell_angle_alpha   90.00000000
_cell_angle_beta   90.00000000
_cell_angle_gamma   90.00000000
_symmetry_Int_Tables_number   1
_chemical_formula_structural   Mg30VCrO32
_chemical_formula_sum   'Mg30 V1 Cr1 O32'
_cell_volume   623.75686508
_cell_formula_units_Z   1
loop_
 _symmetry_equiv_pos_site_id
 _symmetry_equiv_pos_as_xyz
  1  'x, y, z'
loop_
 _atom_site_type_symbol
 _atom_site_label
 _atom_site_symmetry_multiplicity
 _atom_site_fract_x
 _atom_site_fract_y
 _atom_site_fract_z
 _atom_site_occupancy
  Mg  Mg0  1  0.00000000  0.50000000  0.00000000  1
  Mg  Mg1  1  0.00000000  0.50000000  0.50000000  1
  Mg  Mg2  1  0.50000000  0.00000000  0.00000000  1
  Mg  Mg3  1  0.50000000  0.00000000  0.50000000  1
  Mg  Mg4  1  0.50000000  0.50000000  0.00000000  1
  Mg  Mg5  1  0.50000000  0.50000000  0.50000000  1
  Mg  Mg6  1  0.00000000  0.25253233  0.25072548  1
  Mg  Mg7  1  0.00000000  0.25253233  0.74927452  1
  Mg  Mg8  1  0.00000000  0.74746767  0.25072548  1
  Mg  Mg9  1  0.00000000  0.74746767  0.74927452  1
  Mg  Mg10  1  0.50000000  0.25000314  0.25024125  1
  Mg  Mg11  1  0.50000000  0.25000314  0.74975875  1
  Mg  Mg12  1  0.50000000  0.74999686  0.25024125  1
  Mg  Mg13  1  0.50000000  0.74999686  0.74975875  1
  Mg  Mg14  1  0.25253233  0.00000000  0.25072548  1
  Mg  Mg15  1  0.25253233  0.00000000  0.74927452  1
  Mg  Mg16  1  0.25000314  0.50000000  0.25024125  1
  Mg  Mg17  1  0.25000314  0.50000000  0.74975875  1
  Mg  Mg18  1  0.74746767  0.00000000  0.25072548  1
  Mg  Mg19  1  0.74746767  0.00000000  0.74927452  1
  Mg  Mg20  1  0.74999686  0.50000000  0.25024125  1
  Mg  Mg21  1  0.74999686  0.50000000  0.74975875  1
  Mg  Mg22  1  0.25075082  0.25075082  0.00000000  1
  Mg  Mg23  1  0.25052115  0.25052115  0.50000000  1
  Mg  Mg24  1  0.25075082  0.74924918  0.00000000  1
  Mg  Mg25  1  0.25052115  0.74947885  0.50000000  1
  Mg  Mg26  1  0.74924918  0.25075082  0.00000000  1
  Mg  Mg27  1  0.74947885  0.25052115  0.50000000  1
  Mg  Mg28  1  0.74924918  0.74924918  0.00000000  1
  Mg  Mg29  1  0.74947885  0.74947885  0.50000000  1
  V  V30  1  0.00000000  0.00000000  0.00000000  1
  Cr  Cr31  1  0.00000000  0.00000000  0.50000000  1
  O  O32  1  0.25434875  0.00000000  0.00000000  1
  O  O33  1  0.25984595  0.00000000  0.50000000  1
  O  O34  1  0.25059921  0.50000000  0.00000000  1
  O  O35  1  0.25140320  0.50000000  0.50000000  1
  O  O36  1  0.74565125  0.00000000  0.00000000  1
  O  O37  1  0.74015405  0.00000000  0.50000000  1
  O  O38  1  0.74940079  0.50000000  0.00000000  1
  O  O39  1  0.74859680  0.50000000  0.50000000  1
  O  O40  1  0.24947338  0.24947338  0.24981769  1
  O  O41  1  0.24947338  0.24947338  0.75018231  1
  O  O42  1  0.24947338  0.75052662  0.24981769  1
  O  O43  1  0.24947338  0.75052662  0.75018231  1
  O  O44  1  0.75052662  0.24947338  0.24981769  1
  O  O45  1  0.75052662  0.24947338  0.75018231  1
  O  O46  1  0.75052662  0.75052662  0.24981769  1
  O  O47  1  0.75052662  0.75052662  0.75018231  1
  O  O48  1  0.00000000  0.00000000  0.25566673  1
  O  O49  1  0.00000000  0.00000000  0.74433327  1
  O  O50  1  0.00000000  0.50000000  0.24883538  1
  O  O51  1  0.00000000  0.50000000  0.75116462  1
  O  O52  1  0.50000000  0.00000000  0.24883538  1
  O  O53  1  0.50000000  0.00000000  0.75116462  1
  O  O54  1  0.50000000  0.50000000  0.24966770  1
  O  O55  1  0.50000000  0.50000000  0.75033230  1
  O  O56  1  0.00000000  0.25434875  0.00000000  1
  O  O57  1  0.00000000  0.25984595  0.50000000  1
  O  O58  1  0.00000000  0.74565125  0.00000000  1
  O  O59  1  0.00000000  0.74015405  0.50000000  1
  O  O60  1  0.50000000  0.25059921  0.00000000  1
  O  O61  1  0.50000000  0.25140320  0.50000000  1
  O  O62  1  0.50000000  0.74940079  0.00000000  1
  O  O63  1  0.50000000  0.74859680  0.50000000  1
