# generated using pymatgen
data_Gd3Fe5O12
_symmetry_space_group_name_H-M   'P 1'
_cell_length_a   10.93514316
_cell_length_b   10.93514403
_cell_length_c   10.93514348
_cell_angle_alpha   109.47121964
_cell_angle_beta   109.47122125
_cell_angle_gamma   109.47122118
_symmetry_Int_Tables_number   1
_chemical_formula_structural   Gd3Fe5O12
_chemical_formula_sum   'Gd12 Fe20 O48'
_cell_volume   1006.58759651
_cell_formula_units_Z   4
loop_
 _symmetry_equiv_pos_site_id
 _symmetry_equiv_pos_as_xyz
  1  'x, y, z'
loop_
 _atom_site_type_symbol
 _atom_site_label
 _atom_site_symmetry_multiplicity
 _atom_site_fract_x
 _atom_site_fract_y
 _atom_site_fract_z
 _atom_site_occupancy
  Gd  Gd0  1  0.37500000  0.75000000  0.12500000  1
  Gd  Gd1  1  0.87500000  0.62500000  0.25000000  1
  Gd  Gd2  1  0.37500000  0.12500000  0.25000000  1
  Gd  Gd3  1  0.62500000  0.25000000  0.87500000  1
  Gd  Gd4  1  0.12500000  0.37500000  0.75000000  1
  Gd  Gd5  1  0.25000000  0.87500000  0.62500000  1
  Gd  Gd6  1  0.87500000  0.75000000  0.62500000  1
  Gd  Gd7  1  0.12500000  0.25000000  0.37500000  1
  Gd  Gd8  1  0.25000000  0.37500000  0.12500000  1
  Gd  Gd9  1  0.62500000  0.87500000  0.75000000  1
  Gd  Gd10  1  0.75000000  0.12500000  0.37500000  1
  Gd  Gd11  1  0.75000000  0.62500000  0.87500000  1
  Fe  Fe12  1  0.00000000  0.00000000  0.50000000  1
  Fe  Fe13  1  0.12500000  0.75000000  0.87500000  1
  Fe  Fe14  1  0.87500000  0.12500000  0.75000000  1
  Fe  Fe15  1  0.50000000  0.00000000  0.50000000  1
  Fe  Fe16  1  0.50000000  0.00000000  0.00000000  1
  Fe  Fe17  1  0.62500000  0.75000000  0.37500000  1
  Fe  Fe18  1  0.00000000  0.00000000  0.00000000  1
  Fe  Fe19  1  0.00000000  0.50000000  0.00000000  1
  Fe  Fe20  1  0.25000000  0.62500000  0.37500000  1
  Fe  Fe21  1  0.00000000  0.50000000  0.50000000  1
  Fe  Fe22  1  0.25000000  0.12500000  0.87500000  1
  Fe  Fe23  1  0.37500000  0.25000000  0.62500000  1
  Fe  Fe24  1  0.87500000  0.25000000  0.12500000  1
  Fe  Fe25  1  0.75000000  0.37500000  0.62500000  1
  Fe  Fe26  1  0.37500000  0.62500000  0.75000000  1
  Fe  Fe27  1  0.50000000  0.50000000  0.50000000  1
  Fe  Fe28  1  0.62500000  0.37500000  0.25000000  1
  Fe  Fe29  1  0.75000000  0.87500000  0.12500000  1
  Fe  Fe30  1  0.50000000  0.50000000  0.00000000  1
  Fe  Fe31  1  0.12500000  0.87500000  0.25000000  1
  O  O32  1  0.12510489  0.59572655  0.91662375  1
  O  O33  1  0.52937834  0.62510489  0.70848114  1
  O  O34  1  0.87489511  0.97062166  0.79151886  1
  O  O35  1  0.90427345  0.37489511  0.58337625  1
  O  O36  1  0.12510489  0.02937834  0.20848114  1
  O  O37  1  0.29151886  0.32089620  0.91662375  1
  O  O38  1  0.08337625  0.70848114  0.67910380  1
  O  O39  1  0.82089620  0.79151886  0.41662375  1
  O  O40  1  0.52937834  0.40427345  0.82089620  1
  O  O41  1  0.17910380  0.47062166  0.59572655  1
  O  O42  1  0.09572655  0.97062166  0.67910380  1
  O  O43  1  0.17910380  0.20848114  0.58337625  1
  O  O44  1  0.41662375  0.09572655  0.62510489  1
  O  O45  1  0.41662375  0.82089620  0.79151886  1
  O  O46  1  0.02937834  0.20848114  0.12510489  1
  O  O47  1  0.62510489  0.41662375  0.09572655  1
  O  O48  1  0.79151886  0.41662375  0.82089620  1
  O  O49  1  0.20848114  0.12510489  0.02937834  1
  O  O50  1  0.97062166  0.79151886  0.87489511  1
  O  O51  1  0.59572655  0.17910380  0.47062166  1
  O  O52  1  0.20848114  0.58337625  0.17910380  1
  O  O53  1  0.02937834  0.32089620  0.90427345  1
  O  O54  1  0.67910380  0.09572655  0.97062166  1
  O  O55  1  0.58337625  0.17910380  0.20848114  1
  O  O56  1  0.37489511  0.29151886  0.47062166  1
  O  O57  1  0.08337625  0.87489511  0.40427345  1
  O  O58  1  0.58337625  0.90427345  0.37489511  1
  O  O59  1  0.91662375  0.12510489  0.59572655  1
  O  O60  1  0.40427345  0.08337625  0.87489511  1
  O  O61  1  0.82089620  0.52937834  0.40427345  1
  O  O62  1  0.62510489  0.70848114  0.52937834  1
  O  O63  1  0.90427345  0.02937834  0.32089620  1
  O  O64  1  0.29151886  0.47062166  0.37489511  1
  O  O65  1  0.09572655  0.62510489  0.41662375  1
  O  O66  1  0.37489511  0.58337625  0.90427345  1
  O  O67  1  0.32089620  0.91662375  0.29151886  1
  O  O68  1  0.70848114  0.67910380  0.08337625  1
  O  O69  1  0.97062166  0.67910380  0.09572655  1
  O  O70  1  0.67910380  0.08337625  0.70848114  1
  O  O71  1  0.47062166  0.59572655  0.17910380  1
  O  O72  1  0.59572655  0.91662375  0.12510489  1
  O  O73  1  0.79151886  0.87489511  0.97062166  1
  O  O74  1  0.40427345  0.82089620  0.52937834  1
  O  O75  1  0.32089620  0.90427345  0.02937834  1
  O  O76  1  0.91662375  0.29151886  0.32089620  1
  O  O77  1  0.47062166  0.37489511  0.29151886  1
  O  O78  1  0.87489511  0.40427345  0.08337625  1
  O  O79  1  0.70848114  0.52937834  0.62510489  1
