# generated using pymatgen
data_CaNi(GeO3)2
_symmetry_space_group_name_H-M   'P 1'
_cell_length_a   5.31371003
_cell_length_b   9.17544481
_cell_length_c   10.24948655
_cell_angle_alpha   90.00000000
_cell_angle_beta   104.05290029
_cell_angle_gamma   90.00000000
_symmetry_Int_Tables_number   1
_chemical_formula_structural   CaNi(GeO3)2
_chemical_formula_sum   'Ca4 Ni4 Ge8 O24'
_cell_volume   484.76475359
_cell_formula_units_Z   4
loop_
 _symmetry_equiv_pos_site_id
 _symmetry_equiv_pos_as_xyz
  1  'x, y, z'
loop_
 _atom_site_type_symbol
 _atom_site_label
 _atom_site_symmetry_multiplicity
 _atom_site_fract_x
 _atom_site_fract_y
 _atom_site_fract_z
 _atom_site_occupancy
  Ca  Ca0  1  0.47059241  0.45382320  0.27552441  1
  Ca  Ca1  1  0.02940759  0.95382320  0.72447559  1
  Ca  Ca2  1  0.52940759  0.54617680  0.72447559  1
  Ca  Ca3  1  0.97059241  0.04617680  0.27552441  1
  Ni  Ni4  1  0.96537269  0.66459741  0.23388551  1
  Ni  Ni5  1  0.53462731  0.16459741  0.76611449  1
  Ni  Ni6  1  0.03462731  0.33540259  0.76611449  1
  Ni  Ni7  1  0.46537269  0.83540259  0.23388551  1
  Ge  Ge8  1  0.83133640  0.34656475  0.04427633  1
  Ge  Ge9  1  0.66866360  0.84656475  0.95572367  1
  Ge  Ge10  1  0.16866360  0.65343525  0.95572367  1
  Ge  Ge11  1  0.33133640  0.15343525  0.04427633  1
  Ge  Ge12  1  0.09165041  0.35113575  0.48804241  1
  Ge  Ge13  1  0.40834959  0.85113575  0.51195759  1
  Ge  Ge14  1  0.90834959  0.64886425  0.51195759  1
  Ge  Ge15  1  0.59165041  0.14886425  0.48804241  1
  O  O16  1  0.31052223  0.24753016  0.39672542  1
  O  O17  1  0.18947777  0.74753016  0.60327458  1
  O  O18  1  0.68947777  0.75246984  0.60327458  1
  O  O19  1  0.81052223  0.25246984  0.39672542  1
  O  O20  1  0.17567872  0.30944874  0.10109385  1
  O  O21  1  0.32432128  0.80944874  0.89890715  1
  O  O22  1  0.82432128  0.69055126  0.89890715  1
  O  O23  1  0.67567872  0.19055126  0.10109385  1
  O  O24  1  0.65135123  0.97567981  0.41834933  1
  O  O25  1  0.84864877  0.47567981  0.58165067  1
  O  O26  1  0.34864877  0.02432019  0.58165067  1
  O  O27  1  0.15135123  0.52432019  0.41834933  1
  O  O28  1  0.26409557  0.01136218  0.13993722  1
  O  O29  1  0.23590443  0.51136218  0.86006278  1
  O  O30  1  0.73590443  0.98863782  0.86006278  1
  O  O31  1  0.76409557  0.48863782  0.13993722  1
  O  O32  1  0.74739201  0.34561028  0.86757324  1
  O  O33  1  0.75260799  0.84561028  0.13242676  1
  O  O34  1  0.25260799  0.65438972  0.13242676  1
  O  O35  1  0.24739201  0.15438972  0.86757324  1
  O  O36  1  0.29387613  0.32692151  0.65248081  1
  O  O37  1  0.20612387  0.82692151  0.34751919  1
  O  O38  1  0.70612387  0.67307849  0.34751919  1
  O  O39  1  0.79387613  0.17307849  0.65248081  1
