# generated using pymatgen
data_MgSiO3
_symmetry_space_group_name_H-M   'P 1'
_cell_length_a   5.34395446
_cell_length_b   5.34395445
_cell_length_c   5.34395445
_cell_angle_alpha   53.18873090
_cell_angle_beta   53.18873096
_cell_angle_gamma   53.18873092
_symmetry_Int_Tables_number   1
_chemical_formula_structural   MgSiO3
_chemical_formula_sum   'Mg2 Si2 O6'
_cell_volume   90.69557125
_cell_formula_units_Z   2
loop_
 _symmetry_equiv_pos_site_id
 _symmetry_equiv_pos_as_xyz
  1  'x, y, z'
loop_
 _atom_site_type_symbol
 _atom_site_label
 _atom_site_symmetry_multiplicity
 _atom_site_fract_x
 _atom_site_fract_y
 _atom_site_fract_z
 _atom_site_occupancy
  O  O0  1  0.04492391  0.79657906  0.43789821  1
  O  O1  1  0.79657906  0.43789821  0.04492391  1
  O  O2  1  0.43789821  0.04492391  0.79657906  1
  O  O3  1  0.95507609  0.20342094  0.56210179  1
  O  O4  1  0.56210179  0.95507609  0.20342094  1
  O  O5  1  0.20342094  0.56210179  0.95507609  1
  Mg  Mg6  1  0.36042227  0.36042227  0.36042227  1
  Mg  Mg7  1  0.63957773  0.63957773  0.63957773  1
  Si  Si8  1  0.15790310  0.15790310  0.15790310  1
  Si  Si9  1  0.84209690  0.84209690  0.84209690  1
