# generated using pymatgen
data_CaPr(NiO3)2
_symmetry_space_group_name_H-M   'P 1'
_cell_length_a   5.42046072
_cell_length_b   5.42646423
_cell_length_c   7.60236815
_cell_angle_alpha   90.01863746
_cell_angle_beta   89.99911160
_cell_angle_gamma   89.99873566
_symmetry_Int_Tables_number   1
_chemical_formula_structural   CaPr(NiO3)2
_chemical_formula_sum   'Ca2 Pr2 Ni4 O12'
_cell_volume   223.61556001
_cell_formula_units_Z   2
loop_
 _symmetry_equiv_pos_site_id
 _symmetry_equiv_pos_as_xyz
  1  'x, y, z'
loop_
 _atom_site_type_symbol
 _atom_site_label
 _atom_site_symmetry_multiplicity
 _atom_site_fract_x
 _atom_site_fract_y
 _atom_site_fract_z
 _atom_site_occupancy
  Ca  Ca0  1  0.49065700  0.45488023  0.75024599  1
  Ca  Ca1  1  0.99058166  0.04513406  0.24974777  1
  Pr  Pr2  1  0.00832481  0.96205995  0.75031260  1
  Pr  Pr3  1  0.50839145  0.53786276  0.24971910  1
  Ni  Ni4  1  0.00035756  0.49944240  0.99990024  1
  Ni  Ni5  1  0.00028004  0.49942023  0.50007690  1
  Ni  Ni6  1  0.50032727  0.00057226  0.49992040  1
  Ni  Ni7  1  0.50041608  0.00054389  0.00009107  1
  O  O8  1  0.07105491  0.48484467  0.25032432  1
  O  O9  1  0.21768667  0.21789388  0.96292244  1
  O  O10  1  0.21746917  0.21793799  0.53786816  1
  O  O11  1  0.28609624  0.71453180  0.54203060  1
  O  O12  1  0.28607351  0.71450136  0.95853448  1
  O  O13  1  0.42162421  0.98798702  0.25032371  1
  O  O14  1  0.57102390  0.01528430  0.74968111  1
  O  O15  1  0.71781481  0.28223104  0.03711470  1
  O  O16  1  0.71764897  0.28223494  0.46208550  1
  O  O17  1  0.78625220  0.78537089  0.04140360  1
  O  O18  1  0.78631618  0.78525875  0.45802503  1
  O  O19  1  0.92160037  0.51200657  0.74967227  1
