# generated using pymatgen
data_Li(TiS2)2
_symmetry_space_group_name_H-M   'P 1'
_cell_length_a   7.13631390
_cell_length_b   7.13631337
_cell_length_c   7.21680137
_cell_angle_alpha   119.63174722
_cell_angle_beta   119.63174106
_cell_angle_gamma   90.00000009
_symmetry_Int_Tables_number   1
_chemical_formula_structural   Li(TiS2)2
_chemical_formula_sum   'Li2 Ti4 S8'
_cell_volume   262.74933282
_cell_formula_units_Z   2
loop_
 _symmetry_equiv_pos_site_id
 _symmetry_equiv_pos_as_xyz
  1  'x, y, z'
loop_
 _atom_site_type_symbol
 _atom_site_label
 _atom_site_symmetry_multiplicity
 _atom_site_fract_x
 _atom_site_fract_y
 _atom_site_fract_z
 _atom_site_occupancy
  Li  Li0  1  0.37500100  0.62500100  0.75000000  1
  Li  Li1  1  0.62499900  0.37500000  0.25000000  1
  Ti  Ti2  1  -0.00000000  0.50000100  0.00000100  1
  Ti  Ti3  1  0.00000100  -0.00000000  0.50000000  1
  Ti  Ti4  1  0.50000100  -0.00000000  0.50000000  1
  Ti  Ti5  1  -0.00000000  -0.00000000  0.00000000  1
  S  S6  1  0.76209050  0.77564295  0.52418200  1
  S  S7  1  0.75146195  0.23791050  0.97582000  1
  S  S8  1  0.22435805  0.23791050  0.97581900  1
  S  S9  1  0.23790950  0.22435705  0.47581900  1
  S  S10  1  0.23790850  0.75146095  0.47581800  1
  S  S11  1  0.24853805  0.76209050  0.02418200  1
  S  S12  1  0.76209050  0.24853805  0.52418100  1
  S  S13  1  0.77564195  0.76209050  0.02418100  1
