# generated using pymatgen
data_CaV3P3O13
_symmetry_space_group_name_H-M   'P 1'
_cell_length_a   6.38583730
_cell_length_b   7.65560885
_cell_length_c   10.49665396
_cell_angle_alpha   99.99393680
_cell_angle_beta   90.00000000
_cell_angle_gamma   90.00000000
_symmetry_Int_Tables_number   1
_chemical_formula_structural   CaV3P3O13
_chemical_formula_sum   'Ca2 V6 P6 O26'
_cell_volume   505.36833309
_cell_formula_units_Z   2
loop_
 _symmetry_equiv_pos_site_id
 _symmetry_equiv_pos_as_xyz
  1  'x, y, z'
loop_
 _atom_site_type_symbol
 _atom_site_label
 _atom_site_symmetry_multiplicity
 _atom_site_fract_x
 _atom_site_fract_y
 _atom_site_fract_z
 _atom_site_occupancy
  Ca  Ca0  1  0.75000000  0.65471273  0.19359592  1
  Ca  Ca1  1  0.25000000  0.34528727  0.80640408  1
  V  V2  1  0.25000000  0.35834997  0.19898883  1
  V  V3  1  0.75000000  0.64165003  0.80101117  1
  V  V4  1  0.25000000  0.77944926  0.43754876  1
  V  V5  1  0.50000000  0.00000000  0.00000000  1
  V  V6  1  0.75000000  0.22055074  0.56245124  1
  V  V7  1  -0.00000000  0.00000000  0.00000000  1
  P  P8  1  0.25000000  0.21474295  0.48726190  1
  P  P9  1  0.75000000  0.78525705  0.51273810  1
  P  P10  1  0.25000000  0.73921926  0.76305828  1
  P  P11  1  0.75000000  0.26078074  0.23694172  1
  P  P12  1  0.75000000  0.31687433  0.88791308  1
  P  P13  1  0.25000000  0.68312567  0.11208692  1
  O  O14  1  0.75000000  0.35890556  0.74695894  1
  O  O15  1  0.56014837  0.74973894  0.41717721  1
  O  O16  1  0.25000000  0.79047304  0.62989542  1
  O  O17  1  0.54803373  0.21170228  0.90466319  1
  O  O18  1  0.75000000  0.65822264  0.60965288  1
  O  O19  1  0.75000000  0.87790330  0.91020202  1
  O  O20  1  0.25000000  0.34177736  0.39034712  1
  O  O21  1  0.04803373  0.78829772  0.09533681  1
  O  O22  1  0.25000000  0.02135972  0.41274433  1
  O  O23  1  0.75000000  0.97864028  0.58725567  1
  O  O24  1  0.06226375  0.61944613  0.78748156  1
  O  O25  1  0.25000000  0.12209670  0.08979798  1
  O  O26  1  0.56226375  0.38055387  0.21251844  1
  O  O27  1  0.75000000  0.50736545  0.96735511  1
  O  O28  1  0.75000000  0.20952696  0.37010458  1
  O  O29  1  0.45196627  0.78829772  0.09533681  1
  O  O30  1  0.93985163  0.74973894  0.41717721  1
  O  O31  1  0.43985163  0.25026106  0.58282279  1
  O  O32  1  0.43773625  0.61944613  0.78748156  1
  O  O33  1  0.25000000  0.64109444  0.25304106  1
  O  O34  1  0.75000000  0.08921566  0.13137821  1
  O  O35  1  0.25000000  0.91078434  0.86862179  1
  O  O36  1  0.93773625  0.38055387  0.21251844  1
  O  O37  1  0.95196627  0.21170228  0.90466319  1
  O  O38  1  0.06014837  0.25026106  0.58282279  1
  O  O39  1  0.25000000  0.49263455  0.03264489  1
