# generated using pymatgen
data_Sr2YFeCu2O7
_symmetry_space_group_name_H-M   'P 1'
_cell_length_a   5.42800971
_cell_length_b   5.52461869
_cell_length_c   12.28759009
_cell_angle_alpha   102.99772042
_cell_angle_beta   102.76041564
_cell_angle_gamma   89.99524337
_symmetry_Int_Tables_number   1
_chemical_formula_structural   Sr2YFeCu2O7
_chemical_formula_sum   'Sr4 Y2 Fe2 Cu4 O14'
_cell_volume   349.69107256
_cell_formula_units_Z   2
loop_
 _symmetry_equiv_pos_site_id
 _symmetry_equiv_pos_as_xyz
  1  'x, y, z'
loop_
 _atom_site_type_symbol
 _atom_site_label
 _atom_site_symmetry_multiplicity
 _atom_site_fract_x
 _atom_site_fract_y
 _atom_site_fract_z
 _atom_site_occupancy
  Sr  Sr0  1  0.33698873  0.33227421  0.69801334  1
  Sr  Sr1  1  0.63868629  0.66897644  0.30078986  1
  Sr  Sr2  1  0.83636887  0.86734433  0.69771595  1
  Sr  Sr3  1  0.13832733  0.13356264  0.30098500  1
  Y  Y4  1  0.98425204  0.99905524  0.99943242  1
  Y  Y5  1  0.48417772  0.49923470  0.99958226  1
  Fe  Fe6  1  0.27561154  0.68276994  0.49948674  1
  Fe  Fe7  1  0.77442220  0.31794755  0.49936247  1
  Cu  Cu8  1  0.91242508  0.42955803  0.85810062  1
  Cu  Cu9  1  0.05413015  0.56998515  0.14121426  1
  Cu  Cu10  1  0.41232693  0.92759175  0.85755498  1
  Cu  Cu11  1  0.55365715  0.07141967  0.14054824  1
  O  O12  1  0.13435345  0.35789988  0.49954918  1
  O  O13  1  0.63532236  0.64351345  0.49912723  1
  O  O14  1  0.17768004  0.19431465  0.87690528  1
  O  O15  1  0.29906276  0.80522806  0.12071297  1
  O  O16  1  0.67818112  0.18231843  0.87784493  1
  O  O17  1  0.79935739  0.81703800  0.12192821  1
  O  O18  1  0.66410324  0.68029559  0.87270346  1
  O  O19  1  0.79191353  0.31858180  0.12719843  1
  O  O20  1  0.16342475  0.69080394  0.87137508  1
  O  O21  1  0.29173239  0.30845112  0.12638482  1
  O  O22  1  0.28564405  0.86771957  0.64910190  1
  O  O23  1  0.63212584  0.13162317  0.35056672  1
  O  O24  1  0.78105024  0.28146536  0.64850645  1
  O  O25  1  0.13364480  0.71898033  0.35020518  1
