# generated using pymatgen
data_MnZn(GeO3)2
_symmetry_space_group_name_H-M   'P 1'
_cell_length_a   5.52608847
_cell_length_b   9.48918791
_cell_length_c   9.87793056
_cell_angle_alpha   90.00000000
_cell_angle_beta   102.30637658
_cell_angle_gamma   90.00000000
_symmetry_Int_Tables_number   1
_chemical_formula_structural   MnZn(GeO3)2
_chemical_formula_sum   'Mn4 Zn4 Ge8 O24'
_cell_volume   506.07761716
_cell_formula_units_Z   4
loop_
 _symmetry_equiv_pos_site_id
 _symmetry_equiv_pos_as_xyz
  1  'x, y, z'
loop_
 _atom_site_type_symbol
 _atom_site_label
 _atom_site_symmetry_multiplicity
 _atom_site_fract_x
 _atom_site_fract_y
 _atom_site_fract_z
 _atom_site_occupancy
  Mn  Mn0  1  0.96316283  0.65033921  0.24442690  1
  Mn  Mn1  1  0.53683717  0.15033921  0.75557310  1
  Mn  Mn2  1  0.03683717  0.34966079  0.75557310  1
  Mn  Mn3  1  0.46316283  0.84966079  0.24442690  1
  Zn  Zn4  1  0.45518719  0.49836638  0.24566863  1
  Zn  Zn5  1  0.04481281  0.99836638  0.75433137  1
  Zn  Zn6  1  0.54481281  0.50163362  0.75433137  1
  Zn  Zn7  1  0.95518719  0.00163362  0.24566863  1
  Ge  Ge8  1  0.81021577  0.33508640  0.05748286  1
  Ge  Ge9  1  0.68978423  0.83508640  0.94251714  1
  Ge  Ge10  1  0.18978423  0.66491360  0.94251714  1
  Ge  Ge11  1  0.31021577  0.16491360  0.05748286  1
  Ge  Ge12  1  0.24974247  0.34035030  0.45523067  1
  Ge  Ge13  1  0.25025753  0.84035030  0.54476933  1
  Ge  Ge14  1  0.75025753  0.65964970  0.54476933  1
  Ge  Ge15  1  0.74974247  0.15964970  0.45523067  1
  O  O16  1  0.50218824  0.27635653  0.38575776  1
  O  O17  1  0.99781176  0.77635653  0.61424224  1
  O  O18  1  0.49781176  0.72364347  0.61424224  1
  O  O19  1  0.00218824  0.22364347  0.38575776  1
  O  O20  1  0.14445155  0.31524514  0.10610258  1
  O  O21  1  0.35554845  0.81524514  0.89389842  1
  O  O22  1  0.85554845  0.68475486  0.89389842  1
  O  O23  1  0.64445155  0.18475486  0.10610258  1
  O  O24  1  0.71420867  0.99619990  0.37128158  1
  O  O25  1  0.78579133  0.49619990  0.62871842  1
  O  O26  1  0.28579133  0.00380010  0.62871842  1
  O  O27  1  0.21420867  0.50380010  0.37128158  1
  O  O28  1  0.22393100  0.01955365  0.14370134  1
  O  O29  1  0.27606900  0.51955365  0.85629866  1
  O  O30  1  0.77606900  0.98044635  0.85629866  1
  O  O31  1  0.72393100  0.48044635  0.14370134  1
  O  O32  1  0.74658547  0.34021030  0.87413903  1
  O  O33  1  0.75341453  0.84021030  0.12586097  1
  O  O34  1  0.25341453  0.65978970  0.12586097  1
  O  O35  1  0.24658547  0.15978970  0.87413903  1
  O  O36  1  0.31865919  0.33863479  0.63741491  1
  O  O37  1  0.18134081  0.83863479  0.36258509  1
  O  O38  1  0.68134081  0.66136521  0.36258509  1
  O  O39  1  0.81865919  0.16136521  0.63741491  1
