# generated using pymatgen
data_Mg2CoWO6
_symmetry_space_group_name_H-M   'P 1'
_cell_length_a   5.22777256
_cell_length_b   5.60076578
_cell_length_c   7.61421567
_cell_angle_alpha   95.26463487
_cell_angle_beta   132.80228304
_cell_angle_gamma   118.27822451
_symmetry_Int_Tables_number   1
_chemical_formula_structural   Mg2CoWO6
_chemical_formula_sum   'Mg2 Co1 W1 O6'
_cell_volume   110.66155622
_cell_formula_units_Z   1
loop_
 _symmetry_equiv_pos_site_id
 _symmetry_equiv_pos_as_xyz
  1  'x, y, z'
loop_
 _atom_site_type_symbol
 _atom_site_label
 _atom_site_symmetry_multiplicity
 _atom_site_fract_x
 _atom_site_fract_y
 _atom_site_fract_z
 _atom_site_occupancy
  Mg  Mg0  1  0.00186221  0.57284465  0.20729809  1
  Mg  Mg1  1  0.00345613  0.57814098  0.70745781  1
  Co  Co2  1  0.99884752  0.00456271  0.49169662  1
  W  W3  1  0.00285095  0.98331224  0.00522962  1
  O  O4  1  0.71605383  0.80260108  0.10232121  1
  O  O5  1  0.27416991  0.08556252  0.90417969  1
  O  O6  1  0.36877826  0.45356877  0.27105158  1
  O  O7  1  0.36478976  0.80974338  0.63131763  1
  O  O8  1  0.58395154  0.08810196  0.38571086  1
  O  O9  1  0.69946489  0.49886971  0.80079086  1
