# generated using pymatgen
data_CaLaCrFeO6
_symmetry_space_group_name_H-M   'P 1'
_cell_length_a   5.53947855
_cell_length_b   5.51514598
_cell_length_c   7.72231974
_cell_angle_alpha   89.78017556
_cell_angle_beta   90.00000000
_cell_angle_gamma   90.00000000
_symmetry_Int_Tables_number   1
_chemical_formula_structural   CaLaCrFeO6
_chemical_formula_sum   'Ca2 La2 Cr2 Fe2 O12'
_cell_volume   235.92310781
_cell_formula_units_Z   2
loop_
 _symmetry_equiv_pos_site_id
 _symmetry_equiv_pos_as_xyz
  1  'x, y, z'
loop_
 _atom_site_type_symbol
 _atom_site_label
 _atom_site_symmetry_multiplicity
 _atom_site_fract_x
 _atom_site_fract_y
 _atom_site_fract_z
 _atom_site_occupancy
  Ca  Ca0  1  0.53714665  0.51144940  0.25044565  1
  Ca  Ca1  1  0.96285335  0.01144940  0.75044565  1
  La  La2  1  0.02813991  0.99124660  0.24848546  1
  La  La3  1  0.47186009  0.49124660  0.74848546  1
  Cr  Cr4  1  0.50042724  0.99984230  0.49897582  1
  Cr  Cr5  1  0.99957276  0.49984230  0.99897582  1
  Fe  Fe6  1  0.49962565  0.99945068  0.00007524  1
  Fe  Fe7  1  0.00037435  0.49945068  0.50007524  1
  O  O8  1  0.01342075  0.58075619  0.75693176  1
  O  O9  1  0.21622339  0.21706245  0.95585120  1
  O  O10  1  0.22428167  0.20807858  0.54243791  1
  O  O11  1  0.27571833  0.70807858  0.04243791  1
  O  O12  1  0.28377661  0.71706245  0.45585120  1
  O  O13  1  0.48657925  0.08075619  0.25693076  1
  O  O14  1  0.51694934  0.92692018  0.74379510  1
  O  O15  1  0.72050175  0.27860868  0.54175136  1
  O  O16  1  0.72749269  0.28658395  0.96125050  1
  O  O17  1  0.77250731  0.78658395  0.46125050  1
  O  O18  1  0.77949825  0.77860768  0.04175136  1
  O  O19  1  0.98305066  0.42692018  0.24379510  1
