# generated using pymatgen
data_BaSbF7
_symmetry_space_group_name_H-M   'P 1'
_cell_length_a   5.73038810
_cell_length_b   10.50314768
_cell_length_c   10.04491218
_cell_angle_alpha   90.00000000
_cell_angle_beta   90.00000000
_cell_angle_gamma   92.55387703
_symmetry_Int_Tables_number   1
_chemical_formula_structural   BaSbF7
_chemical_formula_sum   'Ba4 Sb4 F28'
_cell_volume   603.97377370
_cell_formula_units_Z   4
loop_
 _symmetry_equiv_pos_site_id
 _symmetry_equiv_pos_as_xyz
  1  'x, y, z'
loop_
 _atom_site_type_symbol
 _atom_site_label
 _atom_site_symmetry_multiplicity
 _atom_site_fract_x
 _atom_site_fract_y
 _atom_site_fract_z
 _atom_site_occupancy
  Ba  Ba0  1  0.30652756  0.49282751  0.32910596  1
  Ba  Ba1  1  0.69347244  0.00717249  0.82910596  1
  Ba  Ba2  1  0.69347244  0.50717249  0.67089404  1
  Ba  Ba3  1  0.30652756  0.99282751  0.17089404  1
  Sb  Sb4  1  0.18416768  0.81331323  0.61291954  1
  Sb  Sb5  1  0.81583232  0.18668677  0.38708046  1
  Sb  Sb6  1  0.18416768  0.31331323  0.88708046  1
  Sb  Sb7  1  0.81583232  0.68668677  0.11291954  1
  F  F8  1  0.10200252  0.12371693  0.45129302  1
  F  F9  1  0.34206139  0.36314818  0.04734929  1
  F  F10  1  0.46828991  0.75837355  0.69201765  1
  F  F11  1  0.53171009  0.24162645  0.30798235  1
  F  F12  1  0.88300818  0.35727135  0.45422950  1
  F  F13  1  0.25338910  0.47747458  0.80617929  1
  F  F14  1  0.00487104  0.75953265  0.76708003  1
  F  F15  1  0.11699182  0.14272865  0.95422950  1
  F  F16  1  0.34206139  0.86314818  0.45265071  1
  F  F17  1  0.53171009  0.74162645  0.19201765  1
  F  F18  1  0.10200252  0.62371693  0.04870698  1
  F  F19  1  0.89799748  0.87628307  0.54870698  1
  F  F20  1  0.99512896  0.74046735  0.26708003  1
  F  F21  1  0.38444218  0.88924112  0.95689273  1
  F  F22  1  0.11699182  0.64272865  0.54577050  1
  F  F23  1  0.88300818  0.85727135  0.04577050  1
  F  F24  1  0.99512896  0.24046735  0.23291997  1
  F  F25  1  0.89799748  0.37628307  0.95129302  1
  F  F26  1  0.61555782  0.61075888  0.45689273  1
  F  F27  1  0.65793861  0.63685182  0.95265071  1
  F  F28  1  0.61555782  0.11075888  0.04310727  1
  F  F29  1  0.00487104  0.25953265  0.73291997  1
  F  F30  1  0.38444218  0.38924112  0.54310727  1
  F  F31  1  0.74661090  0.02252542  0.30617929  1
  F  F32  1  0.74661090  0.52252542  0.19382071  1
  F  F33  1  0.25338910  0.97747458  0.69382071  1
  F  F34  1  0.65793861  0.13685182  0.54734929  1
  F  F35  1  0.46828991  0.25837355  0.80798235  1
