# generated using pymatgen
data_Mg2Nb2CoO8
_symmetry_space_group_name_H-M   'P 1'
_cell_length_a   5.20126109
_cell_length_b   6.03706967
_cell_length_c   10.03364491
_cell_angle_alpha   107.47929703
_cell_angle_beta   89.92097904
_cell_angle_gamma   90.01609893
_symmetry_Int_Tables_number   1
_chemical_formula_structural   Mg2Nb2CoO8
_chemical_formula_sum   'Mg4 Nb4 Co2 O16'
_cell_volume   300.51219555
_cell_formula_units_Z   2
loop_
 _symmetry_equiv_pos_site_id
 _symmetry_equiv_pos_as_xyz
  1  'x, y, z'
loop_
 _atom_site_type_symbol
 _atom_site_label
 _atom_site_symmetry_multiplicity
 _atom_site_fract_x
 _atom_site_fract_y
 _atom_site_fract_z
 _atom_site_occupancy
  Mg  Mg0  1  0.75366412  0.41401248  0.54388256  1
  Mg  Mg1  1  0.74773126  0.87034115  0.45745576  1
  Mg  Mg2  1  0.24791062  0.58693578  0.45734499  1
  Mg  Mg3  1  0.25372357  0.13027587  0.54311262  1
  Nb  Nb4  1  0.74288929  0.28380432  0.23145545  1
  Nb  Nb5  1  0.75841053  0.05390618  0.76983259  1
  Nb  Nb6  1  0.25820787  0.71650992  0.76994729  1
  Nb  Nb7  1  0.24280001  0.94664770  0.23101743  1
  Co  Co8  1  0.74961087  0.64726642  0.00062634  1
  Co  Co9  1  0.24939815  0.35282103  0.00058799  1
  O  O10  1  0.08195345  0.18408718  0.14200506  1
  O  O11  1  0.42091172  0.04114078  0.85847939  1
  O  O12  1  0.92075314  0.81739842  0.85849344  1
  O  O13  1  0.58176619  0.95744345  0.14215282  1
  O  O14  1  0.58513721  0.43048455  0.11580803  1
  O  O15  1  0.91639850  0.31760771  0.88509161  1
  O  O16  1  0.41607635  0.56790731  0.88528548  1
  O  O17  1  0.08467460  0.68412721  0.11581902  1
  O  O18  1  0.45857512  0.29225924  0.37555035  1
  O  O19  1  0.04256612  0.91781791  0.62533375  1
  O  O20  1  0.38419273  0.83636657  0.38234259  1
  O  O21  1  0.11740570  0.45485240  0.61852633  1
  O  O22  1  0.61714639  0.16416259  0.61855352  1
  O  O23  1  0.88420353  0.54578340  0.38249747  1
  O  O24  1  0.95860596  0.08263953  0.37522602  1
  O  O25  1  0.54265500  0.70825990  0.62532910  1
