# generated using pymatgen
data_BaSr7Mn2(FeO4)6
_symmetry_space_group_name_H-M   'P 1'
_cell_length_a   7.82907859
_cell_length_b   7.86751197
_cell_length_c   7.86751197
_cell_angle_alpha   89.98209986
_cell_angle_beta   90.00000000
_cell_angle_gamma   90.00000000
_symmetry_Int_Tables_number   1
_chemical_formula_structural   BaSr7Mn2(FeO4)6
_chemical_formula_sum   'Ba1 Sr7 Mn2 Fe6 O24'
_cell_volume   484.60228286
_cell_formula_units_Z   1
loop_
 _symmetry_equiv_pos_site_id
 _symmetry_equiv_pos_as_xyz
  1  'x, y, z'
loop_
 _atom_site_type_symbol
 _atom_site_label
 _atom_site_symmetry_multiplicity
 _atom_site_fract_x
 _atom_site_fract_y
 _atom_site_fract_z
 _atom_site_occupancy
  Ba  Ba0  1  0.25000000  0.74930515  0.25069485  1
  Sr  Sr1  1  0.25000000  0.25072915  0.25078681  1
  Sr  Sr2  1  0.25000000  0.25079307  0.74920693  1
  Sr  Sr3  1  0.25000000  0.74921319  0.74927085  1
  Sr  Sr4  1  0.75000000  0.25079181  0.25071912  1
  Sr  Sr5  1  0.75000000  0.25079552  0.74920448  1
  Sr  Sr6  1  0.75000000  0.74918410  0.25081590  1
  Sr  Sr7  1  0.75000000  0.74928088  0.74920819  1
  Mn  Mn8  1  0.99899206  0.49912815  0.50087185  1
  Mn  Mn9  1  0.50100794  0.49912815  0.50087185  1
  Fe  Fe10  1  0.99898158  0.00116133  0.99883867  1
  Fe  Fe11  1  0.99898040  0.00130576  0.50103623  1
  Fe  Fe12  1  0.99898040  0.49896377  0.99869424  1
  Fe  Fe13  1  0.50101842  0.00116133  0.99883867  1
  Fe  Fe14  1  0.50101960  0.00130576  0.50103623  1
  Fe  Fe15  1  0.50101960  0.49896377  0.99869424  1
  O  O16  1  0.25000000  0.00410144  0.99589856  1
  O  O17  1  0.25000000  0.00407096  0.50405100  1
  O  O18  1  0.25000000  0.49594900  0.99592904  1
  O  O19  1  0.25000000  0.49534603  0.50465397  1
  O  O20  1  0.75000000  0.00123897  0.99876103  1
  O  O21  1  0.75000000  0.00114874  0.50120218  1
  O  O22  1  0.75000000  0.49879782  0.99885126  1
  O  O23  1  0.75000000  0.49896058  0.50103942  1
  O  O24  1  0.99877277  0.25002716  0.99871157  1
  O  O25  1  0.99876679  0.25285383  0.50086712  1
  O  O26  1  0.99581782  0.75001713  0.99588061  1
  O  O27  1  0.99572578  0.74687086  0.50472189  1
  O  O28  1  0.50122723  0.25002716  0.99871157  1
  O  O29  1  0.50123321  0.25285383  0.50086712  1
  O  O30  1  0.50418218  0.75001713  0.99588061  1
  O  O31  1  0.50427422  0.74687086  0.50472189  1
  O  O32  1  0.99581782  0.00411939  0.24998287  1
  O  O33  1  0.99877277  0.00128843  0.74997284  1
  O  O34  1  0.99572578  0.49527811  0.25312914  1
  O  O35  1  0.99876679  0.49913288  0.74714617  1
  O  O36  1  0.50418218  0.00411939  0.24998287  1
  O  O37  1  0.50122723  0.00128843  0.74997284  1
  O  O38  1  0.50427422  0.49527811  0.25312914  1
  O  O39  1  0.50123321  0.49913288  0.74714617  1
