# generated using pymatgen
data_LaGe3Ru
_symmetry_space_group_name_H-M   'P 1'
_cell_length_a   4.45405013
_cell_length_b   4.45405013
_cell_length_c   5.99341795
_cell_angle_alpha   111.81300373
_cell_angle_beta   111.81300373
_cell_angle_gamma   90.00000000
_symmetry_Int_Tables_number   1
_chemical_formula_structural   LaGe3Ru
_chemical_formula_sum   'La1 Ge3 Ru1'
_cell_volume   101.16066648
_cell_formula_units_Z   1
loop_
 _symmetry_equiv_pos_site_id
 _symmetry_equiv_pos_as_xyz
  1  'x, y, z'
loop_
 _atom_site_type_symbol
 _atom_site_label
 _atom_site_symmetry_multiplicity
 _atom_site_fract_x
 _atom_site_fract_y
 _atom_site_fract_z
 _atom_site_occupancy
  La  La0  1  -0.00007266  -0.00007266  -0.00014531  1
  Ge  Ge1  1  0.42356711  0.42356711  0.84713422  1
  Ge  Ge2  1  0.75973682  0.25973682  0.51947364  1
  Ge  Ge3  1  0.25973682  0.75973682  0.51947364  1
  Ru  Ru4  1  0.65803191  0.65803191  0.31606383  1
