# generated using pymatgen
data_K5Na3Ta4Nb4O24
_symmetry_space_group_name_H-M   'P 1'
_cell_length_a   8.04647939
_cell_length_b   8.04647939
_cell_length_c   8.04587345
_cell_angle_alpha   90.00018457
_cell_angle_beta   90.00018457
_cell_angle_gamma   90.00026916
_symmetry_Int_Tables_number   1
_chemical_formula_structural   K5Na3Ta4Nb4O24
_chemical_formula_sum   'K5 Na3 Ta4 Nb4 O24'
_cell_volume   520.93675921
_cell_formula_units_Z   1
loop_
 _symmetry_equiv_pos_site_id
 _symmetry_equiv_pos_as_xyz
  1  'x, y, z'
loop_
 _atom_site_type_symbol
 _atom_site_label
 _atom_site_symmetry_multiplicity
 _atom_site_fract_x
 _atom_site_fract_y
 _atom_site_fract_z
 _atom_site_occupancy
  K  K0  1  0.25008568  0.25008568  0.25008936  1
  K  K1  1  0.25008987  0.74991609  0.25009444  1
  K  K2  1  0.74991609  0.25008987  0.25009444  1
  K  K3  1  0.74991308  0.74991308  0.25009715  1
  K  K4  1  0.74991320  0.74991320  0.74991358  1
  Na  Na5  1  0.25001347  0.25001347  0.74998666  1
  Na  Na6  1  0.25001383  0.74998470  0.74998720  1
  Na  Na7  1  0.74998470  0.25001383  0.74998720  1
  Ta  Ta8  1  0.00023898  0.00023898  0.99928233  1
  Ta  Ta9  1  0.00024519  0.00024519  0.50072585  1
  Ta  Ta10  1  0.00024506  0.49975660  0.99926386  1
  Ta  Ta11  1  0.49975660  0.00024506  0.99926386  1
  Nb  Nb12  1  0.00023387  0.49976895  0.50069229  1
  Nb  Nb13  1  0.49976895  0.00023387  0.50069229  1
  Nb  Nb14  1  0.49976785  0.49976785  0.99929646  1
  Nb  Nb15  1  0.49976013  0.49976013  0.50071894  1
  O  O16  1  0.24984523  0.00006825  0.99852600  1
  O  O17  1  0.24893055  0.00006218  0.50146704  1
  O  O18  1  0.24893078  0.49993430  0.99853016  1
  O  O19  1  0.24984908  0.49993681  0.50145469  1
  O  O20  1  0.75015833  0.00070927  0.99915291  1
  O  O21  1  0.75108115  0.00070952  0.50083980  1
  O  O22  1  0.75108191  0.49929161  0.99916126  1
  O  O23  1  0.75015618  0.49929595  0.50082874  1
  O  O24  1  0.00006825  0.24984523  0.99852600  1
  O  O25  1  0.00006218  0.24893055  0.50146704  1
  O  O26  1  0.00070927  0.75015833  0.99915291  1
  O  O27  1  0.00070952  0.75108115  0.50083980  1
  O  O28  1  0.49993430  0.24893078  0.99853016  1
  O  O29  1  0.49993681  0.24984908  0.50145469  1
  O  O30  1  0.49929161  0.75108191  0.99916126  1
  O  O31  1  0.49929595  0.75015618  0.50082874  1
  O  O32  1  0.00007034  0.00007034  0.24983330  1
  O  O33  1  0.00069622  0.00069622  0.75015044  1
  O  O34  1  0.00006906  0.49993159  0.24890827  1
  O  O35  1  0.00069533  0.49930511  0.75105474  1
  O  O36  1  0.49993159  0.00006906  0.24890827  1
  O  O37  1  0.49930511  0.00069533  0.75105474  1
  O  O38  1  0.49993455  0.49993455  0.24983598  1
  O  O39  1  0.49931014  0.49931014  0.75014715  1
