# generated using pymatgen
data_BaSr7MnFe7O20
_symmetry_space_group_name_H-M   'P 1'
_cell_length_a   11.26729984
_cell_length_b   11.52476820
_cell_length_c   17.82688232
_cell_angle_alpha   108.90261894
_cell_angle_beta   108.25804604
_cell_angle_gamma   90.03517404
_symmetry_Int_Tables_number   1
_chemical_formula_structural   BaSr7MnFe7O20
_chemical_formula_sum   'Ba4 Sr28 Mn4 Fe28 O80'
_cell_volume   2066.30185669
_cell_formula_units_Z   4
loop_
 _symmetry_equiv_pos_site_id
 _symmetry_equiv_pos_as_xyz
  1  'x, y, z'
loop_
 _atom_site_type_symbol
 _atom_site_label
 _atom_site_symmetry_multiplicity
 _atom_site_fract_x
 _atom_site_fract_y
 _atom_site_fract_z
 _atom_site_occupancy
  Ba  Ba0  1  0.30846882  0.06264645  0.11420078  1
  Ba  Ba1  1  0.30821825  0.56177978  0.11353255  1
  Ba  Ba2  1  0.80740083  0.06306443  0.11416045  1
  Ba  Ba3  1  0.05643370  0.80099777  0.11322994  1
  Sr  Sr4  1  0.30592756  0.06169497  0.60898676  1
  Sr  Sr5  1  0.30650839  0.55976665  0.60821884  1
  Sr  Sr6  1  0.80630581  0.06372541  0.60870310  1
  Sr  Sr7  1  0.80577712  0.56168816  0.10883087  1
  Sr  Sr8  1  0.80692381  0.56198866  0.60822329  1
  Sr  Sr9  1  0.19789628  0.43695269  0.39179033  1
  Sr  Sr10  1  0.19730948  0.43683139  0.88948110  1
  Sr  Sr11  1  0.19781678  0.93746717  0.39293718  1
  Sr  Sr12  1  0.19779976  0.93759983  0.89088088  1
  Sr  Sr13  1  0.69716390  0.43657641  0.39119099  1
  Sr  Sr14  1  0.69735351  0.43739955  0.88942876  1
  Sr  Sr15  1  0.69742471  0.93698188  0.39139645  1
  Sr  Sr16  1  0.69799557  0.93853600  0.89153182  1
  Sr  Sr17  1  0.05497649  0.29754385  0.10811371  1
  Sr  Sr18  1  0.05662600  0.29727043  0.60962013  1
  Sr  Sr19  1  0.05541410  0.79575139  0.60785917  1
  Sr  Sr20  1  0.55589953  0.29690328  0.10821541  1
  Sr  Sr21  1  0.55777457  0.29814181  0.60971714  1
  Sr  Sr22  1  0.55733507  0.79443811  0.10843646  1
  Sr  Sr23  1  0.55640634  0.79619062  0.60763317  1
  Sr  Sr24  1  0.44803267  0.20638537  0.39395784  1
  Sr  Sr25  1  0.44741675  0.20264744  0.89009434  1
  Sr  Sr26  1  0.44856271  0.70547342  0.39344240  1
  Sr  Sr27  1  0.44848220  0.70074970  0.89059073  1
  Sr  Sr28  1  0.94881318  0.20644778  0.39341081  1
  Sr  Sr29  1  0.94680066  0.20457032  0.88988200  1
  Sr  Sr30  1  0.94778946  0.70465947  0.39189844  1
  Sr  Sr31  1  0.94779070  0.70262153  0.89028505  1
  Mn  Mn32  1  0.11031040  0.59474038  0.74924902  1
  Mn  Mn33  1  0.60900119  0.59779278  0.74918503  1
  Mn  Mn34  1  0.36085366  0.40463968  0.74949924  1
  Mn  Mn35  1  0.35987482  0.90275731  0.74937209  1
  Fe  Fe36  1  0.00078357  0.99798989  0.99389748  1
  Fe  Fe37  1  0.00384995  0.00009963  0.49986322  1
  Fe  Fe38  1  0.00083790  0.49684990  0.99559330  1
  Fe  Fe39  1  0.00448920  0.50035141  0.50110077  1
  Fe  Fe40  1  0.50110310  0.99813994  0.99575723  1
  Fe  Fe41  1  0.50428665  0.00033745  0.49991818  1
  Fe  Fe42  1  0.50274344  0.49770737  0.99604972  1
  Fe  Fe43  1  0.50450192  0.50031071  0.50132737  1
  Fe  Fe44  1  0.25260314  0.24877299  0.99681515  1
  Fe  Fe45  1  0.25472923  0.25101872  0.50165066  1
  Fe  Fe46  1  0.25200061  0.74686924  0.99444590  1
  Fe  Fe47  1  0.25387033  0.75028714  0.50050502  1
  Fe  Fe48  1  0.75334904  0.25097978  0.99862831  1
  Fe  Fe49  1  0.75474071  0.25025962  0.50045595  1
  Fe  Fe50  1  0.74986035  0.74578982  0.99463650  1
  Fe  Fe51  1  0.75444206  0.74982049  0.49958661  1
  Fe  Fe52  1  0.11089776  0.09508827  0.25386682  1
  Fe  Fe53  1  0.10768902  0.08727650  0.74947759  1
  Fe  Fe54  1  0.10574580  0.58919493  0.25102988  1
  Fe  Fe55  1  0.61051711  0.09219149  0.25233152  1
  Fe  Fe56  1  0.60855257  0.09023665  0.74968380  1
  Fe  Fe57  1  0.61151265  0.59141722  0.25214516  1
  Fe  Fe58  1  0.35868297  0.40949341  0.25224660  1
  Fe  Fe59  1  0.36315259  0.91052742  0.25401303  1
  Fe  Fe60  1  0.85747139  0.41110513  0.25055487  1
  Fe  Fe61  1  0.85827472  0.41086571  0.74943533  1
  Fe  Fe62  1  0.85725322  0.90682312  0.25225781  1
  Fe  Fe63  1  0.85706523  0.90942041  0.74919013  1
  O  O64  1  0.12450304  0.12147533  0.49167194  1
  O  O65  1  0.12184661  0.12210174  0.98898911  1
  O  O66  1  0.12470318  0.62228344  0.49208805  1
  O  O67  1  0.12219357  0.61980431  0.98844694  1
  O  O68  1  0.62516797  0.12206683  0.49207779  1
  O  O69  1  0.62251047  0.12336555  0.98981737  1
  O  O70  1  0.62495829  0.62263094  0.49255542  1
  O  O71  1  0.62477946  0.62154694  0.99229638  1
  O  O72  1  0.12849841  0.37312109  0.00384856  1
  O  O73  1  0.13236430  0.37769949  0.50752518  1
  O  O74  1  0.12893291  0.87566714  0.00168242  1
  O  O75  1  0.13277463  0.87832267  0.50837355  1
  O  O76  1  0.63265906  0.37806525  0.00719755  1
  O  O77  1  0.63348690  0.37726566  0.50816244  1
  O  O78  1  0.62783297  0.87440911  0.00416254  1
  O  O79  1  0.63384107  0.87812370  0.50925360  1
  O  O80  1  0.37505161  0.11957480  0.49253466  1
  O  O81  1  0.37379514  0.11993298  0.98977286  1
  O  O82  1  0.37460336  0.62060119  0.49237326  1
  O  O83  1  0.37567929  0.62001783  0.99108383  1
  O  O84  1  0.87482905  0.11925011  0.49192988  1
  O  O85  1  0.87412905  0.12001153  0.98914755  1
  O  O86  1  0.87445640  0.61969245  0.49151120  1
  O  O87  1  0.87123027  0.61571961  0.98947150  1
  O  O88  1  0.38335995  0.37625159  0.00477270  1
  O  O89  1  0.38289319  0.38072851  0.50810029  1
  O  O90  1  0.38223064  0.87627951  0.00379104  1
  O  O91  1  0.38337971  0.88117443  0.50881350  1
  O  O92  1  0.88159588  0.37917961  0.00638102  1
  O  O93  1  0.88269213  0.38012358  0.50818404  1
  O  O94  1  0.87772816  0.87710608  0.00100423  1
  O  O95  1  0.88351627  0.88095065  0.50932112  1
  O  O96  1  0.07632830  0.09635743  0.14244576  1
  O  O97  1  0.08219177  0.09570373  0.64108830  1
  O  O98  1  0.07385633  0.58687755  0.13975288  1
  O  O99  1  0.07554202  0.58663435  0.63544819  1
  O  O100  1  0.57626839  0.09774663  0.14203271  1
  O  O101  1  0.58154979  0.09650668  0.64069551  1
  O  O102  1  0.58313920  0.59624259  0.14267205  1
  O  O103  1  0.57473556  0.58746818  0.63526347  1
  O  O104  1  0.44047926  0.40184722  0.36038106  1
  O  O105  1  0.44125090  0.41298092  0.86413323  1
  O  O106  1  0.44369513  0.90141840  0.36205312  1
  O  O107  1  0.43847821  0.91309369  0.86258589  1
  O  O108  1  0.94075406  0.40354773  0.35886838  1
  O  O109  1  0.94111674  0.40429193  0.85899378  1
  O  O110  1  0.94021674  0.90161599  0.36108817  1
  O  O111  1  0.93984144  0.90415524  0.85842083  1
  O  O112  1  0.33130011  0.30509117  0.13974747  1
  O  O113  1  0.32570756  0.29789779  0.63500997  1
  O  O114  1  0.33353623  0.80566553  0.14155371  1
  O  O115  1  0.32512571  0.79933336  0.63633539  1
  O  O116  1  0.83096699  0.30329847  0.13902413  1
  O  O117  1  0.83227341  0.29473333  0.64002574  1
  O  O118  1  0.82502837  0.79574461  0.14111721  1
  O  O119  1  0.83093702  0.79397847  0.64050913  1
  O  O120  1  0.19302675  0.21035613  0.36152935  1
  O  O121  1  0.19078640  0.20394806  0.85803407  1
  O  O122  1  0.19086692  0.70563575  0.35932410  1
  O  O123  1  0.19035424  0.70018846  0.86295928  1
  O  O124  1  0.69470771  0.20730196  0.36070338  1
  O  O125  1  0.69011901  0.20568106  0.85877800  1
  O  O126  1  0.69426742  0.70726868  0.36112905  1
  O  O127  1  0.68771587  0.70055449  0.86341280  1
  O  O128  1  0.44753820  0.06013882  0.26013935  1
  O  O129  1  0.44069936  0.05463503  0.74937889  1
  O  O130  1  0.44679872  0.55884183  0.25928913  1
  O  O131  1  0.43952276  0.56241599  0.74919212  1
  O  O132  1  0.94655771  0.05524356  0.25863413  1
  O  O133  1  0.93617481  0.05886840  0.74933770  1
  O  O134  1  0.93551949  0.56167461  0.25178741  1
  O  O135  1  0.93407432  0.56148530  0.74928757  1
  O  O136  1  0.18719096  0.44066568  0.25072014  1
  O  O137  1  0.19028173  0.44267709  0.74960753  1
  O  O138  1  0.19810497  0.95168158  0.25831033  1
  O  O139  1  0.18338243  0.93617412  0.74939611  1
  O  O140  1  0.68704779  0.43995023  0.25035464  1
  O  O141  1  0.69118793  0.44215145  0.74960371  1
  O  O142  1  0.68745230  0.94156858  0.25023062  1
  O  O143  1  0.68618897  0.93947230  0.74962283  1
