# generated using pymatgen
data_VZnP2O7
_symmetry_space_group_name_H-M   'P 1'
_cell_length_a   7.11496128
_cell_length_b   8.56148153
_cell_length_c   9.15909930
_cell_angle_alpha   90.00000000
_cell_angle_beta   112.55205762
_cell_angle_gamma   90.00000000
_symmetry_Int_Tables_number   1
_chemical_formula_structural   VZnP2O7
_chemical_formula_sum   'V4 Zn4 P8 O28'
_cell_volume   515.25940071
_cell_formula_units_Z   4
loop_
 _symmetry_equiv_pos_site_id
 _symmetry_equiv_pos_as_xyz
  1  'x, y, z'
loop_
 _atom_site_type_symbol
 _atom_site_label
 _atom_site_symmetry_multiplicity
 _atom_site_fract_x
 _atom_site_fract_y
 _atom_site_fract_z
 _atom_site_occupancy
  V  V0  1  0.37434150  0.07381300  0.60984350  1
  V  V1  1  0.62565850  0.92618700  0.39015650  1
  V  V2  1  0.12565850  0.57381300  0.89015650  1
  V  V3  1  0.87434150  0.42618700  0.10984350  1
  Zn  Zn4  1  0.11836692  0.94316528  0.81645409  1
  Zn  Zn5  1  0.38163308  0.44316528  0.68354591  1
  Zn  Zn6  1  0.61836692  0.55683472  0.31645409  1
  Zn  Zn7  1  0.88163308  0.05683472  0.18354591  1
  P  P8  1  0.18100957  0.73345562  0.24244560  1
  P  P9  1  0.43711633  0.22413454  0.96974026  1
  P  P10  1  0.68100957  0.76654438  0.74244560  1
  P  P11  1  0.93711633  0.27586546  0.46974026  1
  P  P12  1  0.31899043  0.23345562  0.25755440  1
  P  P13  1  0.06288367  0.72413454  0.53025974  1
  P  P14  1  0.56288367  0.77586546  0.03025974  1
  P  P15  1  0.81899043  0.26654438  0.75755440  1
  O  O16  1  0.35298835  0.17583725  0.10149555  1
  O  O17  1  0.57697363  0.61127192  0.68829527  1
  O  O18  1  0.07697363  0.88872808  0.18829527  1
  O  O19  1  0.35011579  0.38440321  0.89927678  1
  O  O20  1  0.64701165  0.82416275  0.89850445  1
  O  O21  1  0.40326173  0.10000429  0.37685533  1
  O  O22  1  0.64988421  0.61559679  0.10072322  1
  O  O23  1  0.35905637  0.09097575  0.84806193  1
  O  O24  1  0.17053012  0.27107634  0.54923090  1
  O  O25  1  0.59673727  0.89999571  0.62314467  1
  O  O26  1  0.90326273  0.39999571  0.87685533  1
  O  O27  1  0.91512439  0.76082840  0.79897911  1
  O  O28  1  0.58487561  0.26082840  0.70102089  1
  O  O29  1  0.85298835  0.32416275  0.60149555  1
  O  O30  1  0.09673727  0.60000429  0.12314467  1
  O  O31  1  0.92302637  0.11127192  0.81170473  1
  O  O32  1  0.08487561  0.23917160  0.20102089  1
  O  O33  1  0.64094363  0.90902525  0.15193807  1
  O  O34  1  0.67053012  0.22892366  0.04923090  1
  O  O35  1  0.32946988  0.77107634  0.95076910  1
  O  O36  1  0.14988421  0.88440321  0.60072322  1
  O  O37  1  0.85905637  0.40902525  0.34806193  1
  O  O38  1  0.14094363  0.59097475  0.65193807  1
  O  O39  1  0.42302637  0.38872808  0.31170473  1
  O  O40  1  0.41512439  0.73917160  0.29897911  1
  O  O41  1  0.85011579  0.11559679  0.39927678  1
  O  O42  1  0.82946988  0.72892366  0.45076910  1
  O  O43  1  0.14701165  0.67583725  0.39850445  1
