# generated using pymatgen
data_Nd(CrB3)2
_symmetry_space_group_name_H-M   'P 1'
_cell_length_a   3.10621239
_cell_length_b   5.53266241
_cell_length_c   5.53266241
_cell_angle_alpha   72.80643847
_cell_angle_beta   73.69706150
_cell_angle_gamma   73.69706150
_symmetry_Int_Tables_number   1
_chemical_formula_structural   Nd(CrB3)2
_chemical_formula_sum   'Nd1 Cr2 B6'
_cell_volume   85.12941809
_cell_formula_units_Z   1
loop_
 _symmetry_equiv_pos_site_id
 _symmetry_equiv_pos_as_xyz
  1  'x, y, z'
loop_
 _atom_site_type_symbol
 _atom_site_label
 _atom_site_symmetry_multiplicity
 _atom_site_fract_x
 _atom_site_fract_y
 _atom_site_fract_z
 _atom_site_occupancy
  Nd  Nd0  1  0.00000000  0.50000000  0.50000000  1
  Cr  Cr1  1  0.84618032  0.15381968  0.15381968  1
  Cr  Cr2  1  0.15381968  0.84618032  0.84618032  1
  B  B3  1  0.50000000  0.13936638  0.86063362  1
  B  B4  1  0.50000000  0.86063362  0.13936638  1
  B  B5  1  0.69753450  0.03801324  0.56691777  1
  B  B6  1  0.30246550  0.43308223  0.96198676  1
  B  B7  1  0.69753450  0.56691777  0.03801324  1
  B  B8  1  0.30246550  0.96198676  0.43308223  1
