# generated using pymatgen
data_Sr2ZrTiO6
_symmetry_space_group_name_H-M   'P 1'
_cell_length_a   5.71991668
_cell_length_b   5.71991668
_cell_length_c   5.74935969
_cell_angle_alpha   119.83073968
_cell_angle_beta   119.83073968
_cell_angle_gamma   90.00000000
_symmetry_Int_Tables_number   1
_chemical_formula_structural   Sr2ZrTiO6
_chemical_formula_sum   'Sr2 Zr1 Ti1 O6'
_cell_volume   133.68756105
_cell_formula_units_Z   1
loop_
 _symmetry_equiv_pos_site_id
 _symmetry_equiv_pos_as_xyz
  1  'x, y, z'
loop_
 _atom_site_type_symbol
 _atom_site_label
 _atom_site_symmetry_multiplicity
 _atom_site_fract_x
 _atom_site_fract_y
 _atom_site_fract_z
 _atom_site_occupancy
  Sr  Sr0  1  0.75000000  0.25000000  0.50000000  1
  Sr  Sr1  1  0.25000000  0.75000000  0.50000000  1
  Zr  Zr2  1  0.50000000  0.50000000  0.00000000  1
  Ti  Ti3  1  0.00000000  0.00000000  0.00000000  1
  O  O4  1  0.75773834  0.75773834  0.51547668  1
  O  O5  1  0.24226166  0.24226166  0.48452332  1
  O  O6  1  0.79469317  0.27814269  0.00000000  1
  O  O7  1  0.20530683  0.72185731  0.00000000  1
  O  O8  1  0.72185731  0.79469317  0.00000000  1
  O  O9  1  0.27814269  0.20530683  0.00000000  1
