# generated using pymatgen
data_K2PtO6
_symmetry_space_group_name_H-M   'P 1'
_cell_length_a   4.94555979
_cell_length_b   4.94555942
_cell_length_c   4.94555971
_cell_angle_alpha   83.33584586
_cell_angle_beta   83.33584834
_cell_angle_gamma   83.33584970
_symmetry_Int_Tables_number   1
_chemical_formula_structural   K2PtO6
_chemical_formula_sum   'K2 Pt1 O6'
_cell_volume   118.68534718
_cell_formula_units_Z   1
loop_
 _symmetry_equiv_pos_site_id
 _symmetry_equiv_pos_as_xyz
  1  'x, y, z'
loop_
 _atom_site_type_symbol
 _atom_site_label
 _atom_site_symmetry_multiplicity
 _atom_site_fract_x
 _atom_site_fract_y
 _atom_site_fract_z
 _atom_site_occupancy
  K  K0  1  0.65135687  0.65135687  0.65135687  1
  K  K1  1  0.34864313  0.34864313  0.34864313  1
  Pt  Pt2  1  -0.00000000  -0.00000000  0.00000000  1
  O  O3  1  0.92611046  0.09881734  0.59334942  1
  O  O4  1  0.59334942  0.92611046  0.09881734  1
  O  O5  1  0.09881734  0.59334942  0.92611046  1
  O  O6  1  0.07388954  0.90118266  0.40665058  1
  O  O7  1  0.40665058  0.07388954  0.90118266  1
  O  O8  1  0.90118266  0.40665058  0.07388954  1
