# generated using pymatgen
data_Cs3Li2Br5
_symmetry_space_group_name_H-M   'P 1'
_cell_length_a   4.46403248
_cell_length_b   6.23721494
_cell_length_c   13.46350404
_cell_angle_alpha   103.33197598
_cell_angle_beta   99.45818727
_cell_angle_gamma   90.35988881
_symmetry_Int_Tables_number   1
_chemical_formula_structural   Cs3Li2Br5
_chemical_formula_sum   'Cs3 Li2 Br5'
_cell_volume   359.42364568
_cell_formula_units_Z   1
loop_
 _symmetry_equiv_pos_site_id
 _symmetry_equiv_pos_as_xyz
  1  'x, y, z'
loop_
 _atom_site_type_symbol
 _atom_site_label
 _atom_site_symmetry_multiplicity
 _atom_site_fract_x
 _atom_site_fract_y
 _atom_site_fract_z
 _atom_site_occupancy
  Cs  Cs0  1  0.87433289  0.59907091  0.24541547  1
  Cs  Cs1  1  0.62891742  0.35365543  0.75458453  1
  Cs  Cs2  1  0.77510530  0.97016319  0.00000000  1
  Li  Li3  1  0.03100175  0.79645946  0.56799067  1
  Li  Li4  1  0.46301107  0.22846878  0.43200933  1
  Br  Br5  1  0.27140598  0.46876193  1.00000000  1
  Br  Br6  1  0.00768560  0.17689440  0.52423443  1
  Br  Br7  1  0.48345117  0.65265998  0.47576557  1
  Br  Br8  1  0.13731652  0.84817507  0.76218421  1
  Br  Br9  1  0.37513231  0.08599085  0.23781579  1
