# generated using pymatgen
data_TeH21C7(NCl2)3
_symmetry_space_group_name_H-M   'P 1'
_cell_length_a   9.15764337
_cell_length_b   14.01247705
_cell_length_c   17.07152049
_cell_angle_alpha   112.14211277
_cell_angle_beta   90.00000000
_cell_angle_gamma   90.00000000
_symmetry_Int_Tables_number   1
_chemical_formula_structural   TeH21C7(NCl2)3
_chemical_formula_sum   'Te4 H84 C28 N12 Cl24'
_cell_volume   2029.08357214
_cell_formula_units_Z   4
loop_
 _symmetry_equiv_pos_site_id
 _symmetry_equiv_pos_as_xyz
  1  'x, y, z'
loop_
 _atom_site_type_symbol
 _atom_site_label
 _atom_site_symmetry_multiplicity
 _atom_site_fract_x
 _atom_site_fract_y
 _atom_site_fract_z
 _atom_site_occupancy
  Te  Te0  1  0.70943167  0.25733447  0.47905392  1
  Te  Te1  1  0.79056833  0.75733447  0.97905392  1
  Te  Te2  1  0.20943167  0.24266553  0.02094608  1
  Te  Te3  1  0.29056833  0.74266553  0.52094608  1
  H  H4  1  0.07005258  0.58524315  0.14095323  1
  H  H5  1  0.63136582  0.82416391  0.25956178  1
  H  H6  1  0.57005258  0.91475685  0.35904677  1
  H  H7  1  0.42663810  0.86501384  0.87830711  1
  H  H8  1  0.18812389  0.27011780  0.39464632  1
  H  H9  1  0.26218196  0.49644170  0.70702164  1
  H  H10  1  0.62970386  0.03109565  0.72709197  1
  H  H11  1  0.96105400  0.07975124  0.67348533  1
  H  H12  1  0.42994742  0.08524315  0.64095323  1
  H  H13  1  0.63293396  0.71570907  0.71294072  1
  H  H14  1  0.24290630  0.56972507  0.18305941  1
  H  H15  1  0.76755129  0.35200535  0.99906661  1
  H  H16  1  0.57336190  0.13498616  0.12169289  1
  H  H17  1  0.11738843  0.89466664  0.93481337  1
  H  H18  1  0.73665129  0.45669121  0.96656849  1
  H  H19  1  0.90663289  0.86673212  0.45693626  1
  H  H20  1  0.24756942  0.87913293  0.77042330  1
  H  H21  1  0.32975556  0.81530093  0.12732871  1
  H  H22  1  0.76334871  0.95669121  0.46656849  1
  H  H23  1  0.80490918  0.98427315  0.68645878  1
  H  H24  1  0.13293396  0.78429093  0.78705928  1
  H  H25  1  0.61738843  0.60533336  0.56518663  1
  H  H26  1  0.23781804  0.99644170  0.20702164  1
  H  H27  1  0.53033635  0.33294399  0.72745446  1
  H  H28  1  0.36706604  0.28429093  0.28705928  1
  H  H29  1  0.43058594  0.28711443  0.79673004  1
  H  H30  1  0.38261157  0.39466664  0.43481337  1
  H  H31  1  0.03033635  0.16705601  0.77254554  1
  H  H32  1  0.43910719  0.40937552  0.30305148  1
  H  H33  1  0.59336711  0.36673212  0.95693626  1
  H  H34  1  0.25709370  0.06972507  0.68305941  1
  H  H35  1  0.07336190  0.36501384  0.37830711  1
  H  H36  1  0.46966365  0.66705601  0.27254554  1
  H  H37  1  0.56089281  0.59062448  0.69694852  1
  H  H38  1  0.92663810  0.63498616  0.62169289  1
  H  H39  1  0.75243058  0.12086707  0.22957670  1
  H  H40  1  0.86706604  0.21570907  0.21294072  1
  H  H41  1  0.82975556  0.68469907  0.37267129  1
  H  H42  1  0.25243058  0.37913293  0.27042330  1
  H  H43  1  0.23244871  0.64799465  0.00093339  1
  H  H44  1  0.30490918  0.51572685  0.81354122  1
  H  H45  1  0.26755129  0.14799465  0.50093339  1
  H  H46  1  0.85946945  0.61406551  0.51788373  1
  H  H47  1  0.37029614  0.96890435  0.27290803  1
  H  H48  1  0.93058594  0.21288557  0.70326996  1
  H  H49  1  0.13136582  0.67583609  0.24043822  1
  H  H50  1  0.88261157  0.10533336  0.06518663  1
  H  H51  1  0.92994742  0.41475685  0.85904677  1
  H  H52  1  0.73244871  0.85200535  0.49906661  1
  H  H53  1  0.40663289  0.63326788  0.04306374  1
  H  H54  1  0.06941406  0.78711443  0.29673004  1
  H  H55  1  0.87029614  0.53109565  0.22709197  1
  H  H56  1  0.46105400  0.42024876  0.82651467  1
  H  H57  1  0.69509082  0.48427315  0.18645878  1
  H  H58  1  0.06089281  0.90937552  0.80305148  1
  H  H59  1  0.23665129  0.04330879  0.53343151  1
  H  H60  1  0.35946945  0.88593449  0.98211627  1
  H  H61  1  0.64053055  0.11406551  0.01788373  1
  H  H62  1  0.31187611  0.77011780  0.89464632  1
  H  H63  1  0.86863418  0.32416391  0.75956178  1
  H  H64  1  0.73781804  0.50355830  0.29297836  1
  H  H65  1  0.67024444  0.18469907  0.87267129  1
  H  H66  1  0.26334871  0.54330879  0.03343151  1
  H  H67  1  0.53894600  0.57975124  0.17348533  1
  H  H68  1  0.14053055  0.38593449  0.48211627  1
  H  H69  1  0.19509082  0.01572685  0.31354122  1
  H  H70  1  0.17024444  0.31530093  0.62732871  1
  H  H71  1  0.75709370  0.43027493  0.81694059  1
  H  H72  1  0.12970386  0.46890435  0.77290803  1
  H  H73  1  0.96966365  0.83294399  0.22745446  1
  H  H74  1  0.09336711  0.13326788  0.54306374  1
  H  H75  1  0.03894600  0.92024876  0.32651467  1
  H  H76  1  0.22451537  0.98298976  0.91852841  1
  H  H77  1  0.81187611  0.72988220  0.60535368  1
  H  H78  1  0.36863418  0.17583609  0.74043822  1
  H  H79  1  0.27548463  0.48298976  0.41852841  1
  H  H80  1  0.74290630  0.93027493  0.31694059  1
  H  H81  1  0.76218196  0.00355830  0.79297836  1
  H  H82  1  0.77548463  0.01701024  0.08147159  1
  H  H83  1  0.56941406  0.71288557  0.20326996  1
  H  H84  1  0.68812389  0.22988220  0.10535368  1
  H  H85  1  0.74756942  0.62086707  0.72957670  1
  H  H86  1  0.93910719  0.09062448  0.19694852  1
  H  H87  1  0.72451537  0.51701024  0.58147159  1
  C  C88  1  0.33505657  0.12622909  0.67728256  1
  C  C89  1  0.93951479  0.15126343  0.72726541  1
  C  C90  1  0.71175825  0.37536170  0.95230159  1
  C  C91  1  0.83505657  0.37377091  0.82271744  1
  C  C92  1  0.25409369  0.96617804  0.25711108  1
  C  C93  1  0.06048521  0.84873657  0.27273459  1
  C  C94  1  0.84202391  0.13353830  0.19213710  1
  C  C95  1  0.75409369  0.53382196  0.24288892  1
  C  C96  1  0.34202391  0.36646170  0.30786290  1
  C  C97  1  0.25405068  0.78735660  0.16375462  1
  C  C98  1  0.74590631  0.03382196  0.74288892  1
  C  C99  1  0.65797609  0.63353830  0.69213710  1
  C  C100  1  0.83484474  0.64752130  0.58559715  1
  C  C101  1  0.33484474  0.85247870  0.91440285  1
  C  C102  1  0.56048521  0.65126343  0.22726541  1
  C  C103  1  0.78824175  0.87536170  0.45230159  1
  C  C104  1  0.75405068  0.71264340  0.33624538  1
  C  C105  1  0.16494343  0.62622909  0.17728256  1
  C  C106  1  0.43951479  0.34873657  0.77273459  1
  C  C107  1  0.16515526  0.35247870  0.41440285  1
  C  C108  1  0.66515526  0.14752130  0.08559715  1
  C  C109  1  0.24590631  0.46617804  0.75711108  1
  C  C110  1  0.15797609  0.86646170  0.80786290  1
  C  C111  1  0.28824175  0.62463830  0.04769841  1
  C  C112  1  0.21175825  0.12463830  0.54769841  1
  C  C113  1  0.24594932  0.28735660  0.66375462  1
  C  C114  1  0.74594932  0.21264340  0.83624538  1
  C  C115  1  0.66494343  0.87377091  0.32271744  1
  N  N116  1  0.20284707  0.90474693  0.89849022  1
  N  N117  1  0.26515172  0.18630216  0.63377161  1
  N  N118  1  0.30363172  0.36054238  0.73198581  1
  N  N119  1  0.76515172  0.31369784  0.86622839  1
  N  N120  1  0.29715293  0.40474693  0.39849022  1
  N  N121  1  0.23484828  0.68630216  0.13377161  1
  N  N122  1  0.19636828  0.86054238  0.23198581  1
  N  N123  1  0.73484828  0.81369784  0.36622839  1
  N  N124  1  0.69636828  0.63945762  0.26801419  1
  N  N125  1  0.80363172  0.13945762  0.76801419  1
  N  N126  1  0.70284707  0.59525307  0.60150978  1
  N  N127  1  0.79715293  0.09525307  0.10150978  1
  Cl  Cl128  1  0.75247191  0.87542460  0.89516549  1
  Cl  Cl129  1  0.25247191  0.62457540  0.60483451  1
  Cl  Cl130  1  0.74752809  0.37542460  0.39516549  1
  Cl  Cl131  1  0.60805157  0.87557030  0.09742854  1
  Cl  Cl132  1  0.00722431  0.87900653  0.05805669  1
  Cl  Cl133  1  0.83702270  0.64594579  0.06629966  1
  Cl  Cl134  1  0.10805157  0.62442970  0.40257146  1
  Cl  Cl135  1  0.16297730  0.35405421  0.93370034  1
  Cl  Cl136  1  0.99277569  0.12099347  0.94194331  1
  Cl  Cl137  1  0.52714920  0.15312297  0.36824771  1
  Cl  Cl138  1  0.08398834  0.86294114  0.60087844  1
  Cl  Cl139  1  0.39194843  0.12442970  0.90257146  1
  Cl  Cl140  1  0.49277569  0.37900653  0.55805669  1
  Cl  Cl141  1  0.24752809  0.12457540  0.10483451  1
  Cl  Cl142  1  0.41601166  0.36294114  0.10087844  1
  Cl  Cl143  1  0.33702270  0.85405421  0.43370034  1
  Cl  Cl144  1  0.97285080  0.65312297  0.86824771  1
  Cl  Cl145  1  0.66297730  0.14594579  0.56629966  1
  Cl  Cl146  1  0.50722431  0.62099347  0.44194331  1
  Cl  Cl147  1  0.58398834  0.63705886  0.89912156  1
  Cl  Cl148  1  0.91601166  0.13705886  0.39912156  1
  Cl  Cl149  1  0.89194843  0.37557030  0.59742854  1
  Cl  Cl150  1  0.02714920  0.34687703  0.13175229  1
  Cl  Cl151  1  0.47285080  0.84687703  0.63175229  1
