# generated using pymatgen
data_UAlPt
_symmetry_space_group_name_H-M   'P 1'
_cell_length_a   4.17334109
_cell_length_b   6.97100715
_cell_length_c   6.97254581
_cell_angle_alpha   119.99269763
_cell_angle_beta   90.00000000
_cell_angle_gamma   90.00000000
_symmetry_Int_Tables_number   1
_chemical_formula_structural   UAlPt
_chemical_formula_sum   'U3 Al3 Pt3'
_cell_volume   175.68446884
_cell_formula_units_Z   3
loop_
 _symmetry_equiv_pos_site_id
 _symmetry_equiv_pos_as_xyz
  1  'x, y, z'
loop_
 _atom_site_type_symbol
 _atom_site_label
 _atom_site_symmetry_multiplicity
 _atom_site_fract_x
 _atom_site_fract_y
 _atom_site_fract_z
 _atom_site_occupancy
  U  U0  1  0.50000000  0.57501813  0.00000000  1
  U  U1  1  0.50000000  0.42566457  0.42541744  1
  U  U2  1  0.50000000  0.00024712  0.57458256  1
  Al  Al3  1  0.00000000  0.23776985  0.00000000  1
  Al  Al4  1  0.00000000  0.76241929  0.76249398  1
  Al  Al5  1  0.00000000  0.99992531  0.23750602  1
  Pt  Pt6  1  0.00000000  0.33272162  0.66648115  1
  Pt  Pt7  1  0.00000000  0.66624047  0.33351885  1
  Pt  Pt8  1  0.50000000  0.99989364  1.00000000  1
