# generated using pymatgen
data_SrMg2
_symmetry_space_group_name_H-M   'P 1'
_cell_length_a   6.35829780
_cell_length_b   6.35829780
_cell_length_c   16.13239151
_cell_angle_alpha   90.00000000
_cell_angle_beta   90.00000000
_cell_angle_gamma   120.00000000
_symmetry_Int_Tables_number   1
_chemical_formula_structural   SrMg2
_chemical_formula_sum   'Sr6 Mg12'
_cell_volume   564.82136316
_cell_formula_units_Z   6
loop_
 _symmetry_equiv_pos_site_id
 _symmetry_equiv_pos_as_xyz
  1  'x, y, z'
loop_
 _atom_site_type_symbol
 _atom_site_label
 _atom_site_symmetry_multiplicity
 _atom_site_fract_x
 _atom_site_fract_y
 _atom_site_fract_z
 _atom_site_occupancy
  Sr  Sr0  1  -0.00000000  0.00000000  0.12473726  1
  Sr  Sr1  1  0.66666700  0.33333300  0.20859674  1
  Sr  Sr2  1  0.66666700  0.33333300  0.45807026  1
  Sr  Sr3  1  0.33333300  0.66666700  0.54192974  1
  Sr  Sr4  1  0.33333300  0.66666700  0.79140326  1
  Sr  Sr5  1  -0.00000000  -0.00000000  0.87526274  1
  Mg  Mg6  1  0.49797724  0.49797724  -0.00000000  1
  Mg  Mg7  1  1.00000000  0.50202276  0.00000000  1
  Mg  Mg8  1  0.33333300  0.66666700  0.16666700  1
  Mg  Mg9  1  0.50202276  -0.00000000  -0.00000000  1
  Mg  Mg10  1  0.16464324  0.83131024  0.33333300  1
  Mg  Mg11  1  0.66666700  0.83535676  0.33333300  1
  Mg  Mg12  1  -0.00000000  -0.00000000  0.50000000  1
  Mg  Mg13  1  0.16868976  0.33333300  0.33333300  1
  Mg  Mg14  1  0.83131024  0.16464324  0.66666700  1
  Mg  Mg15  1  0.33333300  0.16868976  0.66666700  1
  Mg  Mg16  1  0.66666700  0.33333300  0.83333300  1
  Mg  Mg17  1  0.83535676  0.66666700  0.66666700  1
