# generated using pymatgen
data_KUClO3
_symmetry_space_group_name_H-M   'P 1'
_cell_length_a   4.11668708
_cell_length_b   7.25846312
_cell_length_c   8.95767197
_cell_angle_alpha   104.79392130
_cell_angle_beta   90.00000000
_cell_angle_gamma   90.00000000
_symmetry_Int_Tables_number   1
_chemical_formula_structural   KUClO3
_chemical_formula_sum   'K2 U2 Cl2 O6'
_cell_volume   258.78971041
_cell_formula_units_Z   2
loop_
 _symmetry_equiv_pos_site_id
 _symmetry_equiv_pos_as_xyz
  1  'x, y, z'
loop_
 _atom_site_type_symbol
 _atom_site_label
 _atom_site_symmetry_multiplicity
 _atom_site_fract_x
 _atom_site_fract_y
 _atom_site_fract_z
 _atom_site_occupancy
  K  K0  1  0.75000000  0.85941190  0.24471518  1
  K  K1  1  0.25000000  0.14058810  0.75528482  1
  U  U2  1  0.75000000  0.61283677  0.67269246  1
  U  U3  1  0.25000000  0.38716323  0.32730754  1
  Cl  Cl4  1  0.75000000  0.22978870  0.08974362  1
  Cl  Cl5  1  0.25000000  0.77021130  0.91025638  1
  O  O6  1  0.75000000  0.45159386  0.41651795  1
  O  O7  1  0.25000000  0.54840614  0.58348205  1
  O  O8  1  0.75000000  0.84849512  0.62809317  1
  O  O9  1  0.25000000  0.15150488  0.37190683  1
  O  O10  1  0.75000000  0.38933930  0.73579167  1
  O  O11  1  0.25000000  0.61066070  0.26420833  1
