# generated using pymatgen
data_H8C3SeN2
_symmetry_space_group_name_H-M   'P 1'
_cell_length_a   6.35070421
_cell_length_b   12.09054573
_cell_length_c   15.33659153
_cell_angle_alpha   90.00000000
_cell_angle_beta   90.00000000
_cell_angle_gamma   90.00000000
_symmetry_Int_Tables_number   1
_chemical_formula_structural   H8C3SeN2
_chemical_formula_sum   'H64 C24 Se8 N16'
_cell_volume   1177.59686393
_cell_formula_units_Z   8
loop_
 _symmetry_equiv_pos_site_id
 _symmetry_equiv_pos_as_xyz
  1  'x, y, z'
loop_
 _atom_site_type_symbol
 _atom_site_label
 _atom_site_symmetry_multiplicity
 _atom_site_fract_x
 _atom_site_fract_y
 _atom_site_fract_z
 _atom_site_occupancy
  H  H0  1  0.20025296  0.55433717  0.89056279  1
  H  H1  1  0.77835123  0.47387569  0.70074957  1
  H  H2  1  0.27835123  0.47387569  0.79925043  1
  H  H3  1  0.57696586  0.57395356  0.71387127  1
  H  H4  1  0.13290306  0.11639083  0.59108273  1
  H  H5  1  0.92499352  0.25550781  0.84587019  1
  H  H6  1  0.65188473  0.56511441  0.96585110  1
  H  H7  1  0.80355483  0.71226022  0.13742959  1
  H  H8  1  0.92120113  0.80891478  0.74326626  1
  H  H9  1  0.77835123  0.02612431  0.20074957  1
  H  H10  1  0.42303414  0.07395356  0.78612873  1
  H  H11  1  0.79974704  0.05433717  0.60943721  1
  H  H12  1  0.57500648  0.75550781  0.84587019  1
  H  H13  1  0.36709694  0.61639083  0.59108273  1
  H  H14  1  0.57879887  0.30891478  0.74326626  1
  H  H15  1  0.29974704  0.44566283  0.39056279  1
  H  H16  1  0.15188473  0.56511441  0.53414890  1
  H  H17  1  0.79974704  0.44566283  0.10943721  1
  H  H18  1  0.22164877  0.97387569  0.79925043  1
  H  H19  1  0.42120113  0.80891478  0.75673374  1
  H  H20  1  0.92303414  0.07395356  0.71387127  1
  H  H21  1  0.63290306  0.38360917  0.40891727  1
  H  H22  1  0.72164877  0.97387569  0.70074957  1
  H  H23  1  0.69644517  0.28773978  0.63742959  1
  H  H24  1  0.92303414  0.42604644  0.21387127  1
  H  H25  1  0.86709694  0.61639083  0.90891727  1
  H  H26  1  0.13290306  0.38360917  0.09108273  1
  H  H27  1  0.34811527  0.43488559  0.03414890  1
  H  H28  1  0.07500648  0.75550781  0.65412981  1
  H  H29  1  0.07879887  0.30891478  0.75673374  1
  H  H30  1  0.42499352  0.25550781  0.65412981  1
  H  H31  1  0.42499352  0.24449219  0.15412981  1
  H  H32  1  0.42120113  0.69108522  0.25673374  1
  H  H33  1  0.86709694  0.88360917  0.40891727  1
  H  H34  1  0.07696586  0.92604644  0.28612873  1
  H  H35  1  0.27835123  0.02612431  0.29925043  1
  H  H36  1  0.92120113  0.69108522  0.24326626  1
  H  H37  1  0.20025296  0.94566283  0.39056279  1
  H  H38  1  0.84811527  0.06511441  0.96585110  1
  H  H39  1  0.30355483  0.78773978  0.86257041  1
  H  H40  1  0.57879887  0.19108522  0.24326626  1
  H  H41  1  0.57500648  0.74449219  0.34587019  1
  H  H42  1  0.65188473  0.93488559  0.46585110  1
  H  H43  1  0.70025296  0.94566283  0.10943721  1
  H  H44  1  0.57696586  0.92604644  0.21387127  1
  H  H45  1  0.69644517  0.21226022  0.13742959  1
  H  H46  1  0.22164877  0.52612431  0.29925043  1
  H  H47  1  0.19644517  0.28773978  0.86257041  1
  H  H48  1  0.29974704  0.05433717  0.89056279  1
  H  H49  1  0.72164877  0.52612431  0.20074957  1
  H  H50  1  0.07500648  0.74449219  0.15412981  1
  H  H51  1  0.07879887  0.19108522  0.25673374  1
  H  H52  1  0.19644517  0.21226022  0.36257041  1
  H  H53  1  0.07696586  0.57395356  0.78612873  1
  H  H54  1  0.70025296  0.55433717  0.60943721  1
  H  H55  1  0.42303414  0.42604644  0.28612873  1
  H  H56  1  0.92499352  0.24449219  0.34587019  1
  H  H57  1  0.63290306  0.11639083  0.90891727  1
  H  H58  1  0.15188473  0.93488559  0.03414890  1
  H  H59  1  0.84811527  0.43488559  0.46585110  1
  H  H60  1  0.36709694  0.88360917  0.09108273  1
  H  H61  1  0.34811527  0.06511441  0.53414890  1
  H  H62  1  0.80355483  0.78773978  0.63742959  1
  H  H63  1  0.30355483  0.71226022  0.36257041  1
  C  C64  1  0.64296342  0.98779895  0.16858593  1
  C  C65  1  0.82065742  0.05485876  0.40241234  1
  C  C66  1  0.44792557  0.68774909  0.32772913  1
  C  C67  1  0.67934258  0.94514124  0.90241234  1
  C  C68  1  0.14296342  0.51220105  0.83141407  1
  C  C69  1  0.85703658  0.01220105  0.66858593  1
  C  C70  1  0.32065742  0.05485876  0.09758766  1
  C  C71  1  0.35703658  0.01220105  0.83141407  1
  C  C72  1  0.64296342  0.51220105  0.66858593  1
  C  C73  1  0.85703658  0.48779895  0.16858593  1
  C  C74  1  0.55207443  0.31225091  0.67227087  1
  C  C75  1  0.67934258  0.55485876  0.40241234  1
  C  C76  1  0.94792557  0.68774909  0.17227087  1
  C  C77  1  0.44792557  0.81225091  0.82772913  1
  C  C78  1  0.17934258  0.55485876  0.09758766  1
  C  C79  1  0.35703658  0.48779895  0.33141407  1
  C  C80  1  0.05207443  0.18774909  0.32772913  1
  C  C81  1  0.55207443  0.18774909  0.17227087  1
  C  C82  1  0.32065742  0.44514124  0.59758766  1
  C  C83  1  0.17934258  0.94514124  0.59758766  1
  C  C84  1  0.14296342  0.98779895  0.33141407  1
  C  C85  1  0.94792557  0.81225091  0.67227087  1
  C  C86  1  0.05207443  0.31225091  0.82772913  1
  C  C87  1  0.82065742  0.44514124  0.90241234  1
  Se  Se88  1  0.36760660  0.83632039  0.55619196  1
  Se  Se89  1  0.63239340  0.16367961  0.44380804  1
  Se  Se90  1  0.13239340  0.33632039  0.55619196  1
  Se  Se91  1  0.86760660  0.83632039  0.94380804  1
  Se  Se92  1  0.63239340  0.33632039  0.94380804  1
  Se  Se93  1  0.13239340  0.16367961  0.05619196  1
  Se  Se94  1  0.86760660  0.66367961  0.44380804  1
  Se  Se95  1  0.36760660  0.66367961  0.05619196  1
  N  N96  1  0.77711669  0.95020678  0.42487148  1
  N  N97  1  0.00794425  0.57559759  0.14704845  1
  N  N98  1  0.49205575  0.42440241  0.64704845  1
  N  N99  1  0.99205575  0.42440241  0.85295155  1
  N  N100  1  0.27711669  0.95020678  0.07512852  1
  N  N101  1  0.99205575  0.07559759  0.35295155  1
  N  N102  1  0.00794425  0.92440241  0.64704845  1
  N  N103  1  0.27711669  0.54979322  0.57512852  1
  N  N104  1  0.50794425  0.92440241  0.85295155  1
  N  N105  1  0.72288331  0.04979322  0.92487148  1
  N  N106  1  0.72288331  0.45020678  0.42487148  1
  N  N107  1  0.50794425  0.57559759  0.35295155  1
  N  N108  1  0.22288331  0.45020678  0.07512852  1
  N  N109  1  0.77711669  0.54979322  0.92487148  1
  N  N110  1  0.49205575  0.07559759  0.14704845  1
  N  N111  1  0.22288331  0.04979322  0.57512852  1
