# generated using pymatgen
data_Cr3PN
_symmetry_space_group_name_H-M   'P 1'
_cell_length_a   3.16538303
_cell_length_b   4.95384140
_cell_length_c   7.10510696
_cell_angle_alpha   90.00000000
_cell_angle_beta   90.00000000
_cell_angle_gamma   108.63194270
_symmetry_Int_Tables_number   1
_chemical_formula_structural   Cr3PN
_chemical_formula_sum   'Cr6 P2 N2'
_cell_volume   105.57465212
_cell_formula_units_Z   2
loop_
 _symmetry_equiv_pos_site_id
 _symmetry_equiv_pos_as_xyz
  1  'x, y, z'
loop_
 _atom_site_type_symbol
 _atom_site_label
 _atom_site_symmetry_multiplicity
 _atom_site_fract_x
 _atom_site_fract_y
 _atom_site_fract_z
 _atom_site_occupancy
  Cr  Cr0  1  0.06029701  0.12059403  0.25000000  1
  Cr  Cr1  1  0.93970299  0.87940597  0.75000000  1
  Cr  Cr2  1  0.37315370  0.74630741  0.44959069  1
  Cr  Cr3  1  0.62684630  0.25369259  0.55040931  1
  Cr  Cr4  1  0.37315370  0.74630741  0.05040931  1
  Cr  Cr5  1  0.62684630  0.25369259  0.94959069  1
  P  P6  1  0.74776629  0.49553258  0.25000000  1
  P  P7  1  0.25223371  0.50446742  0.75000000  1
  N  N8  1  0.00000000  0.00000000  0.50000000  1
  N  N9  1  0.00000000  0.00000000  -0.00000000  1
