# generated using pymatgen
data_Li20Si3P3S23Cl
_symmetry_space_group_name_H-M   'P 1'
_cell_length_a   8.89822324
_cell_length_b   8.77198932
_cell_length_c   12.79265423
_cell_angle_alpha   90.00000000
_cell_angle_beta   90.15671448
_cell_angle_gamma   90.00000000
_symmetry_Int_Tables_number   1
_chemical_formula_structural   Li20Si3P3S23Cl
_chemical_formula_sum   'Li20 Si3 P3 S23 Cl1'
_cell_volume   998.52841591
_cell_formula_units_Z   1
loop_
 _symmetry_equiv_pos_site_id
 _symmetry_equiv_pos_as_xyz
  1  'x, y, z'
loop_
 _atom_site_type_symbol
 _atom_site_label
 _atom_site_symmetry_multiplicity
 _atom_site_fract_x
 _atom_site_fract_y
 _atom_site_fract_z
 _atom_site_occupancy
  Li  Li0  1  0.24312088  0.76230489  0.30965100  1
  Li  Li1  1  0.84242938  0.21836630  0.26092479  1
  Li  Li2  1  0.22641810  0.18066884  0.76648219  1
  Li  Li3  1  0.74026369  0.77850229  0.77230279  1
  Li  Li4  1  0.24312088  0.23769511  0.30965100  1
  Li  Li5  1  0.84242938  0.78163370  0.26092479  1
  Li  Li6  1  0.22641810  0.81933116  0.76648219  1
  Li  Li7  1  0.74026369  0.22149771  0.77230279  1
  Li  Li8  1  0.00143607  0.50000000  0.93692460  1
  Li  Li9  1  0.00033473  0.50000000  0.44132993  1
  Li  Li10  1  0.49166050  0.00000000  0.58058043  1
  Li  Li11  1  0.51198606  0.00000000  0.05624432  1
  Li  Li12  1  0.26134003  0.25985304  0.00757762  1
  Li  Li13  1  0.73840685  0.73736809  0.01083272  1
  Li  Li14  1  0.24881119  0.76028762  0.53477975  1
  Li  Li15  1  0.74824008  0.24344178  0.51154508  1
  Li  Li16  1  0.24881119  0.23971238  0.53477975  1
  Li  Li17  1  0.74824008  0.75655822  0.51154508  1
  Li  Li18  1  0.26134003  0.74014696  0.00757762  1
  Li  Li19  1  0.73840685  0.26263191  0.01083272  1
  Si  Si20  1  0.49424190  0.00000000  0.81708668  1
  Si  Si21  1  0.51083222  0.00000000  0.33495021  1
  Si  Si22  1  0.99493376  0.00000000  0.51311731  1
  P  P23  1  0.99571256  0.50000000  0.68773010  1
  P  P24  1  0.00277836  0.50000000  0.18398264  1
  P  P25  1  0.49516244  0.50000000  0.00470844  1
  S  S26  1  0.00903695  0.20022815  0.41681467  1
  S  S27  1  0.00903695  0.79977185  0.41681467  1
  S  S28  1  0.30584073  0.50000000  0.91267125  1
  S  S29  1  0.68561203  0.50000000  0.91172791  1
  S  S30  1  0.50036589  0.69160284  0.09782522  1
  S  S31  1  0.50036589  0.30839816  0.09782522  1
  S  S32  1  0.18599483  0.00000000  0.61414035  1
  S  S33  1  0.79253948  0.00000000  0.59915300  1
  S  S34  1  0.99913375  0.30148496  0.09407893  1
  S  S35  1  0.99913375  0.69851504  0.09407893  1
  S  S36  1  0.18930895  0.50000000  0.60003896  1
  S  S37  1  0.80389145  0.50000000  0.59611604  1
  S  S38  1  0.48322875  0.79628598  0.41941464  1
  S  S39  1  0.48322875  0.20371402  0.41941464  1
  S  S40  1  0.29411387  0.00000000  0.91681665  1
  S  S41  1  0.70007520  0.00000000  0.90981529  1
  S  S42  1  0.99317847  0.68760431  0.78453147  1
  S  S43  1  0.99317847  0.31239569  0.78453147  1
  S  S44  1  0.81501533  0.50000000  0.27448109  1
  S  S45  1  0.19765329  0.50000000  0.26854419  1
  S  S46  1  0.48632228  0.20027040  0.72444231  1
  S  S47  1  0.48632228  0.79972960  0.72444231  1
  S  S48  1  0.68481914  0.00000000  0.22475014  1
  Cl  Cl49  1  0.30546450  0.00000000  0.22710212  1
