# generated using pymatgen
data_Li9Mn7O16
_symmetry_space_group_name_H-M   'P 1'
_cell_length_a   5.07764675
_cell_length_b   5.10797852
_cell_length_c   12.09440569
_cell_angle_alpha   102.73322965
_cell_angle_beta   93.84495795
_cell_angle_gamma   100.91232615
_symmetry_Int_Tables_number   1
_chemical_formula_structural   Li9Mn7O16
_chemical_formula_sum   'Li9 Mn7 O16'
_cell_volume   298.49541450
_cell_formula_units_Z   1
loop_
 _symmetry_equiv_pos_site_id
 _symmetry_equiv_pos_as_xyz
  1  'x, y, z'
loop_
 _atom_site_type_symbol
 _atom_site_label
 _atom_site_symmetry_multiplicity
 _atom_site_fract_x
 _atom_site_fract_y
 _atom_site_fract_z
 _atom_site_occupancy
  Li  Li0  1  0.74811015  0.49428822  0.05688461  1
  Li  Li1  1  0.74374527  0.51327603  0.32063225  1
  Li  Li2  1  0.25874681  0.48632178  0.17785940  1
  Li  Li3  1  0.25625473  0.48672397  0.42936775  1
  Li  Li4  1  0.74125319  0.51367822  0.57214060  1
  Li  Li5  1  0.73159985  0.51080523  0.82016748  1
  Li  Li6  1  0.26840015  0.48919477  0.92983252  1
  Li  Li7  1  0.25188985  0.50571178  0.69311539  1
  Li  Li8  1  0.50000000  0.00000000  0.87500000  1
  Mn  Mn9  1  0.00318501  0.98508059  0.99141029  1
  Mn  Mn10  1  0.99681499  0.01491941  0.75858971  1
  Mn  Mn11  1  0.00656986  0.99265997  0.24498417  1
  Mn  Mn12  1  0.99343014  0.00734003  0.50501583  1
  Mn  Mn13  1  0.50000000  0.00000000  0.37500000  1
  Mn  Mn14  1  0.49161130  0.01661288  0.63764267  1
  Mn  Mn15  1  0.50838870  0.98338712  0.11235733  1
  O  O16  1  0.89645008  0.21445011  0.89775222  1
  O  O17  1  0.88650921  0.20089443  0.13649883  1
  O  O18  1  0.36680891  0.22240602  0.03404634  1
  O  O19  1  0.36585322  0.23036081  0.28536731  1
  O  O20  1  0.86448723  0.23375238  0.40932952  1
  O  O21  1  0.85694128  0.23877002  0.66564248  1
  O  O22  1  0.34370929  0.24569545  0.78340650  1
  O  O23  1  0.35556789  0.23474491  0.53787060  1
  O  O24  1  0.64443211  0.76525509  0.21212940  1
  O  O25  1  0.63414678  0.76963919  0.46463269  1
  O  O26  1  0.13551277  0.76624762  0.34067048  1
  O  O27  1  0.11349079  0.79910557  0.61350217  1
  O  O28  1  0.63319109  0.77759398  0.71595466  1
  O  O29  1  0.65629071  0.75430455  0.96659350  1
  O  O30  1  0.14305872  0.76122998  0.08435752  1
  O  O31  1  0.10354992  0.78554989  0.85224778  1
