# generated using pymatgen
data_BaSr7Ti5Mn3O24
_symmetry_space_group_name_H-M   'P 1'
_cell_length_a   7.83195518
_cell_length_b   7.88341121
_cell_length_c   7.88341121
_cell_angle_alpha   90.00928041
_cell_angle_beta   90.01661136
_cell_angle_gamma   89.98338864
_symmetry_Int_Tables_number   1
_chemical_formula_structural   BaSr7Ti5Mn3O24
_chemical_formula_sum   'Ba1 Sr7 Ti5 Mn3 O24'
_cell_volume   486.74165223
_cell_formula_units_Z   1
loop_
 _symmetry_equiv_pos_site_id
 _symmetry_equiv_pos_as_xyz
  1  'x, y, z'
loop_
 _atom_site_type_symbol
 _atom_site_label
 _atom_site_symmetry_multiplicity
 _atom_site_fract_x
 _atom_site_fract_y
 _atom_site_fract_z
 _atom_site_occupancy
  Ba  Ba0  1  0.24637360  0.75123458  0.24876542  1
  Sr  Sr1  1  0.24508204  0.24850561  0.24823026  1
  Sr  Sr2  1  0.24512354  0.24825254  0.75174746  1
  Sr  Sr3  1  0.24508204  0.75176974  0.75149439  1
  Sr  Sr4  1  0.75483402  0.24834189  0.24829702  1
  Sr  Sr5  1  0.75509482  0.24819957  0.75180043  1
  Sr  Sr6  1  0.75438504  0.75168139  0.24831861  1
  Sr  Sr7  1  0.75483402  0.75170298  0.75165811  1
  Ti  Ti8  1  0.99871058  0.49782272  0.50217728  1
  Ti  Ti9  1  0.50203616  0.00136047  0.99863953  1
  Ti  Ti10  1  0.50208854  0.00136821  0.50134417  1
  Ti  Ti11  1  0.50208854  0.49865583  0.99863179  1
  Ti  Ti12  1  0.50128363  0.49861787  0.50138213  1
  Mn  Mn13  1  0.99949035  0.00117810  0.99882190  1
  Mn  Mn14  1  0.99926376  0.00075231  0.50125611  1
  Mn  Mn15  1  0.99926376  0.49874389  0.99924769  1
  O  O16  1  0.24790365  0.00390422  0.99609578  1
  O  O17  1  0.24754350  0.00376617  0.50377919  1
  O  O18  1  0.24754350  0.49622081  0.99623383  1
  O  O19  1  0.24875362  0.49676950  0.50323050  1
  O  O20  1  0.75203277  0.00102162  0.99897838  1
  O  O21  1  0.75231745  0.00111459  0.50107840  1
  O  O22  1  0.75231745  0.49892160  0.99888541  1
  O  O23  1  0.75105465  0.49874653  0.50125347  1
  O  O24  1  0.99918635  0.25080088  0.99904749  1
  O  O25  1  0.99891041  0.24795875  0.50118706  1
  O  O26  1  0.99463770  0.74916385  0.99478765  1
  O  O27  1  0.99594618  0.75214981  0.50389466  1
  O  O28  1  0.50124836  0.24979521  0.99867920  1
  O  O29  1  0.50120171  0.24972855  0.50129971  1
  O  O30  1  0.50330590  0.75023361  0.99648867  1
  O  O31  1  0.50331287  0.75033851  0.50343748  1
  O  O32  1  0.99463770  0.00521235  0.25083615  1
  O  O33  1  0.99918635  0.00095251  0.74919912  1
  O  O34  1  0.99594618  0.49610534  0.24785019  1
  O  O35  1  0.99891041  0.49881294  0.75204125  1
  O  O36  1  0.50330590  0.00351133  0.24976639  1
  O  O37  1  0.50124836  0.00132080  0.75020479  1
  O  O38  1  0.50331287  0.49656252  0.24966149  1
  O  O39  1  0.50120171  0.49870029  0.75027145  1
