# generated using pymatgen
data_Ti5Fe7O18
_symmetry_space_group_name_H-M   'P 1'
_cell_length_a   5.59400783
_cell_length_b   11.20711356
_cell_length_c   20.36793413
_cell_angle_alpha   42.04259428
_cell_angle_beta   51.40083222
_cell_angle_gamma   54.68906341
_symmetry_Int_Tables_number   1
_chemical_formula_structural   Ti5Fe7O18
_chemical_formula_sum   'Ti10 Fe14 O36'
_cell_volume   652.06447388
_cell_formula_units_Z   2
loop_
 _symmetry_equiv_pos_site_id
 _symmetry_equiv_pos_as_xyz
  1  'x, y, z'
loop_
 _atom_site_type_symbol
 _atom_site_label
 _atom_site_symmetry_multiplicity
 _atom_site_fract_x
 _atom_site_fract_y
 _atom_site_fract_z
 _atom_site_occupancy
  Ti  Ti0  1  0.34864409  0.12597552  0.11574746  1
  Ti  Ti1  1  0.14206118  0.37801185  0.38450014  1
  Ti  Ti2  1  0.84238680  0.27694237  0.29157133  1
  Ti  Ti3  1  0.14543783  0.21734663  0.71513449  1
  Ti  Ti4  1  0.87115345  0.78560929  0.28172678  1
  Ti  Ti5  1  0.85562519  0.11587665  0.61888683  1
  Ti  Ti6  1  0.15256910  0.71285719  0.71511505  1
  Ti  Ti7  1  0.85632560  0.62044629  0.61513353  1
  Ti  Ti8  1  0.84428747  0.46224985  0.94819178  1
  Ti  Ti9  1  0.85166924  0.94885861  0.95082713  1
  Fe  Fe10  1  0.14269671  0.04464630  0.04961162  1
  Fe  Fe11  1  0.14736543  0.55258349  0.04759340  1
  Fe  Fe12  1  0.35956698  0.61835151  0.11771911  1
  Fe  Fe13  1  0.64585614  0.21527304  0.21450836  1
  Fe  Fe14  1  0.35100569  0.45685001  0.45235217  1
  Fe  Fe15  1  0.64489184  0.04349862  0.55152479  1
  Fe  Fe16  1  0.66065076  0.71169061  0.21372129  1
  Fe  Fe17  1  0.14731882  0.88489558  0.38159613  1
  Fe  Fe18  1  0.35211164  0.28324607  0.78716405  1
  Fe  Fe19  1  0.35373329  0.95202446  0.45027293  1
  Fe  Fe20  1  0.64198985  0.54806439  0.54860761  1
  Fe  Fe21  1  0.35479320  0.78798324  0.78497201  1
  Fe  Fe22  1  0.64262215  0.37765240  0.88256569  1
  Fe  Fe23  1  0.64367927  0.88322420  0.88159011  1
  O  O24  1  0.08543143  0.29647688  0.14406560  1
  O  O25  1  0.73062752  0.19861772  0.02902748  1
  O  O26  1  0.21692032  0.12801443  0.31675844  1
  O  O27  1  0.56719582  0.43803683  0.07558710  1
  O  O28  1  0.05097748  0.15342421  0.47539679  1
  O  O29  1  0.03469951  0.80374099  0.15241359  1
  O  O30  1  0.96761486  0.01306673  0.18835366  1
  O  O31  1  0.43381001  0.39980705  0.25946368  1
  O  O32  1  0.76392274  0.05686576  0.34658966  1
  O  O33  1  0.76960136  0.72073237  0.01200642  1
  O  O34  1  0.24478584  0.63171125  0.31047569  1
  O  O35  1  0.55561598  0.27422060  0.41023594  1
  O  O36  1  0.56707458  0.93057949  0.08020553  1
  O  O37  1  0.04238914  0.64639089  0.48024189  1
  O  O38  1  0.92590452  0.51869386  0.19154669  1
  O  O39  1  0.43897612  0.22569458  0.59320598  1
  O  O40  1  0.43860525  0.91306608  0.24337992  1
  O  O41  1  0.77887740  0.55068191  0.34581186  1
  O  O42  1  0.22432567  0.45621337  0.65129295  1
  O  O43  1  0.57084708  0.10356007  0.74081759  1
  O  O44  1  0.56967348  0.77343139  0.40195886  1
  O  O45  1  0.05454822  0.48099280  0.81440768  1
  O  O46  1  0.95160699  0.35003982  0.51926972  1
  O  O47  1  0.44365367  0.06568541  0.92261756  1
  O  O48  1  0.43417546  0.72796321  0.59197520  1
  O  O49  1  0.78256420  0.37546973  0.68294969  1
  O  O50  1  0.21892738  0.95502983  0.65148944  1
  O  O51  1  0.20870162  0.27854532  0.99261984  1
  O  O52  1  0.56344279  0.60863857  0.73883688  1
  O  O53  1  0.06093653  0.98545268  0.80987431  1
  O  O54  1  0.94317589  0.18319093  0.85637859  1
  O  O55  1  0.94694761  0.84787328  0.52403992  1
  O  O56  1  0.45969193  0.55730918  0.92157654  1
  O  O57  1  0.78570126  0.87797866  0.68198090  1
  O  O58  1  0.21615266  0.78947674  0.98540195  1
  O  O59  1  0.95345594  0.67916924  0.85711270  1
