# generated using pymatgen
data_Li9Mn7O16
_symmetry_space_group_name_H-M   'P 1'
_cell_length_a   5.36353166
_cell_length_b   10.13292871
_cell_length_c   6.02885017
_cell_angle_alpha   86.89254358
_cell_angle_beta   69.30418142
_cell_angle_gamma   77.91860576
_symmetry_Int_Tables_number   1
_chemical_formula_structural   Li9Mn7O16
_chemical_formula_sum   'Li9 Mn7 O16'
_cell_volume   299.65502212
_cell_formula_units_Z   1
loop_
 _symmetry_equiv_pos_site_id
 _symmetry_equiv_pos_as_xyz
  1  'x, y, z'
loop_
 _atom_site_type_symbol
 _atom_site_label
 _atom_site_symmetry_multiplicity
 _atom_site_fract_x
 _atom_site_fract_y
 _atom_site_fract_z
 _atom_site_occupancy
  Li  Li0  1  0.01002327  0.99565371  0.49154351  1
  Li  Li1  1  0.99832719  0.24846994  0.24783395  1
  Li  Li2  1  0.50000000  0.87500000  0.62500000  1
  Li  Li3  1  0.50868748  0.12389384  0.37791827  1
  Li  Li4  1  0.98997673  0.75434629  0.75845649  1
  Li  Li5  1  0.49131252  0.62610616  0.87208173  1
  Li  Li6  1  0.00167281  0.50153006  0.00216605  1
  Li  Li7  1  0.50000000  0.37500000  0.12500000  1
  Li  Li8  1  0.50000000  0.87500000  0.12500000  1
  Mn  Mn9  1  0.00051458  0.99870791  -0.00018783  1
  Mn  Mn10  1  0.99948542  0.75129209  0.25018783  1
  Mn  Mn11  1  0.00066579  0.24895431  0.74917669  1
  Mn  Mn12  1  0.99933421  0.50104569  0.50082331  1
  Mn  Mn13  1  0.50027433  0.12187935  0.87835255  1
  Mn  Mn14  1  0.50000000  0.37500000  0.62500000  1
  Mn  Mn15  1  0.49972567  0.62812065  0.37164745  1
  O  O16  1  0.78176947  0.93302599  0.29985487  1
  O  O17  1  0.77608935  0.18110796  0.05012220  1
  O  O18  1  0.23501278  0.79694593  0.41217701  1
  O  O19  1  0.23446410  0.05721185  0.15071565  1
  O  O20  1  0.77190568  0.68720507  0.55231694  1
  O  O21  1  0.27623779  0.55773004  0.67329598  1
  O  O22  1  0.77820519  0.43479340  0.80116939  1
  O  O23  1  0.27579510  0.30746065  0.92378314  1
  O  O24  1  0.22809432  0.06279493  0.69768306  1
  O  O25  1  0.22179481  0.31520660  0.44883061  1
  O  O26  1  0.76498722  0.95305407  0.83782299  1
  O  O27  1  0.72376221  0.19226996  0.57670402  1
  O  O28  1  0.21823053  0.81697401  0.95014513  1
  O  O29  1  0.76553590  0.69278815  0.09928435  1
  O  O30  1  0.22391065  0.56889204  0.19987780  1
  O  O31  1  0.72420490  0.44253935  0.32621686  1
