# generated using pymatgen
data_Li9Mn7O16
_symmetry_space_group_name_H-M   'P 1'
_cell_length_a   5.08726173
_cell_length_b   11.36353334
_cell_length_c   5.29373306
_cell_angle_alpha   95.38621717
_cell_angle_beta   77.63475811
_cell_angle_gamma   91.93880222
_symmetry_Int_Tables_number   1
_chemical_formula_structural   Li9Mn7O16
_chemical_formula_sum   'Li9 Mn7 O16'
_cell_volume   297.57817748
_cell_formula_units_Z   1
loop_
 _symmetry_equiv_pos_site_id
 _symmetry_equiv_pos_as_xyz
  1  'x, y, z'
loop_
 _atom_site_type_symbol
 _atom_site_label
 _atom_site_symmetry_multiplicity
 _atom_site_fract_x
 _atom_site_fract_y
 _atom_site_fract_z
 _atom_site_occupancy
  Li  Li0  1  0.26672533  0.93813272  0.45411548  1
  Li  Li1  1  0.73817985  0.05536682  0.55941083  1
  Li  Li2  1  0.25407968  0.18750970  0.69796582  1
  Li  Li3  1  0.26182015  0.69463318  0.19058917  1
  Li  Li4  1  0.73327467  0.81186728  0.29588452  1
  Li  Li5  1  0.25004058  0.43732761  0.93989042  1
  Li  Li6  1  0.74592032  0.56249030  0.05203418  1
  Li  Li7  1  0.74995942  0.31267239  0.81010958  1
  Li  Li8  1  0.50000000  0.87500000  0.87500000  1
  Mn  Mn9  1  0.00057884  0.99504179  0.98388828  1
  Mn  Mn10  1  -0.00057884  0.75495821  0.76611172  1
  Mn  Mn11  1  0.49632516  0.11669339  0.10720998  1
  Mn  Mn12  1  0.99548965  0.24735332  0.24489323  1
  Mn  Mn13  1  0.50000000  0.37500000  0.37500000  1
  Mn  Mn14  1  0.00451035  0.50264668  0.50510677  1
  Mn  Mn15  1  0.50367484  0.63330661  0.64279002  1
  O  O16  1  0.10493361  0.84368947  0.05997083  1
  O  O17  1  0.63960248  0.97821266  0.20837714  1
  O  O18  1  0.11849543  0.08678969  0.29208160  1
  O  O19  1  0.13836962  0.60705832  0.84440363  1
  O  O20  1  0.65316550  0.72295923  0.96523806  1
  O  O21  1  0.13632588  0.35129034  0.58494188  1
  O  O22  1  0.64071121  0.48054302  0.70959019  1
  O  O23  1  0.63689791  0.22795229  0.45827857  1
  O  O24  1  0.34683450  0.02704177  0.78476194  1
  O  O25  1  0.86163038  0.14294268  0.90559637  1
  O  O26  1  0.35928879  0.26945798  0.04040981  1
  O  O27  1  0.36039752  0.77178734  0.54162286  1
  O  O28  1  0.89506639  0.90630953  0.69002917  1
  O  O29  1  0.36310209  0.52204671  0.29172143  1
  O  O30  1  0.88150457  0.66320931  0.45791840  1
  O  O31  1  0.86367412  0.39870866  0.16505812  1
