# generated using pymatgen
data_CaAlH5
_symmetry_space_group_name_H-M   'P 1'
_cell_length_a   6.05068598
_cell_length_b   11.53596575
_cell_length_c   10.67760210
_cell_angle_alpha   107.75569483
_cell_angle_beta   90.00000000
_cell_angle_gamma   90.00000000
_symmetry_Int_Tables_number   1
_chemical_formula_structural   CaAlH5
_chemical_formula_sum   'Ca8 Al8 H40'
_cell_volume   709.79993775
_cell_formula_units_Z   8
loop_
 _symmetry_equiv_pos_site_id
 _symmetry_equiv_pos_as_xyz
  1  'x, y, z'
loop_
 _atom_site_type_symbol
 _atom_site_label
 _atom_site_symmetry_multiplicity
 _atom_site_fract_x
 _atom_site_fract_y
 _atom_site_fract_z
 _atom_site_occupancy
  Ca  Ca0  1  0.32499244  0.84764964  0.01385224  1
  Ca  Ca1  1  0.18261142  0.30516449  0.82654525  1
  Ca  Ca2  1  0.68261142  0.19483551  0.67345475  1
  Ca  Ca3  1  0.17500756  0.34764964  0.51385224  1
  Ca  Ca4  1  0.81738858  0.69483551  0.17345475  1
  Ca  Ca5  1  0.31738858  0.80516449  0.32654525  1
  Ca  Ca6  1  0.67500756  0.15235036  0.98614776  1
  Ca  Ca7  1  0.82499244  0.65235036  0.48614776  1
  Al  Al8  1  0.30215706  0.58125423  0.82513258  1
  Al  Al9  1  0.24445674  0.48055896  0.29876097  1
  Al  Al10  1  0.75554326  0.51944104  0.70123903  1
  Al  Al11  1  0.74445674  0.01944104  0.20123903  1
  Al  Al12  1  0.69784294  0.41874577  0.17486742  1
  Al  Al13  1  0.25554326  0.98055896  0.79876097  1
  Al  Al14  1  0.80215706  0.91874577  0.67486742  1
  Al  Al15  1  0.19784294  0.08125423  0.32513258  1
  H  H16  1  0.81652025  0.65785539  0.70739011  1
  H  H17  1  0.74299978  0.94368662  0.30650484  1
  H  H18  1  0.88646355  0.31403909  0.10281540  1
  H  H19  1  0.60587100  0.00568592  0.78489702  1
  H  H20  1  0.90178046  0.19341794  0.84289415  1
  H  H21  1  0.25700022  0.05631338  0.69349516  1
  H  H22  1  0.18245429  0.55563561  0.45636700  1
  H  H23  1  0.52947140  0.46979065  0.32543901  1
  H  H24  1  0.40178046  0.30658206  0.65710585  1
  H  H25  1  0.18347975  0.34214461  0.29260989  1
  H  H26  1  -0.00184611  0.26414852  0.64083606  1
  H  H27  1  0.50184611  0.76414852  0.14083606  1
  H  H28  1  0.18634081  0.99061145  0.41665109  1
  H  H29  1  0.02947140  0.03020935  0.17456099  1
  H  H30  1  0.31365919  0.49061145  0.91665109  1
  H  H31  1  0.24299978  0.55631338  0.19349516  1
  H  H32  1  0.89412900  0.50568592  0.28489702  1
  H  H33  1  0.00184611  0.73585148  0.35916394  1
  H  H34  1  0.59821954  0.69341794  0.34289415  1
  H  H35  1  0.47052860  0.53020935  0.67456099  1
  H  H36  1  0.51683896  0.67491998  0.88478268  1
  H  H37  1  0.39412900  0.99431408  0.21510298  1
  H  H38  1  0.11353645  0.68596091  0.89718460  1
  H  H39  1  0.61353645  0.81403909  0.60281540  1
  H  H40  1  0.81754571  0.44436439  0.54363300  1
  H  H41  1  0.10587100  0.49431408  0.71510298  1
  H  H42  1  0.48316104  0.32508002  0.11521732  1
  H  H43  1  0.31754571  0.05563561  0.95636700  1
  H  H44  1  0.38646355  0.18596091  0.39718460  1
  H  H45  1  0.68634081  0.50938855  0.08334891  1
  H  H46  1  0.81365919  0.00938855  0.58334891  1
  H  H47  1  0.49815389  0.23585148  0.85916394  1
  H  H48  1  0.97052860  0.96979065  0.82543901  1
  H  H49  1  0.01683896  0.82508002  0.61521732  1
  H  H50  1  -0.01683896  0.17491998  0.38478268  1
  H  H51  1  0.68245429  0.94436439  0.04363300  1
  H  H52  1  0.68347975  0.15785539  0.20739011  1
  H  H53  1  0.31652025  0.84214461  0.79260989  1
  H  H54  1  0.75700022  0.44368662  0.80650484  1
  H  H55  1  0.09821954  0.80658206  0.15710585  1
