# generated using pymatgen
data_Li9Mn7O16
_symmetry_space_group_name_H-M   'P 1'
_cell_length_a   5.08649920
_cell_length_b   5.33388814
_cell_length_c   11.15333940
_cell_angle_alpha   92.92600411
_cell_angle_beta   80.55043480
_cell_angle_gamma   96.45641958
_symmetry_Int_Tables_number   1
_chemical_formula_structural   Li9Mn7O16
_chemical_formula_sum   'Li9 Mn7 O16'
_cell_volume   296.43602063
_cell_formula_units_Z   1
loop_
 _symmetry_equiv_pos_site_id
 _symmetry_equiv_pos_as_xyz
  1  'x, y, z'
loop_
 _atom_site_type_symbol
 _atom_site_label
 _atom_site_symmetry_multiplicity
 _atom_site_fract_x
 _atom_site_fract_y
 _atom_site_fract_z
 _atom_site_occupancy
  Li  Li0  1  0.55569645  0.24110367  0.93855693  1
  Li  Li1  1  0.45408955  0.75348450  0.06632352  1
  Li  Li2  1  0.69267631  0.75029335  0.81304998  1
  Li  Li3  1  0.81062544  0.25314221  0.68670505  1
  Li  Li4  1  0.93937456  0.74685779  0.56329495  1
  Li  Li5  1  0.05732369  0.24970665  0.43695002  1
  Li  Li6  1  0.19430355  0.75889633  0.31144307  1
  Li  Li7  1  0.29591045  0.24651550  0.18367648  1
  Li  Li8  1  0.87500000  0.50000000  0.12500000  1
  Mn  Mn9  1  0.99968353  0.99954598  0.00128450  1
  Mn  Mn10  1  0.75031647  0.00045402  0.24871550  1
  Mn  Mn11  1  0.62634765  0.49949546  0.37147096  1
  Mn  Mn12  1  0.50043020  0.99974132  0.49926626  1
  Mn  Mn13  1  0.37500000  0.50000000  0.62500000  1
  Mn  Mn14  1  0.24956980  0.00025868  0.75073374  1
  Mn  Mn15  1  0.12365235  0.50050454  0.87852904  1
  O  O16  1  0.32612132  0.89203238  0.90609207  1
  O  O17  1  0.19241181  0.34109985  0.02184356  1
  O  O18  1  0.45529207  0.39492535  0.78034541  1
  O  O19  1  0.58031911  0.89701180  0.65447743  1
  O  O20  1  0.70348929  0.39424920  0.52897351  1
  O  O21  1  0.83039713  0.89090908  0.40195496  1
  O  O22  1  0.92855638  0.33912342  0.28095965  1
  O  O23  1  0.07632952  0.89698715  0.15399894  1
  O  O24  1  0.82144362  0.66087658  0.96904035  1
  O  O25  1  0.67367048  0.10301285  0.09600106  1
  O  O26  1  0.91960287  0.10909092  0.84804504  1
  O  O27  1  0.04651071  0.60575080  0.72102649  1
  O  O28  1  0.16968089  0.10298820  0.59552257  1
  O  O29  1  0.29470793  0.60507465  0.46965459  1
  O  O30  1  0.42387868  0.10796762  0.34390793  1
  O  O31  1  0.55758819  0.65890015  0.22815644  1
