# generated using pymatgen
data_CaTlF3
_symmetry_space_group_name_H-M   'P 1'
_cell_length_a   4.50862383
_cell_length_b   4.51045525
_cell_length_c   4.51127539
_cell_angle_alpha   89.96284985
_cell_angle_beta   89.88164376
_cell_angle_gamma   89.97243838
_symmetry_Int_Tables_number   1
_chemical_formula_structural   CaTlF3
_chemical_formula_sum   'Ca1 Tl1 F3'
_cell_volume   91.74082718
_cell_formula_units_Z   1
loop_
 _symmetry_equiv_pos_site_id
 _symmetry_equiv_pos_as_xyz
  1  'x, y, z'
loop_
 _atom_site_type_symbol
 _atom_site_label
 _atom_site_symmetry_multiplicity
 _atom_site_fract_x
 _atom_site_fract_y
 _atom_site_fract_z
 _atom_site_occupancy
  Ca  Ca0  1  0.48737643  0.49905482  0.49596061  1
  Tl  Tl1  1  0.99386034  0.99389664  0.98655439  1
  F  F2  1  0.48309736  0.99957949  0.49841165  1
  F  F3  1  0.98694698  0.50776322  0.51214404  1
  F  F4  1  0.48871989  0.49970483  0.99693130  1
