# generated using pymatgen
data_Li9Mn7O16
_symmetry_space_group_name_H-M   'P 1'
_cell_length_a   5.34049540
_cell_length_b   7.80437233
_cell_length_c   7.80437245
_cell_angle_alpha   94.98740837
_cell_angle_beta   74.51016598
_cell_angle_gamma   74.51017088
_symmetry_Int_Tables_number   1
_chemical_formula_structural   Li9Mn7O16
_chemical_formula_sum   'Li9 Mn7 O16'
_cell_volume   297.66072326
_cell_formula_units_Z   1
loop_
 _symmetry_equiv_pos_site_id
 _symmetry_equiv_pos_as_xyz
  1  'x, y, z'
loop_
 _atom_site_type_symbol
 _atom_site_label
 _atom_site_symmetry_multiplicity
 _atom_site_fract_x
 _atom_site_fract_y
 _atom_site_fract_z
 _atom_site_occupancy
  Li  Li0  1  0.00946596  0.11676228  0.36676228  1
  Li  Li1  1  0.99053404  0.63323772  0.88323772  1
  Li  Li2  1  0.50705798  0.00268628  0.49819551  1
  Li  Li3  1  0.49294202  0.50180449  0.99731372  1
  Li  Li4  1  -0.00000000  0.87500000  0.62500000  1
  Li  Li5  1  -0.00000000  0.37500000  0.12500000  1
  Li  Li6  1  0.49294202  0.74731372  0.75180449  1
  Li  Li7  1  0.50705798  0.24819551  0.25268628  1
  Li  Li8  1  0.50000000  0.87500000  0.12500000  1
  Mn  Mn9  1  0.00000000  0.99946267  0.00053733  1
  Mn  Mn10  1  1.00000000  0.75053733  0.24946267  1
  Mn  Mn11  1  0.00000000  0.50066680  0.49933320  1
  Mn  Mn12  1  0.50000000  0.37500000  0.62500000  1
  Mn  Mn13  1  1.00000000  0.24933320  0.75066680  1
  Mn  Mn14  1  0.50000000  0.62855208  0.37144792  1
  Mn  Mn15  1  0.50000000  0.12144792  0.87855208  1
  O  O16  1  0.78105182  0.99092612  0.24092612  1
  O  O17  1  0.77692211  0.49562309  0.74562309  1
  O  O18  1  0.23344051  0.84939471  0.36014564  1
  O  O19  1  0.27581938  0.36589597  0.86573005  1
  O  O20  1  0.77439363  0.74337553  0.49110620  1
  O  O21  1  0.77439363  0.24110620  0.99337553  1
  O  O22  1  0.27581938  0.61573005  0.61589597  1
  O  O23  1  0.23344051  0.11014564  0.09939471  1
  O  O24  1  0.22307789  0.25437691  0.50437691  1
  O  O25  1  0.21894818  0.75907388  0.00907388  1
  O  O26  1  0.72418062  0.13426995  0.63410403  1
  O  O27  1  0.76655949  0.63985436  0.15060529  1
  O  O28  1  0.22560637  0.00662447  0.75889380  1
  O  O29  1  0.22560637  0.50889380  0.25662447  1
  O  O30  1  0.76655949  0.90060529  0.88985436  1
  O  O31  1  0.72418062  0.38410403  0.38426995  1
