# generated using pymatgen
data_V2(OF)3
_symmetry_space_group_name_H-M   'P 1'
_cell_length_a   5.20887759
_cell_length_b   13.22934410
_cell_length_c   5.18425916
_cell_angle_alpha   89.00907828
_cell_angle_beta   119.20061577
_cell_angle_gamma   90.97672833
_symmetry_Int_Tables_number   1
_chemical_formula_structural   V2(OF)3
_chemical_formula_sum   'V6 O9 F9'
_cell_volume   311.78552848
_cell_formula_units_Z   3
loop_
 _symmetry_equiv_pos_site_id
 _symmetry_equiv_pos_as_xyz
  1  'x, y, z'
loop_
 _atom_site_type_symbol
 _atom_site_label
 _atom_site_symmetry_multiplicity
 _atom_site_fract_x
 _atom_site_fract_y
 _atom_site_fract_z
 _atom_site_occupancy
  V  V0  1  0.00219074  0.50644086  0.97912960  1
  V  V1  1  0.02294983  0.00664975  0.98234721  1
  V  V2  1  0.60590276  0.83354932  0.30406856  1
  V  V3  1  0.34626017  0.67618629  0.67145297  1
  V  V4  1  0.70016251  0.34702440  0.36427098  1
  V  V5  1  0.38019913  0.16466717  0.64850041  1
  O  O6  1  0.41900153  0.75495675  0.01374888  1
  O  O7  1  0.34625509  0.91703360  0.25852646  1
  O  O8  1  0.09100767  0.58363560  0.77174975  1
  O  O9  1  0.42023158  0.24680840  0.41863204  1
  O  O10  1  0.57381429  0.74850545  0.58625971  1
  O  O11  1  0.89694462  0.41342570  0.24072855  1
  O  O12  1  0.23167250  0.08332778  0.90303464  1
  O  O13  1  0.75082519  0.41382960  0.66075042  1
  O  O14  1  0.65657603  0.08326860  0.74462933  1
  F  F15  1  0.99409765  0.74811180  0.41929635  1
  F  F16  1  0.32988366  0.40993231  0.08311159  1
  F  F17  1  0.07763490  0.08353409  0.33778293  1
  F  F18  1  0.25720612  0.57755029  0.35289061  1
  F  F19  1  0.56559882  0.24678256  0.98443067  1
  F  F20  1  0.98405486  0.24766377  0.56859186  1
  F  F21  1  0.76285422  0.91453950  0.09945687  1
  F  F22  1  0.91883885  0.90956680  0.66815984  1
  F  F23  1  0.66583729  0.58300761  0.93844778  1
