# generated using pymatgen
data_Ba2Ho2Co4O11
_symmetry_space_group_name_H-M   'P 1'
_cell_length_a   7.67838998
_cell_length_b   7.83133581
_cell_length_c   7.82637186
_cell_angle_alpha   90.00000000
_cell_angle_beta   90.00000000
_cell_angle_gamma   90.00000000
_symmetry_Int_Tables_number   1
_chemical_formula_structural   Ba2Ho2Co4O11
_chemical_formula_sum   'Ba4 Ho4 Co8 O22'
_cell_volume   470.61578724
_cell_formula_units_Z   2
loop_
 _symmetry_equiv_pos_site_id
 _symmetry_equiv_pos_as_xyz
  1  'x, y, z'
loop_
 _atom_site_type_symbol
 _atom_site_label
 _atom_site_symmetry_multiplicity
 _atom_site_fract_x
 _atom_site_fract_y
 _atom_site_fract_z
 _atom_site_occupancy
  O  O0  1  0.30283290  0.75000000  0.23036364  1
  O  O1  1  0.30283290  0.75000000  0.76963636  1
  O  O2  1  0.69716710  0.25000000  0.76963636  1
  O  O3  1  0.69716710  0.25000000  0.23036364  1
  O  O4  1  0.69146316  0.75000000  0.22975555  1
  O  O5  1  0.69146316  0.75000000  0.77024445  1
  O  O6  1  0.30853684  0.25000000  0.77024445  1
  O  O7  1  0.30853684  0.25000000  0.22975555  1
  O  O8  1  0.71926755  0.99977995  0.50000000  1
  O  O9  1  0.71926755  0.50022005  0.50000000  1
  O  O10  1  0.28073245  0.49977995  0.50000000  1
  O  O11  1  0.28073245  0.00022005  0.50000000  1
  O  O12  1  0.68381359  0.00046783  0.00000000  1
  O  O13  1  0.68381359  0.49953217  0.00000000  1
  O  O14  1  0.31618641  0.50046783  0.00000000  1
  O  O15  1  0.31618641  0.99953217  0.00000000  1
  O  O16  1  1.00176427  0.25000000  0.00000000  1
  O  O17  1  -0.00176427  0.75000000  0.00000000  1
  O  O18  1  0.00025139  0.25000000  0.50000000  1
  O  O19  1  0.99974861  0.75000000  0.50000000  1
  O  O20  1  0.50104981  0.25000000  0.50000000  1
  O  O21  1  0.49895019  0.75000000  0.50000000  1
  Co  Co22  1  0.25445253  0.75000000  0.50000000  1
  Co  Co23  1  0.74554747  0.25000000  0.50000000  1
  Co  Co24  1  0.74439082  0.75000000  0.50000000  1
  Co  Co25  1  0.25560918  0.25000000  0.50000000  1
  Co  Co26  1  0.25971711  0.75000000  0.00000000  1
  Co  Co27  1  0.74028289  0.25000000  0.00000000  1
  Co  Co28  1  0.73786922  0.75000000  0.00000000  1
  Co  Co29  1  0.26213078  0.25000000  0.00000000  1
  Ba  Ba30  1  0.00000000  0.50000000  0.25016859  1
  Ba  Ba31  1  0.00000000  0.00000000  0.74983141  1
  Ba  Ba32  1  0.00000000  0.50000000  0.74983141  1
  Ba  Ba33  1  0.00000000  0.00000000  0.25016859  1
  Ho  Ho34  1  0.50000000  0.50000000  0.27246828  1
  Ho  Ho35  1  0.50000000  0.00000000  0.72753172  1
  Ho  Ho36  1  0.50000000  0.50000000  0.72753172  1
  Ho  Ho37  1  0.50000000  0.00000000  0.27246828  1
