# generated using pymatgen
data_Rb2O
_symmetry_space_group_name_H-M   'P 1'
_cell_length_a   4.38196049
_cell_length_b   6.43319887
_cell_length_c   6.63174377
_cell_angle_alpha   90.00000000
_cell_angle_beta   89.34090938
_cell_angle_gamma   90.00000000
_symmetry_Int_Tables_number   1
_chemical_formula_structural   Rb2O
_chemical_formula_sum   'Rb4 O2'
_cell_volume   186.93664202
_cell_formula_units_Z   2
loop_
 _symmetry_equiv_pos_site_id
 _symmetry_equiv_pos_as_xyz
  1  'x, y, z'
loop_
 _atom_site_type_symbol
 _atom_site_label
 _atom_site_symmetry_multiplicity
 _atom_site_fract_x
 _atom_site_fract_y
 _atom_site_fract_z
 _atom_site_occupancy
  Rb  Rb0  1  0.24464841  0.89499872  0.97471034  1
  Rb  Rb1  1  0.25310670  0.60708456  0.52120562  1
  Rb  Rb2  1  0.74689330  0.10708456  0.47879438  1
  Rb  Rb3  1  0.75535159  0.39499872  0.02528966  1
  O  O4  1  0.25186038  0.24791672  0.25076322  1
  O  O5  1  0.74813962  0.74791672  0.74923678  1
