# generated using pymatgen
data_Ti3Fe9O16
_symmetry_space_group_name_H-M   'P 1'
_cell_length_a   6.07305982
_cell_length_b   12.22341129
_cell_length_c   16.28343323
_cell_angle_alpha   40.46591678
_cell_angle_beta   55.85127692
_cell_angle_gamma   60.26788044
_symmetry_Int_Tables_number   1
_chemical_formula_structural   Ti3Fe9O16
_chemical_formula_sum   'Ti6 Fe18 O32'
_cell_volume   643.87022315
_cell_formula_units_Z   2
loop_
 _symmetry_equiv_pos_site_id
 _symmetry_equiv_pos_as_xyz
  1  'x, y, z'
loop_
 _atom_site_type_symbol
 _atom_site_label
 _atom_site_symmetry_multiplicity
 _atom_site_fract_x
 _atom_site_fract_y
 _atom_site_fract_z
 _atom_site_occupancy
  Ti  Ti0  1  0.52111811  0.99895871  0.49187818  1
  Ti  Ti1  1  0.49326786  0.49868217  0.50531789  1
  Ti  Ti2  1  0.50000000  0.87500000  0.25000000  1
  Ti  Ti3  1  0.00000000  0.87500000  0.75000000  1
  Ti  Ti4  1  0.50673214  0.25131783  0.99468211  1
  Ti  Ti5  1  0.47888189  0.75104129  0.00812182  1
  Fe  Fe6  1  0.12757163  0.04351364  0.05383105  1
  Fe  Fe7  1  0.00059171  0.12794226  0.25057933  1
  Fe  Fe8  1  0.12628854  0.53314650  0.05698520  1
  Fe  Fe9  1  0.49352535  0.12864606  0.25027639  1
  Fe  Fe10  1  0.99940829  0.62205774  0.24942067  1
  Fe  Fe11  1  0.50000000  0.37500000  0.25000000  1
  Fe  Fe12  1  0.13076005  0.28580158  0.55470113  1
  Fe  Fe13  1  0.50647465  0.62135394  0.24972361  1
  Fe  Fe14  1  0.00000000  0.37500000  0.75000000  1
  Fe  Fe15  1  0.87371146  0.21685350  0.44301480  1
  Fe  Fe16  1  0.49744326  0.12888298  0.74829914  1
  Fe  Fe17  1  0.12328853  0.78605098  0.55942672  1
  Fe  Fe18  1  0.50000000  0.37500000  0.75000000  1
  Fe  Fe19  1  0.87242837  0.70648636  0.44616895  1
  Fe  Fe20  1  0.50255674  0.62111702  0.75170086  1
  Fe  Fe21  1  0.50000000  0.87500000  0.75000000  1
  Fe  Fe22  1  0.86923995  0.46419842  0.94529887  1
  Fe  Fe23  1  0.87671147  0.96394902  0.94057328  1
  O  O24  1  0.27827163  0.06003989  0.12969931  1
  O  O25  1  0.26317289  0.31344174  0.11541898  1
  O  O26  1  0.71161735  0.06188312  0.12781758  1
  O  O27  1  0.25992250  0.17395572  0.38763008  1
  O  O28  1  0.26883848  0.57477938  0.11122670  1
  O  O29  1  0.74132826  0.30432401  0.13679604  1
  O  O30  1  0.27602793  0.80705513  0.11067245  1
  O  O31  1  0.23257694  0.05314614  0.63032635  1
  O  O32  1  0.25867174  0.44567599  0.36320396  1
  O  O33  1  0.73116152  0.17522062  0.38877330  1
  O  O34  1  0.74007750  0.57604428  0.11236992  1
  O  O35  1  0.28838265  0.68811688  0.37218242  1
  O  O36  1  0.26697302  0.32939205  0.60861904  1
  O  O37  1  0.72401754  0.80733851  0.14418006  1
  O  O38  1  0.76243306  0.05129878  0.63724478  1
  O  O39  1  0.26634599  0.20107241  0.85421781  1
  O  O40  1  0.27995054  0.55815855  0.60891435  1
  O  O41  1  0.27598246  0.94266149  0.35581994  1
  O  O42  1  0.73682711  0.43655826  0.38458102  1
  O  O43  1  0.72172837  0.68996011  0.37030069  1
  O  O44  1  0.74543486  0.33155637  0.60854726  1
  O  O45  1  0.25456514  0.41844363  0.89145274  1
  O  O46  1  0.24182596  0.83296410  0.62812068  1
  O  O47  1  0.73365401  0.54892759  0.64578219  1
  O  O48  1  0.72004946  0.19184145  0.89108565  1
  O  O49  1  0.72397207  0.94294487  0.38932755  1
  O  O50  1  0.23756694  0.69870122  0.86275522  1
  O  O51  1  0.73302698  0.42060795  0.89138096  1
  O  O52  1  0.71126740  0.83351166  0.62006546  1
  O  O53  1  0.28873260  0.91648834  0.87993454  1
  O  O54  1  0.76742306  0.69685386  0.86967365  1
  O  O55  1  0.75817404  0.91703590  0.87187932  1
