# generated using pymatgen
data_Ta2Co4O9
_symmetry_space_group_name_H-M   'P 1'
_cell_length_a   5.18463699
_cell_length_b   8.96453618
_cell_length_c   14.53779394
_cell_angle_alpha   90.01164723
_cell_angle_beta   89.99990618
_cell_angle_gamma   89.98862065
_symmetry_Int_Tables_number   1
_chemical_formula_structural   Ta2Co4O9
_chemical_formula_sum   'Ta8 Co16 O36'
_cell_volume   675.68560931
_cell_formula_units_Z   4
loop_
 _symmetry_equiv_pos_site_id
 _symmetry_equiv_pos_as_xyz
  1  'x, y, z'
loop_
 _atom_site_type_symbol
 _atom_site_label
 _atom_site_symmetry_multiplicity
 _atom_site_fract_x
 _atom_site_fract_y
 _atom_site_fract_z
 _atom_site_occupancy
  Ta  Ta0  1  0.99885848  0.02166908  0.14473361  1
  Ta  Ta1  1  0.00028803  0.97826160  0.35521732  1
  Ta  Ta2  1  0.49943666  0.47723828  0.64491810  1
  Ta  Ta3  1  0.50117689  0.52248228  0.85491193  1
  Ta  Ta4  1  0.50012394  0.52215404  0.35548074  1
  Ta  Ta5  1  0.49933586  0.47823977  0.14485781  1
  Ta  Ta6  1  0.00057061  0.02261712  0.64490611  1
  Ta  Ta7  1  0.00037056  0.97727924  0.85476171  1
  Co  Co8  1  0.00062953  0.33559865  0.30731617  1
  Co  Co9  1  0.00000272  0.66457735  0.19284683  1
  Co  Co10  1  0.00245317  0.66282222  0.49768106  1
  Co  Co11  1  0.00361024  0.33681649  0.00199984  1
  Co  Co12  1  0.49820240  0.16301147  0.50196255  1
  Co  Co13  1  0.49666853  0.83666463  0.99823164  1
  Co  Co14  1  0.49952426  0.83549197  0.69162562  1
  Co  Co15  1  0.49929210  0.16466023  0.80863586  1
  Co  Co16  1  0.50010062  0.83529494  0.19283433  1
  Co  Co17  1  0.50032201  0.16421028  0.30744666  1
  Co  Co18  1  0.50286483  0.16293784  0.00222124  1
  Co  Co19  1  0.50352956  0.83715963  0.49771962  1
  Co  Co20  1  0.99592739  0.33643284  0.50138526  1
  Co  Co21  1  0.99728275  0.66336292  0.99830528  1
  Co  Co22  1  0.99961510  0.66410503  0.69122816  1
  Co  Co23  1  0.99937829  0.33534610  0.80867146  1
  O  O24  1  0.14457656  0.14566295  0.74949766  1
  O  O25  1  0.14389849  0.85392885  0.75017468  1
  O  O26  1  0.16216212  0.16763236  0.07323113  1
  O  O27  1  0.16249333  0.83243934  0.42689215  1
  O  O28  1  0.17123486  0.49338182  0.41334706  1
  O  O29  1  0.17111891  0.50719003  0.08681689  1
  O  O30  1  0.17323663  0.16017951  0.40387260  1
  O  O31  1  0.17431221  0.83912829  0.09624229  1
  O  O32  1  0.21439861  0.49987763  0.75014232  1
  O  O33  1  0.28456776  0.99987661  0.24995087  1
  O  O34  1  0.32741953  0.33861180  0.90365988  1
  O  O35  1  0.32899137  0.66098967  0.59664219  1
  O  O36  1  0.32824331  0.99327755  0.58599036  1
  O  O37  1  0.32763540  0.00692080  0.91361752  1
  O  O38  1  0.33675942  0.33266347  0.57272230  1
  O  O39  1  0.33697426  0.66764088  0.92697512  1
  O  O40  1  0.35646170  0.35407959  0.24981225  1
  O  O41  1  0.35559278  0.64540711  0.25052383  1
  O  O42  1  0.64454548  0.64586656  0.75070301  1
  O  O43  1  0.64454874  0.35418936  0.74970517  1
  O  O44  1  0.66206432  0.66770052  0.42653064  1
  O  O45  1  0.66217378  0.33245810  0.07305730  1
  O  O46  1  0.67049929  0.00811509  0.41282310  1
  O  O47  1  0.67099332  0.99319259  0.08652148  1
  O  O48  1  0.67596850  0.33949806  0.40417798  1
  O  O49  1  0.67344984  0.66071584  0.09626363  1
  O  O50  1  0.71405261  0.00016765  0.74997186  1
  O  O51  1  0.78472009  0.50000216  0.24997089  1
  O  O52  1  0.82789630  0.16104357  0.90345220  1
  O  O53  1  0.82714233  0.83871606  0.59625988  1
  O  O54  1  0.82792452  0.49316253  0.91387066  1
  O  O55  1  0.82836548  0.50762029  0.58657510  1
  O  O56  1  0.83732749  0.16754802  0.57335230  1
  O  O57  1  0.83700789  0.83235841  0.92701135  1
  O  O58  1  0.85613674  0.14574423  0.24946754  1
  O  O59  1  0.85554149  0.85457569  0.25027393  1
