# generated using pymatgen
data_PrMgSn
_symmetry_space_group_name_H-M   'P 1'
_cell_length_a   4.67425536
_cell_length_b   7.72510472
_cell_length_c   9.15013813
_cell_angle_alpha   90.00000000
_cell_angle_beta   90.00000000
_cell_angle_gamma   90.00000000
_symmetry_Int_Tables_number   1
_chemical_formula_structural   PrMgSn
_chemical_formula_sum   'Pr4 Mg4 Sn4'
_cell_volume   330.40336387
_cell_formula_units_Z   4
loop_
 _symmetry_equiv_pos_site_id
 _symmetry_equiv_pos_as_xyz
  1  'x, y, z'
loop_
 _atom_site_type_symbol
 _atom_site_label
 _atom_site_symmetry_multiplicity
 _atom_site_fract_x
 _atom_site_fract_y
 _atom_site_fract_z
 _atom_site_occupancy
  Pr  Pr0  1  0.75000000  0.47949134  0.18173490  1
  Pr  Pr1  1  0.75000000  0.97949134  0.31826510  1
  Pr  Pr2  1  0.25000000  0.52050866  0.81826510  1
  Pr  Pr3  1  0.25000000  0.02050866  0.68173490  1
  Mg  Mg4  1  0.75000000  0.34568790  0.56710152  1
  Mg  Mg5  1  0.75000000  0.84568790  0.93289848  1
  Mg  Mg6  1  0.25000000  0.65431210  0.43289848  1
  Mg  Mg7  1  0.25000000  0.15431210  0.06710152  1
  Sn  Sn8  1  0.75000000  0.22881444  0.88733482  1
  Sn  Sn9  1  0.75000000  0.72881444  0.61266518  1
  Sn  Sn10  1  0.25000000  0.77118556  0.11266518  1
  Sn  Sn11  1  0.25000000  0.27118556  0.38733482  1
