# generated using pymatgen
data_NbRh
_symmetry_space_group_name_H-M   'P 1'
_cell_length_a   2.86304035
_cell_length_b   4.87331100
_cell_length_c   13.89104546
_cell_angle_alpha   90.00000000
_cell_angle_beta   90.00000000
_cell_angle_gamma   90.00000000
_symmetry_Int_Tables_number   1
_chemical_formula_structural   NbRh
_chemical_formula_sum   'Nb6 Rh6'
_cell_volume   193.81461774
_cell_formula_units_Z   6
loop_
 _symmetry_equiv_pos_site_id
 _symmetry_equiv_pos_as_xyz
  1  'x, y, z'
loop_
 _atom_site_type_symbol
 _atom_site_label
 _atom_site_symmetry_multiplicity
 _atom_site_fract_x
 _atom_site_fract_y
 _atom_site_fract_z
 _atom_site_occupancy
  Nb  Nb0  1  -0.00000000  0.04635764  0.25000000  1
  Nb  Nb1  1  -0.00000000  0.95364236  0.75000000  1
  Nb  Nb2  1  0.00000000  0.32389316  0.58397262  1
  Nb  Nb3  1  0.00000000  0.67610684  0.41602738  1
  Nb  Nb4  1  -0.00000000  0.32389316  0.91602738  1
  Nb  Nb5  1  -0.00000000  0.67610684  0.08397262  1
  Rh  Rh6  1  0.50000000  0.53973579  0.25000000  1
  Rh  Rh7  1  0.50000000  0.46026421  0.75000000  1
  Rh  Rh8  1  0.50000000  0.82289065  0.58331396  1
  Rh  Rh9  1  0.50000000  0.17710935  0.41668604  1
  Rh  Rh10  1  0.50000000  0.82289065  0.91668604  1
  Rh  Rh11  1  0.50000000  0.17710935  0.08331396  1
