# generated using pymatgen
data_Eu2ZnGe3
_symmetry_space_group_name_H-M   'P 1'
_cell_length_a   6.18683123
_cell_length_b   6.18683123
_cell_length_c   8.62642606
_cell_angle_alpha   112.46010975
_cell_angle_beta   112.46010975
_cell_angle_gamma   86.37223250
_symmetry_Int_Tables_number   1
_chemical_formula_structural   Eu2ZnGe3
_chemical_formula_sum   'Eu4 Zn2 Ge6'
_cell_volume   280.67492695
_cell_formula_units_Z   2
loop_
 _symmetry_equiv_pos_site_id
 _symmetry_equiv_pos_as_xyz
  1  'x, y, z'
loop_
 _atom_site_type_symbol
 _atom_site_label
 _atom_site_symmetry_multiplicity
 _atom_site_fract_x
 _atom_site_fract_y
 _atom_site_fract_z
 _atom_site_occupancy
  Eu  Eu0  1  0.75766093  0.75766093  0.00079464  1
  Eu  Eu1  1  0.24233907  0.24233907  0.99920536  1
  Eu  Eu2  1  0.74877427  0.25122573  0.50000000  1
  Eu  Eu3  1  0.25122573  0.74877427  0.50000000  1
  Zn  Zn4  1  0.64117144  0.64117144  0.33183908  1
  Zn  Zn5  1  0.35882856  0.35882856  0.66816092  1
  Ge  Ge6  1  0.86254199  0.86254199  0.66290049  1
  Ge  Ge7  1  0.13745801  0.13745801  0.33709951  1
  Ge  Ge8  1  0.13691806  0.63070772  0.83171464  1
  Ge  Ge9  1  0.36929228  0.86308194  0.16828536  1
  Ge  Ge10  1  0.86308194  0.36929228  0.16828536  1
  Ge  Ge11  1  0.63070772  0.13691806  0.83171464  1
