# generated using pymatgen
data_Y3Co13B2
_symmetry_space_group_name_H-M   'P 1'
_cell_length_a   4.98098499
_cell_length_b   4.97859529
_cell_length_c   10.83259301
_cell_angle_alpha   89.99954883
_cell_angle_beta   90.00122050
_cell_angle_gamma   119.88087423
_symmetry_Int_Tables_number   1
_chemical_formula_structural   Y3Co13B2
_chemical_formula_sum   'Y3 Co13 B2'
_cell_volume   232.91914490
_cell_formula_units_Z   1
loop_
 _symmetry_equiv_pos_site_id
 _symmetry_equiv_pos_as_xyz
  1  'x, y, z'
loop_
 _atom_site_type_symbol
 _atom_site_label
 _atom_site_symmetry_multiplicity
 _atom_site_fract_x
 _atom_site_fract_y
 _atom_site_fract_z
 _atom_site_occupancy
  Y  Y0  1  0.99998423  0.99999084  0.32362581  1
  Y  Y1  1  0.00000833  0.00000265  0.67672074  1
  Y  Y2  1  0.99999233  0.00000244  0.99959275  1
  Co  Co3  1  0.49998603  0.99998803  0.13550072  1
  Co  Co4  1  0.49999403  0.50000422  0.13557255  1
  Co  Co5  1  0.00000096  0.50000606  0.13571431  1
  Co  Co6  1  0.49998286  -0.00002137  0.86427243  1
  Co  Co7  1  0.49998671  0.50001277  0.86419330  1
  Co  Co8  1  0.00002177  0.50001706  0.86419488  1
  Co  Co9  1  0.33391413  0.66709144  0.31801373  1
  Co  Co10  1  0.66604994  0.33291901  0.31819551  1
  Co  Co11  1  0.66621385  0.33293957  0.68200318  1
  Co  Co12  1  0.33378513  0.66704910  0.68222400  1
  Co  Co13  1  0.49981888  0.99964139  0.50022377  1
  Co  Co14  1  0.49982260  0.50017379  0.50023595  1
  Co  Co15  1  0.00036623  0.50018273  0.50024304  1
  B  B16  1  0.33343742  0.66655653  0.99972881  1
  B  B17  1  0.66653457  0.33344374  0.99974451  1
