# generated using pymatgen
data_RbNdMnWO6
_symmetry_space_group_name_H-M   'P 1'
_cell_length_a   5.56756259
_cell_length_b   5.67412503
_cell_length_c   9.62267518
_cell_angle_alpha   90.00000000
_cell_angle_beta   92.08121722
_cell_angle_gamma   90.00000000
_symmetry_Int_Tables_number   1
_chemical_formula_structural   RbNdMnWO6
_chemical_formula_sum   'Rb2 Nd2 Mn2 W2 O12'
_cell_volume   303.78985050
_cell_formula_units_Z   2
loop_
 _symmetry_equiv_pos_site_id
 _symmetry_equiv_pos_as_xyz
  1  'x, y, z'
loop_
 _atom_site_type_symbol
 _atom_site_label
 _atom_site_symmetry_multiplicity
 _atom_site_fract_x
 _atom_site_fract_y
 _atom_site_fract_z
 _atom_site_occupancy
  Rb  Rb0  1  0.23254314  0.77201856  0.01012615  1
  Rb  Rb1  1  0.76745686  0.27201856  0.98987385  1
  Nd  Nd2  1  0.26336235  0.81698201  0.50025561  1
  Nd  Nd3  1  0.73663765  0.31698201  0.49974439  1
  Mn  Mn4  1  0.74753647  0.77740212  0.29845720  1
  Mn  Mn5  1  0.25246353  0.27740212  0.70154280  1
  W  W6  1  0.77124741  0.76823185  0.72704366  1
  W  W7  1  0.22875259  0.26823185  0.27295634  1
  O  O8  1  0.55640131  0.03324736  0.66116150  1
  O  O9  1  0.44359869  0.53324736  0.33883850  1
  O  O10  1  0.51032275  0.05959457  0.33940652  1
  O  O11  1  0.48967725  0.55959457  0.66059348  1
  O  O12  1  0.94990332  0.46043576  0.26463255  1
  O  O13  1  0.05009668  0.96043576  0.73536745  1
  O  O14  1  0.94969591  0.47819901  0.73873816  1
  O  O15  1  0.05030409  0.97819901  0.26126184  1
  O  O16  1  0.84802845  0.73630516  0.51001466  1
  O  O17  1  0.15197155  0.23630516  0.48998534  1
  O  O18  1  0.70247663  0.78097360  0.91137183  1
  O  O19  1  0.29752337  0.28097360  0.08862817  1
