# generated using pymatgen
data_CeFeAsO
_symmetry_space_group_name_H-M   'P 1'
_cell_length_a   3.99434260
_cell_length_b   3.99016889
_cell_length_c   9.04197128
_cell_angle_alpha   89.80339423
_cell_angle_beta   90.15152802
_cell_angle_gamma   89.98814606
_symmetry_Int_Tables_number   1
_chemical_formula_structural   CeFeAsO
_chemical_formula_sum   'Ce2 Fe2 As2 O2'
_cell_volume   144.11050117
_cell_formula_units_Z   2
loop_
 _symmetry_equiv_pos_site_id
 _symmetry_equiv_pos_as_xyz
  1  'x, y, z'
loop_
 _atom_site_type_symbol
 _atom_site_label
 _atom_site_symmetry_multiplicity
 _atom_site_fract_x
 _atom_site_fract_y
 _atom_site_fract_z
 _atom_site_occupancy
  Ce  Ce0  1  0.74994032  0.75371358  0.85806554  1
  Ce  Ce1  1  0.24945731  0.25645848  0.13217029  1
  Fe  Fe2  1  0.24728076  0.74917209  0.50231057  1
  Fe  Fe3  1  0.74769338  0.25521323  0.50155532  1
  As  As4  1  0.74833535  0.75466983  0.31544099  1
  As  As5  1  0.24827982  0.24997865  0.68877546  1
  O  O6  1  0.24981350  0.75500859  0.99655080  1
  O  O7  1  0.74975056  0.25509655  0.99613704  1
