# generated using pymatgen
data_Cr2CuO4
_symmetry_space_group_name_H-M   'P 1'
_cell_length_a   5.91195853
_cell_length_b   5.91195853
_cell_length_c   5.91195853
_cell_angle_alpha   92.91939215
_cell_angle_beta   118.32904698
_cell_angle_gamma   118.32904698
_symmetry_Int_Tables_number   1
_chemical_formula_structural   Cr2CuO4
_chemical_formula_sum   'Cr4 Cu2 O8'
_cell_volume   149.58988492
_cell_formula_units_Z   2
loop_
 _symmetry_equiv_pos_site_id
 _symmetry_equiv_pos_as_xyz
  1  'x, y, z'
loop_
 _atom_site_type_symbol
 _atom_site_label
 _atom_site_symmetry_multiplicity
 _atom_site_fract_x
 _atom_site_fract_y
 _atom_site_fract_z
 _atom_site_occupancy
  Cr  Cr0  1  0.25000000  0.87500000  0.62500000  1
  Cr  Cr1  1  0.75000000  0.37500000  0.62500000  1
  Cr  Cr2  1  0.75000000  0.37500000  0.12500000  1
  Cr  Cr3  1  0.25000000  0.37500000  0.62500000  1
  Cu  Cu4  1  0.50000000  0.75000000  0.25000000  1
  Cu  Cu5  1  0.00000000  -0.00000000  -0.00000000  1
  O  O6  1  0.21890662  0.59862787  0.37972125  1
  O  O7  1  0.78109338  0.16081462  0.37972125  1
  O  O8  1  0.71890662  0.58918538  0.87027875  1
  O  O9  1  0.28109338  0.15137213  0.87027875  1
  O  O10  1  0.78109338  0.62027875  0.40137213  1
  O  O11  1  0.21890662  0.62027875  0.83918538  1
  O  O12  1  0.28109338  0.12972125  0.41081462  1
  O  O13  1  0.71890662  0.12972125  0.84862787  1
