# generated using pymatgen
data_Lu5Si3C
_symmetry_space_group_name_H-M   'P 1'
_cell_length_a   6.23347683
_cell_length_b   8.22378679
_cell_length_c   8.22410722
_cell_angle_alpha   119.99870833
_cell_angle_beta   90.00000000
_cell_angle_gamma   90.00000000
_symmetry_Int_Tables_number   1
_chemical_formula_structural   Lu5Si3C
_chemical_formula_sum   'Lu10 Si6 C2'
_cell_volume   365.11295244
_cell_formula_units_Z   2
loop_
 _symmetry_equiv_pos_site_id
 _symmetry_equiv_pos_as_xyz
  1  'x, y, z'
loop_
 _atom_site_type_symbol
 _atom_site_label
 _atom_site_symmetry_multiplicity
 _atom_site_fract_x
 _atom_site_fract_y
 _atom_site_fract_z
 _atom_site_occupancy
  Lu  Lu0  1  0.50000159  0.33330569  0.66662095  1
  Lu  Lu1  1  0.50000159  0.66668474  0.33337905  1
  Lu  Lu2  1  0.00000159  0.66669431  0.33337905  1
  Lu  Lu3  1  0.00000159  0.33331526  0.66662095  1
  Lu  Lu4  1  0.74998814  0.22333016  0.00000000  1
  Lu  Lu5  1  0.74999953  0.77669400  0.77668443  1
  Lu  Lu6  1  0.74999953  0.00000956  0.22331557  1
  Lu  Lu7  1  0.24998814  0.77666984  1.00000000  1
  Lu  Lu8  1  0.24999953  0.22330600  0.22331557  1
  Lu  Lu9  1  0.24999953  0.99999044  0.77668443  1
  Si  Si10  1  0.74999499  0.59347427  0.00000000  1
  Si  Si11  1  0.75000358  0.40650897  0.40650150  1
  Si  Si12  1  0.75000358  0.00000747  0.59349850  1
  Si  Si13  1  0.24999499  0.40652573  1.00000000  1
  Si  Si14  1  0.25000358  0.59349103  0.59349850  1
  Si  Si15  1  0.25000358  0.99999253  0.40650150  1
  C  C16  1  0.50000745  0.00002359  0.00000000  1
  C  C17  1  0.00000745  0.99997641  -0.00000000  1
