# generated using pymatgen
data_Tm(FeSn)6
_symmetry_space_group_name_H-M   'P 1'
_cell_length_a   5.41244390
_cell_length_b   5.41199583
_cell_length_c   8.91623632
_cell_angle_alpha   90.00000000
_cell_angle_beta   90.00000000
_cell_angle_gamma   120.00274919
_symmetry_Int_Tables_number   1
_chemical_formula_structural   Tm(FeSn)6
_chemical_formula_sum   'Tm1 Fe6 Sn6'
_cell_volume   226.17835002
_cell_formula_units_Z   1
loop_
 _symmetry_equiv_pos_site_id
 _symmetry_equiv_pos_as_xyz
  1  'x, y, z'
loop_
 _atom_site_type_symbol
 _atom_site_label
 _atom_site_symmetry_multiplicity
 _atom_site_fract_x
 _atom_site_fract_y
 _atom_site_fract_z
 _atom_site_occupancy
  Tm  Tm0  1  0.99997960  1.00000000  -0.00000000  1
  Fe  Fe1  1  0.49999082  1.00000000  0.24562124  1
  Fe  Fe2  1  0.49998816  0.50000304  0.24559247  1
  Fe  Fe3  1  0.99998512  0.49999696  0.24559247  1
  Fe  Fe4  1  0.49999082  1.00000000  0.75437876  1
  Fe  Fe5  1  0.49998816  0.50000304  0.75440753  1
  Fe  Fe6  1  0.99998512  0.49999696  0.75440753  1
  Sn  Sn7  1  0.33333676  0.66670004  -0.00000000  1
  Sn  Sn8  1  0.66663672  0.33329996  -0.00000000  1
  Sn  Sn9  1  0.33332479  0.66667157  0.50000000  1
  Sn  Sn10  1  0.66665322  0.33332843  0.50000000  1
  Sn  Sn11  1  0.99997034  1.00000000  0.33655916  1
  Sn  Sn12  1  0.99997034  1.00000000  0.66344084  1
