# generated using pymatgen
data_Cs2RhCl5O
_symmetry_space_group_name_H-M   'P 1'
_cell_length_a   7.41134550
_cell_length_b   8.45527722
_cell_length_c   9.52516095
_cell_angle_alpha   90.00000000
_cell_angle_beta   112.89480558
_cell_angle_gamma   90.00000000
_symmetry_Int_Tables_number   1
_chemical_formula_structural   Cs2RhCl5O
_chemical_formula_sum   'Cs4 Rh2 Cl10 O2'
_cell_volume   549.87112173
_cell_formula_units_Z   2
loop_
 _symmetry_equiv_pos_site_id
 _symmetry_equiv_pos_as_xyz
  1  'x, y, z'
loop_
 _atom_site_type_symbol
 _atom_site_label
 _atom_site_symmetry_multiplicity
 _atom_site_fract_x
 _atom_site_fract_y
 _atom_site_fract_z
 _atom_site_occupancy
  Cs  Cs0  1  0.46979208  0.25000000  0.93958416  1
  Cs  Cs1  1  0.53020792  0.75000000  0.06041584  1
  Cs  Cs2  1  0.75708092  0.25000000  0.51416184  1
  Cs  Cs3  1  0.24291908  0.75000000  0.48583816  1
  Rh  Rh4  1  0.10811787  0.25000000  0.21623573  1
  Rh  Rh5  1  0.89188213  0.75000000  0.78376427  1
  Cl  Cl6  1  0.24609448  0.25000000  0.49218895  1
  Cl  Cl7  1  0.75390552  0.75000000  0.50781105  1
  Cl  Cl8  1  0.88614823  0.04995780  0.22493640  1
  Cl  Cl9  1  0.66121183  0.95004220  0.77506360  1
  Cl  Cl10  1  0.88614823  0.45004220  0.22493640  1
  Cl  Cl11  1  0.66121183  0.54995780  0.77506360  1
  Cl  Cl12  1  0.11385177  0.95004220  0.77506360  1
  Cl  Cl13  1  0.33878817  0.04995780  0.22493640  1
  Cl  Cl14  1  0.11385177  0.54995780  0.77506360  1
  Cl  Cl15  1  0.33878817  0.45004220  0.22493640  1
  O  O16  1  0.00584012  0.25000000  0.01168025  1
  O  O17  1  0.99415988  0.75000000  0.98831975  1
