# generated using pymatgen
data_Rb3Bi2I9
_symmetry_space_group_name_H-M   'P 1'
_cell_length_a   8.61750175
_cell_length_b   8.59643639
_cell_length_c   21.93168112
_cell_angle_alpha   90.70515139
_cell_angle_beta   91.39865342
_cell_angle_gamma   59.91912144
_symmetry_Int_Tables_number   1
_chemical_formula_structural   Rb3Bi2I9
_chemical_formula_sum   'Rb6 Bi4 I18'
_cell_volume   1405.45988506
_cell_formula_units_Z   2
loop_
 _symmetry_equiv_pos_site_id
 _symmetry_equiv_pos_as_xyz
  1  'x, y, z'
loop_
 _atom_site_type_symbol
 _atom_site_label
 _atom_site_symmetry_multiplicity
 _atom_site_fract_x
 _atom_site_fract_y
 _atom_site_fract_z
 _atom_site_occupancy
  Rb  Rb0  1  0.99721753  0.00557122  0.24998942  1
  Rb  Rb1  1  0.66913315  0.66433352  0.57659416  1
  Rb  Rb2  1  0.00278266  0.99442861  0.75001162  1
  Rb  Rb3  1  0.33342738  0.33569346  0.07659706  1
  Rb  Rb4  1  0.33087004  0.33566109  0.42340528  1
  Rb  Rb5  1  0.66657174  0.66430947  0.92340197  1
  Bi  Bi6  1  0.67602871  0.66947756  0.15619975  1
  Bi  Bi7  1  0.32397048  0.33052119  0.84380066  1
  Bi  Bi8  1  0.34547933  0.33050996  0.65622072  1
  Bi  Bi9  1  0.65452076  0.66949222  0.34377978  1
  I  I10  1  0.18619417  0.16548198  0.57455961  1
  I  I11  1  0.81380250  0.83452112  0.42544092  1
  I  I12  1  0.00185026  0.50237469  0.25714634  1
  I  I13  1  0.14439102  0.66829077  0.91726785  1
  I  I14  1  0.81276530  0.33170171  0.41724556  1
  I  I15  1  0.35168602  0.83451529  0.07455865  1
  I  I16  1  0.85561213  0.33170428  0.08273155  1
  I  I17  1  0.85037507  0.84141643  0.08961243  1
  I  I18  1  0.99814916  0.49762615  0.74285409  1
  I  I19  1  0.49586454  0.50229192  0.24282991  1
  I  I20  1  0.18723477  0.66829909  0.58275505  1
  I  I21  1  0.50413588  0.49770799  0.75717059  1
  I  I22  1  0.49656139  0.00694869  0.24999457  1
  I  I23  1  0.30823305  0.84138254  0.41038419  1
  I  I24  1  0.69177047  0.15861834  0.58961558  1
  I  I25  1  0.14962001  0.15858706  0.91038659  1
  I  I26  1  0.50343908  0.99305038  0.75000528  1
  I  I27  1  0.64831238  0.16548430  0.92544082  1
