# generated using pymatgen
data_HgH24C8(I2N)2
_symmetry_space_group_name_H-M   'P 1'
_cell_length_a   9.96676510
_cell_length_b   13.73490192
_cell_length_c   17.24271869
_cell_angle_alpha   90.00000000
_cell_angle_beta   90.00000000
_cell_angle_gamma   90.00000000
_symmetry_Int_Tables_number   1
_chemical_formula_structural   HgH24C8(I2N)2
_chemical_formula_sum   'Hg4 H96 C32 I16 N8'
_cell_volume   2360.39957709
_cell_formula_units_Z   4
loop_
 _symmetry_equiv_pos_site_id
 _symmetry_equiv_pos_as_xyz
  1  'x, y, z'
loop_
 _atom_site_type_symbol
 _atom_site_label
 _atom_site_symmetry_multiplicity
 _atom_site_fract_x
 _atom_site_fract_y
 _atom_site_fract_z
 _atom_site_occupancy
  Hg  Hg0  1  0.99924659  0.50436048  0.59528770  1
  Hg  Hg1  1  0.00075341  0.00436048  0.90471230  1
  Hg  Hg2  1  0.50075341  0.49563952  0.09528770  1
  Hg  Hg3  1  0.49924659  0.99563952  0.40471230  1
  H  H4  1  0.46928666  0.62116498  0.85140472  1
  H  H5  1  0.03186479  0.58387041  0.10539536  1
  H  H6  1  0.84187265  0.32235629  0.37002489  1
  H  H7  1  0.10939143  0.47159978  0.81552493  1
  H  H8  1  0.67299930  0.18771463  0.68321291  1
  H  H9  1  0.68747799  0.13129552  0.13987634  1
  H  H10  1  0.36309602  0.83305484  0.75863322  1
  H  H11  1  0.47849640  0.60089045  0.52252636  1
  H  H12  1  0.86309602  0.66694516  0.24136678  1
  H  H13  1  0.39060857  0.52840022  0.31552493  1
  H  H14  1  0.03277238  0.62668073  0.25364150  1
  H  H15  1  0.52150360  0.10089045  0.97747364  1
  H  H16  1  0.98624399  0.74896583  0.27973468  1
  H  H17  1  0.18979679  0.69841346  0.10446728  1
  H  H18  1  0.32700070  0.68771463  0.81678709  1
  H  H19  1  0.15812735  0.82235629  0.12997511  1
  H  H20  1  0.03071334  0.37883502  0.35140472  1
  H  H21  1  0.82700070  0.81228537  0.18321291  1
  H  H22  1  0.80182574  0.23534848  0.29656599  1
  H  H23  1  0.50896785  0.22043982  0.01812577  1
  H  H24  1  0.35527529  0.15748342  0.18931990  1
  H  H25  1  0.90154593  0.25487556  0.88232730  1
  H  H26  1  0.14472471  0.84251658  0.68931990  1
  H  H27  1  0.10220953  0.00087568  0.52596805  1
  H  H28  1  0.34337504  0.64917716  0.46659239  1
  H  H29  1  0.39779047  0.99912432  0.02596805  1
  H  H30  1  0.96722762  0.12668073  0.24635850  1
  H  H31  1  0.13690398  0.16694516  0.25863322  1
  H  H32  1  0.71834150  0.65178429  0.40576761  1
  H  H33  1  0.65812735  0.67764371  0.87002489  1
  H  H34  1  0.81252201  0.86870448  0.63987634  1
  H  H35  1  0.06206770  0.35101642  0.78728781  1
  H  H36  1  0.19817426  0.73534848  0.20343401  1
  H  H37  1  0.31020321  0.30158654  0.60446728  1
  H  H38  1  0.69817426  0.76465152  0.79656599  1
  H  H39  1  0.09845407  0.75487556  0.61767270  1
  H  H40  1  0.53287937  0.32366853  0.54130959  1
  H  H41  1  0.02150360  0.39910955  0.02252636  1
  H  H42  1  0.60220953  0.49912432  0.47403195  1
  H  H43  1  0.96813521  0.08387041  0.39460464  1
  H  H44  1  0.46813521  0.41612959  0.60539536  1
  H  H45  1  0.48370129  0.45032466  0.40586144  1
  H  H46  1  0.64764964  0.48625563  0.37419154  1
  H  H47  1  0.18747799  0.36870448  0.86012366  1
  H  H48  1  0.15662496  0.35082284  0.96659239  1
  H  H49  1  0.12823559  0.30782031  0.41741091  1
  H  H50  1  0.85235036  0.51374437  0.87419154  1
  H  H51  1  0.60939143  0.02840022  0.18447507  1
  H  H52  1  0.84337504  0.85082284  0.53340761  1
  H  H53  1  0.53277238  0.87331927  0.74635850  1
  H  H54  1  0.65662496  0.14917716  0.03340761  1
  H  H55  1  0.48624399  0.75103417  0.72026532  1
  H  H56  1  0.34187265  0.17764371  0.62997511  1
  H  H57  1  0.21834150  0.84821571  0.59423239  1
  H  H58  1  0.35888984  0.87999973  0.88788624  1
  H  H59  1  0.98370129  0.04967534  0.59413856  1
  H  H60  1  0.37176441  0.69217969  0.91741091  1
  H  H61  1  0.46712063  0.82366853  0.95869041  1
  H  H62  1  0.63690398  0.33305484  0.74136678  1
  H  H63  1  0.03287937  0.17633147  0.45869041  1
  H  H64  1  0.97849640  0.89910955  0.47747364  1
  H  H65  1  0.78165850  0.34821571  0.90576761  1
  H  H66  1  0.46722762  0.37331927  0.75364150  1
  H  H67  1  0.89060857  0.97159978  0.68447507  1
  H  H68  1  0.59845407  0.74512444  0.38232730  1
  H  H69  1  0.51375601  0.25103417  0.77973468  1
  H  H70  1  0.53071334  0.12116498  0.64859528  1
  H  H71  1  0.62823559  0.19217969  0.58258909  1
  H  H72  1  0.14764964  0.01374437  0.62580846  1
  H  H73  1  0.56206770  0.14898358  0.21271219  1
  H  H74  1  0.64111016  0.37999973  0.61211376  1
  H  H75  1  0.99103215  0.77956018  0.51812577  1
  H  H76  1  0.51629871  0.95032466  0.09413856  1
  H  H77  1  0.01629871  0.54967534  0.90586144  1
  H  H78  1  0.53186479  0.91612959  0.89460464  1
  H  H79  1  0.30182574  0.26465152  0.70343401  1
  H  H80  1  0.49103215  0.72043982  0.48187423  1
  H  H81  1  0.64472471  0.65748342  0.31068010  1
  H  H82  1  0.87176441  0.80782031  0.08258909  1
  H  H83  1  0.31252201  0.63129552  0.36012366  1
  H  H84  1  0.81020321  0.19841346  0.39553272  1
  H  H85  1  0.01375601  0.24896583  0.22026532  1
  H  H86  1  0.96712063  0.67633147  0.04130959  1
  H  H87  1  0.85888984  0.62000027  0.11211376  1
  H  H88  1  0.35235036  0.98625563  0.12580846  1
  H  H89  1  0.40154593  0.24512444  0.11767270  1
  H  H90  1  0.17299930  0.31228537  0.31678709  1
  H  H91  1  0.68979679  0.80158654  0.89553272  1
  H  H92  1  0.28165850  0.15178429  0.09423239  1
  H  H93  1  0.93793230  0.85101642  0.71271219  1
  H  H94  1  0.14111016  0.12000027  0.38788624  1
  H  H95  1  0.85527529  0.34251658  0.81068010  1
  H  H96  1  0.89779047  0.50087568  0.97403195  1
  H  H97  1  0.00896785  0.27956018  0.98187423  1
  H  H98  1  0.96928666  0.87883502  0.14859528  1
  H  H99  1  0.43793230  0.64898358  0.28728781  1
  C  C100  1  0.53910063  0.35546636  0.59999126  1
  C  C101  1  0.56529249  0.50251171  0.41421511  1
  C  C102  1  0.62771215  0.66927053  0.37277295  1
  C  C103  1  0.35346357  0.25347257  0.64812131  1
  C  C104  1  0.87228785  0.33072947  0.87277295  1
  C  C105  1  0.96089937  0.64453364  0.09999126  1
  C  C106  1  0.59419314  0.10308025  0.16431598  1
  C  C107  1  0.06529249  0.99748829  0.58578489  1
  C  C108  1  0.53147291  0.31139041  0.73892867  1
  C  C109  1  0.93470751  0.49748829  0.91421511  1
  C  C110  1  0.09419314  0.39691975  0.83568402  1
  C  C111  1  0.45218373  0.64653092  0.47304434  1
  C  C112  1  0.46089937  0.85546636  0.90000874  1
  C  C113  1  0.03910063  0.14453364  0.40000874  1
  C  C114  1  0.54781627  0.14653092  0.02695566  1
  C  C115  1  0.08975323  0.31205333  0.35800428  1
  C  C116  1  0.64653643  0.75347257  0.85187869  1
  C  C117  1  0.90580686  0.89691975  0.66431598  1
  C  C118  1  0.58975323  0.18794667  0.64199572  1
  C  C119  1  0.14653643  0.74652743  0.14812131  1
  C  C120  1  0.85346357  0.24652743  0.35187869  1
  C  C121  1  0.40580686  0.60308025  0.33568402  1
  C  C122  1  0.04781627  0.35346908  0.97304434  1
  C  C123  1  0.43470751  0.00251171  0.08578489  1
  C  C124  1  0.95218373  0.85346908  0.52695566  1
  C  C125  1  0.46852709  0.81139041  0.76107133  1
  C  C126  1  0.03147291  0.18860959  0.26107133  1
  C  C127  1  0.37228785  0.16927053  0.12722705  1
  C  C128  1  0.91024677  0.81205333  0.14199572  1
  C  C129  1  0.12771215  0.83072947  0.62722705  1
  C  C130  1  0.96852709  0.68860959  0.23892867  1
  C  C131  1  0.41024677  0.68794667  0.85800428  1
  I  I132  1  0.00159266  0.07422076  0.06088329  1
  I  I133  1  0.99840734  0.57422076  0.43911671  1
  I  I134  1  0.50159266  0.42577924  0.93911671  1
  I  I135  1  0.49599211  0.20416304  0.39364417  1
  I  I136  1  0.73667663  0.42453989  0.17066152  1
  I  I137  1  0.23772385  0.57516992  0.66934088  1
  I  I138  1  0.50400789  0.70416304  0.10635583  1
  I  I139  1  0.73772385  0.92483008  0.33065912  1
  I  I140  1  0.26332337  0.92453989  0.32933848  1
  I  I141  1  0.26227615  0.42483008  0.16934088  1
  I  I142  1  0.49840734  0.92577924  0.56088329  1
  I  I143  1  0.76332337  0.57546011  0.67066152  1
  I  I144  1  0.99599211  0.29583696  0.60635583  1
  I  I145  1  0.00400789  0.79583696  0.89364417  1
  I  I146  1  0.76227615  0.07516992  0.83065912  1
  I  I147  1  0.23667663  0.07546011  0.82933848  1
  N  N148  1  0.98704037  0.39534976  0.89899283  1
  N  N149  1  0.01295963  0.89534976  0.60100717  1
  N  N150  1  0.99772240  0.72338946  0.15741734  1
  N  N151  1  0.49772240  0.77661054  0.84258266  1
  N  N152  1  0.00227760  0.22338946  0.34258266  1
  N  N153  1  0.51295963  0.60465024  0.39899283  1
  N  N154  1  0.50227760  0.27661054  0.65741734  1
  N  N155  1  0.48704037  0.10465024  0.10100717  1
