# generated using pymatgen
data_K3Bi2I9
_symmetry_space_group_name_H-M   'P 1'
_cell_length_a   8.52290263
_cell_length_b   8.43413167
_cell_length_c   21.76572321
_cell_angle_alpha   93.89457786
_cell_angle_beta   97.64633417
_cell_angle_gamma   59.66110528
_symmetry_Int_Tables_number   1
_chemical_formula_structural   K3Bi2I9
_chemical_formula_sum   'K6 Bi4 I18'
_cell_volume   1338.31808607
_cell_formula_units_Z   2
loop_
 _symmetry_equiv_pos_site_id
 _symmetry_equiv_pos_as_xyz
  1  'x, y, z'
loop_
 _atom_site_type_symbol
 _atom_site_label
 _atom_site_symmetry_multiplicity
 _atom_site_fract_x
 _atom_site_fract_y
 _atom_site_fract_z
 _atom_site_occupancy
  K  K0  1  0.98700545  0.02605281  0.24998474  1
  K  K1  1  0.65645635  0.64976739  0.55727828  1
  K  K2  1  0.01313381  0.97380963  0.74999015  1
  K  K3  1  0.30543476  0.34961325  0.05702190  1
  K  K4  1  0.34357096  0.35018209  0.44272269  1
  K  K5  1  0.69455011  0.65048730  0.94299597  1
  Bi  Bi6  1  0.69828764  0.66931336  0.15696095  1
  Bi  Bi7  1  0.30167659  0.33069293  0.84304555  1
  Bi  Bi8  1  0.36780487  0.33074083  0.65688233  1
  Bi  Bi9  1  0.63219062  0.66927814  0.34312784  1
  I  I10  1  0.22333899  0.16210146  0.55924383  1
  I  I11  1  0.77660659  0.83796626  0.44075386  1
  I  I12  1  0.00788003  0.48787472  0.27970398  1
  I  I13  1  0.09565744  0.66871722  0.91885675  1
  I  I14  1  0.76371234  0.33124862  0.41881564  1
  I  I15  1  0.38530333  0.83794689  0.05938511  1
  I  I16  1  0.90434362  0.33126969  0.08114529  1
  I  I17  1  0.89468809  0.84047074  0.10822237  1
  I  I18  1  0.99211671  0.51214353  0.72029370  1
  I  I19  1  0.50403188  0.48787946  0.22027167  1
  I  I20  1  0.23633335  0.66875511  0.58118442  1
  I  I21  1  0.49594789  0.51214099  0.77973169  1
  I  I22  1  0.49746599  0.00538920  0.25015761  1
  I  I23  1  0.26445722  0.84064656  0.39169977  1
  I  I24  1  0.73555775  0.15932031  0.60830620  1
  I  I25  1  0.10528105  0.15949689  0.89175065  1
  I  I26  1  0.50251518  0.99464223  0.74984415  1
  I  I27  1  0.61465039  0.16205340  0.94062288  1
