# generated using pymatgen
data_K3InF6
_symmetry_space_group_name_H-M   'P 1'
_cell_length_a   6.52837718
_cell_length_b   6.52837728
_cell_length_c   6.52837727
_cell_angle_alpha   59.99999963
_cell_angle_beta   59.99999940
_cell_angle_gamma   59.99999948
_symmetry_Int_Tables_number   1
_chemical_formula_structural   K3InF6
_chemical_formula_sum   'K3 In1 F6'
_cell_volume   196.74364987
_cell_formula_units_Z   1
loop_
 _symmetry_equiv_pos_site_id
 _symmetry_equiv_pos_as_xyz
  1  'x, y, z'
loop_
 _atom_site_type_symbol
 _atom_site_label
 _atom_site_symmetry_multiplicity
 _atom_site_fract_x
 _atom_site_fract_y
 _atom_site_fract_z
 _atom_site_occupancy
  K  K0  1  0.25000000  0.25000000  0.25000000  1
  K  K1  1  0.75000000  0.75000000  0.75000000  1
  K  K2  1  0.50000000  0.50000000  0.50000000  1
  In  In3  1  -0.00000000  -0.00000000  0.00000000  1
  F  F4  1  0.22752238  0.77247762  0.22752239  1
  F  F5  1  0.77247762  0.77247761  0.22752238  1
  F  F6  1  0.77247762  0.22752238  0.77247761  1
  F  F7  1  0.77247762  0.22752239  0.22752238  1
  F  F8  1  0.22752238  0.77247761  0.77247762  1
  F  F9  1  0.22752238  0.22752239  0.77247762  1
