# generated using pymatgen
data_Na5Nd11Ti10Mn6O48
_symmetry_space_group_name_H-M   'P 1'
_cell_length_a   5.51963942
_cell_length_b   5.63584491
_cell_length_c   30.83712745
_cell_angle_alpha   90.45841270
_cell_angle_beta   90.24432176
_cell_angle_gamma   87.39804240
_symmetry_Int_Tables_number   1
_chemical_formula_structural   Na5Nd11Ti10Mn6O48
_chemical_formula_sum   'Na5 Nd11 Ti10 Mn6 O48'
_cell_volume   958.24919745
_cell_formula_units_Z   1
loop_
 _symmetry_equiv_pos_site_id
 _symmetry_equiv_pos_as_xyz
  1  'x, y, z'
loop_
 _atom_site_type_symbol
 _atom_site_label
 _atom_site_symmetry_multiplicity
 _atom_site_fract_x
 _atom_site_fract_y
 _atom_site_fract_z
 _atom_site_occupancy
  Na  Na0  1  0.49102862  0.49697384  0.93754302  1
  Na  Na1  1  0.99359380  0.02877494  0.18808143  1
  Na  Na2  1  0.99248441  0.02651581  0.43765742  1
  Na  Na3  1  0.99151419  0.02856596  0.68738975  1
  Na  Na4  1  0.99701611  0.99239378  0.93780659  1
  Nd  Nd5  1  0.01386228  0.95709516  0.06291619  1
  Nd  Nd6  1  0.01808072  0.95013582  0.31208198  1
  Nd  Nd7  1  0.01797279  0.94976855  0.56210100  1
  Nd  Nd8  1  0.01087328  0.95042664  0.81180228  1
  Nd  Nd9  1  0.49224004  0.45488203  0.06291811  1
  Nd  Nd10  1  0.49383610  0.45268868  0.31274945  1
  Nd  Nd11  1  0.49340145  0.44983369  0.81230208  1
  Nd  Nd12  1  0.49385180  0.45235510  0.56280448  1
  Nd  Nd13  1  0.50721379  0.55125761  0.43810095  1
  Nd  Nd14  1  0.50652075  0.55456095  0.18819234  1
  Nd  Nd15  1  0.50563664  0.55191387  0.68792074  1
  Ti  Ti16  1  0.50632513  0.00634768  0.12818290  1
  Ti  Ti17  1  0.50304769  0.97571368  0.99837144  1
  Ti  Ti18  1  0.50512886  0.00266943  0.62814026  1
  Ti  Ti19  1  0.50540994  0.00249177  0.37825197  1
  Ti  Ti20  1  0.49990467  0.97573695  0.87790951  1
  Ti  Ti21  1  0.98428761  0.47565968  0.99665822  1
  Ti  Ti22  1  -0.00002845  0.49138135  0.24743280  1
  Ti  Ti23  1  0.99894798  0.49244870  0.74741114  1
  Ti  Ti24  1  0.98199180  0.47500506  0.87757050  1
  Ti  Ti25  1  0.00047391  0.49029111  0.49740411  1
  Mn  Mn26  1  0.50660308  0.00317943  0.24966550  1
  Mn  Mn27  1  0.50332474  0.00188022  0.74928595  1
  Mn  Mn28  1  0.50651903  0.00173768  0.49963814  1
  Mn  Mn29  1  0.99848156  0.49781579  0.12543237  1
  Mn  Mn30  1  0.99822870  0.49299385  0.37527568  1
  Mn  Mn31  1  0.99780769  0.49316201  0.62525980  1
  O  O32  1  0.08172027  0.47831182  0.18736927  1
  O  O33  1  0.08232618  0.47517801  0.43732780  1
  O  O34  1  0.08113639  0.47624821  0.68711975  1
  O  O35  1  0.06657664  0.48620365  0.93753758  1
  O  O36  1  0.21750120  0.21375797  0.51266108  1
  O  O37  1  0.21539914  0.21489216  0.76247578  1
  O  O38  1  0.22514293  0.22953891  0.01290348  1
  O  O39  1  0.21676444  0.21456784  0.26263696  1
  O  O40  1  0.21216023  0.22339645  0.11161829  1
  O  O41  1  0.21256520  0.21792765  0.36123261  1
  O  O42  1  0.21227743  0.21763369  0.61119690  1
  O  O43  1  0.22570511  0.22759047  0.86191989  1
  O  O44  1  0.29224637  0.73482040  0.01210446  1
  O  O45  1  0.27248225  0.69671519  0.26121632  1
  O  O46  1  0.30172272  0.73679485  0.11297853  1
  O  O47  1  0.29993273  0.73262198  0.36267919  1
  O  O48  1  0.29168113  0.73315880  0.86259934  1
  O  O49  1  0.27244995  0.69598470  0.51119328  1
  O  O50  1  0.27296728  0.69616901  0.76106346  1
  O  O51  1  0.29963550  0.73256995  0.61263992  1
  O  O52  1  0.42312848  0.97991275  0.43776884  1
  O  O53  1  0.42443552  0.98295334  0.18791934  1
  O  O54  1  0.42182872  0.98031665  0.68763650  1
  O  O55  1  0.43602744  0.99358556  0.93744692  1
  O  O56  1  0.58495951  0.02688273  0.06246476  1
  O  O57  1  0.59002180  0.02201230  0.31168420  1
  O  O58  1  0.58401104  0.01966820  0.81127352  1
  O  O59  1  0.59001952  0.02157743  0.56169505  1
  O  O60  1  0.71091700  0.32030171  0.24179666  1
  O  O61  1  0.67562560  0.29742242  0.13355505  1
  O  O62  1  0.71124471  0.31902179  0.49190631  1
  O  O63  1  0.70859606  0.32109902  0.74205865  1
  O  O64  1  0.67649801  0.29018275  0.38390504  1
  O  O65  1  0.72111619  0.29298449  0.99396896  1
  O  O66  1  0.67588789  0.29047178  0.63394579  1
  O  O67  1  0.71999541  0.29037499  0.88062764  1
  O  O68  1  0.78404511  0.78873089  0.13515752  1
  O  O69  1  0.78556669  0.78668682  0.24006726  1
  O  O70  1  0.78083772  0.78194380  0.38529088  1
  O  O71  1  0.78010036  0.78247132  0.63524495  1
  O  O72  1  0.79199864  0.79181900  0.88079851  1
  O  O73  1  0.78641959  0.78915479  0.73996263  1
  O  O74  1  0.78553802  0.78573307  0.49002536  1
  O  O75  1  0.79253574  0.79068723  0.99419979  1
  O  O76  1  0.92521180  0.52860410  0.06318801  1
  O  O77  1  0.92010655  0.52181883  0.31342121  1
  O  O78  1  0.92528440  0.52141980  0.81282236  1
  O  O79  1  0.92007068  0.52142792  0.56343528  1
