# generated using pymatgen
data_Li4Mn3O7
_symmetry_space_group_name_H-M   'P 1'
_cell_length_a   5.31026156
_cell_length_b   6.50639221
_cell_length_c   7.77804735
_cell_angle_alpha   92.98376544
_cell_angle_beta   74.61472028
_cell_angle_gamma   95.30804353
_symmetry_Int_Tables_number   1
_chemical_formula_structural   Li4Mn3O7
_chemical_formula_sum   'Li8 Mn6 O14'
_cell_volume   257.88893951
_cell_formula_units_Z   2
loop_
 _symmetry_equiv_pos_site_id
 _symmetry_equiv_pos_as_xyz
  1  'x, y, z'
loop_
 _atom_site_type_symbol
 _atom_site_label
 _atom_site_symmetry_multiplicity
 _atom_site_fract_x
 _atom_site_fract_y
 _atom_site_fract_z
 _atom_site_occupancy
  Li  Li0  1  0.07142900  0.14285700  0.35714300  1
  Li  Li1  1  0.35363707  0.71291580  0.78309489  1
  Li  Li2  1  0.49489553  0.99735683  0.50338292  1
  Li  Li3  1  0.78921993  0.57279920  0.93119011  1
  Li  Li4  1  0.92118524  0.86786927  0.64894975  1
  Li  Li5  1  0.22167176  0.41784473  0.06533625  1
  Li  Li6  1  0.64796147  0.28835717  0.21090308  1
  Li  Li7  1  0.57142900  0.14285700  0.85714300  1
  Mn  Mn8  1  0.00090810  0.00117043  0.99904255  1
  Mn  Mn9  1  0.14194890  0.28454357  0.71524345  1
  Mn  Mn10  1  0.28533435  0.56987429  0.42752538  1
  Mn  Mn11  1  0.85752265  0.71584071  0.28675962  1
  Mn  Mn12  1  0.43046727  0.85890814  0.13901193  1
  Mn  Mn13  1  0.71238973  0.42680586  0.57527407  1
  O  O14  1  0.77034912  0.99320937  0.24125509  1
  O  O15  1  0.05561376  0.55806294  0.67334137  1
  O  O16  1  0.20281918  0.84485617  0.38548119  1
  O  O17  1  0.44362148  0.41472495  0.79937078  1
  O  O18  1  0.62985285  0.70954007  0.53020776  1
  O  O19  1  0.91897197  0.27447205  0.95575036  1
  O  O20  1  0.29411627  0.11474429  0.09735555  1
  O  O21  1  0.37250788  0.29250563  0.47302991  1
  O  O22  1  0.69923552  0.87098905  0.91491522  1
  O  O23  1  0.84874073  0.17097071  0.61692945  1
  O  O24  1  0.08724424  0.72765106  0.04094463  1
  O  O25  1  0.22388503  0.01124195  0.75853564  1
  O  O26  1  0.51300415  0.57617393  0.18407824  1
  O  O27  1  0.94003782  0.44085783  0.32880481  1
