# generated using pymatgen
data_Sr4Nd3Ta2Al5O21
_symmetry_space_group_name_H-M   'P 1'
_cell_length_a   27.07040715
_cell_length_b   5.46485618
_cell_length_c   5.46485327
_cell_angle_alpha   60.00043612
_cell_angle_beta   45.04376504
_cell_angle_gamma   45.04376441
_symmetry_Int_Tables_number   1
_chemical_formula_structural   Sr4Nd3Ta2Al5O21
_chemical_formula_sum   'Sr4 Nd3 Ta2 Al5 O21'
_cell_volume   404.84100415
_cell_formula_units_Z   1
loop_
 _symmetry_equiv_pos_site_id
 _symmetry_equiv_pos_as_xyz
  1  'x, y, z'
loop_
 _atom_site_type_symbol
 _atom_site_label
 _atom_site_symmetry_multiplicity
 _atom_site_fract_x
 _atom_site_fract_y
 _atom_site_fract_z
 _atom_site_occupancy
  Sr  Sr0  1  0.07034133  0.50254936  0.50254781  1
  Sr  Sr1  1  0.21536905  0.49747828  0.49747890  1
  Sr  Sr2  1  0.36611057  0.47908215  0.47908113  1
  Sr  Sr3  1  0.91960358  0.52091435  0.52091410  1
  Nd  Nd4  1  0.51124168  0.47378070  0.47378213  1
  Nd  Nd5  1  0.64285699  0.49999438  0.49999247  1
  Nd  Nd6  1  0.77446247  0.52620760  0.52620729  1
  Ta  Ta7  1  0.99799275  0.00468367  0.00468363  1
  Ta  Ta8  1  0.28772400  0.99532427  0.99532393  1
  Al  Al9  1  0.14286230  -0.00000215  -0.00000204  1
  Al  Al10  1  0.43534581  0.98419174  0.98419229  1
  Al  Al11  1  0.57048280  0.00220086  0.00220098  1
  Al  Al12  1  0.71523000  0.99779501  0.99779467  1
  Al  Al13  1  0.85036916  0.01580674  0.01580711  1
  O  O14  1  0.07191295  0.00157702  0.00157690  1
  O  O15  1  0.07190803  0.49347003  0.00158682  1
  O  O16  1  0.21381231  0.99839944  0.99839954  1
  O  O17  1  0.21380813  0.50653089  0.99841399  1
  O  O18  1  0.07190804  0.00158715  0.49346975  1
  O  O19  1  0.36380101  0.98630014  0.98630117  1
  O  O20  1  0.36380018  0.48080762  0.98630923  1
  O  O21  1  0.21380820  0.99841476  0.50653022  1
  O  O22  1  0.50590298  0.98349345  0.98349292  1
  O  O23  1  0.50589863  0.49169917  0.98350016  1
  O  O24  1  0.36379963  0.98631047  0.48080937  1
  O  O25  1  0.64285638  0.99999590  0.99999681  1
  O  O26  1  0.64285561  0.49999941  0.99999761  1
  O  O27  1  0.50589846  0.98349819  0.49170044  1
  O  O28  1  0.77981099  0.01650343  0.01650404  1
  O  O29  1  0.77981191  0.50830192  0.01651738  1
  O  O30  1  0.64285526  0.99999892  0.49999910  1
  O  O31  1  0.92191266  0.01370940  0.01370962  1
  O  O32  1  0.92191670  0.51919037  0.01368989  1
  O  O33  1  0.77981220  0.01651555  0.50830176  1
  O  O34  1  0.92191726  0.01368982  0.51918887  1
