# generated using pymatgen
data_Na2LiFePCO7
_symmetry_space_group_name_H-M   'P 1'
_cell_length_a   8.84358947
_cell_length_b   6.67561722
_cell_length_c   10.33512425
_cell_angle_alpha   90.26082813
_cell_angle_beta   88.01510516
_cell_angle_gamma   88.88532532
_symmetry_Int_Tables_number   1
_chemical_formula_structural   Na2LiFePCO7
_chemical_formula_sum   'Na8 Li4 Fe4 P4 C4 O28'
_cell_volume   609.65889084
_cell_formula_units_Z   4
loop_
 _symmetry_equiv_pos_site_id
 _symmetry_equiv_pos_as_xyz
  1  'x, y, z'
loop_
 _atom_site_type_symbol
 _atom_site_label
 _atom_site_symmetry_multiplicity
 _atom_site_fract_x
 _atom_site_fract_y
 _atom_site_fract_z
 _atom_site_occupancy
  Na  Na0  1  0.08147683  0.23708513  0.87880470  1
  Na  Na1  1  0.08368928  0.24703880  0.38082348  1
  Na  Na2  1  0.25976149  0.50174201  0.62710932  1
  Na  Na3  1  0.26372887  0.00174804  0.12728858  1
  Na  Na4  1  0.26229236  0.49900568  0.12637812  1
  Na  Na5  1  0.74024082  0.49977379  0.87310107  1
  Na  Na6  1  0.74103390  0.50579275  0.37594865  1
  Na  Na7  1  0.74061282  0.99647093  0.37655355  1
  Li  Li8  1  0.28391621  0.03139478  0.61356594  1
  Li  Li9  1  0.71905835  0.96950284  0.88478723  1
  Li  Li10  1  0.91008435  0.77805320  0.62922414  1
  Li  Li11  1  0.90027390  0.75574870  0.11979478  1
  Fe  Fe12  1  0.34882153  0.74831842  0.88752512  1
  Fe  Fe13  1  0.35332291  0.75601249  0.39526343  1
  Fe  Fe14  1  0.65283457  0.24796512  0.61402807  1
  Fe  Fe15  1  0.65125199  0.24273554  0.10728791  1
  P  P16  1  0.41543793  0.23620219  0.85152080  1
  P  P17  1  0.41575226  0.25362135  0.35915136  1
  P  P18  1  0.59056864  0.75854499  0.65032130  1
  P  P19  1  0.59076073  0.74635641  0.14316655  1
  C  C20  1  0.04194838  0.75988424  0.86230707  1
  C  C21  1  0.05105922  0.75250718  0.35781665  1
  C  C22  1  0.94990155  0.24154868  0.63585522  1
  C  C23  1  0.94288357  0.24764876  0.13660789  1
  O  O24  1  0.09598854  0.22559117  0.64146568  1
  O  O25  1  0.08757625  0.25563412  0.14663733  1
  O  O26  1  0.07910845  0.75193135  0.98315979  1
  O  O27  1  0.07946381  0.75220703  0.48056185  1
  O  O28  1  0.14777802  0.75006351  0.77095019  1
  O  O29  1  0.16351579  0.75999643  0.27232305  1
  O  O30  1  0.31505252  0.06051342  0.89948953  1
  O  O31  1  0.32685452  0.43321024  0.89012129  1
  O  O32  1  0.32071428  0.07112768  0.40745793  1
  O  O33  1  0.31807430  0.44381053  0.39671233  1
  O  O34  1  0.43281210  0.22504973  0.70029084  1
  O  O35  1  0.43232174  0.77277136  0.58925462  1
  O  O36  1  0.43767339  0.24418513  0.20864852  1
  O  O37  1  0.43649131  0.74556153  0.07823498  1
  O  O38  1  0.57473132  0.22596073  0.90962085  1
  O  O39  1  0.56872848  0.76824045  0.80099645  1
  O  O40  1  0.57107817  0.25582293  0.42169268  1
  O  O41  1  0.56550822  0.75699614  0.29294294  1
  O  O42  1  0.67965090  0.56354832  0.61085420  1
  O  O43  1  0.69574680  0.93209604  0.60577138  1
  O  O44  1  0.68908634  0.55658289  0.10689460  1
  O  O45  1  0.69096558  0.92526508  0.09585796  1
  O  O46  1  0.86422986  0.25191340  0.74051099  1
  O  O47  1  0.85385318  0.24036811  0.23981028  1
  O  O48  1  0.88444407  0.24751357  0.52457002  1
  O  O49  1  0.88201891  0.24592118  0.02376815  1
  O  O50  1  0.90149234  0.77735752  0.83002848  1
  O  O51  1  0.91432938  0.74605839  0.31714115  1
