# generated using pymatgen
data_Sm(BO2)3
_symmetry_space_group_name_H-M   'P 1'
_cell_length_a   6.35967330
_cell_length_b   6.38482964
_cell_length_c   6.38482964
_cell_angle_alpha   79.17922293
_cell_angle_beta   62.56023297
_cell_angle_gamma   62.56023298
_symmetry_Int_Tables_number   1
_chemical_formula_structural   Sm(BO2)3
_chemical_formula_sum   'Sm2 B6 O12'
_cell_volume   204.10509880
_cell_formula_units_Z   2
loop_
 _symmetry_equiv_pos_site_id
 _symmetry_equiv_pos_as_xyz
  1  'x, y, z'
loop_
 _atom_site_type_symbol
 _atom_site_label
 _atom_site_symmetry_multiplicity
 _atom_site_fract_x
 _atom_site_fract_y
 _atom_site_fract_z
 _atom_site_occupancy
  B  B0  1  0.91222240  0.66126744  0.29256324  1
  B  B1  1  0.58777760  0.20743676  0.83873256  1
  B  B2  1  0.75000000  0.77745855  0.72254145  1
  B  B3  1  0.25000000  0.22254145  0.27745855  1
  B  B4  1  0.08777760  0.33873256  0.70743676  1
  B  B5  1  0.41222240  0.79256324  0.16126744  1
  O  O6  1  0.70843600  0.78253504  0.50931204  1
  O  O7  1  0.99441452  0.58344027  0.71369548  1
  O  O8  1  0.50558548  0.78630452  0.91655973  1
  O  O9  1  0.00558548  0.41655973  0.28630452  1
  O  O10  1  0.49330170  0.61340410  0.29400482  1
  O  O11  1  0.00669830  0.20599518  0.88659590  1
  O  O12  1  0.50669830  0.38659590  0.70599518  1
  O  O13  1  0.99330170  0.79400482  0.11340410  1
  O  O14  1  0.29156400  0.21746496  0.49068796  1
  O  O15  1  0.20843600  0.00931204  0.28253504  1
  O  O16  1  0.49441452  0.21369548  0.08344027  1
  O  O17  1  0.79156400  0.99068796  0.71746496  1
  Sm  Sm18  1  0.75000000  0.20369570  0.29630430  1
  Sm  Sm19  1  0.25000000  0.79630430  0.70369570  1
