# generated using pymatgen
data_LiMnF4
_symmetry_space_group_name_H-M   'P 1'
_cell_length_a   6.70123689
_cell_length_b   6.37513195
_cell_length_c   6.38228650
_cell_angle_alpha   90.00000000
_cell_angle_beta   89.81076626
_cell_angle_gamma   90.00000000
_symmetry_Int_Tables_number   1
_chemical_formula_structural   LiMnF4
_chemical_formula_sum   'Li4 Mn4 F16'
_cell_volume   272.65789383
_cell_formula_units_Z   4
loop_
 _symmetry_equiv_pos_site_id
 _symmetry_equiv_pos_as_xyz
  1  'x, y, z'
loop_
 _atom_site_type_symbol
 _atom_site_label
 _atom_site_symmetry_multiplicity
 _atom_site_fract_x
 _atom_site_fract_y
 _atom_site_fract_z
 _atom_site_occupancy
  Li  Li0  1  0.24996779  0.00025390  0.75159400  1
  Li  Li1  1  0.25003221  0.50025390  0.74840600  1
  Li  Li2  1  0.74996779  0.49974610  0.25159400  1
  Li  Li3  1  0.75003221  -0.00025390  0.24840600  1
  Mn  Mn4  1  0.25011762  0.25085430  0.24981501  1
  Mn  Mn5  1  0.24988238  0.75085430  0.25018499  1
  Mn  Mn6  1  0.75011762  0.24914570  0.74981501  1
  Mn  Mn7  1  0.74988238  0.74914570  0.75018499  1
  F  F8  1  0.94315383  0.49939285  0.74980080  1
  F  F9  1  0.05663180  0.00067923  0.25323341  1
  F  F10  1  0.24861206  0.75100479  0.96135258  1
  F  F11  1  0.25140818  0.74983594  0.53923601  1
  F  F12  1  0.24859182  0.24983594  0.96076399  1
  F  F13  1  0.25138794  0.25100479  0.53864742  1
  F  F14  1  0.55684617  0.99939285  0.75019920  1
  F  F15  1  0.55663180  0.49932077  0.75323341  1
  F  F16  1  0.44336820  0.50067923  0.24676659  1
  F  F17  1  0.44315383  0.00060715  0.24980080  1
  F  F18  1  0.74861206  0.74899521  0.46135258  1
  F  F19  1  0.75140818  0.75016406  0.03923601  1
  F  F20  1  0.74859182  0.25016406  0.46076399  1
  F  F21  1  0.75138794  0.24899521  0.03864742  1
  F  F22  1  0.94336820  0.99932077  0.74676659  1
  F  F23  1  0.05684617  0.50060715  0.25019920  1
