# generated using pymatgen
data_Li2FePCO7
_symmetry_space_group_name_H-M   'P 1'
_cell_length_a   8.31782856
_cell_length_b   10.18719008
_cell_length_c   6.47415966
_cell_angle_alpha   89.85909669
_cell_angle_beta   90.63418693
_cell_angle_gamma   84.74822233
_symmetry_Int_Tables_number   1
_chemical_formula_structural   Li2FePCO7
_chemical_formula_sum   'Li8 Fe4 P4 C4 O28'
_cell_volume   546.25014773
_cell_formula_units_Z   4
loop_
 _symmetry_equiv_pos_site_id
 _symmetry_equiv_pos_as_xyz
  1  'x, y, z'
loop_
 _atom_site_type_symbol
 _atom_site_label
 _atom_site_symmetry_multiplicity
 _atom_site_fract_x
 _atom_site_fract_y
 _atom_site_fract_z
 _atom_site_occupancy
  Li  Li0  1  0.09875395  0.38100404  0.25222364  1
  Li  Li1  1  0.09929067  0.88298584  0.25789715  1
  Li  Li2  1  0.27802300  0.12715510  0.03475717  1
  Li  Li3  1  0.27812688  0.62742627  0.46163869  1
  Li  Li4  1  0.72194514  0.37453783  0.96692773  1
  Li  Li5  1  0.72497442  0.87541068  0.96822962  1
  Li  Li6  1  0.90146356  0.11887471  0.73916860  1
  Li  Li7  1  0.90230901  0.61847347  0.74145244  1
  Fe  Fe8  1  0.32857354  0.39987483  0.75291449  1
  Fe  Fe9  1  0.32823170  0.89917915  0.74768705  1
  Fe  Fe10  1  0.67148697  0.09981963  0.26238857  1
  Fe  Fe11  1  0.67184640  0.60004322  0.25465918  1
  P  P12  1  0.41981419  0.36179871  0.24368930  1
  P  P13  1  0.42067175  0.86180745  0.24705400  1
  P  P14  1  0.57998277  0.13758688  0.76323528  1
  P  P15  1  0.58060812  0.63789021  0.74825644  1
  C  C16  1  0.03997470  0.35002286  0.76013707  1
  C  C17  1  0.03959536  0.84987655  0.75655142  1
  C  C18  1  0.95932450  0.14990313  0.23269705  1
  C  C19  1  0.95980690  0.65024547  0.24839204  1
  O  O20  1  0.07505665  0.47269643  0.74064680  1
  O  O21  1  0.10078844  0.18406173  0.21232767  1
  O  O22  1  0.07496186  0.97312274  0.76000793  1
  O  O23  1  0.16526850  0.26175483  0.75517274  1
  O  O24  1  0.09985899  0.68598773  0.27876113  1
  O  O25  1  0.16352802  0.76285668  0.72552784  1
  O  O26  1  0.30225887  0.40123021  0.06167774  1
  O  O27  1  0.31707558  0.40517649  0.43516427  1
  O  O28  1  0.30143038  0.90444632  0.06619887  1
  O  O29  1  0.32089985  0.90316096  0.44007109  1
  O  O30  1  0.42087808  0.07137446  0.77656000  1
  O  O31  1  0.46170058  0.20971517  0.23696320  1
  O  O32  1  0.42198558  0.57214050  0.71701075  1
  O  O33  1  0.46162585  0.70964197  0.25464366  1
  O  O34  1  0.53916694  0.28923456  0.78533760  1
  O  O35  1  0.57842008  0.42858743  0.23190728  1
  O  O36  1  0.53800671  0.78818433  0.78371882  1
  O  O37  1  0.57897071  0.92840775  0.22631612  1
  O  O38  1  0.67991438  0.10515497  0.56729596  1
  O  O39  1  0.69917403  0.08689061  0.93965169  1
  O  O40  1  0.69450207  0.61344281  0.56169132  1
  O  O41  1  0.68499381  0.57990180  0.93307537  1
  O  O42  1  0.83346281  0.23783485  0.23586671  1
  O  O43  1  0.89804686  0.31609620  0.78321458  1
  O  O44  1  0.83467854  0.73674968  0.21623968  1
  O  O45  1  0.92463434  0.02712041  0.25433895  1
  O  O46  1  0.89902822  0.81436486  0.78355990  1
  O  O47  1  0.92487873  0.52674949  0.25311938  1
