# generated using pymatgen
data_Li2MnVP2(O4F)2
_symmetry_space_group_name_H-M   'P 1'
_cell_length_a   5.26096417
_cell_length_b   5.31797084
_cell_length_c   7.43908255
_cell_angle_alpha   109.79653312
_cell_angle_beta   105.08314629
_cell_angle_gamma   98.02161581
_symmetry_Int_Tables_number   1
_chemical_formula_structural   Li2MnVP2(O4F)2
_chemical_formula_sum   'Li2 Mn1 V1 P2 O8 F2'
_cell_volume   183.04745751
_cell_formula_units_Z   1
loop_
 _symmetry_equiv_pos_site_id
 _symmetry_equiv_pos_as_xyz
  1  'x, y, z'
loop_
 _atom_site_type_symbol
 _atom_site_label
 _atom_site_symmetry_multiplicity
 _atom_site_fract_x
 _atom_site_fract_y
 _atom_site_fract_z
 _atom_site_occupancy
  Li  Li0  1  0.08194057  0.42667569  0.81190152  1
  Li  Li1  1  0.91805943  0.57332431  0.18809848  1
  Mn  Mn2  1  0.50000000  0.50000000  0.50000000  1
  V  V3  1  0.00000000  -0.00000000  -0.00000000  1
  P  P4  1  0.44555847  0.12336677  0.76072485  1
  P  P5  1  0.55444153  0.87663323  0.23927515  1
  O  O6  1  0.28282061  0.16270279  0.91133235  1
  O  O7  1  0.36136578  0.82198891  0.60850685  1
  O  O8  1  0.35246049  0.32161023  0.65661442  1
  O  O9  1  0.24312792  0.77704430  0.11991050  1
  O  O10  1  0.75687208  0.22295570  0.88008950  1
  O  O11  1  0.64753951  0.67838977  0.34338558  1
  O  O12  1  0.63863422  0.17801109  0.39149315  1
  O  O13  1  0.71717939  0.83729721  0.08866765  1
  F  F14  1  0.11806999  0.32910556  0.25338842  1
  F  F15  1  0.88193001  0.67089444  0.74661158  1
