# generated using pymatgen
data_Li3V4(PO4)6
_symmetry_space_group_name_H-M   'P 1'
_cell_length_a   8.42668664
_cell_length_b   8.72000737
_cell_length_c   11.95872507
_cell_angle_alpha   89.79883942
_cell_angle_beta   89.35595231
_cell_angle_gamma   90.15360372
_symmetry_Int_Tables_number   1
_chemical_formula_structural   Li3V4(PO4)6
_chemical_formula_sum   'Li6 V8 P12 O48'
_cell_volume   878.67213867
_cell_formula_units_Z   2
loop_
 _symmetry_equiv_pos_site_id
 _symmetry_equiv_pos_as_xyz
  1  'x, y, z'
loop_
 _atom_site_type_symbol
 _atom_site_label
 _atom_site_symmetry_multiplicity
 _atom_site_fract_x
 _atom_site_fract_y
 _atom_site_fract_z
 _atom_site_occupancy
  Li  Li0  1  0.19019686  0.78580128  0.82049653  1
  Li  Li1  1  0.31686265  0.28744620  0.68018337  1
  Li  Li2  1  0.42998675  0.59207621  0.19552139  1
  Li  Li3  1  0.81508522  0.21337579  0.17996131  1
  Li  Li4  1  0.91655102  0.91229413  0.69041301  1
  Li  Li5  1  0.92368711  0.49565823  0.34376661  1
  V  V6  1  0.25250172  0.02561371  0.11139204  1
  V  V7  1  0.24899868  0.46633552  0.89002136  1
  V  V8  1  0.25520531  0.52504266  0.39429128  1
  V  V9  1  0.25799603  0.96753717  0.60611277  1
  V  V10  1  0.74764673  0.03021378  0.38726975  1
  V  V11  1  0.75481802  0.47254839  0.61498915  1
  V  V12  1  0.75370626  0.53498557  0.11215589  1
  V  V13  1  0.74263434  0.97389840  0.89176830  1
  P  P14  1  0.03114813  0.24840850  0.50775346  1
  P  P15  1  0.11640792  0.38152244  0.14920732  1
  P  P16  1  0.11480413  0.10719994  0.85445420  1
  P  P17  1  0.39139252  0.88551706  0.34563550  1
  P  P18  1  0.38671871  0.60884701  0.64741136  1
  P  P19  1  0.46274433  0.75016382  0.99121004  1
  P  P20  1  0.53609897  0.24868022  0.00763643  1
  P  P21  1  0.61403918  0.38709603  0.35863425  1
  P  P22  1  0.60875617  0.11889264  0.64719009  1
  P  P23  1  0.88705350  0.89037308  0.14527710  1
  P  P24  1  0.89155940  0.61772375  0.84854504  1
  P  P25  1  0.96140155  0.75223183  0.49181747  1
  O  O26  1  0.06484033  0.90085696  0.10857778  1
  O  O27  1  0.05838474  0.87004341  0.55964235  1
  O  O28  1  0.05437515  0.66695773  0.40098058  1
  O  O29  1  0.06986222  0.58524232  0.82243669  1
  O  O30  1  0.08813424  0.36249133  0.41790568  1
  O  O31  1  0.12828800  0.20636889  0.15666131  1
  O  O32  1  0.14185000  0.43077603  0.02321548  1
  O  O33  1  0.13402801  0.99344296  0.75190727  1
  O  O34  1  0.16956892  0.26895730  0.81699501  1
  O  O35  1  0.17818932  0.17610414  0.56670100  1
  O  O36  1  0.23460631  0.47182651  0.22049359  1
  O  O37  1  0.22233820  0.04472634  0.94666389  1
  O  O38  1  0.27798509  0.97847053  0.27286309  1
  O  O39  1  0.27598970  0.55054000  0.55606865  1
  O  O40  1  0.31972743  0.67666709  0.92935303  1
  O  O41  1  0.33637538  0.77270012  0.68297346  1
  O  O42  1  0.34919460  0.92416310  0.47277633  1
  O  O43  1  0.37547967  0.71059291  0.33239146  1
  O  O44  1  0.36026448  0.49564982  0.74840477  1
  O  O45  1  0.39322675  0.85813403  0.08091731  1
  O  O46  1  0.43125345  0.16301608  0.09615371  1
  O  O47  1  0.43091301  0.08270321  0.67540359  1
  O  O48  1  0.44302287  0.38037026  0.39964465  1
  O  O49  1  0.43706062  0.37024462  0.94757290  1
  O  O50  1  0.54956357  0.62762110  0.05802368  1
  O  O51  1  0.56341726  0.60092367  0.61174094  1
  O  O52  1  0.56393977  0.93295385  0.32394656  1
  O  O53  1  0.56936840  0.83027216  0.90174647  1
  O  O54  1  0.60276920  0.13948180  0.91668373  1
  O  O55  1  0.62753722  0.49352386  0.25461882  1
  O  O56  1  0.62227063  0.29405097  0.66136684  1
  O  O57  1  0.63917307  0.07066561  0.52600993  1
  O  O58  1  0.67926973  0.22616366  0.32206099  1
  O  O59  1  0.67929212  0.32002015  0.06790869  1
  O  O60  1  0.73295809  0.44916838  0.44684722  1
  O  O61  1  0.72116419  0.02588287  0.72432460  1
  O  O62  1  0.77915607  0.94781374  0.04891810  1
  O  O63  1  0.78285545  0.52416928  0.77096311  1
  O  O64  1  0.82182128  0.83850057  0.43686458  1
  O  O65  1  0.84324605  0.72660238  0.17902642  1
  O  O66  1  0.86218718  0.00671214  0.24163277  1
  O  O67  1  0.85565198  0.57659407  0.96947037  1
  O  O68  1  0.87388169  0.79574719  0.82991646  1
  O  O69  1  0.88979530  0.64634664  0.58324580  1
  O  O70  1  0.94300898  0.41847160  0.18560112  1
  O  O71  1  0.93050178  0.33193347  0.60030637  1
  O  O72  1  0.93519651  0.12404086  0.44963778  1
  O  O73  1  0.93725074  0.10214792  0.88792210  1
