# generated using pymatgen
data_LiMn3(PO4)3
_symmetry_space_group_name_H-M   'P 1'
_cell_length_a   12.55063075
_cell_length_b   9.04480996
_cell_length_c   8.65339573
_cell_angle_alpha   103.51534271
_cell_angle_beta   79.15421690
_cell_angle_gamma   75.32245720
_symmetry_Int_Tables_number   1
_chemical_formula_structural   LiMn3(PO4)3
_chemical_formula_sum   'Li4 Mn12 P12 O48'
_cell_volume   891.41628715
_cell_formula_units_Z   4
loop_
 _symmetry_equiv_pos_site_id
 _symmetry_equiv_pos_as_xyz
  1  'x, y, z'
loop_
 _atom_site_type_symbol
 _atom_site_label
 _atom_site_symmetry_multiplicity
 _atom_site_fract_x
 _atom_site_fract_y
 _atom_site_fract_z
 _atom_site_occupancy
  Li  Li0  1  0.98743331  0.50595587  0.49847171  1
  Li  Li1  1  0.25079447  0.24897256  0.49957741  1
  Li  Li2  1  0.51167714  0.99332265  0.50092068  1
  Li  Li3  1  0.87924188  0.13187791  0.99161724  1
  Mn  Mn4  1  0.04178218  0.89013425  0.61139189  1
  Mn  Mn5  1  0.24407607  0.49524187  0.26096210  1
  Mn  Mn6  1  0.13317704  0.48348394  0.93292733  1
  Mn  Mn7  1  0.36819642  0.01619254  0.06640334  1
  Mn  Mn8  1  0.46021705  0.60857388  0.38574012  1
  Mn  Mn9  1  0.25893853  0.00149747  0.73785728  1
  Mn  Mn10  1  0.74230320  0.98145740  0.27399930  1
  Mn  Mn11  1  0.54372001  0.39035550  0.61338571  1
  Mn  Mn12  1  0.62857214  0.98679694  0.93457683  1
  Mn  Mn13  1  0.86914215  0.52011837  0.06638613  1
  Mn  Mn14  1  0.75272788  0.51760640  0.73392247  1
  Mn  Mn15  1  0.95761201  0.10750321  0.38396436  1
  P  P16  1  0.10791783  0.24042788  0.13212715  1
  P  P17  1  0.25129651  0.88385532  0.34951159  1
  P  P18  1  0.01956429  0.26885097  0.71194724  1
  P  P19  1  0.24932147  0.61553293  0.64975509  1
  P  P20  1  0.60628002  0.74146982  0.13339679  1
  P  P21  1  0.48004416  0.23139083  0.28770306  1
  P  P22  1  0.51949664  0.77333358  0.71193091  1
  P  P23  1  0.39167967  0.25965256  0.86486896  1
  P  P24  1  0.75658860  0.37258199  0.34328374  1
  P  P25  1  0.98123871  0.72657049  0.28838922  1
  P  P26  1  0.74607034  0.12336845  0.65435651  1
  P  P27  1  0.89165494  0.76400348  0.87052110  1
  O  O28  1  0.04996373  0.36055451  0.04225966  1
  O  O29  1  0.11588232  0.92838317  0.40892426  1
  O  O30  1  0.10099365  0.63348190  0.16639971  1
  O  O31  1  0.02043621  0.15365778  0.18181088  1
  O  O32  1  0.28070420  0.90828448  0.17831899  1
  O  O33  1  0.00528151  0.26663877  0.53660062  1
  O  O34  1  0.13772721  0.33396042  0.28068020  1
  O  O35  1  0.29042977  0.99120997  0.47746721  1
  O  O36  1  0.28535571  0.38312825  0.99712881  1
  O  O37  1  0.19844238  0.79646929  0.66834223  1
  O  O38  1  0.30029711  0.70391139  0.33347316  1
  O  O39  1  0.20834867  0.50971937  0.52310078  1
  O  O40  1  0.11533847  0.34829890  0.72672934  1
  O  O41  1  0.54593840  0.85965726  0.04340400  1
  O  O42  1  0.06187187  0.10049064  0.73739959  1
  O  O43  1  0.21902690  0.59211133  0.82158464  1
  O  O44  1  0.52567995  0.64900096  0.18731964  1
  O  O45  1  0.43405477  0.40049382  0.26818455  1
  O  O46  1  0.39937308  0.86628000  0.83441583  1
  O  O47  1  0.38407677  0.57214136  0.59061642  1
  O  O48  1  0.38375848  0.15161792  0.27289844  1
  O  O49  1  0.50179927  0.77392962  0.53785372  1
  O  O50  1  0.63380676  0.83988255  0.28097479  1
  O  O51  1  0.78651386  0.88863058  0.00390757  1
  O  O52  1  0.21395646  0.11576680  0.00181365  1
  O  O53  1  0.36015121  0.16395793  0.71892204  1
  O  O54  1  0.49526796  0.23171851  0.46284209  1
  O  O55  1  0.61106292  0.85881758  0.73289576  1
  O  O56  1  0.62165085  0.42731419  0.40662944  1
  O  O57  1  0.59803455  0.13347381  0.16441386  1
  O  O58  1  0.56792812  0.60352688  0.72869008  1
  O  O59  1  0.47513184  0.34821379  0.80990089  1
  O  O60  1  0.79180096  0.38912571  0.16619408  1
  O  O61  1  0.93315745  0.89593441  0.26995232  1
  O  O62  1  0.45054232  0.14101179  0.95564981  1
  O  O63  1  0.88888873  0.64223006  0.26885381  1
  O  O64  1  0.80787725  0.46101136  0.46617358  1
  O  O65  1  0.70165929  0.30564596  0.67519650  1
  O  O66  1  0.80015332  0.18781401  0.31481096  1
  O  O67  1  0.71472037  0.62007589  0.00302020  1
  O  O68  1  0.69381937  0.03288898  0.53471958  1
  O  O69  1  0.86445389  0.66427098  0.72372166  1
  O  O70  1  0.99807283  0.72613346  0.46304454  1
  O  O71  1  0.72415742  0.09501534  0.82617493  1
  O  O72  1  0.96683004  0.86740715  0.81903425  1
  O  O73  1  0.90127858  0.36367606  0.83742078  1
  O  O74  1  0.88174804  0.07069581  0.58749744  1
  O  O75  1  0.95452153  0.64494124  0.95726846  1
