# generated using pymatgen
data_Li4Ti3Fe3(SnO8)2
_symmetry_space_group_name_H-M   'P 1'
_cell_length_a   6.03447056
_cell_length_b   6.00196415
_cell_length_c   9.82932548
_cell_angle_alpha   90.00442165
_cell_angle_beta   90.63731039
_cell_angle_gamma   119.82461303
_symmetry_Int_Tables_number   1
_chemical_formula_structural   Li4Ti3Fe3(SnO8)2
_chemical_formula_sum   'Li4 Ti3 Fe3 Sn2 O16'
_cell_volume   308.82738078
_cell_formula_units_Z   1
loop_
 _symmetry_equiv_pos_site_id
 _symmetry_equiv_pos_as_xyz
  1  'x, y, z'
loop_
 _atom_site_type_symbol
 _atom_site_label
 _atom_site_symmetry_multiplicity
 _atom_site_fract_x
 _atom_site_fract_y
 _atom_site_fract_z
 _atom_site_occupancy
  Li  Li0  1  0.32659420  0.66332044  0.89548867  1
  Li  Li1  1  0.99944947  0.99979085  0.99267974  1
  Li  Li2  1  0.00267111  0.00131544  0.49213297  1
  Li  Li3  1  0.66032476  0.33015709  0.39703374  1
  Ti  Ti4  1  0.34110076  0.17058937  0.71743144  1
  Ti  Ti5  1  0.17410195  0.83309393  0.21469739  1
  Ti  Ti6  1  0.17438881  0.34140872  0.21458460  1
  Fe  Fe7  1  0.65743507  0.82859689  0.21287684  1
  Fe  Fe8  1  0.83125741  0.66097968  0.71306549  1
  Fe  Fe9  1  0.83125296  0.17027234  0.71306650  1
  Sn  Sn10  1  0.33737019  0.66866792  0.49275715  1
  Sn  Sn11  1  0.68039848  0.34017186  0.99047278  1
  O  O12  1  0.16788269  0.84106497  0.60249852  1
  O  O13  1  0.03381897  0.51695841  0.33456740  1
  O  O14  1  0.29985022  0.65001904  0.10408114  1
  O  O15  1  0.02227083  0.01110265  0.30602998  1
  O  O16  1  0.01004267  0.00502303  0.80669182  1
  O  O17  1  0.16785265  0.32680835  0.60253711  1
  O  O18  1  0.46281396  0.96032337  0.34287456  1
  O  O19  1  0.46252565  0.50211600  0.34306597  1
  O  O20  1  0.33457116  0.16730210  0.10332460  1
  O  O21  1  0.68195249  0.84096430  0.59777388  1
  O  O22  1  0.51105065  0.47551523  0.83898916  1
  O  O23  1  0.51109439  0.03553558  0.83895442  1
  O  O24  1  0.64944649  0.32471287  0.60607986  1
  O  O25  1  0.85260830  0.68030430  0.09850018  1
  O  O26  1  0.96300678  0.48155908  0.83709681  1
  O  O27  1  0.85286693  0.17262518  0.09849127  1
