# generated using pymatgen
data_Li7Mn4(P2O7)4
_symmetry_space_group_name_H-M   'P 1'
_cell_length_a   9.92755967
_cell_length_b   9.90665579
_cell_length_c   11.37310556
_cell_angle_alpha   90.18772478
_cell_angle_beta   102.89091261
_cell_angle_gamma   89.68578595
_symmetry_Int_Tables_number   1
_chemical_formula_structural   Li7Mn4(P2O7)4
_chemical_formula_sum   'Li14 Mn8 P16 O56'
_cell_volume   1090.32295887
_cell_formula_units_Z   2
loop_
 _symmetry_equiv_pos_site_id
 _symmetry_equiv_pos_as_xyz
  1  'x, y, z'
loop_
 _atom_site_type_symbol
 _atom_site_label
 _atom_site_symmetry_multiplicity
 _atom_site_fract_x
 _atom_site_fract_y
 _atom_site_fract_z
 _atom_site_occupancy
  Li  Li0  1  0.11250460  0.72013665  0.44802069  1
  Li  Li1  1  0.16971480  0.42229656  0.54616476  1
  Li  Li2  1  0.08751254  0.10524291  0.02692093  1
  Li  Li3  1  0.15575425  0.40659300  0.04267241  1
  Li  Li4  1  0.41260790  0.61088464  0.97172412  1
  Li  Li5  1  0.33714688  0.92041429  0.45885477  1
  Li  Li6  1  0.38898653  0.21998037  0.55236687  1
  Li  Li7  1  0.66129909  0.06567881  0.53693147  1
  Li  Li8  1  0.58460177  0.39261736  0.02897304  1
  Li  Li9  1  0.84637973  0.59224870  0.95582677  1
  Li  Li10  1  0.65019342  0.08839195  0.04159937  1
  Li  Li11  1  0.91457462  0.89243975  0.97027434  1
  Li  Li12  1  0.81841807  0.58800998  0.44674005  1
  Li  Li13  1  0.88687692  0.27935216  0.55247147  1
  Mn  Mn14  1  0.20449283  0.91723550  0.68059065  1
  Mn  Mn15  1  0.25737825  0.21205763  0.82389969  1
  Mn  Mn16  1  0.24727277  0.71674349  0.17475162  1
  Mn  Mn17  1  0.29906190  0.42244222  0.32523481  1
  Mn  Mn18  1  0.70181664  0.58257807  0.67117091  1
  Mn  Mn19  1  0.75369945  0.28503440  0.82226051  1
  Mn  Mn20  1  0.73760055  0.78460665  0.17465622  1
  Mn  Mn21  1  0.79806568  0.07571811  0.32728589  1
  P  P22  1  0.02520564  0.45281223  0.75972722  1
  P  P23  1  0.11886625  0.70546355  0.89055400  1
  P  P24  1  0.05920923  0.93178427  0.24321776  1
  P  P25  1  0.12331464  0.14918236  0.42584400  1
  P  P26  1  0.37735270  0.64813341  0.57636425  1
  P  P27  1  0.43977101  0.43293030  0.75677102  1
  P  P28  1  0.52395496  0.04667900  0.75896037  1
  P  P29  1  0.38075078  0.20662820  0.10715731  1
  P  P30  1  0.61771476  0.79416833  0.89090687  1
  P  P31  1  0.47604516  0.95406561  0.24588300  1
  P  P32  1  0.55952560  0.56796715  0.24366972  1
  P  P33  1  0.62347121  0.35029789  0.42729850  1
  P  P34  1  0.87964282  0.85009132  0.57480106  1
  P  P35  1  0.94048252  0.06730186  0.75561337  1
  P  P36  1  0.88112600  0.29561967  0.10876800  1
  P  P37  1  0.97331433  0.54831233  0.23874575  1
  O  O38  1  0.02398373  0.41272361  0.63058392  1
  O  O39  1  0.03063747  0.83939146  0.56032483  1
  O  O40  1  0.08601427  0.08510521  0.72926337  1
  O  O41  1  0.11252078  0.35878479  0.85556351  1
  O  O42  1  0.09635136  0.59805077  0.77762297  1
  O  O43  1  0.17640823  0.82727861  0.83989448  1
  O  O44  1  0.22300888  0.63514033  0.99721843  1
  O  O45  1  0.01951680  0.27517326  0.07665833  1
  O  O46  1  0.11315654  0.07930002  0.29503918  1
  O  O47  1  0.06336253  0.93480254  0.11123933  1
  O  O48  1  0.12128591  0.53820777  0.21189643  1
  O  O49  1  0.18763413  0.28896721  0.41880916  1
  O  O50  1  0.16455588  0.82640951  0.31161615  1
  O  O51  1  0.22354728  0.06244605  0.51759163  1
  O  O52  1  0.27389222  0.56502370  0.48292339  1
  O  O53  1  0.33609989  0.32692209  0.68775522  1
  O  O54  1  0.31430092  0.78993995  0.58373405  1
  O  O55  1  0.37202904  0.03892659  0.77638391  1
  O  O56  1  0.38028527  0.57905842  0.70628953  1
  O  O57  1  0.43653169  0.43430481  0.88897130  1
  O  O58  1  0.48236906  0.76964846  0.92297926  1
  O  O59  1  0.27156718  0.14805467  0.00023405  1
  O  O60  1  0.32066214  0.33191226  0.15693443  1
  O  O61  1  0.40155165  0.09984805  0.21729604  1
  O  O62  1  0.41472788  0.58808923  0.27085291  1
  O  O63  1  0.39450816  0.85253630  0.15597459  1
  O  O64  1  0.52643065  0.08642617  0.63076149  1
  O  O65  1  0.47733408  0.33997038  0.44846663  1
  O  O66  1  0.52481336  0.65259552  0.56017613  1
  O  O67  1  0.47986664  0.93144368  0.37689476  1
  O  O68  1  0.61012290  0.13752240  0.85704180  1
  O  O69  1  0.58512684  0.41620508  0.73005696  1
  O  O70  1  0.59233512  0.89902715  0.77677000  1
  O  O71  1  0.68757898  0.67345905  0.84302654  1
  O  O72  1  0.72282426  0.86514722  0.99714868  1
  O  O73  1  0.51948353  0.22417252  0.07550992  1
  O  O74  1  0.55871624  0.56059034  0.11045543  1
  O  O75  1  0.61247065  0.41931592  0.29685280  1
  O  O76  1  0.62481171  0.96623852  0.21732301  1
  O  O77  1  0.68816651  0.20988071  0.41874306  1
  O  O78  1  0.66897177  0.66943054  0.30717907  1
  O  O79  1  0.72589103  0.43622186  0.51860396  1
  O  O80  1  0.78846185  0.94160101  0.48251141  1
  O  O81  1  0.83724523  0.17347497  0.68716622  1
  O  O82  1  0.82223157  0.70873932  0.58549109  1
  O  O83  1  0.87603036  0.46751756  0.78410219  1
  O  O84  1  0.93656415  0.06565268  0.88795494  1
  O  O85  1  0.88583389  0.92006274  0.70557309  1
  O  O86  1  0.98096521  0.72250063  0.92490705  1
  O  O87  1  0.77696475  0.36605370  0.00317564  1
  O  O88  1  0.81689916  0.17155359  0.15431866  1
  O  O89  1  0.90594074  0.39947677  0.22344324  1
  O  O90  1  0.88188698  0.63864168  0.14282873  1
  O  O91  1  0.91400042  0.91225709  0.26867236  1
  O  O92  1  0.97497174  0.16102671  0.44315347  1
  O  O93  1  0.97600102  0.58622512  0.36874473  1
