# generated using pymatgen
data_YFe2
_symmetry_space_group_name_H-M   'P 1'
_cell_length_a   8.90838404
_cell_length_b   8.90838404
_cell_length_c   8.90838404
_cell_angle_alpha   99.68268543
_cell_angle_beta   99.68268543
_cell_angle_gamma   131.57631331
_symmetry_Int_Tables_number   1
_chemical_formula_structural   YFe2
_chemical_formula_sum   'Y10 Fe20'
_cell_volume   482.33875849
_cell_formula_units_Z   10
loop_
 _symmetry_equiv_pos_site_id
 _symmetry_equiv_pos_as_xyz
  1  'x, y, z'
loop_
 _atom_site_type_symbol
 _atom_site_label
 _atom_site_symmetry_multiplicity
 _atom_site_fract_x
 _atom_site_fract_y
 _atom_site_fract_z
 _atom_site_occupancy
  Y  Y0  1  -0.00000000  0.00000000  0.00000000  1
  Y  Y1  1  0.25000000  0.75000000  0.50000000  1
  Y  Y2  1  0.85281486  0.55182651  0.89953424  1
  Y  Y3  1  0.65229227  0.95328062  0.10046576  1
  Y  Y4  1  0.04671938  0.14718514  0.69901165  1
  Y  Y5  1  0.44817349  0.34770773  0.30098835  1
  Y  Y6  1  0.39825649  0.19914339  0.60280022  1
  Y  Y7  1  0.59634318  0.79545627  0.39719978  1
  Y  Y8  1  0.20454373  0.60174351  0.80088691  1
  Y  Y9  1  0.80085661  0.40365682  0.19911309  1
  Fe  Fe10  1  0.32465844  0.47447798  0.04721377  1
  Fe  Fe11  1  0.42726421  0.27744467  0.95278623  1
  Fe  Fe12  1  0.72255533  0.67534156  0.14981955  1
  Fe  Fe13  1  0.52552202  0.57273579  0.85018045  1
  Fe  Fe14  1  0.82651421  0.47441734  0.55012595  1
  Fe  Fe15  1  0.92429139  0.27638826  0.44987405  1
  Fe  Fe16  1  0.72361174  0.17348579  0.64790313  1
  Fe  Fe17  1  0.52558266  0.07570861  0.35209687  1
  Fe  Fe18  1  0.22707953  0.67949921  0.15039829  1
  Fe  Fe19  1  0.52910092  0.07668124  0.84960171  1
  Fe  Fe20  1  0.92331876  0.77292047  0.45241969  1
  Fe  Fe21  1  0.32050079  0.47089908  0.54758031  1
  Fe  Fe22  1  0.72651456  0.67205559  0.64987526  1
  Fe  Fe23  1  0.02218033  0.07663930  0.35012474  1
  Fe  Fe24  1  0.92336070  0.27348544  0.94554103  1
  Fe  Fe25  1  0.32794441  0.97781967  0.05445897  1
  Fe  Fe26  1  0.62295146  0.86849602  0.74665713  1
  Fe  Fe27  1  0.12183889  0.87629434  0.25334287  1
  Fe  Fe28  1  0.12370566  0.37704854  0.24554456  1
  Fe  Fe29  1  0.13150398  0.87816111  0.75445544  1
