# generated using pymatgen
data_Zn3BPO7
_symmetry_space_group_name_H-M   'P 1'
_cell_length_a   8.54458464
_cell_length_b   8.54460701
_cell_length_c   13.20134462
_cell_angle_alpha   90.00000000
_cell_angle_beta   90.00000000
_cell_angle_gamma   120.00030869
_symmetry_Int_Tables_number   1
_chemical_formula_structural   Zn3BPO7
_chemical_formula_sum   'Zn18 B6 P6 O42'
_cell_volume   834.70016290
_cell_formula_units_Z   6
loop_
 _symmetry_equiv_pos_site_id
 _symmetry_equiv_pos_as_xyz
  1  'x, y, z'
loop_
 _atom_site_type_symbol
 _atom_site_label
 _atom_site_symmetry_multiplicity
 _atom_site_fract_x
 _atom_site_fract_y
 _atom_site_fract_z
 _atom_site_occupancy
  Zn  Zn0  1  0.31763253  0.32905735  0.11472511  1
  Zn  Zn1  1  0.01142600  0.68236661  0.11472555  1
  Zn  Zn2  1  0.67094161  0.98857592  0.11472590  1
  Zn  Zn3  1  0.31763253  0.32905735  0.88527489  1
  Zn  Zn4  1  0.01142600  0.68236661  0.88527445  1
  Zn  Zn5  1  0.67094161  0.98857592  0.88527410  1
  Zn  Zn6  1  0.00585758  0.33548730  0.25483681  1
  Zn  Zn7  1  0.32962178  0.99413610  0.25483593  1
  Zn  Zn8  1  0.66452089  0.67037659  0.25483636  1
  Zn  Zn9  1  0.00585758  0.33548730  0.74516319  1
  Zn  Zn10  1  0.32962178  0.99413610  0.74516407  1
  Zn  Zn11  1  0.66452089  0.67037659  0.74516364  1
  Zn  Zn12  1  0.64604382  0.00693059  0.61775673  1
  Zn  Zn13  1  0.36088519  0.35395918  0.61775594  1
  Zn  Zn14  1  0.99307079  0.63911009  0.61775902  1
  Zn  Zn15  1  0.64604382  0.00693059  0.38224327  1
  Zn  Zn16  1  0.36088519  0.35395918  0.38224406  1
  Zn  Zn17  1  0.99307079  0.63911009  0.38224098  1
  B  B18  1  -0.00000030  0.00000257  0.19500512  1
  B  B19  1  -0.00000030  0.00000257  0.80499488  1
  B  B20  1  0.66665377  0.33332562  0.71653824  1
  B  B21  1  0.66665377  0.33332562  0.28346176  1
  B  B22  1  0.33334746  0.66667224  0.72486091  1
  B  B23  1  0.33334746  0.66667224  0.27513909  1
  P  P24  1  0.98934356  0.35333706  0.00000000  1
  P  P25  1  0.36400476  0.01066369  0.00000000  1
  P  P26  1  0.64665119  0.63599539  0.00000000  1
  P  P27  1  0.01448501  0.31151693  0.50000000  1
  P  P28  1  0.29704453  0.98552223  0.50000000  1
  P  P29  1  0.68846819  0.70296301  0.50000000  1
  O  O30  1  0.18972647  0.39813730  0.00000000  1
  O  O31  1  0.20840377  0.81026541  0.00000000  1
  O  O32  1  0.60186518  0.79159259  -0.00000000  1
  O  O33  1  0.95389667  0.43229937  0.09815861  1
  O  O34  1  0.47839889  0.04610160  0.09815733  1
  O  O35  1  0.56770389  0.52160160  0.09815731  1
  O  O36  1  0.95389667  0.43229937  0.90184139  1
  O  O37  1  0.47839889  0.04610160  0.90184267  1
  O  O38  1  0.56770389  0.52160160  0.90184269  1
  O  O39  1  0.85295035  0.14682754  -0.00000000  1
  O  O40  1  0.29387497  0.14705112  -0.00000000  1
  O  O41  1  0.85317926  0.70612496  -0.00000000  1
  O  O42  1  0.09940059  0.28527535  0.40165436  1
  O  O43  1  0.18587041  0.90059453  0.40165305  1
  O  O44  1  0.71472620  0.81412599  0.40165407  1
  O  O45  1  0.09940059  0.28527535  0.59834564  1
  O  O46  1  0.18587041  0.90059453  0.59834695  1
  O  O47  1  0.71472620  0.81412599  0.59834593  1
  O  O48  1  0.81088591  0.17051141  0.50000000  1
  O  O49  1  0.35962357  0.18910993  0.50000000  1
  O  O50  1  0.82949493  0.64037309  0.50000000  1
  O  O51  1  0.04456875  0.50737428  0.50000000  1
  O  O52  1  0.46280026  0.95543146  0.50000000  1
  O  O53  1  0.49263453  0.53720125  0.50000000  1
  O  O54  1  0.10189606  0.18664329  0.19614610  1
  O  O55  1  0.08474389  0.89809971  0.19614485  1
  O  O56  1  0.81335777  0.91525491  0.19614495  1
  O  O57  1  0.10189606  0.18664329  0.80385390  1
  O  O58  1  0.08474389  0.89809971  0.80385515  1
  O  O59  1  0.81335777  0.91525491  0.80385505  1
  O  O60  1  0.74388812  0.22317455  0.71551209  1
  O  O61  1  0.47926930  0.25610095  0.71551238  1
  O  O62  1  0.77681748  0.52071314  0.71551121  1
  O  O63  1  0.74388812  0.22317455  0.28448791  1
  O  O64  1  0.47926930  0.25610095  0.28448762  1
  O  O65  1  0.77681748  0.52071314  0.28448879  1
  O  O66  1  0.45231629  0.85160649  0.72749248  1
  O  O67  1  0.39930200  0.54769852  0.72749122  1
  O  O68  1  0.14840872  0.60071052  0.72749147  1
  O  O69  1  0.45231629  0.85160649  0.27250752  1
  O  O70  1  0.39930200  0.54769852  0.27250878  1
  O  O71  1  0.14840872  0.60071052  0.27250853  1
