# generated using pymatgen
data_CO2
_symmetry_space_group_name_H-M   'P 1'
_cell_length_a   10.99466656
_cell_length_b   3.76681670
_cell_length_c   5.58326424
_cell_angle_alpha   90.00000000
_cell_angle_beta   90.00000000
_cell_angle_gamma   90.00000000
_symmetry_Int_Tables_number   1
_chemical_formula_structural   CO2
_chemical_formula_sum   'C4 O8'
_cell_volume   231.23029449
_cell_formula_units_Z   4
loop_
 _symmetry_equiv_pos_site_id
 _symmetry_equiv_pos_as_xyz
  1  'x, y, z'
loop_
 _atom_site_type_symbol
 _atom_site_label
 _atom_site_symmetry_multiplicity
 _atom_site_fract_x
 _atom_site_fract_y
 _atom_site_fract_z
 _atom_site_occupancy
  C  C0  1  0.66375951  0.23728249  0.10227748  1
  C  C1  1  0.33624049  0.76271751  0.60227748  1
  C  C2  1  0.83624049  0.73728249  0.60227748  1
  C  C3  1  0.16375951  0.26271751  0.10227748  1
  O  O4  1  0.56542074  0.32771071  0.04862217  1
  O  O5  1  0.43457926  0.67228929  0.54862217  1
  O  O6  1  0.93457926  0.82771071  0.54862217  1
  O  O7  1  0.06542074  0.17228929  0.04862217  1
  O  O8  1  0.76255042  0.14674186  0.15710035  1
  O  O9  1  0.23744958  0.85325814  0.65710035  1
  O  O10  1  0.73744958  0.64674186  0.65710035  1
  O  O11  1  0.26255042  0.35325814  0.15710035  1
