# generated using pymatgen
data_BePbF4
_symmetry_space_group_name_H-M   'P 1'
_cell_length_a   5.44574089
_cell_length_b   7.36728878
_cell_length_c   9.23622339
_cell_angle_alpha   90.00000000
_cell_angle_beta   90.00000000
_cell_angle_gamma   90.00000000
_symmetry_Int_Tables_number   1
_chemical_formula_structural   BePbF4
_chemical_formula_sum   'Be4 Pb4 F16'
_cell_volume   370.56047590
_cell_formula_units_Z   4
loop_
 _symmetry_equiv_pos_site_id
 _symmetry_equiv_pos_as_xyz
  1  'x, y, z'
loop_
 _atom_site_type_symbol
 _atom_site_label
 _atom_site_symmetry_multiplicity
 _atom_site_fract_x
 _atom_site_fract_y
 _atom_site_fract_z
 _atom_site_occupancy
  Be  Be0  1  0.25000000  0.75495974  0.07737580  1
  Be  Be1  1  0.25000000  0.74504026  0.57737580  1
  Be  Be2  1  0.75000000  0.25495974  0.42262420  1
  Be  Be3  1  0.75000000  0.24504026  0.92262420  1
  Pb  Pb4  1  0.25000000  0.25086449  0.71457053  1
  Pb  Pb5  1  0.75000000  0.74913551  0.28542947  1
  Pb  Pb6  1  0.75000000  0.75086449  0.78542947  1
  Pb  Pb7  1  0.25000000  0.24913551  0.21457053  1
  F  F8  1  0.25000000  0.58645060  0.69258048  1
  F  F9  1  0.25000000  0.91354940  0.19258048  1
  F  F10  1  0.75000000  0.08645060  0.80741952  1
  F  F11  1  0.75000000  0.41354940  0.30741952  1
  F  F12  1  0.00949969  0.76484538  0.98753080  1
  F  F13  1  0.50949969  0.23515462  0.01246920  1
  F  F14  1  0.99050031  0.26484538  0.51246920  1
  F  F15  1  0.49050031  0.73515462  0.48753080  1
  F  F16  1  0.99050031  0.23515462  0.01246920  1
  F  F17  1  0.49050031  0.76484538  0.98753080  1
  F  F18  1  0.00949969  0.73515462  0.48753080  1
  F  F19  1  0.50949969  0.26484538  0.51246920  1
  F  F20  1  0.25000000  0.57715344  0.17186615  1
  F  F21  1  0.75000000  0.42284656  0.82813385  1
  F  F22  1  0.75000000  0.07715344  0.32813385  1
  F  F23  1  0.25000000  0.92284656  0.67186615  1
