# generated using pymatgen
data_Ba3Sr4B3O9F5
_symmetry_space_group_name_H-M   'P 1'
_cell_length_a   10.89921108
_cell_length_b   10.89923587
_cell_length_c   7.08015256
_cell_angle_alpha   90.00000000
_cell_angle_beta   90.00000000
_cell_angle_gamma   119.99990888
_symmetry_Int_Tables_number   1
_chemical_formula_structural   Ba3Sr4B3O9F5
_chemical_formula_sum   'Ba6 Sr8 B6 O18 F10'
_cell_volume   728.39131873
_cell_formula_units_Z   2
loop_
 _symmetry_equiv_pos_site_id
 _symmetry_equiv_pos_as_xyz
  1  'x, y, z'
loop_
 _atom_site_type_symbol
 _atom_site_label
 _atom_site_symmetry_multiplicity
 _atom_site_fract_x
 _atom_site_fract_y
 _atom_site_fract_z
 _atom_site_occupancy
  Ba  Ba0  1  0.13786156  0.86212508  0.99424621  1
  Ba  Ba1  1  0.13787258  0.27574109  0.99425711  1
  Ba  Ba2  1  0.72426310  0.86211312  0.99424919  1
  Ba  Ba3  1  0.86213844  0.13787492  0.49424621  1
  Ba  Ba4  1  0.86212742  0.72425891  0.49425711  1
  Ba  Ba5  1  0.27573690  0.13788688  0.49424919  1
  Sr  Sr6  1  0.66666841  0.33334728  0.26602264  1
  Sr  Sr7  1  0.33333159  0.66665272  0.76602264  1
  Sr  Sr8  1  0.53492216  0.06984187  0.83707592  1
  Sr  Sr9  1  0.93016597  0.46508518  0.83707827  1
  Sr  Sr10  1  0.53491562  0.46508462  0.83708131  1
  Sr  Sr11  1  0.46507784  0.93015813  0.33707592  1
  Sr  Sr12  1  0.06983403  0.53491482  0.33707827  1
  Sr  Sr13  1  0.46508438  0.53491538  0.33708131  1
  B  B14  1  0.37536394  0.18780618  0.05625036  1
  B  B15  1  0.81235694  0.18771902  0.05625684  1
  B  B16  1  0.81230254  0.62463967  0.05622574  1
  B  B17  1  0.62463606  0.81219382  0.55625036  1
  B  B18  1  0.18764306  0.81228098  0.55625684  1
  B  B19  1  0.18769746  0.37536033  0.55622574  1
  O  O20  1  0.32225137  0.16112933  0.87338023  1
  O  O21  1  0.83887739  0.16112597  0.87337662  1
  O  O22  1  0.83887171  0.67774460  0.87339622  1
  O  O23  1  0.67774863  0.83887067  0.37338023  1
  O  O24  1  0.16112261  0.83887403  0.37337662  1
  O  O25  1  0.16112829  0.32225540  0.37339622  1
  O  O26  1  0.40191048  0.31080180  0.14923033  1
  O  O27  1  0.68912114  0.09104394  0.14928317  1
  O  O28  1  0.90895535  0.59807416  0.14927799  1
  O  O29  1  0.68914195  0.59807588  0.14927241  1
  O  O30  1  0.90891379  0.31083401  0.14926369  1
  O  O31  1  0.40193447  0.09101848  0.14931411  1
  O  O32  1  0.59808952  0.68919820  0.64923033  1
  O  O33  1  0.31087886  0.90895606  0.64928317  1
  O  O34  1  0.09104465  0.40192584  0.64927799  1
  O  O35  1  0.31085805  0.40192412  0.64927241  1
  O  O36  1  0.09108621  0.68916599  0.64926369  1
  O  O37  1  0.59806553  0.90898152  0.64931411  1
  F  F38  1  0.99999890  0.99999800  0.12698454  1
  F  F39  1  0.00000110  0.00000200  0.62698454  1
  F  F40  1  0.66666516  0.33333268  0.91429314  1
  F  F41  1  0.33333484  0.66666732  0.41429314  1
  F  F42  1  0.57751657  0.15500279  0.51258940  1
  F  F43  1  0.84499856  0.42251645  0.51258737  1
  F  F44  1  0.57749082  0.42248987  0.51258720  1
  F  F45  1  0.42248343  0.84499721  0.01258940  1
  F  F46  1  0.15500144  0.57748355  0.01258737  1
  F  F47  1  0.42250918  0.57751013  0.01258720  1
