# generated using pymatgen
data_FePH6(NO2)2
_symmetry_space_group_name_H-M   'P 1'
_cell_length_a   10.23861095
_cell_length_b   6.45308388
_cell_length_c   7.69801801
_cell_angle_alpha   90.00000000
_cell_angle_beta   90.00000000
_cell_angle_gamma   90.00000000
_symmetry_Int_Tables_number   1
_chemical_formula_structural   FePH6(NO2)2
_chemical_formula_sum   'Fe4 P4 H24 N8 O16'
_cell_volume   508.61278632
_cell_formula_units_Z   4
loop_
 _symmetry_equiv_pos_site_id
 _symmetry_equiv_pos_as_xyz
  1  'x, y, z'
loop_
 _atom_site_type_symbol
 _atom_site_label
 _atom_site_symmetry_multiplicity
 _atom_site_fract_x
 _atom_site_fract_y
 _atom_site_fract_z
 _atom_site_occupancy
  Fe  Fe0  1  0.34067799  0.75000000  0.41153389  1
  Fe  Fe1  1  0.84067799  0.75000000  0.08846611  1
  Fe  Fe2  1  0.65932201  0.25000000  0.58846611  1
  Fe  Fe3  1  0.15932201  0.25000000  0.91153389  1
  P  P4  1  0.66105565  0.75000000  0.45734362  1
  P  P5  1  0.16105565  0.75000000  0.04265638  1
  P  P6  1  0.33894435  0.25000000  0.54265638  1
  P  P7  1  0.83894435  0.25000000  0.95734362  1
  H  H8  1  0.12915046  0.62171335  0.58862098  1
  H  H9  1  0.62915046  0.87828665  0.91137902  1
  H  H10  1  0.87084954  0.12171335  0.41137902  1
  H  H11  1  0.37084954  0.37828665  0.08862098  1
  H  H12  1  0.87084954  0.37828665  0.41137902  1
  H  H13  1  0.37084954  0.12171335  0.08862098  1
  H  H14  1  0.12915046  0.87828665  0.58862098  1
  H  H15  1  0.62915046  0.62171335  0.91137902  1
  H  H16  1  0.07495813  0.75000000  0.41284500  1
  H  H17  1  0.57495813  0.75000000  0.08715500  1
  H  H18  1  0.92504187  0.25000000  0.58715500  1
  H  H19  1  0.42504187  0.25000000  0.91284500  1
  H  H20  1  0.54659987  0.37848075  0.29194462  1
  H  H21  1  0.04659987  0.12151925  0.20805538  1
  H  H22  1  0.45340013  0.87848075  0.70805538  1
  H  H23  1  0.95340013  0.62151925  0.79194462  1
  H  H24  1  0.45340013  0.62151925  0.70805538  1
  H  H25  1  0.95340013  0.87848075  0.79194462  1
  H  H26  1  0.54659987  0.12151925  0.29194462  1
  H  H27  1  0.04659987  0.37848075  0.20805538  1
  H  H28  1  0.32014976  0.75000000  0.76989592  1
  H  H29  1  0.82014976  0.75000000  0.73010408  1
  H  H30  1  0.67985024  0.25000000  0.23010408  1
  H  H31  1  0.17985024  0.25000000  0.26989592  1
  N  N32  1  0.14178636  0.75000000  0.51229015  1
  N  N33  1  0.64178636  0.75000000  0.98770985  1
  N  N34  1  0.85821364  0.25000000  0.48770985  1
  N  N35  1  0.35821364  0.25000000  0.01229015  1
  N  N36  1  0.39743121  0.75000000  0.68517805  1
  N  N37  1  0.89743121  0.75000000  0.81482195  1
  N  N38  1  0.60256879  0.25000000  0.31482195  1
  N  N39  1  0.10256879  0.25000000  0.18517805  1
  O  O40  1  0.66532499  0.55963024  0.57994900  1
  O  O41  1  0.16532499  0.94036976  0.92005100  1
  O  O42  1  0.33467501  0.05963024  0.42005100  1
  O  O43  1  0.83467501  0.44036976  0.07994900  1
  O  O44  1  0.33467501  0.44036976  0.42005100  1
  O  O45  1  0.83467501  0.05963024  0.07994900  1
  O  O46  1  0.66532499  0.94036976  0.57994900  1
  O  O47  1  0.16532499  0.55963024  0.92005100  1
  O  O48  1  0.78141429  0.75000000  0.33556088  1
  O  O49  1  0.28141429  0.75000000  0.16443912  1
  O  O50  1  0.21858571  0.25000000  0.66443912  1
  O  O51  1  0.71858571  0.25000000  0.83556088  1
  O  O52  1  0.53342539  0.75000000  0.34596441  1
  O  O53  1  0.03342539  0.75000000  0.15403559  1
  O  O54  1  0.46657461  0.25000000  0.65403559  1
  O  O55  1  0.96657461  0.25000000  0.84596441  1
