# generated using pymatgen
data_CdHg2SeO6
_symmetry_space_group_name_H-M   'P 1'
_cell_length_a   6.93614577
_cell_length_b   7.35176811
_cell_length_c   8.34812658
_cell_angle_alpha   63.91043620
_cell_angle_beta   62.79900708
_cell_angle_gamma   65.36403967
_symmetry_Int_Tables_number   1
_chemical_formula_structural   CdHg2SeO6
_chemical_formula_sum   'Cd2 Hg4 Se2 O12'
_cell_volume   327.39186198
_cell_formula_units_Z   2
loop_
 _symmetry_equiv_pos_site_id
 _symmetry_equiv_pos_as_xyz
  1  'x, y, z'
loop_
 _atom_site_type_symbol
 _atom_site_label
 _atom_site_symmetry_multiplicity
 _atom_site_fract_x
 _atom_site_fract_y
 _atom_site_fract_z
 _atom_site_occupancy
  Cd  Cd0  1  0.33451961  0.09676460  0.21611129  1
  Cd  Cd1  1  0.66548039  0.90323538  0.78388905  1
  Hg  Hg2  1  0.29672798  0.60627531  0.21122286  1
  Hg  Hg3  1  0.70327263  0.39372507  0.78877700  1
  Hg  Hg4  1  0.18732286  0.40394630  0.79740402  1
  Hg  Hg5  1  0.81267773  0.59605427  0.20259580  1
  Se  Se6  1  0.79284543  0.06902010  0.30185410  1
  Se  Se7  1  0.20715467  0.93097989  0.69814431  1
  O  O8  1  0.74420033  0.14972958  0.48036705  1
  O  O9  1  0.25579887  0.85027127  0.51963497  1
  O  O10  1  0.61095464  0.23379197  0.18168700  1
  O  O11  1  0.38904610  0.76620761  0.81831341  1
  O  O12  1  0.52135513  0.77613338  0.13191337  1
  O  O13  1  0.47864678  0.22386710  0.86808589  1
  O  O14  1  0.23761129  0.17081487  0.61462678  1
  O  O15  1  0.76238870  0.82918541  0.38537394  1
  O  O16  1  0.10737248  0.42127626  0.26038608  1
  O  O17  1  0.89262769  0.57872365  0.73961418  1
  O  O18  1  0.05282437  0.08108077  0.14538814  1
  O  O19  1  0.94717432  0.91891921  0.85461277  1
