# generated using pymatgen
data_Ag3Au
_symmetry_space_group_name_H-M   'P 1'
_cell_length_a   5.88978257
_cell_length_b   5.88978199
_cell_length_c   4.82763852
_cell_angle_alpha   90.00000000
_cell_angle_beta   90.00000000
_cell_angle_gamma   119.99999056
_symmetry_Int_Tables_number   1
_chemical_formula_structural   Ag3Au
_chemical_formula_sum   'Ag6 Au2'
_cell_volume   145.03202118
_cell_formula_units_Z   2
loop_
 _symmetry_equiv_pos_site_id
 _symmetry_equiv_pos_as_xyz
  1  'x, y, z'
loop_
 _atom_site_type_symbol
 _atom_site_label
 _atom_site_symmetry_multiplicity
 _atom_site_fract_x
 _atom_site_fract_y
 _atom_site_fract_z
 _atom_site_occupancy
  Ag  Ag0  1  0.16634869  0.33269738  0.25000000  1
  Ag  Ag1  1  0.66730562  0.83365231  0.25000000  1
  Ag  Ag2  1  0.16634769  0.83365231  0.25000000  1
  Ag  Ag3  1  0.83365231  0.66730462  0.75000100  1
  Ag  Ag4  1  0.33269438  0.16634769  0.75000100  1
  Ag  Ag5  1  0.83365131  0.16634769  0.75000100  1
  Au  Au6  1  0.33333300  0.66666600  0.75000100  1
  Au  Au7  1  0.66666700  0.33333300  0.25000000  1
