# generated using pymatgen
data_CoP4(H5O8)2
_symmetry_space_group_name_H-M   'P 1'
_cell_length_a   7.51095042
_cell_length_b   5.39014397
_cell_length_c   7.64032521
_cell_angle_alpha   98.16232885
_cell_angle_beta   99.45532007
_cell_angle_gamma   96.34663398
_symmetry_Int_Tables_number   1
_chemical_formula_structural   CoP4(H5O8)2
_chemical_formula_sum   'Co1 P4 H10 O16'
_cell_volume   299.17409216
_cell_formula_units_Z   1
loop_
 _symmetry_equiv_pos_site_id
 _symmetry_equiv_pos_as_xyz
  1  'x, y, z'
loop_
 _atom_site_type_symbol
 _atom_site_label
 _atom_site_symmetry_multiplicity
 _atom_site_fract_x
 _atom_site_fract_y
 _atom_site_fract_z
 _atom_site_occupancy
  Co  Co0  1  0.50000046  0.49999942  0.49999979  1
  P  P1  1  0.77400292  0.42974103  0.19715720  1
  P  P2  1  0.22599753  0.57025861  0.80284330  1
  P  P3  1  0.74675035  0.06126687  0.67991551  1
  P  P4  1  0.25324960  0.93873390  0.32008379  1
  H  H5  1  0.89621120  0.73408404  0.07669973  1
  H  H6  1  0.10378916  0.26591493  0.92330040  1
  H  H7  1  0.99904824  0.82030711  0.79075317  1
  H  H8  1  0.00095163  0.17969195  0.20924633  1
  H  H9  1  0.77382115  0.86900642  0.42169695  1
  H  H10  1  0.22617895  0.13099441  0.57830301  1
  H  H11  1  0.71781990  0.44099796  0.82471710  1
  H  H12  1  0.28218038  0.55900159  0.17528325  1
  H  H13  1  0.53451721  0.15557452  0.17552838  1
  H  H14  1  0.46548298  0.84442512  0.82447131  1
  O  O15  1  0.71400063  0.57169847  0.35901312  1
  O  O16  1  0.28599929  0.42830134  0.64098704  1
  O  O17  1  0.63366869  0.19562057  0.10236336  1
  O  O18  1  0.36633160  0.80437984  0.89763665  1
  O  O19  1  0.78262588  0.60403308  0.04493480  1
  O  O20  1  0.21737419  0.39596661  0.95506590  1
  O  O21  1  0.03148767  0.64083316  0.75636433  1
  O  O22  1  0.96851257  0.35916599  0.24363666  1
  O  O23  1  0.59332599  0.84646516  0.67805055  1
  O  O24  1  0.40667473  0.15353527  0.32194967  1
  O  O25  1  0.66876191  0.32833606  0.70652457  1
  O  O26  1  0.33123781  0.67166484  0.29347518  1
  O  O27  1  0.91442981  0.06787428  0.82366650  1
  O  O28  1  0.08557034  0.93212544  0.17633210  1
  O  O29  1  0.79261302  0.05025041  0.48593561  1
  O  O30  1  0.20738721  0.94975061  0.51406370  1
