# generated using pymatgen
data_K
_symmetry_space_group_name_H-M   'P 1'
_cell_length_a   7.86390188
_cell_length_b   7.86390188
_cell_length_c   10.11403020
_cell_angle_alpha   90.00000000
_cell_angle_beta   90.00000000
_cell_angle_gamma   70.44253183
_symmetry_Int_Tables_number   1
_chemical_formula_structural   K
_chemical_formula_sum   K8
_cell_volume   589.37603093
_cell_formula_units_Z   8
loop_
 _symmetry_equiv_pos_site_id
 _symmetry_equiv_pos_as_xyz
  1  'x, y, z'
loop_
 _atom_site_type_symbol
 _atom_site_label
 _atom_site_symmetry_multiplicity
 _atom_site_fract_x
 _atom_site_fract_y
 _atom_site_fract_z
 _atom_site_occupancy
  K  K0  1  0.24571021  0.24571021  -0.00000000  1
  K  K1  1  0.75428979  0.75428979  -0.00000000  1
  K  K2  1  0.73653716  0.26346184  0.23634210  1
  K  K3  1  0.23653716  0.76346084  0.26365790  1
  K  K4  1  0.25428979  0.25428979  0.50000000  1
  K  K5  1  0.74571021  0.74571021  0.50000000  1
  K  K6  1  0.76346084  0.23653716  0.73634310  1
  K  K7  1  0.26346184  0.73653716  0.76365790  1
