# generated using pymatgen
data_MgAg2
_symmetry_space_group_name_H-M   'P 1'
_cell_length_a   3.09021152
_cell_length_b   7.63283721
_cell_length_c   4.77617046
_cell_angle_alpha   90.00000000
_cell_angle_beta   90.00000000
_cell_angle_gamma   78.32096600
_symmetry_Int_Tables_number   1
_chemical_formula_structural   MgAg2
_chemical_formula_sum   'Mg2 Ag4'
_cell_volume   110.32360061
_cell_formula_units_Z   2
loop_
 _symmetry_equiv_pos_site_id
 _symmetry_equiv_pos_as_xyz
  1  'x, y, z'
loop_
 _atom_site_type_symbol
 _atom_site_label
 _atom_site_symmetry_multiplicity
 _atom_site_fract_x
 _atom_site_fract_y
 _atom_site_fract_z
 _atom_site_occupancy
  Mg  Mg0  1  0.33008433  0.33983335  0.00000000  1
  Mg  Mg1  1  0.11436167  0.77127865  0.49999900  1
  Ag  Ag2  1  0.99690414  0.00618971  -0.00000000  1
  Ag  Ag3  1  0.66478309  0.67043182  0.00000000  1
  Ag  Ag4  1  0.44754086  0.10492129  0.49999900  1
  Ag  Ag5  1  0.77965891  0.44068018  0.49999900  1
