# generated using pymatgen
data_Mg2Sc
_symmetry_space_group_name_H-M   'P 1'
_cell_length_a   3.25966993
_cell_length_b   8.45343491
_cell_length_c   5.17871384
_cell_angle_alpha   90.00000000
_cell_angle_beta   90.00000000
_cell_angle_gamma   78.88367394
_symmetry_Int_Tables_number   1
_chemical_formula_structural   Mg2Sc
_chemical_formula_sum   'Mg4 Sc2'
_cell_volume   140.02417033
_cell_formula_units_Z   2
loop_
 _symmetry_equiv_pos_site_id
 _symmetry_equiv_pos_as_xyz
  1  'x, y, z'
loop_
 _atom_site_type_symbol
 _atom_site_label
 _atom_site_symmetry_multiplicity
 _atom_site_fract_x
 _atom_site_fract_y
 _atom_site_fract_z
 _atom_site_occupancy
  Mg  Mg0  1  -0.00011276  0.00022753  -0.00000000  1
  Mg  Mg1  1  0.66593294  0.66813712  0.00000000  1
  Mg  Mg2  1  0.77789276  0.44421647  0.49999900  1
  Mg  Mg3  1  0.11184506  0.77630788  0.49999900  1
  Sc  Sc4  1  0.33284224  0.33431452  -0.00000000  1
  Sc  Sc5  1  0.44493376  0.11012948  0.49999900  1
