# generated using pymatgen
data_LiYb2In
_symmetry_space_group_name_H-M   'P 1'
_cell_length_a   5.42621702
_cell_length_b   5.42624523
_cell_length_c   5.42604959
_cell_angle_alpha   59.99789713
_cell_angle_beta   59.99847136
_cell_angle_gamma   59.99693065
_symmetry_Int_Tables_number   1
_chemical_formula_structural   LiYb2In
_chemical_formula_sum   'Li1 Yb2 In1'
_cell_volume   112.96485328
_cell_formula_units_Z   1
loop_
 _symmetry_equiv_pos_site_id
 _symmetry_equiv_pos_as_xyz
  1  'x, y, z'
loop_
 _atom_site_type_symbol
 _atom_site_label
 _atom_site_symmetry_multiplicity
 _atom_site_fract_x
 _atom_site_fract_y
 _atom_site_fract_z
 _atom_site_occupancy
  Li  Li0  1  0.74999990  0.74999998  0.75000226  1
  Yb  Yb1  1  0.99999871  0.00000041  0.00000071  1
  Yb  Yb2  1  0.49999919  0.49999910  0.50000241  1
  In  In3  1  0.25000219  0.25000051  0.24999463  1
