# generated using pymatgen
data_U(HO2)2
_symmetry_space_group_name_H-M   'P 1'
_cell_length_a   4.16294602
_cell_length_b   6.07754116
_cell_length_c   6.18411420
_cell_angle_alpha   39.67125541
_cell_angle_beta   69.02229289
_cell_angle_gamma   70.88662746
_symmetry_Int_Tables_number   1
_chemical_formula_structural   U(HO2)2
_chemical_formula_sum   'U1 H2 O4'
_cell_volume   92.90782241
_cell_formula_units_Z   1
loop_
 _symmetry_equiv_pos_site_id
 _symmetry_equiv_pos_as_xyz
  1  'x, y, z'
loop_
 _atom_site_type_symbol
 _atom_site_label
 _atom_site_symmetry_multiplicity
 _atom_site_fract_x
 _atom_site_fract_y
 _atom_site_fract_z
 _atom_site_occupancy
  U  U0  1  0.00066323  0.00307743  0.99687216  1
  H  H1  1  0.38944994  0.91546221  0.60439065  1
  H  H2  1  0.91276830  0.40273784  0.07561598  1
  O  O3  1  0.20053145  0.80407301  0.80389799  1
  O  O4  1  0.80791973  0.20420018  0.18662726  1
  O  O5  1  0.49377256  0.00024376  0.00192025  1
  O  O6  1  0.99944379  0.49665257  0.50192371  1
