# generated using pymatgen
data_PrY3
_symmetry_space_group_name_H-M   'P 1'
_cell_length_a   7.34349428
_cell_length_b   7.34349380
_cell_length_c   5.83012050
_cell_angle_alpha   90.00000000
_cell_angle_beta   90.00000000
_cell_angle_gamma   120.00000218
_symmetry_Int_Tables_number   1
_chemical_formula_structural   PrY3
_chemical_formula_sum   'Pr2 Y6'
_cell_volume   272.27868625
_cell_formula_units_Z   2
loop_
 _symmetry_equiv_pos_site_id
 _symmetry_equiv_pos_as_xyz
  1  'x, y, z'
loop_
 _atom_site_type_symbol
 _atom_site_label
 _atom_site_symmetry_multiplicity
 _atom_site_fract_x
 _atom_site_fract_y
 _atom_site_fract_z
 _atom_site_occupancy
  Pr  Pr0  1  0.66666800  0.33333300  0.24999900  1
  Pr  Pr1  1  0.33333300  0.66666600  0.75000000  1
  Y  Y2  1  0.66901985  0.83450942  0.24999900  1
  Y  Y3  1  0.16548958  0.33097815  0.24999900  1
  Y  Y4  1  0.83451042  0.16548958  0.75000000  1
  Y  Y5  1  0.83451042  0.66902085  0.75000000  1
  Y  Y6  1  0.33097915  0.16548958  0.75000000  1
  Y  Y7  1  0.16548958  0.83450942  0.24999900  1
