# generated using pymatgen
data_NbSe2
_symmetry_space_group_name_H-M   'P 1'
_cell_length_a   3.48971613
_cell_length_b   3.48639512
_cell_length_c   26.45000917
_cell_angle_alpha   90.00000000
_cell_angle_beta   90.00000000
_cell_angle_gamma   120.03154607
_symmetry_Int_Tables_number   1
_chemical_formula_structural   NbSe2
_chemical_formula_sum   'Nb4 Se8'
_cell_volume   278.60250926
_cell_formula_units_Z   4
loop_
 _symmetry_equiv_pos_site_id
 _symmetry_equiv_pos_as_xyz
  1  'x, y, z'
loop_
 _atom_site_type_symbol
 _atom_site_label
 _atom_site_symmetry_multiplicity
 _atom_site_fract_x
 _atom_site_fract_y
 _atom_site_fract_z
 _atom_site_occupancy
  Nb  Nb0  1  0.77638265  0.55276631  -0.00000000  1
  Nb  Nb1  1  0.00039898  0.00079796  0.25956804  1
  Nb  Nb2  1  0.33357325  0.66714650  0.50000000  1
  Nb  Nb3  1  0.00039898  0.00079796  0.74043196  1
  Se  Se4  1  0.10991907  0.21983815  0.06380662  1
  Se  Se5  1  0.66685810  0.33371720  0.19567287  1
  Se  Se6  1  0.33424621  0.66849242  0.32328807  1
  Se  Se7  1  0.66695018  0.33390237  0.43646096  1
  Se  Se8  1  0.66695018  0.33390237  0.56353904  1
  Se  Se9  1  0.33424621  0.66849242  0.67671093  1
  Se  Se10  1  0.66685810  0.33371720  0.80432813  1
  Se  Se11  1  0.10991907  0.21983815  0.93619338  1
