# generated using pymatgen
data_Ta2H4O7
_symmetry_space_group_name_H-M   'P 1'
_cell_length_a   7.32420683
_cell_length_b   7.98831144
_cell_length_c   7.43682577
_cell_angle_alpha   56.55960121
_cell_angle_beta   65.52223021
_cell_angle_gamma   57.91816858
_symmetry_Int_Tables_number   1
_chemical_formula_structural   Ta2H4O7
_chemical_formula_sum   'Ta4 H8 O14'
_cell_volume   303.05062110
_cell_formula_units_Z   2
loop_
 _symmetry_equiv_pos_site_id
 _symmetry_equiv_pos_as_xyz
  1  'x, y, z'
loop_
 _atom_site_type_symbol
 _atom_site_label
 _atom_site_symmetry_multiplicity
 _atom_site_fract_x
 _atom_site_fract_y
 _atom_site_fract_z
 _atom_site_occupancy
  Ta  Ta0  1  0.47881193  0.99555018  0.47185975  1
  Ta  Ta1  1  0.44622186  0.52814025  0.00444982  1
  Ta  Ta2  1  0.99555018  0.47881193  0.55377814  1
  Ta  Ta3  1  0.52814025  0.44622186  0.52118807  1
  H  H4  1  0.66057138  0.66057138  0.08942862  1
  H  H5  1  0.99252012  0.72713841  0.01578255  1
  H  H6  1  0.72713841  0.99252012  0.76455892  1
  H  H7  1  0.91057138  0.91057138  0.33942862  1
  H  H8  1  0.98421745  0.23544108  0.00747988  1
  H  H9  1  0.23544108  0.98421745  0.27286159  1
  H  H10  1  0.95516432  0.95516432  0.79483568  1
  H  H11  1  0.20516432  0.20516432  0.04483568  1
  O  O12  1  0.55415169  0.22887365  0.21291278  1
  O  O13  1  0.22887365  0.55415169  0.50406187  1
  O  O14  1  0.20267084  0.20267084  0.54732916  1
  O  O15  1  0.57326250  0.57326250  0.17673750  1
  O  O16  1  0.14780816  0.62001534  0.11295344  1
  O  O17  1  0.62001534  0.14780816  0.61922306  1
  O  O18  1  0.49593813  0.78708722  0.77112635  1
  O  O19  1  0.78708722  0.49593813  0.44584831  1
  O  O20  1  0.82326250  0.82326250  0.42673750  1
  O  O21  1  0.45267084  0.45267084  0.79732916  1
  O  O22  1  0.88704656  0.38077694  0.85219184  1
  O  O23  1  0.38077694  0.88704656  0.37998466  1
  O  O24  1  0.86749748  0.86749748  0.88250252  1
  O  O25  1  0.11749748  0.11749748  0.13250252  1
