# generated using pymatgen
data_Pr3In
_symmetry_space_group_name_H-M   'P 1'
_cell_length_a   7.25307914
_cell_length_b   7.25307851
_cell_length_c   5.66105531
_cell_angle_alpha   90.00000000
_cell_angle_beta   90.00000000
_cell_angle_gamma   120.00000289
_symmetry_Int_Tables_number   1
_chemical_formula_structural   Pr3In
_chemical_formula_sum   'Pr6 In2'
_cell_volume   257.91274966
_cell_formula_units_Z   2
loop_
 _symmetry_equiv_pos_site_id
 _symmetry_equiv_pos_as_xyz
  1  'x, y, z'
loop_
 _atom_site_type_symbol
 _atom_site_label
 _atom_site_symmetry_multiplicity
 _atom_site_fract_x
 _atom_site_fract_y
 _atom_site_fract_z
 _atom_site_occupancy
  Pr  Pr0  1  0.82402208  0.17597692  0.74999900  1
  Pr  Pr1  1  0.35195383  0.17597692  0.74999900  1
  Pr  Pr2  1  0.82402308  0.64804617  0.74999900  1
  Pr  Pr3  1  0.17597792  0.82402208  0.25000000  1
  Pr  Pr4  1  0.64804517  0.82402208  0.25000000  1
  Pr  Pr5  1  0.17597692  0.35195483  0.25000000  1
  In  In6  1  0.66666600  0.33333200  0.25000000  1
  In  In7  1  0.33333300  0.66666700  0.74999900  1
