# generated using pymatgen
data_FeHO2
_symmetry_space_group_name_H-M   'P 1'
_cell_length_a   10.65328599
_cell_length_b   6.14173022
_cell_length_c   10.62161647
_cell_angle_alpha   89.89320645
_cell_angle_beta   88.95410985
_cell_angle_gamma   89.98619281
_symmetry_Int_Tables_number   1
_chemical_formula_structural   FeHO2
_chemical_formula_sum   'Fe16 H16 O32'
_cell_volume   694.85120100
_cell_formula_units_Z   16
loop_
 _symmetry_equiv_pos_site_id
 _symmetry_equiv_pos_as_xyz
  1  'x, y, z'
loop_
 _atom_site_type_symbol
 _atom_site_label
 _atom_site_symmetry_multiplicity
 _atom_site_fract_x
 _atom_site_fract_y
 _atom_site_fract_z
 _atom_site_occupancy
  Fe  Fe0  1  0.33001101  0.98477319  0.12851454  1
  Fe  Fe1  1  0.14281538  0.99056953  0.63462401  1
  Fe  Fe2  1  0.84739549  0.24646752  0.62774954  1
  Fe  Fe3  1  0.67388660  0.24244084  0.11955267  1
  Fe  Fe4  1  0.66053998  0.00711961  0.82076110  1
  Fe  Fe5  1  0.86816688  0.99351596  0.32568056  1
  Fe  Fe6  1  0.14892980  0.24461280  0.34926569  1
  Fe  Fe7  1  0.35115360  0.24133930  0.82719913  1
  Fe  Fe8  1  0.32422624  0.50631911  0.12705611  1
  Fe  Fe9  1  0.14369703  0.49591822  0.63454536  1
  Fe  Fe10  1  0.84972593  0.74523237  0.61352685  1
  Fe  Fe11  1  0.68227963  0.74183525  0.11943240  1
  Fe  Fe12  1  0.65815424  0.48728141  0.81881663  1
  Fe  Fe13  1  0.86861660  0.49295060  0.32564334  1
  Fe  Fe14  1  0.16463187  0.74554596  0.33425661  1
  Fe  Fe15  1  0.35994803  0.74198086  0.82447040  1
  H  H16  1  0.33341783  0.98868317  0.41324727  1
  H  H17  1  0.41256091  0.97817796  0.62925409  1
  H  H18  1  0.91753542  0.24607208  0.10413634  1
  H  H19  1  0.64902482  0.02881099  0.55695358  1
  H  H20  1  0.60378329  0.97208102  0.31596568  1
  H  H21  1  0.13683410  0.22177761  0.09327655  1
  H  H22  1  0.47134496  0.25484028  0.03591147  1
  H  H23  1  0.09197754  0.24191838  0.84109288  1
  H  H24  1  0.33607432  0.50615103  0.40867764  1
  H  H25  1  0.41396505  0.46425687  0.63171045  1
  H  H26  1  0.85931550  0.73302908  0.86238521  1
  H  H27  1  0.94425252  0.74023174  0.12925169  1
  H  H28  1  0.66277183  0.51069130  0.54068390  1
  H  H29  1  0.59696059  0.48363522  0.30967373  1
  H  H30  1  0.48221516  0.74516972  0.03237980  1
  H  H31  1  0.11794852  0.74056207  0.85628470  1
  O  O32  1  0.29388387  0.99350076  0.33137623  1
  O  O33  1  0.04741101  0.98958086  0.32156977  1
  O  O34  1  0.34180082  0.99075584  0.68835672  1
  O  O35  1  0.33214457  0.99115596  0.94584606  1
  O  O36  1  0.78576781  0.25002131  0.80603440  1
  O  O37  1  0.53330756  0.24538354  0.81365755  1
  O  O38  1  0.85932482  0.24293581  0.17587100  1
  O  O39  1  0.83528970  0.24338164  0.43328840  1
  O  O40  1  0.70531313  0.99419116  0.62507694  1
  O  O41  1  0.96172718  0.99259176  0.63966993  1
  O  O42  1  0.67266368  0.98956452  0.25597883  1
  O  O43  1  0.67844670  0.99146371  0.00906172  1
  O  O44  1  0.20683198  0.24119923  0.14989968  1
  O  O45  1  0.46462715  0.24659209  0.12889880  1
  O  O46  1  0.15789237  0.24126088  0.77670808  1
  O  O47  1  0.17427067  0.24349373  0.52607329  1
  O  O48  1  0.29265377  0.49662591  0.32908190  1
  O  O49  1  0.04772068  0.50015429  0.32142952  1
  O  O50  1  0.34249306  0.48933858  0.68867715  1
  O  O51  1  0.33152688  0.49363464  0.94544505  1
  O  O52  1  0.79084582  0.74449951  0.80369484  1
  O  O53  1  0.54063695  0.74632665  0.81355128  1
  O  O54  1  0.86533505  0.74103756  0.17801165  1
  O  O55  1  0.82898436  0.74307886  0.43050099  1
  O  O56  1  0.70602535  0.50053336  0.62014645  1
  O  O57  1  0.96262152  0.49796511  0.63984891  1
  O  O58  1  0.67133662  0.49069373  0.25590112  1
  O  O59  1  0.67720859  0.49393125  0.00867826  1
  O  O60  1  0.20775893  0.74790967  0.15189931  1
  O  O61  1  0.46872608  0.74358079  0.12495938  1
  O  O62  1  0.16421985  0.74124340  0.77636044  1
  O  O63  1  0.17353386  0.74380681  0.51864541  1
