# generated using pymatgen
data_Ti3N2
_symmetry_space_group_name_H-M   'P 1'
_cell_length_a   5.19779968
_cell_length_b   5.19779825
_cell_length_c   5.67939331
_cell_angle_alpha   117.23245600
_cell_angle_beta   62.76755169
_cell_angle_gamma   120.00000128
_symmetry_Int_Tables_number   1
_chemical_formula_structural   Ti3N2
_chemical_formula_sum   'Ti6 N4'
_cell_volume   112.81821494
_cell_formula_units_Z   2
loop_
 _symmetry_equiv_pos_site_id
 _symmetry_equiv_pos_as_xyz
  1  'x, y, z'
loop_
 _atom_site_type_symbol
 _atom_site_label
 _atom_site_symmetry_multiplicity
 _atom_site_fract_x
 _atom_site_fract_y
 _atom_site_fract_z
 _atom_site_occupancy
  Ti  Ti0  1  0.57304956  0.75000000  0.25000000  1
  Ti  Ti1  1  0.92694944  0.42694944  0.25000000  1
  Ti  Ti2  1  0.24999900  0.07304956  0.25000000  1
  Ti  Ti3  1  0.75000100  0.92695044  0.74999900  1
  Ti  Ti4  1  0.07305156  0.57305056  0.74999900  1
  Ti  Ti5  1  0.42695144  0.25000000  0.74999900  1
  N  N6  1  0.65940593  0.34059507  0.02178321  1
  N  N7  1  0.84059407  0.15940593  0.47821779  1
  N  N8  1  0.15940593  0.84059407  0.52178221  1
  N  N9  1  0.34059507  0.65940693  0.97821779  1
