# generated using pymatgen
data_Sm5Ge3C
_symmetry_space_group_name_H-M   'P 1'
_cell_length_a   6.64861667
_cell_length_b   8.73100466
_cell_length_c   8.73605990
_cell_angle_alpha   119.98085831
_cell_angle_beta   90.00000000
_cell_angle_gamma   90.00000000
_symmetry_Int_Tables_number   1
_chemical_formula_structural   Sm5Ge3C
_chemical_formula_sum   'Sm10 Ge6 C2'
_cell_volume   439.26387187
_cell_formula_units_Z   2
loop_
 _symmetry_equiv_pos_site_id
 _symmetry_equiv_pos_as_xyz
  1  'x, y, z'
loop_
 _atom_site_type_symbol
 _atom_site_label
 _atom_site_symmetry_multiplicity
 _atom_site_fract_x
 _atom_site_fract_y
 _atom_site_fract_z
 _atom_site_occupancy
  Sm  Sm0  1  0.49999896  0.33318140  0.66647229  1
  Sm  Sm1  1  0.49999896  0.66670911  0.33352771  1
  Sm  Sm2  1  0.99999896  0.66681860  0.33352771  1
  Sm  Sm3  1  0.99999896  0.33329089  0.66647229  1
  Sm  Sm4  1  0.74996873  0.22239443  0.00000000  1
  Sm  Sm5  1  0.75001760  0.77734555  0.77722867  1
  Sm  Sm6  1  0.75001760  0.00011688  0.22277133  1
  Sm  Sm7  1  0.24996873  0.77760557  1.00000000  1
  Sm  Sm8  1  0.25001760  0.22265445  0.22277133  1
  Sm  Sm9  1  0.25001760  0.99988312  0.77722867  1
  Ge  Ge10  1  0.75009356  0.59305858  0.00000000  1
  Ge  Ge11  1  0.74995187  0.40683858  0.40679252  1
  Ge  Ge12  1  0.74995187  0.00004606  0.59320748  1
  Ge  Ge13  1  0.25009356  0.40694142  1.00000000  1
  Ge  Ge14  1  0.24995187  0.59316142  0.59320748  1
  Ge  Ge15  1  0.24995187  0.99995394  0.40679252  1
  C  C16  1  0.50000084  0.99997206  -0.00000000  1
  C  C17  1  0.00000084  0.00002794  0.00000000  1
