# generated using pymatgen
data_Zn3Au
_symmetry_space_group_name_H-M   'P 1'
_cell_length_a   5.81585283
_cell_length_b   5.81585050
_cell_length_c   4.28324436
_cell_angle_alpha   90.10038266
_cell_angle_beta   89.89964855
_cell_angle_gamma   119.96003498
_symmetry_Int_Tables_number   1
_chemical_formula_structural   Zn3Au
_chemical_formula_sum   'Zn6 Au2'
_cell_volume   125.51741664
_cell_formula_units_Z   2
loop_
 _symmetry_equiv_pos_site_id
 _symmetry_equiv_pos_as_xyz
  1  'x, y, z'
loop_
 _atom_site_type_symbol
 _atom_site_label
 _atom_site_symmetry_multiplicity
 _atom_site_fract_x
 _atom_site_fract_y
 _atom_site_fract_z
 _atom_site_occupancy
  Zn  Zn0  1  0.16502287  0.33001043  0.24994881  1
  Zn  Zn1  1  0.66998919  0.83497676  0.24995071  1
  Zn  Zn2  1  0.16500383  0.83499592  0.25028533  1
  Zn  Zn3  1  0.83501277  0.67007338  0.75005142  1
  Zn  Zn4  1  0.32992768  0.16498820  0.75004947  1
  Zn  Zn5  1  0.83504093  0.16495997  0.74971378  1
  Au  Au6  1  0.33323673  0.66676560  0.75009203  1
  Au  Au7  1  0.66676699  0.33323274  0.24990845  1
