# generated using pymatgen
data_SrHgAs2O7
_symmetry_space_group_name_H-M   'P 1'
_cell_length_a   5.92815005
_cell_length_b   7.42187112
_cell_length_c   7.68147192
_cell_angle_alpha   101.71003291
_cell_angle_beta   90.07302397
_cell_angle_gamma   98.74083537
_symmetry_Int_Tables_number   1
_chemical_formula_structural   SrHgAs2O7
_chemical_formula_sum   'Sr2 Hg2 As4 O14'
_cell_volume   326.91139028
_cell_formula_units_Z   2
loop_
 _symmetry_equiv_pos_site_id
 _symmetry_equiv_pos_as_xyz
  1  'x, y, z'
loop_
 _atom_site_type_symbol
 _atom_site_label
 _atom_site_symmetry_multiplicity
 _atom_site_fract_x
 _atom_site_fract_y
 _atom_site_fract_z
 _atom_site_occupancy
  Sr  Sr0  1  0.68905540  0.27313751  0.93708009  1
  Sr  Sr1  1  0.31094460  0.72686249  0.06291991  1
  Hg  Hg2  1  0.31133053  0.82698546  0.59515908  1
  Hg  Hg3  1  0.68866947  0.17301454  0.40484092  1
  As  As4  1  0.81487682  0.77531657  0.81704354  1
  As  As5  1  0.18512318  0.22468343  0.18295646  1
  As  As6  1  0.78963638  0.66756802  0.38050966  1
  As  As7  1  0.21036362  0.33243198  0.61949034  1
  O  O8  1  0.94007460  0.22460389  0.65034903  1
  O  O9  1  0.05992540  0.77539611  0.34965097  1
  O  O10  1  0.76365991  0.63078635  0.96201957  1
  O  O11  1  0.23634009  0.36921365  0.03798043  1
  O  O12  1  0.78638123  0.62109599  0.60125434  1
  O  O13  1  0.21361877  0.37890401  0.39874566  1
  O  O14  1  0.60829246  0.91562224  0.82509577  1
  O  O15  1  0.39170754  0.08437776  0.17490423  1
  O  O16  1  0.58336340  0.80708283  0.36588290  1
  O  O17  1  0.41663660  0.19291717  0.63411710  1
  O  O18  1  0.28206955  0.55147138  0.73951586  1
  O  O19  1  0.71793045  0.44852862  0.26048414  1
  O  O20  1  0.08930718  0.89287217  0.84122830  1
  O  O21  1  0.91069282  0.10712783  0.15877170  1
