# generated using pymatgen
data_Y7Pt3
_symmetry_space_group_name_H-M   'P 1'
_cell_length_a   6.30899203
_cell_length_b   9.94466724
_cell_length_c   9.94466724
_cell_angle_alpha   119.89147208
_cell_angle_beta   90.00000000
_cell_angle_gamma   90.00000000
_symmetry_Int_Tables_number   1
_chemical_formula_structural   Y7Pt3
_chemical_formula_sum   'Y14 Pt6'
_cell_volume   540.93493233
_cell_formula_units_Z   2
loop_
 _symmetry_equiv_pos_site_id
 _symmetry_equiv_pos_as_xyz
  1  'x, y, z'
loop_
 _atom_site_type_symbol
 _atom_site_label
 _atom_site_symmetry_multiplicity
 _atom_site_fract_x
 _atom_site_fract_y
 _atom_site_fract_z
 _atom_site_occupancy
  Y  Y0  1  0.44993380  0.33339748  0.66660252  1
  Y  Y1  1  0.94993380  0.66660252  0.33339748  1
  Y  Y2  1  0.25456371  0.12790129  0.87209871  1
  Y  Y3  1  0.25484222  0.74444510  0.87223799  1
  Y  Y4  1  0.25484222  0.12776201  0.25555490  1
  Y  Y5  1  0.75456371  0.87209871  0.12790129  1
  Y  Y6  1  0.75484222  0.25555490  0.12776201  1
  Y  Y7  1  0.75484222  0.87223799  0.74444510  1
  Y  Y8  1  0.44206807  0.53922518  0.46077482  1
  Y  Y9  1  0.44185587  0.92208433  0.46104791  1
  Y  Y10  1  0.44185587  0.53895209  0.07791567  1
  Y  Y11  1  0.94206807  0.46077482  0.53922518  1
  Y  Y12  1  0.94185587  0.07791567  0.53895209  1
  Y  Y13  1  0.94185587  0.46104791  0.92208433  1
  Pt  Pt14  1  0.18430670  0.81058808  0.18941192  1
  Pt  Pt15  1  0.18436577  0.37881287  0.18931356  1
  Pt  Pt16  1  0.18436577  0.81068644  0.62118713  1
  Pt  Pt17  1  0.68430670  0.18941192  0.81058808  1
  Pt  Pt18  1  0.68436577  0.62118713  0.81068644  1
  Pt  Pt19  1  0.68436577  0.18931356  0.37881287  1
