# generated using pymatgen
data_Li2H2SeO5
_symmetry_space_group_name_H-M   'P 1'
_cell_length_a   5.10690807
_cell_length_b   5.69579543
_cell_length_c   8.57459278
_cell_angle_alpha   106.77954966
_cell_angle_beta   90.00000000
_cell_angle_gamma   90.00000000
_symmetry_Int_Tables_number   1
_chemical_formula_structural   Li2H2SeO5
_chemical_formula_sum   'Li4 H4 Se2 O10'
_cell_volume   238.79740427
_cell_formula_units_Z   2
loop_
 _symmetry_equiv_pos_site_id
 _symmetry_equiv_pos_as_xyz
  1  'x, y, z'
loop_
 _atom_site_type_symbol
 _atom_site_label
 _atom_site_symmetry_multiplicity
 _atom_site_fract_x
 _atom_site_fract_y
 _atom_site_fract_z
 _atom_site_occupancy
  Li  Li0  1  0.00633960  0.68808124  0.00844599  1
  Li  Li1  1  0.50633960  0.31191876  0.99155401  1
  Li  Li2  1  0.99556712  0.44956742  0.60637166  1
  Li  Li3  1  0.49556712  0.55043258  0.39362834  1
  H  H4  1  0.88534838  0.05338652  0.67540138  1
  H  H5  1  0.38534838  0.94661348  0.32459862  1
  H  H6  1  0.92144811  0.00542852  0.48913008  1
  H  H7  1  0.42144811  -0.00542852  0.51086992  1
  Se  Se8  1  0.50619818  0.71623616  0.79169986  1
  Se  Se9  1  0.00619818  0.28376384  0.20830014  1
  O  O10  1  0.58514118  0.00887326  0.81569688  1
  O  O11  1  0.08514118  -0.00887326  0.18430312  1
  O  O12  1  0.62288800  0.54923241  0.61155994  1
  O  O13  1  0.12288800  0.45076759  0.38844006  1
  O  O14  1  0.63851174  0.61408119  0.93844353  1
  O  O15  1  0.13851174  0.38591881  0.06155647  1
  O  O16  1  0.18137599  0.67506712  0.79506522  1
  O  O17  1  0.68137599  0.32493288  0.20493478  1
  O  O18  1  -0.00305831  0.09747367  0.59399796  1
  O  O19  1  0.49694169  0.90252633  0.40600204  1
