# generated using pymatgen
data_Nb2N3
_symmetry_space_group_name_H-M   'P 1'
_cell_length_a   3.02024943
_cell_length_b   8.18864348
_cell_length_c   8.31998278
_cell_angle_alpha   90.00000000
_cell_angle_beta   90.00000000
_cell_angle_gamma   90.00000000
_symmetry_Int_Tables_number   1
_chemical_formula_structural   Nb2N3
_chemical_formula_sum   'Nb8 N12'
_cell_volume   205.76769920
_cell_formula_units_Z   4
loop_
 _symmetry_equiv_pos_site_id
 _symmetry_equiv_pos_as_xyz
  1  'x, y, z'
loop_
 _atom_site_type_symbol
 _atom_site_label
 _atom_site_symmetry_multiplicity
 _atom_site_fract_x
 _atom_site_fract_y
 _atom_site_fract_z
 _atom_site_occupancy
  Nb  Nb0  1  0.25000000  0.18720726  0.47793183  1
  Nb  Nb1  1  0.25000000  0.31279274  0.97793183  1
  Nb  Nb2  1  0.75000000  0.81279274  0.52206817  1
  Nb  Nb3  1  0.75000000  0.68720726  0.02206817  1
  Nb  Nb4  1  0.25000000  0.99573004  0.80508609  1
  Nb  Nb5  1  0.25000000  0.50426996  0.30508609  1
  Nb  Nb6  1  0.75000000  0.00426996  0.19491391  1
  Nb  Nb7  1  0.75000000  0.49573004  0.69491391  1
  N  N8  1  0.25000000  0.62574580  0.54557449  1
  N  N9  1  0.25000000  0.87425420  0.04557449  1
  N  N10  1  0.75000000  0.37425420  0.45442551  1
  N  N11  1  0.75000000  0.12574580  0.95442551  1
  N  N12  1  0.25000000  0.95203194  0.37871898  1
  N  N13  1  0.25000000  0.54796806  0.87871898  1
  N  N14  1  0.75000000  0.04796806  0.62128102  1
  N  N15  1  0.75000000  0.45203194  0.12128102  1
  N  N16  1  0.25000000  0.29740422  0.72148411  1
  N  N17  1  0.25000000  0.20259578  0.22148411  1
  N  N18  1  0.75000000  0.70259578  0.27851589  1
  N  N19  1  0.75000000  0.79740422  0.77851589  1
