# generated using pymatgen
data_Yb3P
_symmetry_space_group_name_H-M   'P 1'
_cell_length_a   6.62190383
_cell_length_b   6.62436666
_cell_length_c   5.21272251
_cell_angle_alpha   89.96806250
_cell_angle_beta   90.05154180
_cell_angle_gamma   119.83702466
_symmetry_Int_Tables_number   1
_chemical_formula_structural   Yb3P
_chemical_formula_sum   'Yb6 P2'
_cell_volume   198.35044118
_cell_formula_units_Z   2
loop_
 _symmetry_equiv_pos_site_id
 _symmetry_equiv_pos_as_xyz
  1  'x, y, z'
loop_
 _atom_site_type_symbol
 _atom_site_label
 _atom_site_symmetry_multiplicity
 _atom_site_fract_x
 _atom_site_fract_y
 _atom_site_fract_z
 _atom_site_occupancy
  Yb  Yb0  1  0.17537174  0.35100098  0.25002074  1
  Yb  Yb1  1  0.64912923  0.82475056  0.25007299  1
  Yb  Yb2  1  0.17542490  0.82466183  0.24993657  1
  Yb  Yb3  1  0.82448220  0.64866384  0.74996619  1
  Yb  Yb4  1  0.35128093  0.17547714  0.74992457  1
  Yb  Yb5  1  0.82443720  0.17552692  0.75008538  1
  P  P6  1  0.33326095  0.66670057  0.74989658  1
  P  P7  1  0.66661683  0.33322017  0.25009298  1
