# generated using pymatgen
data_UGe2Ir
_symmetry_space_group_name_H-M   'P 1'
_cell_length_a   4.34107816
_cell_length_b   8.79616388
_cell_length_c   9.39900128
_cell_angle_alpha   117.90006220
_cell_angle_beta   103.35200744
_cell_angle_gamma   90.00000000
_symmetry_Int_Tables_number   1
_chemical_formula_structural   UGe2Ir
_chemical_formula_sum   'U4 Ge8 Ir4'
_cell_volume   306.16251642
_cell_formula_units_Z   4
loop_
 _symmetry_equiv_pos_site_id
 _symmetry_equiv_pos_as_xyz
  1  'x, y, z'
loop_
 _atom_site_type_symbol
 _atom_site_label
 _atom_site_symmetry_multiplicity
 _atom_site_fract_x
 _atom_site_fract_y
 _atom_site_fract_z
 _atom_site_occupancy
  U  U0  1  -0.00000000  0.26216718  -0.00000000  1
  U  U1  1  -0.00000000  0.73783282  -0.00000000  1
  U  U2  1  0.79535665  0.29535665  0.59071330  1
  U  U3  1  0.20464335  0.70464335  0.40928670  1
  Ge  Ge4  1  0.42475997  0.92475997  0.84951994  1
  Ge  Ge5  1  0.57524003  0.07524003  0.15048006  1
  Ge  Ge6  1  0.42455655  0.42455655  0.84911310  1
  Ge  Ge7  1  0.57544345  0.57544345  0.15088690  1
  Ge  Ge8  1  0.19916294  0.04592708  0.39832588  1
  Ge  Ge9  1  0.80083706  0.95407292  0.60167412  1
  Ge  Ge10  1  0.19916294  0.35239880  0.39832588  1
  Ge  Ge11  1  0.80083706  0.64760120  0.60167412  1
  Ir  Ir12  1  0.35361937  0.10350966  0.70723873  1
  Ir  Ir13  1  0.64638063  0.89649034  0.29276127  1
  Ir  Ir14  1  0.35361937  0.60372907  0.70723873  1
  Ir  Ir15  1  0.64638063  0.39627093  0.29276127  1
