# generated using pymatgen
data_H2WO5
_symmetry_space_group_name_H-M   'P 1'
_cell_length_a   11.86055878
_cell_length_b   3.95383225
_cell_length_c   11.97228140
_cell_angle_alpha   90.00000000
_cell_angle_beta   143.25868630
_cell_angle_gamma   90.00000000
_symmetry_Int_Tables_number   1
_chemical_formula_structural   H2WO5
_chemical_formula_sum   'H8 W4 O20'
_cell_volume   335.85280483
_cell_formula_units_Z   4
loop_
 _symmetry_equiv_pos_site_id
 _symmetry_equiv_pos_as_xyz
  1  'x, y, z'
loop_
 _atom_site_type_symbol
 _atom_site_label
 _atom_site_symmetry_multiplicity
 _atom_site_fract_x
 _atom_site_fract_y
 _atom_site_fract_z
 _atom_site_occupancy
  H  H0  1  0.16445359  0.28108036  0.63703249  1
  H  H1  1  0.83554641  0.78108036  0.86296751  1
  H  H2  1  0.83554641  0.71891964  0.36296751  1
  H  H3  1  0.16445359  0.21891964  0.13703249  1
  H  H4  1  0.31616928  0.55776820  0.17656977  1
  H  H5  1  0.68383072  0.05776820  0.32343023  1
  H  H6  1  0.68383072  0.44223180  0.82343023  1
  H  H7  1  0.31616928  0.94223180  0.67656977  1
  W  W8  1  0.18928114  0.42857781  0.88346675  1
  W  W9  1  0.81071886  0.92857781  0.61653325  1
  W  W10  1  0.81071886  0.57142219  0.11653325  1
  W  W11  1  0.18928114  0.07142219  0.38346675  1
  O  O12  1  0.15621259  0.41511957  0.70410685  1
  O  O13  1  0.84378741  0.91511957  0.79589315  1
  O  O14  1  0.84378741  0.58488043  0.29589315  1
  O  O15  1  0.15621259  0.08488043  0.20410685  1
  O  O16  1  0.10585565  0.92860774  0.82639189  1
  O  O17  1  0.89414435  0.42860774  0.67360811  1
  O  O18  1  0.89414435  0.07139226  0.17360811  1
  O  O19  1  0.10585565  0.57139226  0.32639189  1
  O  O20  1  0.20435615  0.42927664  0.06266159  1
  O  O21  1  0.79564385  0.92927664  0.43733841  1
  O  O22  1  0.79564385  0.57072336  0.93733841  1
  O  O23  1  0.20435615  0.07072336  0.56266159  1
  O  O24  1  0.44964881  0.25354483  0.08395130  1
  O  O25  1  0.55035119  0.75354483  0.41604870  1
  O  O26  1  0.55035119  0.74645517  0.91604870  1
  O  O27  1  0.44964881  0.24645517  0.58395130  1
  O  O28  1  0.44032131  0.62351833  0.08009239  1
  O  O29  1  0.55967869  0.12351833  0.41990761  1
  O  O30  1  0.55967869  0.37648167  0.91990761  1
  O  O31  1  0.44032131  0.87648167  0.58009239  1
