# generated using pymatgen
data_B2Mo2Ru
_symmetry_space_group_name_H-M   'P 1'
_cell_length_a   3.09861182
_cell_length_b   7.53171133
_cell_length_c   9.62069746
_cell_angle_alpha   90.00000000
_cell_angle_beta   90.00000000
_cell_angle_gamma   90.00000000
_symmetry_Int_Tables_number   1
_chemical_formula_structural   B2Mo2Ru
_chemical_formula_sum   'B8 Mo8 Ru4'
_cell_volume   224.52639183
_cell_formula_units_Z   4
loop_
 _symmetry_equiv_pos_site_id
 _symmetry_equiv_pos_as_xyz
  1  'x, y, z'
loop_
 _atom_site_type_symbol
 _atom_site_label
 _atom_site_symmetry_multiplicity
 _atom_site_fract_x
 _atom_site_fract_y
 _atom_site_fract_z
 _atom_site_occupancy
  B  B0  1  0.50000000  0.11531609  0.46076978  1
  B  B1  1  0.50000000  0.88468391  0.53923022  1
  B  B2  1  0.00000000  0.38468391  0.96076978  1
  B  B3  1  0.00000000  0.61531609  0.03923022  1
  B  B4  1  0.50000000  0.12528160  0.26781885  1
  B  B5  1  0.50000000  0.87471840  0.73218115  1
  B  B6  1  -0.00000000  0.37471840  0.76781885  1
  B  B7  1  0.00000000  0.62528160  0.23218115  1
  Mo  Mo8  1  0.50000000  0.80901751  0.12922150  1
  Mo  Mo9  1  0.50000000  0.19098249  0.87077850  1
  Mo  Mo10  1  -0.00000000  0.69098249  0.62922150  1
  Mo  Mo11  1  -0.00000000  0.30901751  0.37077850  1
  Mo  Mo12  1  0.50000000  0.57457507  0.86019734  1
  Mo  Mo13  1  0.50000000  0.42542493  0.13980266  1
  Mo  Mo14  1  0.00000000  0.92542493  0.36019734  1
  Mo  Mo15  1  -0.00000000  0.07457507  0.63980266  1
  Ru  Ru16  1  0.50000000  0.62030205  0.39185434  1
  Ru  Ru17  1  0.50000000  0.37969795  0.60814566  1
  Ru  Ru18  1  0.00000000  0.87969795  0.89185434  1
  Ru  Ru19  1  0.00000000  0.12030205  0.10814566  1
