# generated using pymatgen
data_Y3MnAlS7
_symmetry_space_group_name_H-M   'P 1'
_cell_length_a   6.13000195
_cell_length_b   9.70542149
_cell_length_c   9.70596920
_cell_angle_alpha   120.00576879
_cell_angle_beta   90.00000000
_cell_angle_gamma   90.00000000
_symmetry_Int_Tables_number   1
_chemical_formula_structural   Y3MnAlS7
_chemical_formula_sum   'Y6 Mn2 Al2 S14'
_cell_volume   500.05676336
_cell_formula_units_Z   2
loop_
 _symmetry_equiv_pos_site_id
 _symmetry_equiv_pos_as_xyz
  1  'x, y, z'
loop_
 _atom_site_type_symbol
 _atom_site_label
 _atom_site_symmetry_multiplicity
 _atom_site_fract_x
 _atom_site_fract_y
 _atom_site_fract_z
 _atom_site_occupancy
  Y  Y0  1  0.26489529  0.23328276  0.37782002  1
  Y  Y1  1  0.26490081  0.62217778  0.85547826  1
  Y  Y2  1  0.26487154  0.14452008  0.76668328  1
  Y  Y3  1  0.76489529  0.76671724  0.62217998  1
  Y  Y4  1  0.76490081  0.37782222  0.14452174  1
  Y  Y5  1  0.76487154  0.85547992  0.23331672  1
  Mn  Mn6  1  0.47150571  0.00003230  0.99996821  1
  Mn  Mn7  1  0.97150571  0.99996770  0.00003179  1
  Al  Al8  1  0.83935873  0.33328472  0.66664652  1
  Al  Al9  1  0.33935873  0.66671528  0.33335348  1
  S  S10  1  0.68864359  0.14453438  0.24410360  1
  S  S11  1  0.68863383  0.75589197  0.90043065  1
  S  S12  1  0.68866578  0.09959696  0.85544980  1
  S  S13  1  0.18864359  0.85546562  0.75589640  1
  S  S14  1  0.18863383  0.24410803  0.09956935  1
  S  S15  1  0.18866578  0.90040304  0.14455020  1
  S  S16  1  0.99725841  0.09447995  0.51662679  1
  S  S17  1  0.99728665  0.48342159  0.57783674  1
  S  S18  1  0.99728659  0.42216915  0.90558550  1
  S  S19  1  0.49725841  0.90552005  0.48337321  1
  S  S20  1  0.49728665  0.51657841  0.42216326  1
  S  S21  1  0.49728659  0.57783085  0.09441450  1
  S  S22  1  0.47269306  0.33334464  0.66667423  1
  S  S23  1  0.97269306  0.66665536  0.33332577  1
