# generated using pymatgen
data_LiYbBi
_symmetry_space_group_name_H-M   'P 1'
_cell_length_a   7.71059724
_cell_length_b   9.64401779
_cell_length_c   9.64401779
_cell_angle_alpha   119.99999935
_cell_angle_beta   90.00000000
_cell_angle_gamma   90.00000000
_symmetry_Int_Tables_number   1
_chemical_formula_structural   LiYbBi
_chemical_formula_sum   'Li8 Yb8 Bi8'
_cell_volume   621.06157215
_cell_formula_units_Z   8
loop_
 _symmetry_equiv_pos_site_id
 _symmetry_equiv_pos_as_xyz
  1  'x, y, z'
loop_
 _atom_site_type_symbol
 _atom_site_label
 _atom_site_symmetry_multiplicity
 _atom_site_fract_x
 _atom_site_fract_y
 _atom_site_fract_z
 _atom_site_occupancy
  Li  Li0  1  0.32171734  0.16653663  0.83346337  1
  Li  Li1  1  0.32172432  0.66690519  0.83345007  1
  Li  Li2  1  0.32172432  0.16654993  0.33309481  1
  Li  Li3  1  0.82171734  0.83346337  0.16653663  1
  Li  Li4  1  0.82172432  0.33309481  0.16654993  1
  Li  Li5  1  0.82172432  0.83345007  0.66690519  1
  Li  Li6  1  0.66885146  0.33333163  0.66666837  1
  Li  Li7  1  0.16885146  0.66666837  0.33333163  1
  Yb  Yb8  1  0.50624593  0.51703287  0.48296713  1
  Yb  Yb9  1  0.50623814  0.96593378  0.48296951  1
  Yb  Yb10  1  0.50623814  0.51703049  0.03406622  1
  Yb  Yb11  1  0.00624593  0.48296713  0.51703287  1
  Yb  Yb12  1  0.00623814  0.03406622  0.51703049  1
  Yb  Yb13  1  0.00623814  0.48296951  0.96593378  1
  Yb  Yb14  1  0.51633564  0.99999838  0.00000162  1
  Yb  Yb15  1  0.01633564  0.00000162  0.99999838  1
  Bi  Bi16  1  0.73571617  0.16650486  0.83349514  1
  Bi  Bi17  1  0.73571948  0.66698395  0.83348663  1
  Bi  Bi18  1  0.73571948  0.16651337  0.33301605  1
  Bi  Bi19  1  0.23571617  0.83349514  0.16650486  1
  Bi  Bi20  1  0.23571948  0.33301605  0.16651337  1
  Bi  Bi21  1  0.23571948  0.83348663  0.66698395  1
  Bi  Bi22  1  0.27876957  0.33332842  0.66667158  1
  Bi  Bi23  1  0.77876957  0.66667158  0.33332842  1
