# generated using pymatgen
data_Lu5Pt3
_symmetry_space_group_name_H-M   'P 1'
_cell_length_a   5.99965279
_cell_length_b   8.31988331
_cell_length_c   8.31907468
_cell_angle_alpha   120.00321617
_cell_angle_beta   90.00000000
_cell_angle_gamma   90.00000000
_symmetry_Int_Tables_number   1
_chemical_formula_structural   Lu5Pt3
_chemical_formula_sum   'Lu10 Pt6'
_cell_volume   359.61262659
_cell_formula_units_Z   2
loop_
 _symmetry_equiv_pos_site_id
 _symmetry_equiv_pos_as_xyz
  1  'x, y, z'
loop_
 _atom_site_type_symbol
 _atom_site_label
 _atom_site_symmetry_multiplicity
 _atom_site_fract_x
 _atom_site_fract_y
 _atom_site_fract_z
 _atom_site_occupancy
  Lu  Lu0  1  0.49999696  0.33331701  0.66666349  1
  Lu  Lu1  1  0.49999696  0.66665352  0.33333651  1
  Lu  Lu2  1  -0.00000304  0.66668299  0.33333651  1
  Lu  Lu3  1  -0.00000304  0.33334648  0.66666349  1
  Lu  Lu4  1  0.75000821  0.24856576  0.00000000  1
  Lu  Lu5  1  0.74998472  0.75142461  0.75143894  1
  Lu  Lu6  1  0.74998472  0.99998567  0.24856106  1
  Lu  Lu7  1  0.25000821  0.75143424  1.00000000  1
  Lu  Lu8  1  0.24998472  0.24857539  0.24856106  1
  Lu  Lu9  1  0.24998472  0.00001433  0.75143894  1
  Pt  Pt10  1  0.75003931  0.60501313  1.00000000  1
  Pt  Pt11  1  0.74999456  0.39495899  0.39495819  1
  Pt  Pt12  1  0.74999456  0.00000080  0.60504181  1
  Pt  Pt13  1  0.25003931  0.39498687  0.00000000  1
  Pt  Pt14  1  0.24999456  0.60504101  0.60504181  1
  Pt  Pt15  1  0.24999456  -0.00000080  0.39495819  1
