# generated using pymatgen
data_Hf3(CrGa3)2
_symmetry_space_group_name_H-M   'P 1'
_cell_length_a   5.31730831
_cell_length_b   7.72555177
_cell_length_c   8.73971438
_cell_angle_alpha   90.00000000
_cell_angle_beta   90.00000000
_cell_angle_gamma   90.00000000
_symmetry_Int_Tables_number   1
_chemical_formula_structural   Hf3(CrGa3)2
_chemical_formula_sum   'Hf6 Cr4 Ga12'
_cell_volume   359.01995605
_cell_formula_units_Z   2
loop_
 _symmetry_equiv_pos_site_id
 _symmetry_equiv_pos_as_xyz
  1  'x, y, z'
loop_
 _atom_site_type_symbol
 _atom_site_label
 _atom_site_symmetry_multiplicity
 _atom_site_fract_x
 _atom_site_fract_y
 _atom_site_fract_z
 _atom_site_occupancy
  Hf  Hf0  1  0.75000000  0.84449360  0.02987936  1
  Hf  Hf1  1  0.75000000  0.84449360  0.47012064  1
  Hf  Hf2  1  0.25000000  0.15550640  0.97012064  1
  Hf  Hf3  1  0.25000000  0.15550640  0.52987936  1
  Hf  Hf4  1  0.75000000  0.28559337  0.75000000  1
  Hf  Hf5  1  0.25000000  0.71440663  0.25000000  1
  Cr  Cr6  1  0.50000000  0.50000000  0.50000000  1
  Cr  Cr7  1  0.50000000  0.50000000  0.00000000  1
  Cr  Cr8  1  -0.00000000  0.50000000  0.50000000  1
  Cr  Cr9  1  0.00000000  0.50000000  0.00000000  1
  Ga  Ga10  1  0.75000000  0.23318024  0.43753800  1
  Ga  Ga11  1  0.75000000  0.23318024  0.06246200  1
  Ga  Ga12  1  0.25000000  0.76681976  0.56246200  1
  Ga  Ga13  1  0.25000000  0.76681976  0.93753800  1
  Ga  Ga14  1  0.75000000  0.63419500  0.75000000  1
  Ga  Ga15  1  0.25000000  0.36580500  0.25000000  1
  Ga  Ga16  1  0.25000000  0.43744290  0.75000000  1
  Ga  Ga17  1  0.75000000  0.56255710  0.25000000  1
  Ga  Ga18  1  0.51043469  0.96095623  0.75000000  1
  Ga  Ga19  1  0.98956531  0.96095623  0.75000000  1
  Ga  Ga20  1  0.48956531  0.03904377  0.25000000  1
  Ga  Ga21  1  0.01043469  0.03904377  0.25000000  1
