# generated using pymatgen
data_SbN6Cl
_symmetry_space_group_name_H-M   'P 1'
_cell_length_a   7.61632976
_cell_length_b   7.61633069
_cell_length_c   14.08104008
_cell_angle_alpha   75.19839543
_cell_angle_beta   75.19839460
_cell_angle_gamma   68.62744215
_symmetry_Int_Tables_number   1
_chemical_formula_structural   SbN6Cl
_chemical_formula_sum   'Sb4 N24 Cl4'
_cell_volume   723.34806748
_cell_formula_units_Z   4
loop_
 _symmetry_equiv_pos_site_id
 _symmetry_equiv_pos_as_xyz
  1  'x, y, z'
loop_
 _atom_site_type_symbol
 _atom_site_label
 _atom_site_symmetry_multiplicity
 _atom_site_fract_x
 _atom_site_fract_y
 _atom_site_fract_z
 _atom_site_occupancy
  Sb  Sb0  1  0.83140059  0.37077616  0.47547682  1
  Sb  Sb1  1  0.16859941  0.62922384  0.52452318  1
  Sb  Sb2  1  0.37077616  0.83140059  0.97547682  1
  Sb  Sb3  1  0.62922384  0.16859941  0.02452318  1
  N  N4  1  0.53298606  0.72491198  0.66369354  1
  N  N5  1  0.15794854  0.13828696  0.20375877  1
  N  N6  1  0.35608959  0.32673497  0.88306849  1
  N  N7  1  0.84863869  0.82134633  0.72453838  1
  N  N8  1  0.17865367  0.15136131  0.77546162  1
  N  N9  1  0.64391041  0.67326503  0.11693151  1
  N  N10  1  0.43831807  0.17317389  0.93209035  1
  N  N11  1  0.86171304  0.84205146  0.29624123  1
  N  N12  1  0.82134633  0.84863869  0.22453838  1
  N  N13  1  0.03647110  0.00809187  0.03011828  1
  N  N14  1  0.82682611  0.56168193  0.56790965  1
  N  N15  1  0.27508802  0.46701394  0.83630646  1
  N  N16  1  0.13828696  0.15794854  0.70375877  1
  N  N17  1  0.56168193  0.82682611  0.06790965  1
  N  N18  1  0.72491198  0.53298606  0.16369354  1
  N  N19  1  0.84205146  0.86171304  0.79624123  1
  N  N20  1  0.96352890  0.99190813  0.96988172  1
  N  N21  1  0.15136131  0.17865367  0.27546162  1
  N  N22  1  0.17317389  0.43831807  0.43209035  1
  N  N23  1  0.32673497  0.35608959  0.38306849  1
  N  N24  1  0.99190813  0.96352890  0.46988172  1
  N  N25  1  0.67326503  0.64391041  0.61693151  1
  N  N26  1  0.46701394  0.27508802  0.33630646  1
  N  N27  1  0.00809187  0.03647110  0.53011828  1
  Cl  Cl28  1  0.56193011  0.28398876  0.59016122  1
  Cl  Cl29  1  0.43806989  0.71601124  0.40983878  1
  Cl  Cl30  1  0.28398876  0.56193011  0.09016122  1
  Cl  Cl31  1  0.71601124  0.43806989  0.90983878  1
