# generated using pymatgen
data_CsSm2Ag3Te5
_symmetry_space_group_name_H-M   'P 1'
_cell_length_a   4.71002138
_cell_length_b   8.54537117
_cell_length_c   18.84223578
_cell_angle_alpha   90.00000000
_cell_angle_beta   90.00000000
_cell_angle_gamma   105.99711885
_symmetry_Int_Tables_number   1
_chemical_formula_structural   CsSm2Ag3Te5
_chemical_formula_sum   'Cs2 Sm4 Ag6 Te10'
_cell_volume   729.01110192
_cell_formula_units_Z   2
loop_
 _symmetry_equiv_pos_site_id
 _symmetry_equiv_pos_as_xyz
  1  'x, y, z'
loop_
 _atom_site_type_symbol
 _atom_site_label
 _atom_site_symmetry_multiplicity
 _atom_site_fract_x
 _atom_site_fract_y
 _atom_site_fract_z
 _atom_site_occupancy
  Cs  Cs0  1  0.44063208  0.88126417  0.25000000  1
  Cs  Cs1  1  0.55936792  0.11873583  0.75000000  1
  Sm  Sm2  1  0.30857284  0.61714568  0.90660667  1
  Sm  Sm3  1  0.69142716  0.38285432  0.09339333  1
  Sm  Sm4  1  0.30857284  0.61714568  0.59339333  1
  Sm  Sm5  1  0.69142716  0.38285432  0.40660667  1
  Ag  Ag6  1  0.15830318  0.31660635  0.25000000  1
  Ag  Ag7  1  0.84169682  0.68339365  0.75000000  1
  Ag  Ag8  1  0.91550006  0.83100013  0.46709887  1
  Ag  Ag9  1  0.08449994  0.16899987  0.53290113  1
  Ag  Ag10  1  0.91550006  0.83100013  0.03290113  1
  Ag  Ag11  1  0.08449994  0.16899987  0.96709887  1
  Te  Te12  1  0.93649914  0.87299828  0.88142054  1
  Te  Te13  1  0.06350086  0.12700172  0.11857946  1
  Te  Te14  1  0.93649914  0.87299828  0.61857946  1
  Te  Te15  1  0.06350086  0.12700172  0.38142054  1
  Te  Te16  1  0.32177491  0.64354981  0.42777589  1
  Te  Te17  1  0.67822509  0.35645019  0.57222411  1
  Te  Te18  1  0.32177491  0.64354981  0.07222411  1
  Te  Te19  1  0.67822509  0.35645019  0.92777589  1
  Te  Te20  1  0.75402964  0.50805927  0.25000000  1
  Te  Te21  1  0.24597036  0.49194073  0.75000000  1
