# generated using pymatgen
data_NdMnB4
_symmetry_space_group_name_H-M   'P 1'
_cell_length_a   3.51015650
_cell_length_b   6.02007553
_cell_length_c   11.64702459
_cell_angle_alpha   90.00000000
_cell_angle_beta   90.00000000
_cell_angle_gamma   90.00000000
_symmetry_Int_Tables_number   1
_chemical_formula_structural   NdMnB4
_chemical_formula_sum   'Nd4 Mn4 B16'
_cell_volume   246.11801989
_cell_formula_units_Z   4
loop_
 _symmetry_equiv_pos_site_id
 _symmetry_equiv_pos_as_xyz
  1  'x, y, z'
loop_
 _atom_site_type_symbol
 _atom_site_label
 _atom_site_symmetry_multiplicity
 _atom_site_fract_x
 _atom_site_fract_y
 _atom_site_fract_z
 _atom_site_occupancy
  Nd  Nd0  1  -0.00000000  0.62528288  0.34897878  1
  Nd  Nd1  1  -0.00000000  0.37471712  0.65102122  1
  Nd  Nd2  1  0.00000000  0.12528288  0.15102122  1
  Nd  Nd3  1  0.00000000  0.87471712  0.84897878  1
  Mn  Mn4  1  0.00000000  0.62645399  0.08244958  1
  Mn  Mn5  1  -0.00000000  0.37354601  0.91755042  1
  Mn  Mn6  1  -0.00000000  0.12645399  0.41755042  1
  Mn  Mn7  1  -0.00000000  0.87354601  0.58244958  1
  B  B8  1  0.50000000  0.77705128  0.18140809  1
  B  B9  1  0.50000000  0.22294872  0.81859191  1
  B  B10  1  0.50000000  0.27705128  0.31859191  1
  B  B11  1  0.50000000  0.72294872  0.68140809  1
  B  B12  1  0.50000000  0.85835029  0.03260406  1
  B  B13  1  0.50000000  0.14164971  0.96739594  1
  B  B14  1  0.50000000  0.35835029  0.46739594  1
  B  B15  1  0.50000000  0.64164971  0.53260406  1
  B  B16  1  0.50000000  0.88968343  0.45493529  1
  B  B17  1  0.50000000  0.11031657  0.54506471  1
  B  B18  1  0.50000000  0.38968343  0.04506471  1
  B  B19  1  0.50000000  0.61031657  0.95493529  1
  B  B20  1  0.50000000  0.97725385  0.31223015  1
  B  B21  1  0.50000000  0.02274615  0.68776985  1
  B  B22  1  0.50000000  0.47725385  0.18776985  1
  B  B23  1  0.50000000  0.52274615  0.81223015  1
