# generated using pymatgen
data_Gd3GaNiSe7
_symmetry_space_group_name_H-M   'P 1'
_cell_length_a   6.46810866
_cell_length_b   10.13962816
_cell_length_c   10.11652955
_cell_angle_alpha   119.96963540
_cell_angle_beta   90.00000000
_cell_angle_gamma   90.00000000
_symmetry_Int_Tables_number   1
_chemical_formula_structural   Gd3GaNiSe7
_chemical_formula_sum   'Gd6 Ga2 Ni2 Se14'
_cell_volume   574.77030665
_cell_formula_units_Z   2
loop_
 _symmetry_equiv_pos_site_id
 _symmetry_equiv_pos_as_xyz
  1  'x, y, z'
loop_
 _atom_site_type_symbol
 _atom_site_label
 _atom_site_symmetry_multiplicity
 _atom_site_fract_x
 _atom_site_fract_y
 _atom_site_fract_z
 _atom_site_occupancy
  Gd  Gd0  1  0.17979781  0.84147380  0.21421722  1
  Gd  Gd1  1  0.17967213  0.78589964  0.62725734  1
  Gd  Gd2  1  0.18007476  0.37257932  0.15849939  1
  Gd  Gd3  1  0.67979781  0.15852620  0.78578278  1
  Gd  Gd4  1  0.67967213  0.21410036  0.37274266  1
  Gd  Gd5  1  0.68007476  0.62742068  0.84150061  1
  Ga  Ga6  1  0.09921450  0.33341594  0.66676584  1
  Ga  Ga7  1  0.59921450  0.66658406  0.33323416  1
  Ni  Ni8  1  0.50361878  0.00001167  0.00006079  1
  Ni  Ni9  1  0.00361878  -0.00001167  -0.00006079  1
  Se  Se10  1  0.44788910  0.56176209  0.08214318  1
  Se  Se11  1  0.44786574  0.91787020  0.47957625  1
  Se  Se12  1  0.44786738  0.52030285  0.43816671  1
  Se  Se13  1  0.94788910  0.43823791  0.91785682  1
  Se  Se14  1  0.94786574  0.08212980  0.52042375  1
  Se  Se15  1  0.94786738  0.47969715  0.56183329  1
  Se  Se16  1  0.47192143  0.33339256  0.66670138  1
  Se  Se17  1  0.97192143  0.66660744  0.33329862  1
  Se  Se18  1  0.26287302  0.12922088  0.22921436  1
  Se  Se19  1  0.26269893  0.77158225  0.90035183  1
  Se  Se20  1  0.26270640  0.09986796  0.87081860  1
  Se  Se21  1  0.76287302  0.87077912  0.77078564  1
  Se  Se22  1  0.76269893  0.22841775  0.09964817  1
  Se  Se23  1  0.76270640  0.90013204  0.12918140  1
