# generated using pymatgen
data_Ba3UFeSe6
_symmetry_space_group_name_H-M   'P 1'
_cell_length_a   8.66148476
_cell_length_b   8.66148476
_cell_length_c   8.66148522
_cell_angle_alpha   94.09701938
_cell_angle_beta   94.09701938
_cell_angle_gamma   94.09702318
_symmetry_Int_Tables_number   1
_chemical_formula_structural   Ba3UFeSe6
_chemical_formula_sum   'Ba6 U2 Fe2 Se12'
_cell_volume   644.56269227
_cell_formula_units_Z   2
loop_
 _symmetry_equiv_pos_site_id
 _symmetry_equiv_pos_as_xyz
  1  'x, y, z'
loop_
 _atom_site_type_symbol
 _atom_site_label
 _atom_site_symmetry_multiplicity
 _atom_site_fract_x
 _atom_site_fract_y
 _atom_site_fract_z
 _atom_site_occupancy
  Ba  Ba0  1  0.13352567  0.36648629  0.74999944  1
  Ba  Ba1  1  0.36648629  0.74999944  0.13352567  1
  Ba  Ba2  1  0.74999944  0.13352567  0.36648629  1
  Ba  Ba3  1  0.63352567  0.24999944  0.86648629  1
  Ba  Ba4  1  0.24999944  0.86648629  0.63352567  1
  Ba  Ba5  1  0.86648629  0.63352567  0.24999944  1
  U  U6  1  0.24999599  0.24999599  0.24999599  1
  U  U7  1  0.74999599  0.74999599  0.74999599  1
  Fe  Fe8  1  0.49999969  0.49999969  0.49999969  1
  Fe  Fe9  1  0.99999969  0.99999969  0.99999969  1
  Se  Se10  1  0.41163632  0.20241842  0.53606010  1
  Se  Se11  1  0.20241842  0.53606010  0.41163632  1
  Se  Se12  1  0.53606010  0.41163632  0.20241842  1
  Se  Se13  1  0.91163632  0.03606010  0.70241842  1
  Se  Se14  1  0.03606010  0.70241842  0.91163632  1
  Se  Se15  1  0.70241842  0.91163632  0.03606010  1
  Se  Se16  1  0.58836301  0.79759672  0.46395235  1
  Se  Se17  1  0.79759672  0.46395235  0.58836301  1
  Se  Se18  1  0.46395235  0.58836301  0.79759672  1
  Se  Se19  1  0.08836301  0.96395235  0.29759672  1
  Se  Se20  1  0.96395235  0.29759672  0.08836301  1
  Se  Se21  1  0.29759672  0.08836301  0.96395235  1
