# generated using pymatgen
data_Tm2S3
_symmetry_space_group_name_H-M   'P 1'
_cell_length_a   3.97609795
_cell_length_b   10.07867989
_cell_length_c   17.47210663
_cell_angle_alpha   98.66206006
_cell_angle_beta   90.00000000
_cell_angle_gamma   90.00000000
_symmetry_Int_Tables_number   1
_chemical_formula_structural   Tm2S3
_chemical_formula_sum   'Tm12 S18'
_cell_volume   692.18772602
_cell_formula_units_Z   6
loop_
 _symmetry_equiv_pos_site_id
 _symmetry_equiv_pos_as_xyz
  1  'x, y, z'
loop_
 _atom_site_type_symbol
 _atom_site_label
 _atom_site_symmetry_multiplicity
 _atom_site_fract_x
 _atom_site_fract_y
 _atom_site_fract_z
 _atom_site_occupancy
  Tm  Tm0  1  0.75000000  0.87553951  0.07016574  1
  Tm  Tm1  1  0.25000000  0.12446049  0.92983426  1
  Tm  Tm2  1  0.75000000  0.81301526  0.77945692  1
  Tm  Tm3  1  0.25000000  0.18698474  0.22054308  1
  Tm  Tm4  1  0.75000000  0.81105114  0.47917594  1
  Tm  Tm5  1  0.25000000  0.18894886  0.52082406  1
  Tm  Tm6  1  0.75000000  0.51286886  0.10061078  1
  Tm  Tm7  1  0.25000000  0.48713114  0.89938922  1
  Tm  Tm8  1  0.75000000  0.45091174  0.38498168  1
  Tm  Tm9  1  0.25000000  0.54908826  0.61501832  1
  Tm  Tm10  1  0.75000000  0.17070525  0.71852966  1
  Tm  Tm11  1  0.25000000  0.82929475  0.28147034  1
  S  S12  1  0.75000000  0.99187733  0.23196487  1
  S  S13  1  0.25000000  0.00812267  0.76803513  1
  S  S14  1  0.75000000  0.94794502  0.92483150  1
  S  S15  1  0.25000000  0.05205498  0.07516850  1
  S  S16  1  0.75000000  0.73136663  0.62721338  1
  S  S17  1  0.25000000  0.26863337  0.37278662  1
  S  S18  1  0.75000000  0.68039861  0.31769935  1
  S  S19  1  0.25000000  0.31960139  0.68230065  1
  S  S20  1  0.75000000  0.63262524  0.96883366  1
  S  S21  1  0.25000000  0.36737476  0.03116634  1
  S  S22  1  0.75000000  0.38451117  0.53256118  1
  S  S23  1  0.25000000  0.61548883  0.46743882  1
  S  S24  1  0.75000000  0.36179007  0.21750684  1
  S  S25  1  0.25000000  0.63820993  0.78249316  1
  S  S26  1  0.75000000  0.28997117  0.86852383  1
  S  S27  1  0.25000000  0.71002883  0.13147617  1
  S  S28  1  0.75000000  0.04867568  0.57603573  1
  S  S29  1  0.25000000  0.95132432  0.42396427  1
