# generated using pymatgen
data_Cu2Te2Pb(ClO3)2
_symmetry_space_group_name_H-M   'P 1'
_cell_length_a   7.32950355
_cell_length_b   7.34227995
_cell_length_c   8.40460205
_cell_angle_alpha   90.00000000
_cell_angle_beta   96.32774497
_cell_angle_gamma   90.00000000
_symmetry_Int_Tables_number   1
_chemical_formula_structural   Cu2Te2Pb(ClO3)2
_chemical_formula_sum   'Cu4 Te4 Pb2 Cl4 O12'
_cell_volume   449.54038068
_cell_formula_units_Z   2
loop_
 _symmetry_equiv_pos_site_id
 _symmetry_equiv_pos_as_xyz
  1  'x, y, z'
loop_
 _atom_site_type_symbol
 _atom_site_label
 _atom_site_symmetry_multiplicity
 _atom_site_fract_x
 _atom_site_fract_y
 _atom_site_fract_z
 _atom_site_occupancy
  Cu  Cu0  1  0.63814391  0.09054440  0.91183020  1
  Cu  Cu1  1  0.36185609  0.59054440  0.08816980  1
  Cu  Cu2  1  0.68092759  0.60841529  0.41249684  1
  Cu  Cu3  1  0.31907241  0.10841529  0.58750316  1
  Te  Te4  1  0.12782018  0.45842140  0.38800655  1
  Te  Te5  1  0.87217982  0.95842140  0.61199345  1
  Te  Te6  1  0.64662415  0.22920783  0.23329033  1
  Te  Te7  1  0.35337585  0.72920783  0.76670967  1
  Pb  Pb8  1  0.87359334  0.59996280  0.93899185  1
  Pb  Pb9  1  0.12640666  0.09996280  0.06100815  1
  Cl  Cl10  1  0.44918641  0.82428150  0.37859511  1
  Cl  Cl11  1  0.55081359  0.32428150  0.62140489  1
  Cl  Cl12  1  0.89202219  0.84178308  0.22825409  1
  Cl  Cl13  1  0.10797781  0.34178308  0.77174591  1
  O  O14  1  0.53982097  0.47099282  0.24220083  1
  O  O15  1  0.46017903  0.97099282  0.75779917  1
  O  O16  1  0.14565166  0.47479306  0.16310778  1
  O  O17  1  0.85434834  0.97479306  0.83689222  1
  O  O18  1  0.86827832  0.41775323  0.37633320  1
  O  O19  1  0.13172168  0.91775323  0.62366680  1
  O  O20  1  0.79585934  0.25495289  0.05788102  1
  O  O21  1  0.20414066  0.75495289  0.94211898  1
  O  O22  1  0.19148683  0.20869572  0.39162528  1
  O  O23  1  0.80851317  0.70869572  0.60837472  1
  O  O24  1  0.46285927  0.15089598  0.06348078  1
  O  O25  1  0.53714073  0.65089598  0.93651922  1
