# generated using pymatgen
data_PrCo(CN)6
_symmetry_space_group_name_H-M   'P 1'
_cell_length_a   7.66846591
_cell_length_b   7.66847122
_cell_length_c   13.23042053
_cell_angle_alpha   90.00000000
_cell_angle_beta   90.00000000
_cell_angle_gamma   120.00081653
_symmetry_Int_Tables_number   1
_chemical_formula_structural   PrCo(CN)6
_chemical_formula_sum   'Pr2 Co2 C12 N12'
_cell_volume   673.77980502
_cell_formula_units_Z   2
loop_
 _symmetry_equiv_pos_site_id
 _symmetry_equiv_pos_as_xyz
  1  'x, y, z'
loop_
 _atom_site_type_symbol
 _atom_site_label
 _atom_site_symmetry_multiplicity
 _atom_site_fract_x
 _atom_site_fract_y
 _atom_site_fract_z
 _atom_site_occupancy
  Pr  Pr0  1  0.66667654  0.33332235  0.75000000  1
  Pr  Pr1  1  0.33332346  0.66667765  0.25000000  1
  Co  Co2  1  -0.00000000  -0.00000000  0.50000000  1
  Co  Co3  1  -0.00000000  -0.00000000  -0.00000000  1
  C  C4  1  0.22915492  0.11456495  0.58137315  1
  C  C5  1  0.88541112  0.77084487  0.58137327  1
  C  C6  1  0.88543704  0.11458641  0.58137131  1
  C  C7  1  0.77084508  0.88543505  0.41862685  1
  C  C8  1  0.11458888  0.22915513  0.41862673  1
  C  C9  1  0.11456296  0.88541359  0.41862869  1
  C  C10  1  0.77084508  0.88543505  0.08137315  1
  C  C11  1  0.11458888  0.22915513  0.08137327  1
  C  C12  1  0.11456296  0.88541359  0.08137131  1
  C  C13  1  0.22915492  0.11456495  0.91862685  1
  C  C14  1  0.88541112  0.77084487  0.91862673  1
  C  C15  1  0.88543704  0.11458641  0.91862869  1
  N  N16  1  0.37226364  0.18612231  0.63299604  1
  N  N17  1  0.81386629  0.62773625  0.63299612  1
  N  N18  1  0.81387811  0.18613286  0.63299446  1
  N  N19  1  0.62773636  0.81387769  0.36700396  1
  N  N20  1  0.18613371  0.37226375  0.36700388  1
  N  N21  1  0.18612189  0.81386714  0.36700554  1
  N  N22  1  0.62773636  0.81387769  0.13299604  1
  N  N23  1  0.18613371  0.37226375  0.13299612  1
  N  N24  1  0.18612189  0.81386714  0.13299446  1
  N  N25  1  0.37226364  0.18612231  0.86700396  1
  N  N26  1  0.81386629  0.62773625  0.86700388  1
  N  N27  1  0.81387811  0.18613286  0.86700554  1
