# generated using pymatgen
data_Ti2In5
_symmetry_space_group_name_H-M   'P 1'
_cell_length_a   3.13817371
_cell_length_b   10.95642446
_cell_length_c   10.90672788
_cell_angle_alpha   89.71226326
_cell_angle_beta   89.81500785
_cell_angle_gamma   89.13580405
_symmetry_Int_Tables_number   1
_chemical_formula_structural   Ti2In5
_chemical_formula_sum   'Ti4 In10'
_cell_volume   374.95855633
_cell_formula_units_Z   2
loop_
 _symmetry_equiv_pos_site_id
 _symmetry_equiv_pos_as_xyz
  1  'x, y, z'
loop_
 _atom_site_type_symbol
 _atom_site_label
 _atom_site_symmetry_multiplicity
 _atom_site_fract_x
 _atom_site_fract_y
 _atom_site_fract_z
 _atom_site_occupancy
  Ti  Ti0  1  0.49950813  0.18009109  0.68024672  1
  Ti  Ti1  1  0.50094118  0.81977451  0.31907862  1
  Ti  Ti2  1  0.49768166  0.31931255  0.18124462  1
  Ti  Ti3  1  0.49732361  0.68130407  0.81906675  1
  In  In4  1  0.00016841  0.20659966  0.93641506  1
  In  In5  1  0.00101475  0.06332850  0.20659719  1
  In  In6  1  0.00365382  0.70728447  0.56340120  1
  In  In7  1  0.00095051  0.56325972  0.29284276  1
  In  In8  1  0.99996394  -0.00001948  0.50112625  1
  In  In9  1  0.99930709  0.29348173  0.43599697  1
  In  In10  1  0.99921797  0.79280898  0.06375258  1
  In  In11  1  0.00208169  0.43706643  0.70660764  1
  In  In12  1  0.99800354  0.93674499  0.79329664  1
  In  In13  1  0.00018370  0.49896279  0.00032699  1
