# generated using pymatgen
data_Nb4Fe2N
_symmetry_space_group_name_H-M   'P 1'
_cell_length_a   8.28730887
_cell_length_b   8.28730887
_cell_length_c   8.28730887
_cell_angle_alpha   60.00000000
_cell_angle_beta   60.00000000
_cell_angle_gamma   60.00000000
_symmetry_Int_Tables_number   1
_chemical_formula_structural   Nb4Fe2N
_chemical_formula_sum   'Nb16 Fe8 N4'
_cell_volume   402.46264627
_cell_formula_units_Z   4
loop_
 _symmetry_equiv_pos_site_id
 _symmetry_equiv_pos_as_xyz
  1  'x, y, z'
loop_
 _atom_site_type_symbol
 _atom_site_label
 _atom_site_symmetry_multiplicity
 _atom_site_fract_x
 _atom_site_fract_y
 _atom_site_fract_z
 _atom_site_occupancy
  Nb  Nb0  1  0.00000000  0.00000000  0.50000000  1
  Nb  Nb1  1  0.00000000  0.50000000  0.00000000  1
  Nb  Nb2  1  0.50000000  0.00000000  -0.00000000  1
  Nb  Nb3  1  0.00000000  0.00000000  -0.00000000  1
  Nb  Nb4  1  0.43978019  0.81021981  0.81021981  1
  Nb  Nb5  1  0.81021981  0.43978019  0.43978019  1
  Nb  Nb6  1  0.81021981  0.43978019  0.81021981  1
  Nb  Nb7  1  0.43978019  0.81021981  0.43978019  1
  Nb  Nb8  1  0.81021981  0.81021981  0.43978019  1
  Nb  Nb9  1  0.43978019  0.43978019  0.81021981  1
  Nb  Nb10  1  0.56021981  0.18978019  0.18978019  1
  Nb  Nb11  1  0.18978019  0.56021981  0.56021981  1
  Nb  Nb12  1  0.18978019  0.56021981  0.18978019  1
  Nb  Nb13  1  0.56021981  0.18978019  0.56021981  1
  Nb  Nb14  1  0.18978019  0.18978019  0.56021981  1
  Nb  Nb15  1  0.56021981  0.56021981  0.18978019  1
  Fe  Fe16  1  0.20589031  0.20589031  0.88232907  1
  Fe  Fe17  1  0.20589031  0.88232907  0.20589031  1
  Fe  Fe18  1  0.88232907  0.20589031  0.20589031  1
  Fe  Fe19  1  0.20589031  0.20589031  0.20589031  1
  Fe  Fe20  1  0.79410969  0.79410969  0.11767093  1
  Fe  Fe21  1  0.79410969  0.11767093  0.79410969  1
  Fe  Fe22  1  0.11767093  0.79410969  0.79410969  1
  Fe  Fe23  1  0.79410969  0.79410969  0.79410969  1
  N  N24  1  0.50000000  0.50000000  0.00000000  1
  N  N25  1  0.50000000  0.00000000  0.50000000  1
  N  N26  1  0.00000000  0.50000000  0.50000000  1
  N  N27  1  0.50000000  0.50000000  0.50000000  1
