# generated using pymatgen
data_SrMnO3
_symmetry_space_group_name_H-M   'P 1'
_cell_length_a   5.53033850
_cell_length_b   5.53033850
_cell_length_c   13.67187107
_cell_angle_alpha   90.00000000
_cell_angle_beta   90.00000000
_cell_angle_gamma   119.99999311
_symmetry_Int_Tables_number   1
_chemical_formula_structural   SrMnO3
_chemical_formula_sum   'Sr6 Mn6 O18'
_cell_volume   362.12794939
_cell_formula_units_Z   6
loop_
 _symmetry_equiv_pos_site_id
 _symmetry_equiv_pos_as_xyz
  1  'x, y, z'
loop_
 _atom_site_type_symbol
 _atom_site_label
 _atom_site_symmetry_multiplicity
 _atom_site_fract_x
 _atom_site_fract_y
 _atom_site_fract_z
 _atom_site_occupancy
  Sr  Sr0  1  0.00000385  -0.00000385  0.75000000  1
  Sr  Sr1  1  -0.00000385  0.00000385  0.25000000  1
  Sr  Sr2  1  0.66669124  0.33330876  0.58839735  1
  Sr  Sr3  1  0.33330876  0.66669124  0.41160265  1
  Sr  Sr4  1  0.33330876  0.66669124  0.08839735  1
  Sr  Sr5  1  0.66669124  0.33330876  0.91160265  1
  Mn  Mn6  1  -0.00000000  -0.00000000  0.50000000  1
  Mn  Mn7  1  -0.00000000  -0.00000000  0.00000000  1
  Mn  Mn8  1  0.66667371  0.33332629  0.34400605  1
  Mn  Mn9  1  0.33332629  0.66667371  0.65599395  1
  Mn  Mn10  1  0.33332629  0.66667371  0.84400605  1
  Mn  Mn11  1  0.66667371  0.33332629  0.15599395  1
  O  O12  1  0.48554772  0.97110928  0.75000000  1
  O  O13  1  0.48554123  0.51445877  0.75000000  1
  O  O14  1  0.02889072  0.51445228  0.75000000  1
  O  O15  1  0.51445228  0.02889072  0.25000000  1
  O  O16  1  0.51445877  0.48554123  0.25000000  1
  O  O17  1  0.97110928  0.48554772  0.25000000  1
  O  O18  1  0.16441145  0.32882756  0.58176651  1
  O  O19  1  0.16441071  0.83558929  0.58176249  1
  O  O20  1  0.67117244  0.83558855  0.58176651  1
  O  O21  1  0.83558855  0.67117244  0.41823349  1
  O  O22  1  0.83558929  0.16441071  0.41823751  1
  O  O23  1  0.32882756  0.16441145  0.41823349  1
  O  O24  1  0.83558855  0.67117244  0.08176651  1
  O  O25  1  0.83558929  0.16441071  0.08176249  1
  O  O26  1  0.32882756  0.16441145  0.08176651  1
  O  O27  1  0.16441145  0.32882756  0.91823349  1
  O  O28  1  0.16441071  0.83558929  0.91823751  1
  O  O29  1  0.67117244  0.83558855  0.91823349  1
