# generated using pymatgen
data_Tb6Cu23
_symmetry_space_group_name_H-M   'P 1'
_cell_length_a   8.58761501
_cell_length_b   8.58761501
_cell_length_c   8.58761501
_cell_angle_alpha   60.00000000
_cell_angle_beta   60.00000000
_cell_angle_gamma   60.00000000
_symmetry_Int_Tables_number   1
_chemical_formula_structural   Tb6Cu23
_chemical_formula_sum   'Tb6 Cu23'
_cell_volume   447.81919186
_cell_formula_units_Z   1
loop_
 _symmetry_equiv_pos_site_id
 _symmetry_equiv_pos_as_xyz
  1  'x, y, z'
loop_
 _atom_site_type_symbol
 _atom_site_label
 _atom_site_symmetry_multiplicity
 _atom_site_fract_x
 _atom_site_fract_y
 _atom_site_fract_z
 _atom_site_occupancy
  Tb  Tb0  1  0.71303585  0.28696415  0.28696415  1
  Tb  Tb1  1  0.71303585  0.28696415  0.71303585  1
  Tb  Tb2  1  0.71303585  0.71303585  0.28696415  1
  Tb  Tb3  1  0.28696415  0.71303585  0.71303585  1
  Tb  Tb4  1  0.28696415  0.71303585  0.28696415  1
  Tb  Tb5  1  0.28696415  0.28696415  0.71303585  1
  Cu  Cu6  1  -0.00000000  0.00000000  -0.00000000  1
  Cu  Cu7  1  0.50000000  0.00000000  -0.00000000  1
  Cu  Cu8  1  0.50000000  0.00000000  0.50000000  1
  Cu  Cu9  1  0.50000000  0.50000000  -0.00000000  1
  Cu  Cu10  1  -0.00000000  0.50000000  0.50000000  1
  Cu  Cu11  1  -0.00000000  0.50000000  -0.00000000  1
  Cu  Cu12  1  -0.00000000  0.00000000  0.50000000  1
  Cu  Cu13  1  0.63533775  0.12155408  0.12155408  1
  Cu  Cu14  1  0.12155408  0.63533775  0.12155408  1
  Cu  Cu15  1  0.12155408  0.12155408  0.63533775  1
  Cu  Cu16  1  0.12155408  0.12155408  0.12155408  1
  Cu  Cu17  1  0.36466225  0.87844592  0.87844592  1
  Cu  Cu18  1  0.87844592  0.36466225  0.87844592  1
  Cu  Cu19  1  0.87844592  0.87844592  0.36466225  1
  Cu  Cu20  1  0.87844592  0.87844592  0.87844592  1
  Cu  Cu21  1  0.02070436  0.32643188  0.32643188  1
  Cu  Cu22  1  0.32643188  0.02070436  0.32643188  1
  Cu  Cu23  1  0.32643188  0.32643188  0.02070436  1
  Cu  Cu24  1  0.32643188  0.32643188  0.32643188  1
  Cu  Cu25  1  0.97929564  0.67356812  0.67356812  1
  Cu  Cu26  1  0.67356812  0.97929564  0.67356812  1
  Cu  Cu27  1  0.67356812  0.67356812  0.97929564  1
  Cu  Cu28  1  0.67356812  0.67356812  0.67356812  1
