# generated using pymatgen
data_Ce3Sn5Au6
_symmetry_space_group_name_H-M   'P 1'
_cell_length_a   4.65838072
_cell_length_b   10.26978197
_cell_length_c   13.78062795
_cell_angle_alpha   90.00000000
_cell_angle_beta   90.00000000
_cell_angle_gamma   90.00000000
_symmetry_Int_Tables_number   1
_chemical_formula_structural   Ce3Sn5Au6
_chemical_formula_sum   'Ce6 Sn10 Au12'
_cell_volume   659.27288011
_cell_formula_units_Z   2
loop_
 _symmetry_equiv_pos_site_id
 _symmetry_equiv_pos_as_xyz
  1  'x, y, z'
loop_
 _atom_site_type_symbol
 _atom_site_label
 _atom_site_symmetry_multiplicity
 _atom_site_fract_x
 _atom_site_fract_y
 _atom_site_fract_z
 _atom_site_occupancy
  Ce  Ce0  1  0.75000000  0.24340093  0.75000000  1
  Ce  Ce1  1  0.25000000  0.75659907  0.25000000  1
  Ce  Ce2  1  0.75000000  0.24540506  0.06682903  1
  Ce  Ce3  1  0.75000000  0.24540506  0.43317097  1
  Ce  Ce4  1  0.25000000  0.75459494  0.93317097  1
  Ce  Ce5  1  0.25000000  0.75459494  0.56682903  1
  Sn  Sn6  1  0.75000000  0.52284218  0.89061469  1
  Sn  Sn7  1  0.75000000  0.52284218  0.60938531  1
  Sn  Sn8  1  0.25000000  0.47715782  0.10938531  1
  Sn  Sn9  1  0.25000000  0.47715782  0.39061469  1
  Sn  Sn10  1  0.75000000  0.87900010  0.08696534  1
  Sn  Sn11  1  0.75000000  0.87900010  0.41303466  1
  Sn  Sn12  1  0.25000000  0.12099990  0.91303466  1
  Sn  Sn13  1  0.25000000  0.12099990  0.58696534  1
  Sn  Sn14  1  0.75000000  0.77680450  0.75000000  1
  Sn  Sn15  1  0.25000000  0.22319550  0.25000000  1
  Au  Au16  1  0.75000000  0.97718828  0.89653694  1
  Au  Au17  1  0.75000000  0.97718828  0.60346306  1
  Au  Au18  1  0.25000000  0.02281172  0.10346306  1
  Au  Au19  1  0.25000000  0.02281172  0.39653694  1
  Au  Au20  1  0.25000000  0.96098968  0.75000000  1
  Au  Au21  1  0.75000000  0.03901032  0.25000000  1
  Au  Au22  1  0.75000000  0.61880663  0.08684764  1
  Au  Au23  1  0.75000000  0.61880663  0.41315236  1
  Au  Au24  1  0.25000000  0.38119337  0.91315236  1
  Au  Au25  1  0.25000000  0.38119337  0.58684764  1
  Au  Au26  1  0.25000000  0.56021815  0.75000000  1
  Au  Au27  1  0.75000000  0.43978185  0.25000000  1
