# generated using pymatgen
data_CeRhC2
_symmetry_space_group_name_H-M   'P 1'
_cell_length_a   3.88074189
_cell_length_b   3.88063540
_cell_length_c   15.42870029
_cell_angle_alpha   89.99740981
_cell_angle_beta   89.99566100
_cell_angle_gamma   90.00371023
_symmetry_Int_Tables_number   1
_chemical_formula_structural   CeRhC2
_chemical_formula_sum   'Ce4 Rh4 C8'
_cell_volume   232.35228128
_cell_formula_units_Z   4
loop_
 _symmetry_equiv_pos_site_id
 _symmetry_equiv_pos_as_xyz
  1  'x, y, z'
loop_
 _atom_site_type_symbol
 _atom_site_label
 _atom_site_symmetry_multiplicity
 _atom_site_fract_x
 _atom_site_fract_y
 _atom_site_fract_z
 _atom_site_occupancy
  Ce  Ce0  1  0.64585936  0.35687969  0.74821237  1
  Ce  Ce1  1  0.35408377  0.64321954  0.24820271  1
  Ce  Ce2  1  0.35686765  0.35409730  0.99815466  1
  Ce  Ce3  1  0.64316249  0.64588103  0.49824611  1
  Rh  Rh4  1  0.14598184  0.15404654  0.59392781  1
  Rh  Rh5  1  0.85403280  0.84591458  0.09386455  1
  Rh  Rh6  1  0.84597806  0.14598731  0.34390052  1
  Rh  Rh7  1  0.15407079  0.85401584  0.84388424  1
  C  C8  1  0.16054449  0.85098288  0.71084467  1
  C  C9  1  0.35434355  0.15190466  0.38862603  1
  C  C10  1  0.83947601  0.14902624  0.21081832  1
  C  C11  1  0.14909794  0.16054019  0.46082785  1
  C  C12  1  0.85103657  0.83946386  0.96083693  1
  C  C13  1  0.15191244  0.64551284  0.63858414  1
  C  C14  1  0.64542902  0.84809730  0.88851997  1
  C  C15  1  0.84812320  0.35443021  0.13854912  1
