# generated using pymatgen
data_Pr6Fe13Sb
_symmetry_space_group_name_H-M   'P 1'
_cell_length_a   8.11578360
_cell_length_b   8.11578360
_cell_length_c   13.12234663
_cell_angle_alpha   108.01314760
_cell_angle_beta   108.01314760
_cell_angle_gamma   90.00000000
_symmetry_Int_Tables_number   1
_chemical_formula_structural   Pr6Fe13Sb
_chemical_formula_sum   'Pr12 Fe26 Sb2'
_cell_volume   777.28234730
_cell_formula_units_Z   2
loop_
 _symmetry_equiv_pos_site_id
 _symmetry_equiv_pos_as_xyz
  1  'x, y, z'
loop_
 _atom_site_type_symbol
 _atom_site_label
 _atom_site_symmetry_multiplicity
 _atom_site_fract_x
 _atom_site_fract_y
 _atom_site_fract_z
 _atom_site_occupancy
  Pr  Pr0  1  0.60437390  0.60437390  0.20874780  1
  Pr  Pr1  1  0.10437390  0.10437390  0.20874780  1
  Pr  Pr2  1  0.39562610  0.39562610  0.79125220  1
  Pr  Pr3  1  0.89562610  0.89562610  0.79125220  1
  Pr  Pr4  1  0.97630976  0.47630976  0.62826010  1
  Pr  Pr5  1  0.65195034  0.15195034  0.62826010  1
  Pr  Pr6  1  0.15195034  0.97630976  0.62826010  1
  Pr  Pr7  1  0.47630976  0.65195034  0.62826010  1
  Pr  Pr8  1  0.02369024  0.52369024  0.37173990  1
  Pr  Pr9  1  0.34804966  0.84804966  0.37173990  1
  Pr  Pr10  1  0.84804966  0.02369024  0.37173990  1
  Pr  Pr11  1  0.52369024  0.34804966  0.37173990  1
  Fe  Fe12  1  0.00000000  0.50000000  0.00000000  1
  Fe  Fe13  1  0.50000000  -0.00000000  0.00000000  1
  Fe  Fe14  1  0.71036972  0.56708959  0.00000000  1
  Fe  Fe15  1  0.28963028  0.43291041  -0.00000000  1
  Fe  Fe16  1  0.78963028  0.06708959  0.00000000  1
  Fe  Fe17  1  0.21036972  0.93291041  -0.00000000  1
  Fe  Fe18  1  0.56708959  0.28963028  0.00000000  1
  Fe  Fe19  1  0.43291041  0.71036972  -0.00000000  1
  Fe  Fe20  1  0.06708959  0.21036972  0.00000000  1
  Fe  Fe21  1  0.93291041  0.78963028  -0.00000000  1
  Fe  Fe22  1  0.11973347  0.61973347  0.88345976  1
  Fe  Fe23  1  0.76372629  0.26372629  0.88345976  1
  Fe  Fe24  1  0.26372629  0.11973347  0.88345976  1
  Fe  Fe25  1  0.61973347  0.76372629  0.88345976  1
  Fe  Fe26  1  0.88026653  0.38026653  0.11654024  1
  Fe  Fe27  1  0.23627371  0.73627371  0.11654024  1
  Fe  Fe28  1  0.73627371  0.88026653  0.11654024  1
  Fe  Fe29  1  0.38026653  0.23627371  0.11654024  1
  Fe  Fe30  1  0.29330801  0.79330801  0.81340129  1
  Fe  Fe31  1  0.52009328  0.02009328  0.81340129  1
  Fe  Fe32  1  0.02009328  0.29330801  0.81340129  1
  Fe  Fe33  1  0.79330801  0.52009328  0.81340129  1
  Fe  Fe34  1  0.70669199  0.20669199  0.18659871  1
  Fe  Fe35  1  0.47990672  0.97990672  0.18659871  1
  Fe  Fe36  1  0.97990672  0.70669199  0.18659871  1
  Fe  Fe37  1  0.20669199  0.47990672  0.18659871  1
  Sb  Sb38  1  0.25000000  0.25000000  0.50000000  1
  Sb  Sb39  1  0.75000000  0.75000000  0.50000000  1
