# generated using pymatgen
data_K2GaB5(H4O7)2
_symmetry_space_group_name_H-M   'P 1'
_cell_length_a   7.04390399
_cell_length_b   7.04390399
_cell_length_c   14.05548431
_cell_angle_alpha   90.00000000
_cell_angle_beta   90.00000000
_cell_angle_gamma   86.97761774
_symmetry_Int_Tables_number   1
_chemical_formula_structural   K2GaB5(H4O7)2
_chemical_formula_sum   'K4 Ga2 B10 H16 O28'
_cell_volume   696.41505735
_cell_formula_units_Z   2
loop_
 _symmetry_equiv_pos_site_id
 _symmetry_equiv_pos_as_xyz
  1  'x, y, z'
loop_
 _atom_site_type_symbol
 _atom_site_label
 _atom_site_symmetry_multiplicity
 _atom_site_fract_x
 _atom_site_fract_y
 _atom_site_fract_z
 _atom_site_occupancy
  K  K0  1  0.08135004  0.38591171  0.13311495  1
  K  K1  1  0.61408829  0.91864996  0.86688505  1
  K  K2  1  0.91864996  0.61408829  0.63311495  1
  K  K3  1  0.38591171  0.08135004  0.36688505  1
  Ga  Ga4  1  0.13626050  0.86373950  0.00000000  1
  Ga  Ga5  1  0.86373950  0.13626050  0.50000000  1
  B  B6  1  0.76399632  0.79100896  0.08039445  1
  B  B7  1  0.20899104  0.23600368  0.91960555  1
  B  B8  1  0.23600368  0.20899104  0.58039445  1
  B  B9  1  0.79100896  0.76399632  0.41960555  1
  B  B10  1  0.69931045  0.69931045  0.25000000  1
  B  B11  1  0.30068955  0.30068955  0.75000000  1
  B  B12  1  0.77084799  0.43335491  0.36776037  1
  B  B13  1  0.56664509  0.22915201  0.63223963  1
  B  B14  1  0.22915201  0.56664509  0.86776037  1
  B  B15  1  0.43335491  0.77084799  0.13223963  1
  H  H16  1  0.15116412  0.58748288  0.32947599  1
  H  H17  1  0.41251712  0.84883588  0.67052401  1
  H  H18  1  0.84883588  0.41251712  0.82947599  1
  H  H19  1  0.58748288  0.15116412  0.17052401  1
  H  H20  1  0.35665864  0.58259090  0.29017805  1
  H  H21  1  0.41740910  0.64334136  0.70982195  1
  H  H22  1  0.64334136  0.41740910  0.79017805  1
  H  H23  1  0.58259090  0.35665864  0.20982195  1
  H  H24  1  0.94338311  0.06347690  0.28687243  1
  H  H25  1  0.93652310  0.05661689  0.71312757  1
  H  H26  1  0.05661689  0.93652310  0.78687243  1
  H  H27  1  0.06347690  0.94338311  0.21312757  1
  H  H28  1  0.70159581  0.38526774  0.95356152  1
  H  H29  1  0.61473226  0.29840419  0.04643848  1
  H  H30  1  0.29840419  0.61473226  0.45356152  1
  H  H31  1  0.38526774  0.70159581  0.54643848  1
  O  O32  1  0.87967651  0.82518653  0.00620207  1
  O  O33  1  0.17481347  0.12032349  0.99379793  1
  O  O34  1  0.12032349  0.17481347  0.50620207  1
  O  O35  1  0.82518653  0.87967651  0.49379793  1
  O  O36  1  0.56641545  0.81195208  0.06228245  1
  O  O37  1  0.18804792  0.43358455  0.93771755  1
  O  O38  1  0.43358455  0.18804792  0.56228245  1
  O  O39  1  0.81195208  0.56641545  0.43771755  1
  O  O40  1  0.82598068  0.73690179  0.16965436  1
  O  O41  1  0.26309821  0.17401932  0.83034564  1
  O  O42  1  0.17401932  0.26309821  0.66965436  1
  O  O43  1  0.73690179  0.82598068  0.33034564  1
  O  O44  1  0.72798406  0.49508672  0.27670956  1
  O  O45  1  0.50491328  0.27201594  0.72329044  1
  O  O46  1  0.27201594  0.50491328  0.77670956  1
  O  O47  1  0.49508672  0.72798406  0.22329044  1
  O  O48  1  0.77271949  0.24443963  0.38725606  1
  O  O49  1  0.75556037  0.22728051  0.61274394  1
  O  O50  1  0.22728051  0.75556037  0.88725606  1
  O  O51  1  0.24443963  0.77271949  0.11274394  1
  O  O52  1  0.26778056  0.50775013  0.32905085  1
  O  O53  1  0.49224987  0.73221944  0.67094915  1
  O  O54  1  0.73221944  0.49224987  0.82905085  1
  O  O55  1  0.50775013  0.26778056  0.17094915  1
  O  O56  1  0.06177165  0.06177165  0.25000000  1
  O  O57  1  0.93822835  0.93822835  0.75000000  1
  O  O58  1  0.71858084  0.28141916  0.00000000  1
  O  O59  1  0.28141916  0.71858084  0.50000000  1
