# generated using pymatgen
data_MgTi2O4
_symmetry_space_group_name_H-M   'P 1'
_cell_length_a   6.06614081
_cell_length_b   6.06614081
_cell_length_c   8.48097380
_cell_angle_alpha   90.00000000
_cell_angle_beta   90.00000000
_cell_angle_gamma   90.00000000
_symmetry_Int_Tables_number   1
_chemical_formula_structural   MgTi2O4
_chemical_formula_sum   'Mg4 Ti8 O16'
_cell_volume   312.08341945
_cell_formula_units_Z   4
loop_
 _symmetry_equiv_pos_site_id
 _symmetry_equiv_pos_as_xyz
  1  'x, y, z'
loop_
 _atom_site_type_symbol
 _atom_site_label
 _atom_site_symmetry_multiplicity
 _atom_site_fract_x
 _atom_site_fract_y
 _atom_site_fract_z
 _atom_site_occupancy
  Mg  Mg0  1  0.24525050  0.75474950  0.75000000  1
  Mg  Mg1  1  0.75474950  0.24525050  0.25000000  1
  Mg  Mg2  1  0.25474950  0.25474950  0.50000000  1
  Mg  Mg3  1  0.74525050  0.74525050  -0.00000000  1
  Ti  Ti4  1  0.49119902  0.25124870  0.88039810  1
  Ti  Ti5  1  0.50880098  0.74875130  0.38039810  1
  Ti  Ti6  1  0.75124870  0.00880098  0.63039810  1
  Ti  Ti7  1  0.24875130  0.99119902  0.13039810  1
  Ti  Ti8  1  0.74875130  0.50880098  0.61960190  1
  Ti  Ti9  1  0.25124870  0.49119902  0.11960190  1
  Ti  Ti10  1  0.00880098  0.75124870  0.36960190  1
  Ti  Ti11  1  0.99119902  0.24875130  0.86960190  1
  O  O12  1  0.98470237  0.25644863  0.62939203  1
  O  O13  1  0.01529763  0.74355137  0.12939203  1
  O  O14  1  0.75644863  0.51529763  0.37939203  1
  O  O15  1  0.24355137  0.48470237  0.87939203  1
  O  O16  1  0.74355137  0.01529763  0.87060797  1
  O  O17  1  0.25644863  0.98470237  0.37060797  1
  O  O18  1  0.51529763  0.75644863  0.62060797  1
  O  O19  1  0.48470237  0.24355137  0.12060797  1
  O  O20  1  0.74506784  0.47810269  0.86668045  1
  O  O21  1  0.25493216  0.52189731  0.36668045  1
  O  O22  1  0.97810269  0.75493216  0.61668045  1
  O  O23  1  0.02189731  0.24506784  0.11668045  1
  O  O24  1  0.52189731  0.25493216  0.63331955  1
  O  O25  1  0.47810269  0.74506784  0.13331955  1
  O  O26  1  0.75493216  0.97810269  0.38331955  1
  O  O27  1  0.24506784  0.02189731  0.88331955  1
