# generated using pymatgen
data_Dy5(Ge5Ir2)2
_symmetry_space_group_name_H-M   'P 1'
_cell_length_a   4.35090309
_cell_length_b   13.04453054
_cell_length_c   13.04453054
_cell_angle_alpha   90.00000000
_cell_angle_beta   90.00000000
_cell_angle_gamma   90.00000000
_symmetry_Int_Tables_number   1
_chemical_formula_structural   Dy5(Ge5Ir2)2
_chemical_formula_sum   'Dy10 Ge20 Ir8'
_cell_volume   740.34869958
_cell_formula_units_Z   2
loop_
 _symmetry_equiv_pos_site_id
 _symmetry_equiv_pos_as_xyz
  1  'x, y, z'
loop_
 _atom_site_type_symbol
 _atom_site_label
 _atom_site_symmetry_multiplicity
 _atom_site_fract_x
 _atom_site_fract_y
 _atom_site_fract_z
 _atom_site_occupancy
  Dy  Dy0  1  0.00000000  0.50000000  0.50000000  1
  Dy  Dy1  1  0.00000000  -0.00000000  -0.00000000  1
  Dy  Dy2  1  0.50000000  0.17387026  0.67387026  1
  Dy  Dy3  1  0.50000000  0.82612974  0.32612974  1
  Dy  Dy4  1  0.50000000  0.32612974  0.17387026  1
  Dy  Dy5  1  0.50000000  0.67387026  0.82612974  1
  Dy  Dy6  1  0.50000000  0.38428685  0.88428685  1
  Dy  Dy7  1  0.50000000  0.61571315  0.11571315  1
  Dy  Dy8  1  0.50000000  0.11571315  0.38428685  1
  Dy  Dy9  1  0.50000000  0.88428685  0.61571315  1
  Ge  Ge10  1  -0.00000000  0.06661569  0.56661569  1
  Ge  Ge11  1  0.00000000  0.93338431  0.43338431  1
  Ge  Ge12  1  0.00000000  0.43338431  0.06661569  1
  Ge  Ge13  1  -0.00000000  0.56661569  0.93338431  1
  Ge  Ge14  1  -0.00000000  0.69989287  0.66251777  1
  Ge  Ge15  1  0.00000000  0.30010713  0.33748223  1
  Ge  Ge16  1  0.00000000  0.80010713  0.16251777  1
  Ge  Ge17  1  -0.00000000  0.19989287  0.83748223  1
  Ge  Ge18  1  0.00000000  0.66251777  0.30010713  1
  Ge  Ge19  1  -0.00000000  0.33748223  0.69989287  1
  Ge  Ge20  1  0.00000000  0.16251777  0.19989287  1
  Ge  Ge21  1  -0.00000000  0.83748223  0.80010713  1
  Ge  Ge22  1  0.50000000  0.50860012  0.65689703  1
  Ge  Ge23  1  0.50000000  0.49139988  0.34310297  1
  Ge  Ge24  1  0.50000000  0.99139988  0.15689703  1
  Ge  Ge25  1  0.50000000  0.00860012  0.84310297  1
  Ge  Ge26  1  0.50000000  0.65689703  0.49139988  1
  Ge  Ge27  1  0.50000000  0.34310297  0.50860012  1
  Ge  Ge28  1  0.50000000  0.15689703  0.00860012  1
  Ge  Ge29  1  0.50000000  0.84310297  0.99139988  1
  Ir  Ir30  1  -0.00000000  0.52095210  0.74618183  1
  Ir  Ir31  1  0.00000000  0.47904790  0.25381817  1
  Ir  Ir32  1  0.00000000  0.97904790  0.24618183  1
  Ir  Ir33  1  -0.00000000  0.02095210  0.75381817  1
  Ir  Ir34  1  0.00000000  0.74618183  0.47904790  1
  Ir  Ir35  1  -0.00000000  0.25381817  0.52095210  1
  Ir  Ir36  1  0.00000000  0.24618183  0.02095210  1
  Ir  Ir37  1  -0.00000000  0.75381817  0.97904790  1
