# generated using pymatgen
data_Bi13Pt3I7
_symmetry_space_group_name_H-M   'P 1'
_cell_length_a   9.32075679
_cell_length_b   16.21125684
_cell_length_c   22.95099579
_cell_angle_alpha   103.74835884
_cell_angle_beta   101.74868846
_cell_angle_gamma   89.87407607
_symmetry_Int_Tables_number   1
_chemical_formula_structural   Bi13Pt3I7
_chemical_formula_sum   'Bi52 Pt12 I28'
_cell_volume   3294.09876510
_cell_formula_units_Z   4
loop_
 _symmetry_equiv_pos_site_id
 _symmetry_equiv_pos_as_xyz
  1  'x, y, z'
loop_
 _atom_site_type_symbol
 _atom_site_label
 _atom_site_symmetry_multiplicity
 _atom_site_fract_x
 _atom_site_fract_y
 _atom_site_fract_z
 _atom_site_occupancy
  Bi  Bi0  1  0.48683072  0.97390739  0.87286797  1
  Bi  Bi1  1  0.51316928  0.02609261  0.12713203  1
  Bi  Bi2  1  0.40814875  0.92148911  0.71870226  1
  Bi  Bi3  1  0.59185125  0.07851089  0.28129774  1
  Bi  Bi4  1  0.23720031  0.74980901  0.71992095  1
  Bi  Bi5  1  0.76279969  0.25019099  0.28007905  1
  Bi  Bi6  1  0.31366990  0.80298431  0.87518333  1
  Bi  Bi7  1  0.68633010  0.19701569  0.12481667  1
  Bi  Bi8  1  0.81568636  0.86337105  0.87470368  1
  Bi  Bi9  1  0.18431364  0.13662895  0.12529632  1
  Bi  Bi10  1  0.73774115  0.81174947  0.71947907  1
  Bi  Bi11  1  0.26225885  0.18825053  0.28052093  1
  Bi  Bi12  1  0.56581167  0.64061471  0.71762342  1
  Bi  Bi13  1  0.43418833  0.35938529  0.28237658  1
  Bi  Bi14  1  0.63955142  0.69071482  0.87264588  1
  Bi  Bi15  1  0.36044858  0.30928518  0.12735412  1
  Bi  Bi16  1  0.98368538  0.69386933  0.87620079  1
  Bi  Bi17  1  0.01631462  0.30613067  0.12379921  1
  Bi  Bi18  1  0.90939205  0.64076841  0.72013839  1
  Bi  Bi19  1  0.09060795  0.35923159  0.27986161  1
  Bi  Bi20  1  0.90290429  0.41965074  0.71739972  1
  Bi  Bi21  1  0.09709571  0.58034926  0.28260028  1
  Bi  Bi22  1  0.98444769  0.47333462  0.87232570  1
  Bi  Bi23  1  0.01555231  0.52666538  0.12767430  1
  Bi  Bi24  1  0.64315809  0.47301735  0.87600141  1
  Bi  Bi25  1  0.35684191  0.52698265  0.12399859  1
  Bi  Bi26  1  0.56314661  0.42154360  0.71977168  1
  Bi  Bi27  1  0.43685339  0.57845640  0.28022832  1
  Bi  Bi28  1  0.73419762  0.24983730  0.72022586  1
  Bi  Bi29  1  0.26580238  0.75016270  0.27977414  1
  Bi  Bi30  1  0.80991245  0.30262593  0.87503314  1
  Bi  Bi31  1  0.19008755  0.69737407  0.12496686  1
  Bi  Bi32  1  0.31303680  0.36295131  0.87550856  1
  Bi  Bi33  1  0.68696320  0.63704869  0.12449144  1
  Bi  Bi34  1  0.23441450  0.31220857  0.72025231  1
  Bi  Bi35  1  0.76558550  0.68779143  0.27974769  1
  Bi  Bi36  1  0.40496458  0.14018140  0.71897648  1
  Bi  Bi37  1  0.59503542  0.85981860  0.28102352  1
  Bi  Bi38  1  0.48172413  0.19397144  0.87577421  1
  Bi  Bi39  1  0.51827587  0.80602856  0.12422579  1
  Bi  Bi40  1  0.13625628  0.18994695  0.87246509  1
  Bi  Bi41  1  0.86374372  0.81005305  0.12753491  1
  Bi  Bi42  1  0.06315477  0.13989259  0.71778552  1
  Bi  Bi43  1  0.93684523  0.86010741  0.28221448  1
  Bi  Bi44  1  0.14489782  0.97253593  0.87587112  1
  Bi  Bi45  1  0.85510218  0.02746407  0.12412888  1
  Bi  Bi46  1  0.06658709  0.91994770  0.71898639  1
  Bi  Bi47  1  0.93341291  0.08005230  0.28101361  1
  Bi  Bi48  1  0.35921835  0.87993166  0.49985960  1
  Bi  Bi49  1  0.64078165  0.12006834  0.50014040  1
  Bi  Bi50  1  0.65477770  0.62240814  0.49669811  1
  Bi  Bi51  1  0.34522230  0.37759186  0.50330189  1
  Pt  Pt52  1  0.52530753  0.80660142  0.79543065  1
  Pt  Pt53  1  0.47469247  0.19339858  0.20456935  1
  Pt  Pt54  1  0.77351417  0.55614161  0.79494249  1
  Pt  Pt55  1  0.22648583  0.44385839  0.20505751  1
  Pt  Pt56  1  0.52151918  0.30672995  0.79604669  1
  Pt  Pt57  1  0.47848082  0.69327005  0.20395331  1
  Pt  Pt58  1  0.27301990  0.05610376  0.79514797  1
  Pt  Pt59  1  0.72698010  0.94389624  0.20485203  1
  Pt  Pt60  1  0.02171838  0.30576969  0.79550598  1
  Pt  Pt61  1  0.97828162  0.69423031  0.20449402  1
  Pt  Pt62  1  0.02577853  0.80638048  0.79624270  1
  Pt  Pt63  1  0.97422147  0.19361952  0.20375730  1
  I  I64  1  0.27160195  0.55520886  0.79141428  1
  I  I65  1  0.72839805  0.44479114  0.20858572  1
  I  I66  1  0.77110313  0.05435459  0.79028191  1
  I  I67  1  0.22889687  0.94564541  0.20971809  1
  I  I68  1  0.37346800  0.62175759  0.99168701  1
  I  I69  1  0.62653200  0.37824241  0.00831299  1
  I  I70  1  0.87628618  0.62502905  0.00103454  1
  I  I71  1  0.12371382  0.37497095  0.99896546  1
  I  I72  1  0.62688795  0.87423834  0.99969224  1
  I  I73  1  0.37311205  0.12576166  0.00030776  1
  I  I74  1  0.13076216  0.87773252  0.00821705  1
  I  I75  1  0.86923784  0.12226748  0.99178295  1
  I  I76  1  0.65136499  0.99788016  0.58626814  1
  I  I77  1  0.34863501  0.00211984  0.41373186  1
  I  I78  1  0.16844260  0.98314990  0.57693269  1
  I  I79  1  0.83155740  0.01685010  0.42306731  1
  I  I80  1  0.09722857  0.77185179  0.42240676  1
  I  I81  1  0.90277143  0.22814821  0.57759324  1
  I  I82  1  0.58976908  0.76637978  0.42426359  1
  I  I83  1  0.41023092  0.23362022  0.57573641  1
  I  I84  1  0.42362393  0.74028140  0.57685188  1
  I  I85  1  0.57637607  0.25971860  0.42314812  1
  I  I86  1  0.91914189  0.72337447  0.57590745  1
  I  I87  1  0.08085811  0.27662553  0.42409255  1
  I  I88  1  0.80582122  0.52179298  0.40571555  1
  I  I89  1  0.19417878  0.47820702  0.59428445  1
  I  I90  1  0.33075234  0.51456964  0.42562207  1
  I  I91  1  0.66924766  0.48543036  0.57437793  1
