# generated using pymatgen
data_Dy2Fe17
_symmetry_space_group_name_H-M   'P 1'
_cell_length_a   8.22846961
_cell_length_b   8.50288901
_cell_length_c   8.50288901
_cell_angle_alpha   119.94515245
_cell_angle_beta   90.00000000
_cell_angle_gamma   90.00000000
_symmetry_Int_Tables_number   1
_chemical_formula_structural   Dy2Fe17
_chemical_formula_sum   'Dy4 Fe34'
_cell_volume   515.49265531
_cell_formula_units_Z   2
loop_
 _symmetry_equiv_pos_site_id
 _symmetry_equiv_pos_as_xyz
  1  'x, y, z'
loop_
 _atom_site_type_symbol
 _atom_site_label
 _atom_site_symmetry_multiplicity
 _atom_site_fract_x
 _atom_site_fract_y
 _atom_site_fract_z
 _atom_site_occupancy
  Dy  Dy0  1  0.75000000  0.00005084  0.99994916  1
  Dy  Dy1  1  0.25000000  0.99994916  0.00005084  1
  Dy  Dy2  1  0.25000000  0.66664049  0.33335951  1
  Dy  Dy3  1  0.75000000  0.33335951  0.66664049  1
  Fe  Fe4  1  0.60625654  0.66662952  0.33337048  1
  Fe  Fe5  1  0.39374346  0.33337048  0.66662952  1
  Fe  Fe6  1  0.10625654  0.33337048  0.66662952  1
  Fe  Fe7  1  0.89374346  0.66662952  0.33337048  1
  Fe  Fe8  1  0.50000000  0.50000000  -0.00000000  1
  Fe  Fe9  1  0.50000000  0.50000000  0.50000000  1
  Fe  Fe10  1  0.50000000  -0.00000000  0.50000000  1
  Fe  Fe11  1  -0.00000000  0.50000000  -0.00000000  1
  Fe  Fe12  1  -0.00000000  0.50000000  0.50000000  1
  Fe  Fe13  1  -0.00000000  -0.00000000  0.50000000  1
  Fe  Fe14  1  0.75000000  0.67077101  0.04006374  1
  Fe  Fe15  1  0.75000000  0.36932323  0.32918010  1
  Fe  Fe16  1  0.75000000  0.95977175  0.63074378  1
  Fe  Fe17  1  0.75000000  0.36925622  0.04022825  1
  Fe  Fe18  1  0.75000000  0.95993626  0.32922899  1
  Fe  Fe19  1  0.75000000  0.67081990  0.63067677  1
  Fe  Fe20  1  0.25000000  0.32922899  0.95993626  1
  Fe  Fe21  1  0.25000000  0.63067677  0.67081990  1
  Fe  Fe22  1  0.25000000  0.04022825  0.36925622  1
  Fe  Fe23  1  0.25000000  0.63074378  0.95977175  1
  Fe  Fe24  1  0.25000000  0.04006374  0.67077101  1
  Fe  Fe25  1  0.25000000  0.32918010  0.36932323  1
  Fe  Fe26  1  0.48422353  0.83379015  0.66774008  1
  Fe  Fe27  1  0.48413256  0.83389329  0.16610671  1
  Fe  Fe28  1  0.48422353  0.33225992  0.16620985  1
  Fe  Fe29  1  0.51577647  0.16620985  0.33225992  1
  Fe  Fe30  1  0.51586744  0.16610671  0.83389329  1
  Fe  Fe31  1  0.51577647  0.66774008  0.83379015  1
  Fe  Fe32  1  0.98422353  0.16620985  0.33225992  1
  Fe  Fe33  1  0.98413256  0.16610671  0.83389329  1
  Fe  Fe34  1  0.98422353  0.66774008  0.83379015  1
  Fe  Fe35  1  0.01577647  0.83379015  0.66774008  1
  Fe  Fe36  1  0.01586744  0.83389329  0.16610671  1
  Fe  Fe37  1  0.01577647  0.33225992  0.16620985  1
