# generated using pymatgen
data_Mn3V3(AgO6)2
_symmetry_space_group_name_H-M   'P 1'
_cell_length_a   6.93180743
_cell_length_b   9.02590284
_cell_length_c   9.02590284
_cell_angle_alpha   96.10924881
_cell_angle_beta   104.24618292
_cell_angle_gamma   104.24618292
_symmetry_Int_Tables_number   1
_chemical_formula_structural   Mn3V3(AgO6)2
_chemical_formula_sum   'Mn6 V6 Ag4 O24'
_cell_volume   522.06623919
_cell_formula_units_Z   2
loop_
 _symmetry_equiv_pos_site_id
 _symmetry_equiv_pos_as_xyz
  1  'x, y, z'
loop_
 _atom_site_type_symbol
 _atom_site_label
 _atom_site_symmetry_multiplicity
 _atom_site_fract_x
 _atom_site_fract_y
 _atom_site_fract_z
 _atom_site_occupancy
  Mn  Mn0  1  0.25000000  0.26994035  0.73005965  1
  Mn  Mn1  1  0.75000000  0.73005965  0.26994035  1
  Mn  Mn2  1  0.38264935  0.95268301  0.63055300  1
  Mn  Mn3  1  0.11735065  0.36944700  0.04731699  1
  Mn  Mn4  1  0.61735065  0.04731699  0.36944700  1
  Mn  Mn5  1  0.88264935  0.63055300  0.95268301  1
  V  V6  1  0.75000000  0.29310670  0.70689330  1
  V  V7  1  0.25000000  0.70689330  0.29310670  1
  V  V8  1  0.38137142  0.66081855  0.88390191  1
  V  V9  1  0.11862858  0.11609809  0.33918145  1
  V  V10  1  0.61862858  0.33918145  0.11609809  1
  V  V11  1  0.88137142  0.88390191  0.66081855  1
  Ag  Ag12  1  0.50000000  0.50000000  0.50000000  1
  Ag  Ag13  1  -0.00000000  0.50000000  0.50000000  1
  Ag  Ag14  1  0.25000000  0.99301977  0.00698023  1
  Ag  Ag15  1  0.75000000  0.00698023  0.99301977  1
  O  O16  1  0.40160176  0.84794000  0.83726248  1
  O  O17  1  0.09839824  0.16273752  0.15206000  1
  O  O18  1  0.59839824  0.15206000  0.16273752  1
  O  O19  1  0.90160176  0.83726248  0.84794000  1
  O  O20  1  0.12181530  0.01218279  0.66472801  1
  O  O21  1  0.37818470  0.33527199  0.98781721  1
  O  O22  1  0.87818470  0.98781721  0.33527199  1
  O  O23  1  0.62181530  0.66472801  0.01218279  1
  O  O24  1  0.17421008  0.60471060  0.96717125  1
  O  O25  1  0.32578992  0.03282875  0.39528940  1
  O  O26  1  0.82578992  0.39528940  0.03282875  1
  O  O27  1  0.67421008  0.96717125  0.60471060  1
  O  O28  1  0.32636600  0.52228234  0.72117657  1
  O  O29  1  0.17363400  0.27882343  0.47771766  1
  O  O30  1  0.67363400  0.47771766  0.27882343  1
  O  O31  1  0.82636600  0.72117657  0.52228234  1
  O  O32  1  0.51751440  0.18254541  0.73871907  1
  O  O33  1  0.98248560  0.26128093  0.81745459  1
  O  O34  1  0.48248560  0.81745459  0.26128093  1
  O  O35  1  0.01751440  0.73871907  0.18254541  1
  O  O36  1  0.74179870  0.25867860  0.51162999  1
  O  O37  1  0.75820130  0.48837001  0.74132140  1
  O  O38  1  0.25820130  0.74132140  0.48837001  1
  O  O39  1  0.24179870  0.51162999  0.25867860  1
