# generated using pymatgen
data_MgV2O6
_symmetry_space_group_name_H-M   'P 1'
_cell_length_a   4.89871858
_cell_length_b   5.61092201
_cell_length_c   13.73152500
_cell_angle_alpha   90.00000000
_cell_angle_beta   90.00000000
_cell_angle_gamma   90.00000000
_symmetry_Int_Tables_number   1
_chemical_formula_structural   MgV2O6
_chemical_formula_sum   'Mg4 V8 O24'
_cell_volume   377.42919874
_cell_formula_units_Z   4
loop_
 _symmetry_equiv_pos_site_id
 _symmetry_equiv_pos_as_xyz
  1  'x, y, z'
loop_
 _atom_site_type_symbol
 _atom_site_label
 _atom_site_symmetry_multiplicity
 _atom_site_fract_x
 _atom_site_fract_y
 _atom_site_fract_z
 _atom_site_occupancy
  Mg  Mg0  1  0.25000000  0.17677395  -0.00000000  1
  Mg  Mg1  1  0.75000000  0.32322605  0.50000000  1
  Mg  Mg2  1  0.75000000  0.82322605  -0.00000000  1
  Mg  Mg3  1  0.25000000  0.67677395  0.50000000  1
  V  V4  1  0.74043384  0.32237988  0.83673626  1
  V  V5  1  0.24043384  0.17762012  0.66326374  1
  V  V6  1  0.25956616  0.17762012  0.33673626  1
  V  V7  1  0.75956616  0.32237988  0.16326374  1
  V  V8  1  0.25956616  0.67762012  0.16326374  1
  V  V9  1  0.75956616  0.82237988  0.33673626  1
  V  V10  1  0.74043384  0.82237988  0.66326374  1
  V  V11  1  0.24043384  0.67762012  0.83673626  1
  O  O12  1  0.04818678  0.39813475  0.90150309  1
  O  O13  1  0.54818678  0.10186525  0.59849691  1
  O  O14  1  0.95181322  0.10186525  0.40150309  1
  O  O15  1  0.45181322  0.39813475  0.09849691  1
  O  O16  1  0.95181322  0.60186525  0.09849691  1
  O  O17  1  0.45181322  0.89813475  0.40150309  1
  O  O18  1  0.04818678  0.89813475  0.59849691  1
  O  O19  1  0.54818678  0.60186525  0.90150309  1
  O  O20  1  0.60017666  0.12478866  0.91710335  1
  O  O21  1  0.10017666  0.37521134  0.58289665  1
  O  O22  1  0.39982334  0.37521134  0.41710335  1
  O  O23  1  0.89982334  0.12478866  0.08289665  1
  O  O24  1  0.39982334  0.87521134  0.08289665  1
  O  O25  1  0.89982334  0.62478866  0.41710335  1
  O  O26  1  0.60017666  0.62478866  0.58289665  1
  O  O27  1  0.10017666  0.87521134  0.91710335  1
  O  O28  1  0.89802192  0.13560381  0.74506071  1
  O  O29  1  0.39802192  0.36439619  0.75493929  1
  O  O30  1  0.10197808  0.36439619  0.24506071  1
  O  O31  1  0.60197808  0.13560381  0.25493929  1
  O  O32  1  0.10197808  0.86439619  0.25493929  1
  O  O33  1  0.60197808  0.63560381  0.24506071  1
  O  O34  1  0.89802192  0.63560381  0.75493929  1
  O  O35  1  0.39802192  0.86439619  0.74506071  1
