# generated using pymatgen
data_BaCe(SnSe3)2
_symmetry_space_group_name_H-M   'P 1'
_cell_length_a   4.28970227
_cell_length_b   12.52961270
_cell_length_c   20.45332247
_cell_angle_alpha   90.00000000
_cell_angle_beta   90.00000000
_cell_angle_gamma   90.00000000
_symmetry_Int_Tables_number   1
_chemical_formula_structural   BaCe(SnSe3)2
_chemical_formula_sum   'Ba4 Ce4 Sn8 Se24'
_cell_volume   1099.33147659
_cell_formula_units_Z   4
loop_
 _symmetry_equiv_pos_site_id
 _symmetry_equiv_pos_as_xyz
  1  'x, y, z'
loop_
 _atom_site_type_symbol
 _atom_site_label
 _atom_site_symmetry_multiplicity
 _atom_site_fract_x
 _atom_site_fract_y
 _atom_site_fract_z
 _atom_site_occupancy
  Ba  Ba0  1  0.50000000  0.31824556  0.92118224  1
  Ba  Ba1  1  0.50000000  0.81824556  0.07881776  1
  Ba  Ba2  1  0.50000000  0.75355103  0.63989854  1
  Ba  Ba3  1  0.50000000  0.25355103  0.36010146  1
  Ce  Ce4  1  0.50000000  0.68287280  0.88119854  1
  Ce  Ce5  1  0.50000000  0.18287280  0.11880146  1
  Ce  Ce6  1  0.50000000  0.87575919  0.41900170  1
  Ce  Ce7  1  0.50000000  0.37575919  0.58099830  1
  Sn  Sn8  1  0.50000000  0.10293948  0.74566692  1
  Sn  Sn9  1  0.50000000  0.60293948  0.25433308  1
  Sn  Sn10  1  0.00000000  0.99637570  0.90702928  1
  Sn  Sn11  1  0.00000000  0.49637570  0.09297072  1
  Sn  Sn12  1  -0.00000000  0.49863835  0.75198576  1
  Sn  Sn13  1  -0.00000000  0.99863835  0.24801424  1
  Sn  Sn14  1  -0.00000000  0.54587166  0.42417432  1
  Sn  Sn15  1  -0.00000000  0.04587166  0.57582568  1
  Se  Se16  1  0.50000000  0.06526281  0.98695265  1
  Se  Se17  1  0.50000000  0.56526281  0.01304735  1
  Se  Se18  1  0.50000000  0.91655151  0.82979840  1
  Se  Se19  1  0.50000000  0.41655151  0.17020160  1
  Se  Se20  1  0.50000000  0.59383880  0.49577295  1
  Se  Se21  1  0.50000000  0.09383880  0.50422705  1
  Se  Se22  1  0.50000000  0.87267314  0.26206482  1
  Se  Se23  1  0.50000000  0.37267314  0.73793518  1
  Se  Se24  1  -0.00000000  0.78910717  0.95804584  1
  Se  Se25  1  -0.00000000  0.28910717  0.04195416  1
  Se  Se26  1  -0.00000000  0.50697838  0.88342655  1
  Se  Se27  1  0.00000000  0.00697838  0.11657345  1
  Se  Se28  1  0.00000000  0.17919126  0.83351630  1
  Se  Se29  1  0.00000000  0.67919126  0.16648370  1
  Se  Se30  1  -0.00000000  0.70920110  0.76988274  1
  Se  Se31  1  -0.00000000  0.20920110  0.23011726  1
  Se  Se32  1  -0.00000000  0.94994230  0.68825359  1
  Se  Se33  1  -0.00000000  0.44994230  0.31174641  1
  Se  Se34  1  0.00000000  0.53831765  0.62071960  1
  Se  Se35  1  -0.00000000  0.03831765  0.37928040  1
  Se  Se36  1  -0.00000000  0.84238274  0.52227619  1
  Se  Se37  1  0.00000000  0.34238274  0.47772381  1
  Se  Se38  1  -0.00000000  0.73861936  0.35986618  1
  Se  Se39  1  -0.00000000  0.23861936  0.64013382  1
