# generated using pymatgen
data_NbBi2O5F
_symmetry_space_group_name_H-M   'P 1'
_cell_length_a   5.47477635
_cell_length_b   5.46711829
_cell_length_c   16.98143751
_cell_angle_alpha   90.00000000
_cell_angle_beta   90.00000000
_cell_angle_gamma   90.00000000
_symmetry_Int_Tables_number   1
_chemical_formula_structural   NbBi2O5F
_chemical_formula_sum   'Nb4 Bi8 O20 F4'
_cell_volume   508.27565006
_cell_formula_units_Z   4
loop_
 _symmetry_equiv_pos_site_id
 _symmetry_equiv_pos_as_xyz
  1  'x, y, z'
loop_
 _atom_site_type_symbol
 _atom_site_label
 _atom_site_symmetry_multiplicity
 _atom_site_fract_x
 _atom_site_fract_y
 _atom_site_fract_z
 _atom_site_occupancy
  Nb  Nb0  1  0.48853511  0.98904211  0.24677504  1
  Nb  Nb1  1  0.51146489  0.48904211  0.75322496  1
  Nb  Nb2  1  0.01146489  0.48904211  0.24677504  1
  Nb  Nb3  1  0.98853511  0.98904211  0.75322496  1
  Bi  Bi4  1  0.99432366  0.00838044  0.42449659  1
  Bi  Bi5  1  0.00567634  0.50838044  0.57550341  1
  Bi  Bi6  1  0.50567634  0.50838044  0.42449659  1
  Bi  Bi7  1  0.49432366  0.00838044  0.57550341  1
  Bi  Bi8  1  0.02503447  0.00928435  0.07566160  1
  Bi  Bi9  1  0.97496553  0.50928435  0.92433840  1
  Bi  Bi10  1  0.47496553  0.50928435  0.07566160  1
  Bi  Bi11  1  0.52503447  0.00928435  0.92433840  1
  O  O12  1  0.42823683  0.96073632  0.13730937  1
  O  O13  1  0.57176317  0.46073632  0.86269063  1
  O  O14  1  0.07176317  0.46073632  0.13730937  1
  O  O15  1  0.92823683  0.96073632  0.86269063  1
  O  O16  1  0.24676865  0.74711923  0.99779420  1
  O  O17  1  0.75323135  0.24711923  0.00220580  1
  O  O18  1  0.25323135  0.24711923  0.99779420  1
  O  O19  1  0.74676865  0.74711923  0.00220580  1
  O  O20  1  0.24841475  0.74751947  0.49680989  1
  O  O21  1  0.75158525  0.24751947  0.50319011  1
  O  O22  1  0.25158525  0.24751947  0.49680989  1
  O  O23  1  0.74841475  0.74751947  0.50319011  1
  O  O24  1  0.79144196  0.76269360  0.24707923  1
  O  O25  1  0.20855804  0.26269360  0.75292077  1
  O  O26  1  0.70855804  0.26269360  0.24707923  1
  O  O27  1  0.29144196  0.76269360  0.75292077  1
  O  O28  1  0.29913754  0.67330706  0.27895236  1
  O  O29  1  0.70086246  0.17330706  0.72104764  1
  O  O30  1  0.20086246  0.17330706  0.27895236  1
  O  O31  1  0.79913754  0.67330706  0.72104764  1
  F  F32  1  0.94879765  0.47791740  0.37726160  1
  F  F33  1  0.05120235  0.97791740  0.62273840  1
  F  F34  1  0.55120235  0.97791740  0.37726160  1
  F  F35  1  0.44879765  0.47791740  0.62273840  1
