# generated using pymatgen
data_Na2MgH32(SO12)2
_symmetry_space_group_name_H-M   'P 1'
_cell_length_a   6.65870755
_cell_length_b   6.71530580
_cell_length_c   14.62593928
_cell_angle_alpha   87.18825139
_cell_angle_beta   79.84056162
_cell_angle_gamma   65.74398182
_symmetry_Int_Tables_number   1
_chemical_formula_structural   Na2MgH32(SO12)2
_chemical_formula_sum   'Na2 Mg1 H32 S2 O24'
_cell_volume   586.71784706
_cell_formula_units_Z   1
loop_
 _symmetry_equiv_pos_site_id
 _symmetry_equiv_pos_as_xyz
  1  'x, y, z'
loop_
 _atom_site_type_symbol
 _atom_site_label
 _atom_site_symmetry_multiplicity
 _atom_site_fract_x
 _atom_site_fract_y
 _atom_site_fract_z
 _atom_site_occupancy
  Na  Na0  1  0.74931081  0.05349195  0.95065628  1
  Na  Na1  1  0.25068919  0.94650805  0.04934372  1
  Mg  Mg2  1  0.00000000  -0.00000000  0.50000000  1
  H  H3  1  0.70917393  0.66265982  0.06203174  1
  H  H4  1  0.29082607  0.33734018  0.93796826  1
  H  H5  1  0.60131100  0.00818061  0.77192978  1
  H  H6  1  0.39868900  0.99181939  0.22807022  1
  H  H7  1  0.79986680  0.40026083  0.42754031  1
  H  H8  1  0.20013320  0.59973917  0.57245969  1
  H  H9  1  0.79781557  0.00575920  0.14984555  1
  H  H10  1  0.20218443  0.99424080  0.85015445  1
  H  H11  1  0.56371831  0.15496035  0.58576698  1
  H  H12  1  0.43628169  0.84503965  0.41423302  1
  H  H13  1  0.57309508  0.43838292  0.85798777  1
  H  H14  1  0.42690492  0.56161708  0.14201223  1
  H  H15  1  0.69305223  0.62599301  0.95920817  1
  H  H16  1  0.30694777  0.37400699  0.04079183  1
  H  H17  1  0.14813143  0.06485264  0.66375521  1
  H  H18  1  0.85186857  0.93514736  0.33624479  1
  H  H19  1  0.54700539  0.58278469  0.65122254  1
  H  H20  1  0.45299461  0.41721531  0.34877746  1
  H  H21  1  0.78110614  0.57137368  0.66792383  1
  H  H22  1  0.21889386  0.42862632  0.33207617  1
  H  H23  1  0.65539462  0.89534141  0.58117531  1
  H  H24  1  0.34460538  0.10465859  0.41882469  1
  H  H25  1  0.92511514  0.02881868  0.69110473  1
  H  H26  1  0.07488486  0.97118132  0.30889527  1
  H  H27  1  0.81938751  0.42062793  0.83249429  1
  H  H28  1  0.18061249  0.57937207  0.16750571  1
  H  H29  1  0.80280283  0.43996280  0.53303875  1
  H  H30  1  0.19719717  0.56003720  0.46696125  1
  H  H31  1  0.82754847  0.80019949  0.77572897  1
  H  H32  1  0.17245153  0.19980051  0.22427103  1
  H  H33  1  0.79758070  0.23771737  0.13105589  1
  H  H34  1  0.20241930  0.76228263  0.86894411  1
  S  S35  1  0.23690473  0.39412241  0.74662699  1
  S  S36  1  0.76309527  0.60587759  0.25337301  1
  O  O37  1  0.29956775  0.15347054  0.75445915  1
  O  O38  1  0.70043225  0.84652946  0.24554085  1
  O  O39  1  0.35866815  0.43636584  0.65706351  1
  O  O40  1  0.64133185  0.56363416  0.34293649  1
  O  O41  1  0.98950773  0.50969324  0.74931440  1
  O  O42  1  0.01049227  0.49030676  0.25068560  1
  O  O43  1  0.29852317  0.47610823  0.82609781  1
  O  O44  1  0.70147683  0.52389177  0.17390219  1
  O  O45  1  0.68142965  0.02215513  0.55436736  1
  O  O46  1  0.31857035  0.97784487  0.44563264  1
  O  O47  1  0.03165346  0.04523898  0.63760295  1
  O  O48  1  0.96834654  0.95476102  0.36239705  1
  O  O49  1  0.87016601  0.32985724  0.48110884  1
  O  O50  1  0.12983399  0.67014276  0.51889116  1
  O  O51  1  0.70775225  0.40943827  0.88483949  1
  O  O52  1  0.29224775  0.59056173  0.11516051  1
  O  O53  1  0.67386123  0.74079082  0.00398546  1
  O  O54  1  0.32613877  0.25920918  0.99601454  1
  O  O55  1  0.84203679  0.09395283  0.10122386  1
  O  O56  1  0.15796321  0.90604717  0.89877614  1
  O  O57  1  0.75355386  0.96038105  0.78625484  1
  O  O58  1  0.24644614  0.03961895  0.21374516  1
  O  O59  1  0.66867366  0.62911111  0.62667371  1
  O  O60  1  0.33132634  0.37088889  0.37332629  1
