# generated using pymatgen
data_Cs2Mo5O16
_symmetry_space_group_name_H-M   'P 1'
_cell_length_a   5.71463791
_cell_length_b   11.45316471
_cell_length_c   13.17280119
_cell_angle_alpha   73.20106286
_cell_angle_beta   77.47236216
_cell_angle_gamma   75.55334078
_symmetry_Int_Tables_number   1
_chemical_formula_structural   Cs2Mo5O16
_chemical_formula_sum   'Cs4 Mo10 O32'
_cell_volume   789.46659901
_cell_formula_units_Z   2
loop_
 _symmetry_equiv_pos_site_id
 _symmetry_equiv_pos_as_xyz
  1  'x, y, z'
loop_
 _atom_site_type_symbol
 _atom_site_label
 _atom_site_symmetry_multiplicity
 _atom_site_fract_x
 _atom_site_fract_y
 _atom_site_fract_z
 _atom_site_occupancy
  Cs  Cs0  1  0.94611604  0.60371850  0.83343178  1
  Cs  Cs1  1  0.38326632  0.89628150  0.66656822  1
  Cs  Cs2  1  0.05388396  0.39628150  0.16656822  1
  Cs  Cs3  1  0.61673368  0.10371850  0.33343178  1
  Mo  Mo4  1  0.12461687  0.25000000  0.75000000  1
  Mo  Mo5  1  0.87538313  0.75000000  0.25000000  1
  Mo  Mo6  1  0.67345866  0.25225978  0.96220516  1
  Mo  Mo7  1  0.88792460  0.24774022  0.53779484  1
  Mo  Mo8  1  0.32654134  0.74774022  0.03779484  1
  Mo  Mo9  1  0.11207540  0.75225978  0.46220516  1
  Mo  Mo10  1  0.26870837  0.01587867  0.10508573  1
  Mo  Mo11  1  0.38967277  0.48412133  0.39491427  1
  Mo  Mo12  1  0.73129163  0.98412133  0.89491427  1
  Mo  Mo13  1  0.61032723  0.51587867  0.60508573  1
  O  O14  1  0.93100596  0.32832675  0.86586692  1
  O  O15  1  0.12519963  0.17167325  0.63413308  1
  O  O16  1  0.06899404  0.67167325  0.13413308  1
  O  O17  1  0.87480037  0.82832675  0.36586692  1
  O  O18  1  0.03036504  0.10671999  0.03665284  1
  O  O19  1  0.17373786  0.39328001  0.46334716  1
  O  O20  1  0.96963496  0.89328001  0.96334716  1
  O  O21  1  0.82626214  0.60671999  0.53665284  1
  O  O22  1  0.17382544  0.86001229  0.15856879  1
  O  O23  1  0.19240652  0.63998771  0.34143121  1
  O  O24  1  0.82617456  0.13998771  0.84143121  1
  O  O25  1  0.80759348  0.36001229  0.65856879  1
  O  O26  1  0.41508865  0.35132605  0.91679234  1
  O  O27  1  0.68320705  0.14867395  0.58320766  1
  O  O28  1  0.58491135  0.64867395  0.08320766  1
  O  O29  1  0.31679295  0.85132605  0.41679234  1
  O  O30  1  0.54479890  0.09381456  0.01646585  1
  O  O31  1  0.65507831  0.40618544  0.48353415  1
  O  O32  1  0.45520110  0.90618544  0.98353415  1
  O  O33  1  0.34492169  0.59381456  0.51646585  1
  O  O34  1  0.65888643  0.87073590  0.18733463  1
  O  O35  1  0.71695796  0.62926410  0.31266537  1
  O  O36  1  0.34111357  0.12926410  0.81266537  1
  O  O37  1  0.28304204  0.37073590  0.68733463  1
  O  O38  1  0.66367992  0.28991300  0.08351160  1
  O  O39  1  0.03710452  0.21008700  0.41648840  1
  O  O40  1  0.33632008  0.71008700  0.91648840  1
  O  O41  1  0.96289548  0.78991300  0.58351160  1
  O  O42  1  0.22597179  0.07778696  0.21592973  1
  O  O43  1  0.51968848  0.42221304  0.28407027  1
  O  O44  1  0.77402821  0.92221304  0.78407027  1
  O  O45  1  0.48031152  0.57778696  0.71592973  1
