# generated using pymatgen
data_ZrFeSi2
_symmetry_space_group_name_H-M   'P 1'
_cell_length_a   5.13534991
_cell_length_b   9.77766030
_cell_length_c   14.22722490
_cell_angle_alpha   90.00000000
_cell_angle_beta   90.00000000
_cell_angle_gamma   105.22476846
_symmetry_Int_Tables_number   1
_chemical_formula_structural   ZrFeSi2
_chemical_formula_sum   'Zr12 Fe12 Si24'
_cell_volume   689.30093387
_cell_formula_units_Z   12
loop_
 _symmetry_equiv_pos_site_id
 _symmetry_equiv_pos_as_xyz
  1  'x, y, z'
loop_
 _atom_site_type_symbol
 _atom_site_label
 _atom_site_symmetry_multiplicity
 _atom_site_fract_x
 _atom_site_fract_y
 _atom_site_fract_z
 _atom_site_occupancy
  Zr  Zr0  1  0.20236465  0.40472931  0.81726947  1
  Zr  Zr1  1  0.79763535  0.59527069  0.18273053  1
  Zr  Zr2  1  0.29763535  0.59527069  0.31726947  1
  Zr  Zr3  1  0.70236465  0.40472931  0.68273053  1
  Zr  Zr4  1  0.46501651  0.93003302  0.82479983  1
  Zr  Zr5  1  0.53498349  0.06996698  0.17520017  1
  Zr  Zr6  1  0.03498349  0.06996698  0.32479983  1
  Zr  Zr7  1  0.96501651  0.93003302  0.67520017  1
  Zr  Zr8  1  0.12378450  0.24756901  0.58236777  1
  Zr  Zr9  1  0.87621550  0.75243099  0.41763223  1
  Zr  Zr10  1  0.37621550  0.75243099  0.08236777  1
  Zr  Zr11  1  0.62378450  0.24756901  0.91763223  1
  Fe  Fe12  1  -0.00000000  0.50000000  0.50000000  1
  Fe  Fe13  1  0.50000000  0.50000000  0.50000000  1
  Fe  Fe14  1  -0.00000000  0.50000000  -0.00000000  1
  Fe  Fe15  1  0.50000000  0.50000000  -0.00000000  1
  Fe  Fe16  1  0.08759496  0.67518992  0.75000000  1
  Fe  Fe17  1  0.41240504  0.32481008  0.25000000  1
  Fe  Fe18  1  0.91240504  0.32481008  0.25000000  1
  Fe  Fe19  1  0.58759496  0.67518992  0.75000000  1
  Fe  Fe20  1  0.04026653  0.08053305  0.87689297  1
  Fe  Fe21  1  0.95973347  0.91946695  0.12310703  1
  Fe  Fe22  1  0.45973347  0.91946695  0.37689297  1
  Fe  Fe23  1  0.54026653  0.08053305  0.62310703  1
  Si  Si24  1  0.24418500  0.00000000  0.50000000  1
  Si  Si25  1  0.74418500  0.00000000  -0.00000000  1
  Si  Si26  1  0.75581500  1.00000000  0.50000000  1
  Si  Si27  1  0.25581500  1.00000000  -0.00000000  1
  Si  Si28  1  0.83344029  0.16688059  0.75000000  1
  Si  Si29  1  0.66655971  0.83311941  0.25000000  1
  Si  Si30  1  0.16655971  0.83311941  0.25000000  1
  Si  Si31  1  0.33344029  0.16688059  0.75000000  1
  Si  Si32  1  0.33132436  0.66264873  0.89721769  1
  Si  Si33  1  0.66867564  0.33735127  0.10278231  1
  Si  Si34  1  0.16867564  0.33735127  0.39721769  1
  Si  Si35  1  0.83132436  0.66264873  0.60278231  1
  Si  Si36  1  0.41090189  0.82180379  0.64435857  1
  Si  Si37  1  0.58909811  0.17819621  0.35564143  1
  Si  Si38  1  0.08909811  0.17819621  0.14435857  1
  Si  Si39  1  0.91090189  0.82180379  0.85564143  1
  Si  Si40  1  0.26496033  0.52992066  0.64336066  1
  Si  Si41  1  0.73503967  0.47007934  0.35663934  1
  Si  Si42  1  0.23503967  0.47007934  0.14336066  1
  Si  Si43  1  0.76496033  0.52992066  0.85663934  1
  Si  Si44  1  0.35965892  0.71931783  0.49287795  1
  Si  Si45  1  0.64034108  0.28068217  0.50712205  1
  Si  Si46  1  0.14034108  0.28068217  0.99287795  1
  Si  Si47  1  0.85965892  0.71931783  0.00712205  1
