# generated using pymatgen
data_Y2(Ni5B2)3
_symmetry_space_group_name_H-M   'P 1'
_cell_length_a   9.59216712
_cell_length_b   10.73468549
_cell_length_c   14.27893584
_cell_angle_alpha   90.00000000
_cell_angle_beta   94.49051560
_cell_angle_gamma   90.00000000
_symmetry_Int_Tables_number   1
_chemical_formula_structural   Y2(Ni5B2)3
_chemical_formula_sum   'Y12 Ni90 B36'
_cell_volume   1465.77295082
_cell_formula_units_Z   6
loop_
 _symmetry_equiv_pos_site_id
 _symmetry_equiv_pos_as_xyz
  1  'x, y, z'
loop_
 _atom_site_type_symbol
 _atom_site_label
 _atom_site_symmetry_multiplicity
 _atom_site_fract_x
 _atom_site_fract_y
 _atom_site_fract_z
 _atom_site_occupancy
  Y  Y0  1  0.29102974  0.87520657  0.97519755  1
  Y  Y1  1  0.20897026  0.37520657  0.02480245  1
  Y  Y2  1  0.70897026  0.12479343  0.02480245  1
  Y  Y3  1  0.79102974  0.62479343  0.97519755  1
  Y  Y4  1  0.33819131  0.61174879  0.68605619  1
  Y  Y5  1  0.16180869  0.11174879  0.31394381  1
  Y  Y6  1  0.66180869  0.38825121  0.31394381  1
  Y  Y7  1  0.83819131  0.88825121  0.68605619  1
  Y  Y8  1  0.06490747  0.65057839  0.36227387  1
  Y  Y9  1  0.43509253  0.15057839  0.63772613  1
  Y  Y10  1  0.93509253  0.34942161  0.63772613  1
  Y  Y11  1  0.56490747  0.84942161  0.36227387  1
  Ni  Ni12  1  0.50000000  0.50000000  -0.00000000  1
  Ni  Ni13  1  -0.00000000  -0.00000000  -0.00000000  1
  Ni  Ni14  1  0.30234676  0.48823972  0.86663349  1
  Ni  Ni15  1  0.19765324  0.98823972  0.13336651  1
  Ni  Ni16  1  0.69765324  0.51176028  0.13336651  1
  Ni  Ni17  1  0.80234676  0.01176028  0.86663349  1
  Ni  Ni18  1  0.43977741  0.79248209  0.82152196  1
  Ni  Ni19  1  0.06022259  0.29248209  0.17847804  1
  Ni  Ni20  1  0.56022259  0.20751791  0.17847804  1
  Ni  Ni21  1  0.93977741  0.70751791  0.82152196  1
  Ni  Ni22  1  0.03791653  0.76466338  0.99279259  1
  Ni  Ni23  1  0.46208347  0.26466338  0.00720741  1
  Ni  Ni24  1  0.96208347  0.23533662  0.00720741  1
  Ni  Ni25  1  0.53791653  0.73533662  0.99279259  1
  Ni  Ni26  1  0.17967816  0.75143615  0.14479385  1
  Ni  Ni27  1  0.32032184  0.25143615  0.85520615  1
  Ni  Ni28  1  0.82032184  0.24856385  0.85520615  1
  Ni  Ni29  1  0.67967816  0.74856385  0.14479385  1
  Ni  Ni30  1  0.16359006  0.52277727  0.18549671  1
  Ni  Ni31  1  0.33640994  0.02277727  0.81450329  1
  Ni  Ni32  1  0.83640994  0.47722273  0.81450329  1
  Ni  Ni33  1  0.66359006  0.97722273  0.18549671  1
  Ni  Ni34  1  0.05413470  0.54318222  0.92599045  1
  Ni  Ni35  1  0.44586530  0.04318222  0.07400955  1
  Ni  Ni36  1  0.94586530  0.45681778  0.07400955  1
  Ni  Ni37  1  0.55413470  0.95681778  0.92599045  1
  Ni  Ni38  1  0.19961553  0.70213565  0.84944828  1
  Ni  Ni39  1  0.30038447  0.20213565  0.15055172  1
  Ni  Ni40  1  0.80038447  0.29786435  0.15055172  1
  Ni  Ni41  1  0.69961553  0.79786435  0.84944828  1
  Ni  Ni42  1  0.43315890  0.81614442  0.15223328  1
  Ni  Ni43  1  0.06684110  0.31614442  0.84776672  1
  Ni  Ni44  1  0.56684110  0.18385558  0.84776672  1
  Ni  Ni45  1  0.93315890  0.68385558  0.15223328  1
  Ni  Ni46  1  0.06712799  0.92663978  0.84232982  1
  Ni  Ni47  1  0.43287201  0.42663978  0.15767018  1
  Ni  Ni48  1  0.93287201  0.07336022  0.15767018  1
  Ni  Ni49  1  0.56712799  0.57336022  0.84232982  1
  Ni  Ni50  1  0.29412846  0.62460379  0.03145760  1
  Ni  Ni51  1  0.20587154  0.12460379  0.96854240  1
  Ni  Ni52  1  0.70587154  0.37539621  0.96854240  1
  Ni  Ni53  1  0.79412846  0.87539621  0.03145760  1
  Ni  Ni54  1  0.09631402  0.76198331  0.68591471  1
  Ni  Ni55  1  0.40368598  0.26198331  0.31408529  1
  Ni  Ni56  1  0.90368598  0.23801669  0.31408529  1
  Ni  Ni57  1  0.59631402  0.73801669  0.68591471  1
  Ni  Ni58  1  0.08414624  0.52758062  0.75180324  1
  Ni  Ni59  1  0.41585376  0.02758062  0.24819676  1
  Ni  Ni60  1  0.91585376  0.47241938  0.24819676  1
  Ni  Ni61  1  0.58414624  0.97241938  0.75180324  1
  Ni  Ni62  1  0.20217240  0.78060339  0.52872010  1
  Ni  Ni63  1  0.29782760  0.28060339  0.47127990  1
  Ni  Ni64  1  0.79782760  0.21939661  0.47127990  1
  Ni  Ni65  1  0.70217240  0.71939661  0.52872010  1
  Ni  Ni66  1  0.01706936  0.91467410  0.42753913  1
  Ni  Ni67  1  0.48293064  0.41467410  0.57246087  1
  Ni  Ni68  1  0.98293064  0.08532590  0.57246087  1
  Ni  Ni69  1  0.51706936  0.58532590  0.42753913  1
  Ni  Ni70  1  0.35242517  0.49079872  0.30965969  1
  Ni  Ni71  1  0.14757483  0.99079872  0.69034031  1
  Ni  Ni72  1  0.64757483  0.50920128  0.69034031  1
  Ni  Ni73  1  0.85242517  0.00920128  0.30965969  1
  Ni  Ni74  1  0.05660261  0.87982442  0.25166218  1
  Ni  Ni75  1  0.44339739  0.37982442  0.74833782  1
  Ni  Ni76  1  0.94339739  0.12017558  0.74833782  1
  Ni  Ni77  1  0.55660261  0.62017558  0.25166218  1
  Ni  Ni78  1  0.29268134  0.53184749  0.48396719  1
  Ni  Ni79  1  0.20731866  0.03184749  0.51603281  1
  Ni  Ni80  1  0.70731866  0.46815251  0.51603281  1
  Ni  Ni81  1  0.79268134  0.96815251  0.48396719  1
  Ni  Ni82  1  0.37108176  0.88515773  0.66162083  1
  Ni  Ni83  1  0.12891824  0.38515773  0.33837917  1
  Ni  Ni84  1  0.62891824  0.11484227  0.33837917  1
  Ni  Ni85  1  0.87108176  0.61484227  0.66162083  1
  Ni  Ni86  1  0.44771093  0.74287673  0.53504883  1
  Ni  Ni87  1  0.05228907  0.24287673  0.46495117  1
  Ni  Ni88  1  0.55228907  0.25712327  0.46495117  1
  Ni  Ni89  1  0.94771093  0.75712327  0.53504883  1
  Ni  Ni90  1  0.27158848  0.87958762  0.38709601  1
  Ni  Ni91  1  0.22841152  0.37958762  0.61290399  1
  Ni  Ni92  1  0.72841152  0.12041238  0.61290399  1
  Ni  Ni93  1  0.77158848  0.62041238  0.38709601  1
  Ni  Ni94  1  0.07519218  0.56647919  0.56725328  1
  Ni  Ni95  1  0.42480782  0.06647919  0.43274672  1
  Ni  Ni96  1  0.92480782  0.43352081  0.43274672  1
  Ni  Ni97  1  0.57519218  0.93352081  0.56725328  1
  Ni  Ni98  1  0.32594813  0.71174783  0.28786175  1
  Ni  Ni99  1  0.17405187  0.21174783  0.71213825  1
  Ni  Ni100  1  0.67405187  0.28825217  0.71213825  1
  Ni  Ni101  1  0.82594813  0.78825217  0.28786175  1
  B  B102  1  0.39497135  0.64725539  0.90423192  1
  B  B103  1  0.10502865  0.14725539  0.09576808  1
  B  B104  1  0.60502865  0.35274461  0.09576808  1
  B  B105  1  0.89497135  0.85274461  0.90423192  1
  B  B106  1  0.24443753  0.85312756  0.77233212  1
  B  B107  1  0.25556247  0.35312756  0.22766788  1
  B  B108  1  0.75556247  0.14687244  0.22766788  1
  B  B109  1  0.74443753  0.64687244  0.77233212  1
  B  B110  1  0.07714721  0.60339054  0.06368601  1
  B  B111  1  0.42285279  0.10339054  0.93631399  1
  B  B112  1  0.92285279  0.39660946  0.93631399  1
  B  B113  1  0.57714721  0.89660946  0.06368601  1
  B  B114  1  0.28082934  0.88407092  0.24381217  1
  B  B115  1  0.21917066  0.38407092  0.75618783  1
  B  B116  1  0.71917066  0.11592908  0.75618783  1
  B  B117  1  0.78082934  0.61592908  0.24381217  1
  B  B118  1  0.06875293  0.90584245  0.57479656  1
  B  B119  1  0.43124707  0.40584245  0.42520344  1
  B  B120  1  0.93124707  0.09415755  0.42520344  1
  B  B121  1  0.56875293  0.59415755  0.57479656  1
  B  B122  1  0.33353984  0.69323216  0.42271712  1
  B  B123  1  0.16646016  0.19323216  0.57728288  1
  B  B124  1  0.66646016  0.30676784  0.57728288  1
  B  B125  1  0.83353984  0.80676784  0.42271712  1
  B  B126  1  0.37166458  0.92113931  0.51812667  1
  B  B127  1  0.12833542  0.42113931  0.48187333  1
  B  B128  1  0.62833542  0.07886069  0.48187333  1
  B  B129  1  0.87166458  0.57886069  0.51812667  1
  B  B130  1  0.00805605  0.87361618  0.10925679  1
  B  B131  1  0.49194395  0.37361618  0.89074321  1
  B  B132  1  0.99194395  0.12638382  0.89074321  1
  B  B133  1  0.50805605  0.62638382  0.10925679  1
  B  B134  1  0.35718690  0.61150695  0.17620293  1
  B  B135  1  0.14281310  0.11150695  0.82379707  1
  B  B136  1  0.64281310  0.38849305  0.82379707  1
  B  B137  1  0.85718690  0.88849305  0.17620293  1
