# generated using pymatgen
data_Bi2N2O9
_symmetry_space_group_name_H-M   'P 1'
_cell_length_a   9.45028054
_cell_length_b   13.78468912
_cell_length_c   18.01768051
_cell_angle_alpha   90.00000000
_cell_angle_beta   92.13088372
_cell_angle_gamma   90.00000000
_symmetry_Int_Tables_number   1
_chemical_formula_structural   Bi2N2O9
_chemical_formula_sum   'Bi24 N24 O108'
_cell_volume   2345.52539349
_cell_formula_units_Z   12
loop_
 _symmetry_equiv_pos_site_id
 _symmetry_equiv_pos_as_xyz
  1  'x, y, z'
loop_
 _atom_site_type_symbol
 _atom_site_label
 _atom_site_symmetry_multiplicity
 _atom_site_fract_x
 _atom_site_fract_y
 _atom_site_fract_z
 _atom_site_occupancy
  Bi  Bi0  1  0.52428402  0.61330670  0.63578051  1
  Bi  Bi1  1  0.97571598  0.11330670  0.86421949  1
  Bi  Bi2  1  0.47571598  0.38669330  0.36421949  1
  Bi  Bi3  1  0.02428402  0.88669330  0.13578051  1
  Bi  Bi4  1  0.51914115  0.90211539  0.64679928  1
  Bi  Bi5  1  0.98085885  0.40211539  0.85320072  1
  Bi  Bi6  1  0.48085885  0.09788461  0.35320072  1
  Bi  Bi7  1  0.01914115  0.59788461  0.14679928  1
  Bi  Bi8  1  0.33991578  0.76971955  0.49236683  1
  Bi  Bi9  1  0.16008422  0.26971955  0.00763317  1
  Bi  Bi10  1  0.66008422  0.23028045  0.50763317  1
  Bi  Bi11  1  0.83991578  0.73028045  0.99236683  1
  Bi  Bi12  1  0.32465020  0.74094378  0.77681735  1
  Bi  Bi13  1  0.17534980  0.24094378  0.72318265  1
  Bi  Bi14  1  0.67534980  0.25905622  0.22318265  1
  Bi  Bi15  1  0.82465020  0.75905622  0.27681735  1
  Bi  Bi16  1  0.12904916  0.88396262  0.63471188  1
  Bi  Bi17  1  0.37095084  0.38396262  0.86528812  1
  Bi  Bi18  1  0.87095084  0.11603738  0.36528812  1
  Bi  Bi19  1  0.62904916  0.61603738  0.13471188  1
  Bi  Bi20  1  0.12055788  0.62071901  0.62506458  1
  Bi  Bi21  1  0.37944212  0.12071901  0.87493542  1
  Bi  Bi22  1  0.87944212  0.37928099  0.37493542  1
  Bi  Bi23  1  0.62055788  0.87928099  0.12506458  1
  N  N24  1  0.43765836  0.89231367  0.95436234  1
  N  N25  1  0.06234164  0.39231367  0.54563766  1
  N  N26  1  0.56234164  0.10768633  0.04563766  1
  N  N27  1  0.93765836  0.60768633  0.45436234  1
  N  N28  1  0.80900996  0.89598136  0.55151806  1
  N  N29  1  0.69099004  0.39598136  0.94848194  1
  N  N30  1  0.19099004  0.10401864  0.44848194  1
  N  N31  1  0.30900996  0.60401864  0.05151806  1
  N  N32  1  0.58056417  0.64912338  0.87884903  1
  N  N33  1  0.91943583  0.14912338  0.62115097  1
  N  N34  1  0.41943583  0.35087662  0.12115097  1
  N  N35  1  0.08056417  0.85087662  0.37884903  1
  N  N36  1  0.84538378  0.55858876  0.71254342  1
  N  N37  1  0.65461622  0.05858876  0.78745658  1
  N  N38  1  0.15461622  0.44141124  0.28745658  1
  N  N39  1  0.34538378  0.94141124  0.21254342  1
  N  N40  1  0.93368475  0.87718263  0.81930130  1
  N  N41  1  0.56631525  0.37718263  0.68069870  1
  N  N42  1  0.06631525  0.12281737  0.18069870  1
  N  N43  1  0.43368475  0.62281737  0.31930130  1
  N  N44  1  0.08440216  0.64314527  0.88209173  1
  N  N45  1  0.41559784  0.14314527  0.61790827  1
  N  N46  1  0.91559784  0.35685473  0.11790827  1
  N  N47  1  0.58440216  0.85685473  0.38209173  1
  O  O48  1  0.51481538  0.75928027  0.58344523  1
  O  O49  1  0.98518462  0.25928027  0.91655477  1
  O  O50  1  0.48518462  0.24071973  0.41655477  1
  O  O51  1  0.01481538  0.74071973  0.08344523  1
  O  O52  1  0.31989071  0.62182956  0.69443167  1
  O  O53  1  0.18010929  0.12182956  0.80556833  1
  O  O54  1  0.68010929  0.37817044  0.30556833  1
  O  O55  1  0.81989071  0.87817044  0.19443167  1
  O  O56  1  0.32016131  0.87851908  0.70780703  1
  O  O57  1  0.17983869  0.37851908  0.79219297  1
  O  O58  1  0.67983869  0.12148092  0.29219297  1
  O  O59  1  0.82016131  0.62148092  0.20780703  1
  O  O60  1  0.15390309  0.75610668  0.56125465  1
  O  O61  1  0.34609691  0.25610668  0.93874535  1
  O  O62  1  0.84609691  0.24389332  0.43874535  1
  O  O63  1  0.65390309  0.74389332  0.06125465  1
  O  O64  1  0.11026249  0.74643972  0.70441036  1
  O  O65  1  0.38973751  0.24643972  0.79558964  1
  O  O66  1  0.88973751  0.25356028  0.29558964  1
  O  O67  1  0.61026249  0.75356028  0.20441036  1
  O  O68  1  0.53539654  0.75145990  0.71448489  1
  O  O69  1  0.96460346  0.25145990  0.78551511  1
  O  O70  1  0.46460346  0.24854010  0.28551511  1
  O  O71  1  0.03539654  0.74854010  0.21448489  1
  O  O72  1  0.33273910  0.90389484  0.56550288  1
  O  O73  1  0.16726090  0.40389484  0.93449712  1
  O  O74  1  0.66726090  0.09610516  0.43449712  1
  O  O75  1  0.83273910  0.59610516  0.06550288  1
  O  O76  1  0.34170990  0.61039759  0.54963179  1
  O  O77  1  0.15829010  0.11039759  0.95036821  1
  O  O78  1  0.65829010  0.38960241  0.45036821  1
  O  O79  1  0.84170990  0.88960241  0.04963179  1
  O  O80  1  0.38503942  0.84662798  0.00671605  1
  O  O81  1  0.11496058  0.34662798  0.49328395  1
  O  O82  1  0.61496058  0.15337202  0.99328395  1
  O  O83  1  0.88503942  0.65337202  0.50671605  1
  O  O84  1  0.56226512  0.92404372  0.95953474  1
  O  O85  1  0.93773488  0.42404372  0.54046526  1
  O  O86  1  0.43773488  0.07595628  0.04046526  1
  O  O87  1  0.06226512  0.57595628  0.45953474  1
  O  O88  1  0.36253002  0.90820652  0.89549677  1
  O  O89  1  0.13746998  0.40820652  0.60450323  1
  O  O90  1  0.63746998  0.09179348  0.10450323  1
  O  O91  1  0.86253002  0.59179348  0.39549677  1
  O  O92  1  0.91417669  0.90471760  0.51187799  1
  O  O93  1  0.58582331  0.40471760  0.98812201  1
  O  O94  1  0.08582331  0.09528240  0.48812201  1
  O  O95  1  0.41417669  0.59528240  0.01187799  1
  O  O96  1  0.68712979  0.92272186  0.52731281  1
  O  O97  1  0.81287021  0.42272186  0.97268719  1
  O  O98  1  0.31287021  0.07727814  0.47268719  1
  O  O99  1  0.18712979  0.57727814  0.02731281  1
  O  O100  1  0.82201870  0.86124639  0.61676805  1
  O  O101  1  0.67798130  0.36124639  0.88323195  1
  O  O102  1  0.17798130  0.13875361  0.38323195  1
  O  O103  1  0.32201870  0.63875361  0.11676805  1
  O  O104  1  0.58504535  0.74062643  0.87636687  1
  O  O105  1  0.91495465  0.24062643  0.62363313  1
  O  O106  1  0.41495465  0.25937357  0.12363313  1
  O  O107  1  0.08504535  0.75937357  0.37636687  1
  O  O108  1  0.67022720  0.60233832  0.91829760  1
  O  O109  1  0.82977280  0.10233832  0.58170240  1
  O  O110  1  0.32977280  0.39766168  0.08170240  1
  O  O111  1  0.17022720  0.89766168  0.41829760  1
  O  O112  1  0.48463870  0.60356099  0.84130629  1
  O  O113  1  0.01536130  0.10356099  0.65869371  1
  O  O114  1  0.51536130  0.39643901  0.15869371  1
  O  O115  1  0.98463870  0.89643901  0.34130629  1
  O  O116  1  0.74205858  0.52907788  0.74763272  1
  O  O117  1  0.75794142  0.02907788  0.75236728  1
  O  O118  1  0.25794142  0.47092212  0.25236728  1
  O  O119  1  0.24205858  0.97092212  0.24763272  1
  O  O120  1  0.97081887  0.52836687  0.72952087  1
  O  O121  1  0.52918113  0.02836687  0.77047913  1
  O  O122  1  0.02918113  0.47163313  0.27047913  1
  O  O123  1  0.47081887  0.97163313  0.22952087  1
  O  O124  1  0.82940950  0.61867922  0.65917717  1
  O  O125  1  0.67059050  0.11867922  0.84082283  1
  O  O126  1  0.17059050  0.38132078  0.34082283  1
  O  O127  1  0.32940950  0.88132078  0.15917717  1
  O  O128  1  0.87811539  0.89603138  0.88028142  1
  O  O129  1  0.62188461  0.39603138  0.61971858  1
  O  O130  1  0.12188461  0.10396862  0.11971858  1
  O  O131  1  0.37811539  0.60396862  0.38028142  1
  O  O132  1  0.02556333  0.93407959  0.79378829  1
  O  O133  1  0.47443667  0.43407959  0.70621171  1
  O  O134  1  0.97443667  0.06592041  0.20621171  1
  O  O135  1  0.52556333  0.56592041  0.29378829  1
  O  O136  1  0.89663579  0.80202568  0.78464043  1
  O  O137  1  0.60336421  0.30202568  0.71535957  1
  O  O138  1  0.10336421  0.19797432  0.21535957  1
  O  O139  1  0.39663579  0.69797432  0.28464043  1
  O  O140  1  0.97854320  0.59433282  0.90302724  1
  O  O141  1  0.52145680  0.09433282  0.59697276  1
  O  O142  1  0.02145680  0.40566718  0.09697276  1
  O  O143  1  0.47854320  0.90566718  0.40302724  1
  O  O144  1  0.10146002  0.72945445  0.90327091  1
  O  O145  1  0.39853998  0.22945445  0.59672909  1
  O  O146  1  0.89853998  0.27054555  0.09672909  1
  O  O147  1  0.60146002  0.77054555  0.40327091  1
  O  O148  1  0.17140994  0.60338408  0.83954643  1
  O  O149  1  0.32859006  0.10338408  0.66045357  1
  O  O150  1  0.82859006  0.39661592  0.16045357  1
  O  O151  1  0.67140994  0.89661592  0.33954643  1
  O  O152  1  0.56779973  0.55261795  0.51205479  1
  O  O153  1  0.93220027  0.05261795  0.98794521  1
  O  O154  1  0.43220027  0.44738205  0.48794521  1
  O  O155  1  0.06779973  0.94738205  0.01205479  1
