# generated using pymatgen
data_Na2YbPWO8
_symmetry_space_group_name_H-M   'P 1'
_cell_length_a   6.97221247
_cell_length_b   11.57637140
_cell_length_c   11.57637140
_cell_angle_alpha   64.20001126
_cell_angle_beta   72.47392224
_cell_angle_gamma   72.47392224
_symmetry_Int_Tables_number   1
_chemical_formula_structural   Na2YbPWO8
_chemical_formula_sum   'Na8 Yb4 P4 W4 O32'
_cell_volume   786.27702081
_cell_formula_units_Z   4
loop_
 _symmetry_equiv_pos_site_id
 _symmetry_equiv_pos_as_xyz
  1  'x, y, z'
loop_
 _atom_site_type_symbol
 _atom_site_label
 _atom_site_symmetry_multiplicity
 _atom_site_fract_x
 _atom_site_fract_y
 _atom_site_fract_z
 _atom_site_occupancy
  Na  Na0  1  0.85562486  0.08915103  0.71685610  1
  Na  Na1  1  0.83836801  0.71685610  0.08915103  1
  Na  Na2  1  0.64437514  0.78314390  0.41084897  1
  Na  Na3  1  0.66163199  0.41084897  0.78314390  1
  Na  Na4  1  0.14437514  0.91084897  0.28314390  1
  Na  Na5  1  0.16163199  0.28314390  0.91084897  1
  Na  Na6  1  0.35562486  0.21685610  0.58915103  1
  Na  Na7  1  0.33836801  0.58915103  0.21685610  1
  Yb  Yb8  1  0.75000000  0.82004978  0.67995022  1
  Yb  Yb9  1  0.25000000  0.67995022  0.82004978  1
  Yb  Yb10  1  0.25000000  0.17995022  0.32004978  1
  Yb  Yb11  1  0.75000000  0.32004978  0.17995022  1
  P  P12  1  0.25000000  0.43140258  0.06859742  1
  P  P13  1  0.75000000  0.06859742  0.43140258  1
  P  P14  1  0.75000000  0.56859742  0.93140258  1
  P  P15  1  0.25000000  0.93140258  0.56859742  1
  W  W16  1  0.67682230  0.07317770  0.07317770  1
  W  W17  1  0.82317770  0.42682230  0.42682230  1
  W  W18  1  0.32317770  0.92682230  0.92682230  1
  W  W19  1  0.17682230  0.57317770  0.57317770  1
  O  O20  1  0.16701505  0.57242032  0.06468874  1
  O  O21  1  0.69587589  0.06468874  0.57242032  1
  O  O22  1  0.33298495  0.43531126  0.92757968  1
  O  O23  1  0.80412411  0.92757968  0.43531126  1
  O  O24  1  0.83298495  0.42757968  0.93531126  1
  O  O25  1  0.30412411  0.93531126  0.42757968  1
  O  O26  1  0.66701505  0.56468874  0.07242032  1
  O  O27  1  0.19587589  0.07242032  0.56468874  1
  O  O28  1  0.41704229  0.36449774  0.15347897  1
  O  O29  1  0.56498100  0.15347897  0.36449774  1
  O  O30  1  0.08295771  0.34652103  0.13550226  1
  O  O31  1  0.93501900  0.13550226  0.34652103  1
  O  O32  1  0.58295771  0.63550226  0.84652103  1
  O  O33  1  0.43501900  0.84652103  0.63550226  1
  O  O34  1  0.91704229  0.65347897  0.86449774  1
  O  O35  1  0.06498100  0.86449774  0.65347897  1
  O  O36  1  0.40901979  0.10462964  0.15388298  1
  O  O37  1  0.83246759  0.15388298  0.10462964  1
  O  O38  1  0.09098021  0.34611702  0.39537036  1
  O  O39  1  0.66753241  0.39537036  0.34611702  1
  O  O40  1  0.59098021  0.89537036  0.84611702  1
  O  O41  1  0.16753241  0.84611702  0.89537036  1
  O  O42  1  0.90901979  0.65388298  0.60462964  1
  O  O43  1  0.33246759  0.60462964  0.65388298  1
  O  O44  1  0.77363783  0.89823799  0.13939895  1
  O  O45  1  0.68872523  0.13939895  0.89823799  1
  O  O46  1  0.72636217  0.36060105  0.60176201  1
  O  O47  1  0.81127477  0.60176201  0.36060105  1
  O  O48  1  0.22636217  0.10176201  0.86060105  1
  O  O49  1  0.31127477  0.86060105  0.10176201  1
  O  O50  1  0.27363783  0.63939895  0.39823799  1
  O  O51  1  0.18872523  0.39823799  0.63939895  1
