# generated using pymatgen
data_BaCu(SiO3)2
_symmetry_space_group_name_H-M   'P 1'
_cell_length_a   10.08536004
_cell_length_b   10.08536004
_cell_length_c   13.44587746
_cell_angle_alpha   112.02650074
_cell_angle_beta   112.02650074
_cell_angle_gamma   90.00000000
_symmetry_Int_Tables_number   1
_chemical_formula_structural   BaCu(SiO3)2
_chemical_formula_sum   'Ba8 Cu8 Si16 O48'
_cell_volume   1159.43083949
_cell_formula_units_Z   8
loop_
 _symmetry_equiv_pos_site_id
 _symmetry_equiv_pos_as_xyz
  1  'x, y, z'
loop_
 _atom_site_type_symbol
 _atom_site_label
 _atom_site_symmetry_multiplicity
 _atom_site_fract_x
 _atom_site_fract_y
 _atom_site_fract_z
 _atom_site_occupancy
  Ba  Ba0  1  0.01158154  0.99897781  0.50023859  1
  Ba  Ba1  1  0.51158154  0.00126078  0.50023859  1
  Ba  Ba2  1  0.75126078  0.76158154  0.00023859  1
  Ba  Ba3  1  0.74897781  0.26158154  0.00023859  1
  Ba  Ba4  1  0.48865705  0.50126078  0.50023859  1
  Ba  Ba5  1  0.98865705  0.49897781  0.50023859  1
  Ba  Ba6  1  0.24897781  0.23865705  0.00023859  1
  Ba  Ba7  1  0.25126078  0.73865705  0.00023859  1
  Cu  Cu8  1  0.81805348  0.31805348  0.63610696  1
  Cu  Cu9  1  0.31805348  0.81805348  0.63610696  1
  Cu  Cu10  1  0.56805348  0.56805348  0.13610696  1
  Cu  Cu11  1  0.06805348  0.06805348  0.13610696  1
  Cu  Cu12  1  0.93498895  0.43498895  0.86997791  1
  Cu  Cu13  1  0.43498895  0.93498895  0.86997791  1
  Cu  Cu14  1  0.68498895  0.68498895  0.36997791  1
  Cu  Cu15  1  0.18498895  0.18498895  0.36997791  1
  Si  Si16  1  0.87590641  0.65184841  0.75232414  1
  Si  Si17  1  0.37590641  0.60047573  0.75232414  1
  Si  Si18  1  0.35047573  0.62590641  0.25232414  1
  Si  Si19  1  0.40184841  0.12590641  0.25232414  1
  Si  Si20  1  0.87641772  0.10047573  0.75232414  1
  Si  Si21  1  0.37641772  0.15184841  0.75232414  1
  Si  Si22  1  0.90184841  0.62641772  0.25232414  1
  Si  Si23  1  0.85047573  0.12641772  0.25232414  1
  Si  Si24  1  0.62552418  0.35137124  0.25402716  1
  Si  Si25  1  0.12552418  0.40265592  0.25402716  1
  Si  Si26  1  0.15265592  0.37552418  0.75402716  1
  Si  Si27  1  0.10137124  0.87552418  0.75402716  1
  Si  Si28  1  0.62850298  0.90265592  0.25402716  1
  Si  Si29  1  0.12850298  0.85137124  0.25402716  1
  Si  Si30  1  0.60137124  0.37850298  0.75402716  1
  Si  Si31  1  0.65265592  0.87850298  0.75402716  1
  O  O32  1  0.76816149  0.76878032  0.78510903  1
  O  O33  1  0.26816149  0.51632871  0.78510903  1
  O  O34  1  0.26632871  0.51816149  0.28510903  1
  O  O35  1  0.51878032  0.01816149  0.28510903  1
  O  O36  1  0.01694754  0.01632871  0.78510903  1
  O  O37  1  0.51694754  0.26878032  0.78510903  1
  O  O38  1  0.01878032  0.76694754  0.28510903  1
  O  O39  1  0.76632871  0.26694754  0.28510903  1
  O  O40  1  0.60044546  0.37666961  0.13624612  1
  O  O41  1  0.10044546  0.25957650  0.13624612  1
  O  O42  1  0.00957650  0.35044546  0.63624612  1
  O  O43  1  0.12666961  0.85044546  0.63624612  1
  O  O44  1  0.53580066  0.75957650  0.13624612  1
  O  O45  1  0.03580066  0.87666961  0.13624612  1
  O  O46  1  0.62666961  0.28580066  0.63624612  1
  O  O47  1  0.50957650  0.78580066  0.63624612  1
  O  O48  1  0.65927653  0.49416373  0.37437367  1
  O  O49  1  0.15927653  0.38020994  0.37437367  1
  O  O50  1  0.13020994  0.40927653  0.87437367  1
  O  O51  1  0.24416373  0.90927653  0.87437367  1
  O  O52  1  0.71509715  0.88020994  0.37437367  1
  O  O53  1  0.21509715  0.99416373  0.37437367  1
  O  O54  1  0.74416373  0.46509715  0.87437367  1
  O  O55  1  0.63020994  0.96509715  0.87437367  1
  O  O56  1  0.96268857  0.62796595  0.87197520  1
  O  O57  1  0.46268857  0.74400925  0.87197520  1
  O  O58  1  0.49400925  0.71268857  0.37197520  1
  O  O59  1  0.37796595  0.21268857  0.37197520  1
  O  O60  1  0.90928663  0.24400925  0.87197520  1
  O  O61  1  0.40928663  0.12796595  0.87197520  1
  O  O62  1  0.87796595  0.65928663  0.37197520  1
  O  O63  1  0.99400925  0.15928663  0.37197520  1
  O  O64  1  0.78281220  0.51008265  0.63337577  1
  O  O65  1  0.28281220  0.62329312  0.63337577  1
  O  O66  1  0.37329312  0.53281220  0.13337577  1
  O  O67  1  0.26008265  0.03281220  0.13337577  1
  O  O68  1  0.85056357  0.12329312  0.63337577  1
  O  O69  1  0.35056357  0.01008265  0.63337577  1
  O  O70  1  0.76008265  0.60056357  0.13337577  1
  O  O71  1  0.87329312  0.10056357  0.13337577  1
  O  O72  1  0.47816538  0.24362969  0.22238789  1
  O  O73  1  0.97816538  0.47875820  0.22238789  1
  O  O74  1  0.22875820  0.22816538  0.72238789  1
  O  O75  1  0.99362969  0.72816538  0.72238789  1
  O  O76  1  0.74422251  0.97875820  0.22238789  1
  O  O77  1  0.24422251  0.74362969  0.22238789  1
  O  O78  1  0.49362969  0.49422251  0.72238789  1
  O  O79  1  0.72875820  0.99422251  0.72238789  1
