# generated using pymatgen
data_ZnH13RuN5(Cl2O)2
_symmetry_space_group_name_H-M   'P 1'
_cell_length_a   8.13149405
_cell_length_b   9.19547993
_cell_length_c   9.64091189
_cell_angle_alpha   90.00000000
_cell_angle_beta   90.00000000
_cell_angle_gamma   116.24090109
_symmetry_Int_Tables_number   1
_chemical_formula_structural   ZnH13RuN5(Cl2O)2
_chemical_formula_sum   'Zn2 H26 Ru2 N10 Cl8 O4'
_cell_volume   646.58807774
_cell_formula_units_Z   2
loop_
 _symmetry_equiv_pos_site_id
 _symmetry_equiv_pos_as_xyz
  1  'x, y, z'
loop_
 _atom_site_type_symbol
 _atom_site_label
 _atom_site_symmetry_multiplicity
 _atom_site_fract_x
 _atom_site_fract_y
 _atom_site_fract_z
 _atom_site_occupancy
  Zn  Zn0  1  0.88902356  0.77804712  0.92029000  1
  Zn  Zn1  1  0.11097644  0.22195288  0.42029000  1
  H  H2  1  0.46615812  0.93231624  0.90634942  1
  H  H3  1  0.53384188  0.06768376  0.40634942  1
  H  H4  1  0.86557721  0.16580743  0.67301497  1
  H  H5  1  0.30023023  0.16580743  0.67301497  1
  H  H6  1  0.13442279  0.83419257  0.17301497  1
  H  H7  1  0.69976977  0.83419257  0.17301497  1
  H  H8  1  0.73988942  0.00228014  0.76437744  1
  H  H9  1  0.26239072  0.00228014  0.76437744  1
  H  H10  1  0.26011058  0.99771986  0.26437744  1
  H  H11  1  0.73760928  0.99771986  0.26437744  1
  H  H12  1  0.66048954  0.03323269  0.61449474  1
  H  H13  1  0.37274315  0.03323269  0.61449474  1
  H  H14  1  0.33951046  0.96676731  0.11449474  1
  H  H15  1  0.62725685  0.96676731  0.11449474  1
  H  H16  1  0.94990085  0.42923066  0.89775249  1
  H  H17  1  0.47932981  0.42923066  0.89775249  1
  H  H18  1  0.05009915  0.57076934  0.39775249  1
  H  H19  1  0.52067019  0.57076934  0.39775249  1
  H  H20  1  0.82723084  0.35127547  0.03787379  1
  H  H21  1  0.52404463  0.35127547  0.03787379  1
  H  H22  1  0.17276916  0.64872453  0.53787379  1
  H  H23  1  0.47595537  0.64872453  0.53787379  1
  H  H24  1  0.90770510  0.24263704  0.94966573  1
  H  H25  1  0.33493194  0.24263704  0.94966573  1
  H  H26  1  0.09229490  0.75736296  0.44966573  1
  H  H27  1  0.66506806  0.75736296  0.44966573  1
  Ru  Ru28  1  0.60953572  0.21907145  0.81204493  1
  Ru  Ru29  1  0.39046428  0.78092855  0.31204493  1
  N  N30  1  0.68688565  0.37377130  0.68632311  1
  N  N31  1  0.31311435  0.62622870  0.18632311  1
  N  N32  1  0.73267004  0.09048377  0.70248565  1
  N  N33  1  0.35781374  0.09048377  0.70248565  1
  N  N34  1  0.26732996  0.90951623  0.20248565  1
  N  N35  1  0.64218626  0.90951623  0.20248565  1
  N  N36  1  0.85146104  0.32310835  0.93931495  1
  N  N37  1  0.47164731  0.32310835  0.93931495  1
  N  N38  1  0.14853896  0.67689165  0.43931495  1
  N  N39  1  0.52835269  0.67689165  0.43931495  1
  Cl  Cl40  1  0.61249609  0.70789193  0.81717462  1
  Cl  Cl41  1  0.09539584  0.70789193  0.81717462  1
  Cl  Cl42  1  0.38750391  0.29210807  0.31717462  1
  Cl  Cl43  1  0.90460416  0.29210807  0.31717462  1
  Cl  Cl44  1  0.02687773  0.05375546  0.96079502  1
  Cl  Cl45  1  0.97312227  0.94624454  0.46079502  1
  Cl  Cl46  1  0.82539106  0.65078212  0.13427273  1
  Cl  Cl47  1  0.17460894  0.34921788  0.63427273  1
  O  O48  1  0.73253442  0.46506884  0.59368438  1
  O  O49  1  0.26746558  0.53493116  0.09368438  1
  O  O50  1  0.51963933  0.03927866  0.95045163  1
  O  O51  1  0.48036067  0.96072134  0.45045163  1
