# generated using pymatgen
data_Be3As2H10(NO5)2
_symmetry_space_group_name_H-M   'P 1'
_cell_length_a   8.81479990
_cell_length_b   10.02202273
_cell_length_c   11.34322186
_cell_angle_alpha   100.12742816
_cell_angle_beta   90.00000000
_cell_angle_gamma   90.00000000
_symmetry_Int_Tables_number   1
_chemical_formula_structural   Be3As2H10(NO5)2
_chemical_formula_sum   'Be12 As8 H40 N8 O40'
_cell_volume   986.47096421
_cell_formula_units_Z   4
loop_
 _symmetry_equiv_pos_site_id
 _symmetry_equiv_pos_as_xyz
  1  'x, y, z'
loop_
 _atom_site_type_symbol
 _atom_site_label
 _atom_site_symmetry_multiplicity
 _atom_site_fract_x
 _atom_site_fract_y
 _atom_site_fract_z
 _atom_site_occupancy
  Be  Be0  1  0.42539195  0.89566785  0.66952956  1
  Be  Be1  1  0.07460805  0.39566785  0.16952956  1
  Be  Be2  1  0.57460805  0.10433215  0.33047044  1
  Be  Be3  1  0.92539195  0.60433215  0.83047044  1
  Be  Be4  1  0.43022200  0.59382437  0.30977639  1
  Be  Be5  1  0.06977800  0.09382437  0.80977639  1
  Be  Be6  1  0.56977800  0.40617563  0.69022361  1
  Be  Be7  1  0.93022200  0.90617563  0.19022361  1
  Be  Be8  1  0.23221831  0.72845446  0.49453793  1
  Be  Be9  1  0.26778169  0.22845446  0.99453793  1
  Be  Be10  1  0.76778169  0.27154554  0.50546207  1
  Be  Be11  1  0.73221831  0.77154554  0.00546207  1
  As  As12  1  0.36841438  0.19024499  0.74366435  1
  As  As13  1  0.13158562  0.69024499  0.24366435  1
  As  As14  1  0.63158562  0.80975501  0.25633565  1
  As  As15  1  0.86841438  0.30975501  0.75633565  1
  As  As16  1  0.63723125  0.70200019  0.75337725  1
  As  As17  1  0.86276875  0.20200019  0.25337725  1
  As  As18  1  0.36276875  0.29799981  0.24662275  1
  As  As19  1  0.13723125  0.79799981  0.74662275  1
  H  H20  1  0.25525962  0.88064070  0.09117687  1
  H  H21  1  0.24474038  0.38064070  0.59117687  1
  H  H22  1  0.74474038  0.11935930  0.90882313  1
  H  H23  1  0.75525962  0.61935930  0.40882313  1
  H  H24  1  0.89100777  0.86212763  0.47693233  1
  H  H25  1  0.60899223  0.36212763  0.97693233  1
  H  H26  1  0.10899223  0.13787237  0.52306767  1
  H  H27  1  0.39100777  0.63787237  0.02306767  1
  H  H28  1  0.91553611  0.93346576  0.62542053  1
  H  H29  1  0.58446389  0.43346576  0.12542053  1
  H  H30  1  0.08446389  0.06653424  0.37457947  1
  H  H31  1  0.41553611  0.56653424  0.87457947  1
  H  H32  1  0.44579860  0.86188861  0.06837944  1
  H  H33  1  0.05420140  0.36188861  0.56837944  1
  H  H34  1  0.55420140  0.13811139  0.93162056  1
  H  H35  1  0.94579860  0.63811139  0.43162056  1
  H  H36  1  0.36293163  0.01913170  0.08459896  1
  H  H37  1  0.13706837  0.51913170  0.58459896  1
  H  H38  1  0.63706837  0.98086830  0.91540104  1
  H  H39  1  0.86293163  0.48086830  0.41540104  1
  H  H40  1  0.33386718  0.90453990  0.95803052  1
  H  H41  1  0.16613282  0.40453990  0.45803052  1
  H  H42  1  0.66613282  0.09546010  0.04196948  1
  H  H43  1  0.83386718  0.59546010  0.54196948  1
  H  H44  1  0.80134966  0.00703827  0.52760188  1
  H  H45  1  0.69865034  0.50703827  0.02760188  1
  H  H46  1  0.19865034  0.99296173  0.47239812  1
  H  H47  1  0.30134966  0.49296173  0.97239812  1
  H  H48  1  0.43175384  0.61213661  0.50169687  1
  H  H49  1  0.06824616  0.11213661  0.00169687  1
  H  H50  1  0.56824616  0.38786339  0.49830313  1
  H  H51  1  0.93175384  0.88786339  0.99830313  1
  H  H52  1  0.74576281  0.86658698  0.57833842  1
  H  H53  1  0.75423719  0.36658698  0.07833842  1
  H  H54  1  0.25423719  0.13341302  0.42166158  1
  H  H55  1  0.24576281  0.63341302  0.92166158  1
  H  H56  1  0.40540970  0.87892772  0.47712353  1
  H  H57  1  0.09459030  0.37892772  0.97712353  1
  H  H58  1  0.59459030  0.12107228  0.52287647  1
  H  H59  1  0.90540970  0.62107228  0.02287647  1
  N  N60  1  0.34967446  0.91574231  0.04989504  1
  N  N61  1  0.15032554  0.41574231  0.54989504  1
  N  N62  1  0.65032554  0.08425769  0.95010496  1
  N  N63  1  0.84967446  0.58425769  0.45010496  1
  N  N64  1  0.83996228  0.91763957  0.55164925  1
  N  N65  1  0.66003772  0.41763957  0.05164925  1
  N  N66  1  0.16003772  0.08236043  0.44835075  1
  N  N67  1  0.33996228  0.58236043  0.94835075  1
  O  O68  1  0.35072991  0.60542350  0.44276485  1
  O  O69  1  0.14927009  0.10542350  0.94276485  1
  O  O70  1  0.64927009  0.39457650  0.55723515  1
  O  O71  1  0.85072991  0.89457650  0.05723515  1
  O  O72  1  0.33143676  0.86803024  0.53907216  1
  O  O73  1  0.16856324  0.36803024  0.03907216  1
  O  O74  1  0.66856324  0.13196976  0.46092784  1
  O  O75  1  0.83143676  0.63196976  0.96092784  1
  O  O76  1  0.13220543  0.69660073  0.60767878  1
  O  O77  1  0.36779457  0.19660073  0.10767878  1
  O  O78  1  0.86779457  0.30339927  0.39232122  1
  O  O79  1  0.63220543  0.80339927  0.89232122  1
  O  O80  1  0.58171975  0.79771179  0.64906389  1
  O  O81  1  0.91828025  0.29771179  0.14906389  1
  O  O82  1  0.41828025  0.20228821  0.35093611  1
  O  O83  1  0.08171975  0.70228821  0.85093611  1
  O  O84  1  0.10134898  0.74214937  0.39566415  1
  O  O85  1  0.39865102  0.24214937  0.89566415  1
  O  O86  1  0.89865102  0.25785063  0.60433585  1
  O  O87  1  0.60134898  0.75785063  0.10433585  1
  O  O88  1  0.51911432  0.56407602  0.74894672  1
  O  O89  1  0.98088568  0.06407602  0.24894672  1
  O  O90  1  0.48088568  0.43592398  0.25105328  1
  O  O91  1  0.01911432  0.93592398  0.75105328  1
  O  O92  1  0.48414904  0.05365983  0.69417579  1
  O  O93  1  0.01585096  0.55365983  0.19417579  1
  O  O94  1  0.51585096  0.94634017  0.30582421  1
  O  O95  1  0.98414904  0.44634017  0.80582421  1
  O  O96  1  0.40877511  0.32155109  0.66991566  1
  O  O97  1  0.09122489  0.82155109  0.16991566  1
  O  O98  1  0.59122489  0.67844891  0.33008434  1
  O  O99  1  0.90877511  0.17844891  0.83008434  1
  O  O100  1  0.31991967  0.85395115  0.77816426  1
  O  O101  1  0.18008033  0.35395115  0.27816426  1
  O  O102  1  0.68008033  0.14604885  0.22183574  1
  O  O103  1  0.81991967  0.64604885  0.72183574  1
  O  O104  1  0.18007128  0.15517955  0.71732086  1
  O  O105  1  0.31992872  0.65517955  0.21732086  1
  O  O106  1  0.81992872  0.84482045  0.28267914  1
  O  O107  1  0.68007128  0.34482045  0.78267914  1
