# generated using pymatgen
data_NaSrPH18SO12
_symmetry_space_group_name_H-M   'P 1'
_cell_length_a   11.00658084
_cell_length_b   11.00658084
_cell_length_c   11.00658084
_cell_angle_alpha   90.00000000
_cell_angle_beta   90.00000000
_cell_angle_gamma   90.00000000
_symmetry_Int_Tables_number   1
_chemical_formula_structural   NaSrPH18SO12
_chemical_formula_sum   'Na4 Sr4 P4 H72 S4 O48'
_cell_volume   1333.39027435
_cell_formula_units_Z   4
loop_
 _symmetry_equiv_pos_site_id
 _symmetry_equiv_pos_as_xyz
  1  'x, y, z'
loop_
 _atom_site_type_symbol
 _atom_site_label
 _atom_site_symmetry_multiplicity
 _atom_site_fract_x
 _atom_site_fract_y
 _atom_site_fract_z
 _atom_site_occupancy
  Na  Na0  1  0.43386193  0.93386193  0.56613807  1
  Na  Na1  1  0.93386193  0.56613807  0.43386193  1
  Na  Na2  1  0.56613807  0.43386193  0.93386193  1
  Na  Na3  1  0.06613807  0.06613807  0.06613807  1
  Sr  Sr4  1  0.18933678  0.81066322  0.31066322  1
  Sr  Sr5  1  0.68933678  0.68933678  0.68933678  1
  Sr  Sr6  1  0.31066322  0.18933678  0.81066322  1
  Sr  Sr7  1  0.81066322  0.31066322  0.18933678  1
  P  P8  1  0.69323656  0.80676344  0.19323656  1
  P  P9  1  0.80676344  0.19323656  0.69323656  1
  P  P10  1  0.30676344  0.30676344  0.30676344  1
  P  P11  1  0.19323656  0.69323656  0.80676344  1
  H  H12  1  0.27110487  0.82778193  0.01930607  1
  H  H13  1  0.98069393  0.77110487  0.67221807  1
  H  H14  1  0.32778193  0.48069393  0.72889513  1
  H  H15  1  0.77110487  0.67221807  0.98069393  1
  H  H16  1  0.48069393  0.72889513  0.32778193  1
  H  H17  1  0.82778193  0.01930607  0.27110487  1
  H  H18  1  0.72889513  0.32778193  0.48069393  1
  H  H19  1  0.01930607  0.27110487  0.82778193  1
  H  H20  1  0.67221807  0.98069393  0.77110487  1
  H  H21  1  0.22889513  0.17221807  0.51930607  1
  H  H22  1  0.51930607  0.22889513  0.17221807  1
  H  H23  1  0.17221807  0.51930607  0.22889513  1
  H  H24  1  0.39001970  0.84868720  0.09983827  1
  H  H25  1  0.90016173  0.89001970  0.65131280  1
  H  H26  1  0.34868720  0.40016173  0.60998030  1
  H  H27  1  0.89001970  0.65131280  0.90016173  1
  H  H28  1  0.40016173  0.60998030  0.34868720  1
  H  H29  1  0.84868720  0.09983827  0.39001970  1
  H  H30  1  0.60998030  0.34868720  0.40016173  1
  H  H31  1  0.09983827  0.39001970  0.84868720  1
  H  H32  1  0.65131280  0.90016173  0.89001970  1
  H  H33  1  0.10998030  0.15131280  0.59983827  1
  H  H34  1  0.59983827  0.10998030  0.15131280  1
  H  H35  1  0.15131280  0.59983827  0.10998030  1
  H  H36  1  0.39994415  0.68255486  0.67047472  1
  H  H37  1  0.32952528  0.89994415  0.81744514  1
  H  H38  1  0.18255486  0.82952528  0.60005585  1
  H  H39  1  0.89994415  0.81744514  0.32952528  1
  H  H40  1  0.82952528  0.60005585  0.18255486  1
  H  H41  1  0.68255486  0.67047472  0.39994415  1
  H  H42  1  0.60005585  0.18255486  0.82952528  1
  H  H43  1  0.67047472  0.39994415  0.68255486  1
  H  H44  1  0.81744514  0.32952528  0.89994415  1
  H  H45  1  0.10005585  0.31744514  0.17047472  1
  H  H46  1  0.17047472  0.10005585  0.31744514  1
  H  H47  1  0.31744514  0.17047472  0.10005585  1
  H  H48  1  0.43696760  0.69319105  0.53040946  1
  H  H49  1  0.46959054  0.93696760  0.80680895  1
  H  H50  1  0.19319105  0.96959054  0.56303240  1
  H  H51  1  0.93696760  0.80680895  0.46959054  1
  H  H52  1  0.96959054  0.56303240  0.19319105  1
  H  H53  1  0.69319105  0.53040946  0.43696760  1
  H  H54  1  0.56303240  0.19319105  0.96959054  1
  H  H55  1  0.53040946  0.43696760  0.69319105  1
  H  H56  1  0.80680895  0.46959054  0.93696760  1
  H  H57  1  0.06303240  0.30680895  0.03040946  1
  H  H58  1  0.03040946  0.06303240  0.30680895  1
  H  H59  1  0.30680895  0.03040946  0.06303240  1
  H  H60  1  0.04074550  0.79102409  0.04241139  1
  H  H61  1  0.95758861  0.54074550  0.70897591  1
  H  H62  1  0.29102409  0.45758861  0.95925450  1
  H  H63  1  0.54074550  0.70897591  0.95758861  1
  H  H64  1  0.45758861  0.95925450  0.29102409  1
  H  H65  1  0.79102409  0.04241139  0.04074550  1
  H  H66  1  0.95925450  0.29102409  0.45758861  1
  H  H67  1  0.04241139  0.04074550  0.79102409  1
  H  H68  1  0.70897591  0.95758861  0.54074550  1
  H  H69  1  0.45925450  0.20897591  0.54241139  1
  H  H70  1  0.54241139  0.45925450  0.20897591  1
  H  H71  1  0.20897591  0.54241139  0.45925450  1
  H  H72  1  0.94609847  0.84949211  0.13523430  1
  H  H73  1  0.86476570  0.44609847  0.65050789  1
  H  H74  1  0.34949211  0.36476570  0.05390153  1
  H  H75  1  0.44609847  0.65050789  0.86476570  1
  H  H76  1  0.36476570  0.05390153  0.34949211  1
  H  H77  1  0.84949211  0.13523430  0.94609847  1
  H  H78  1  0.05390153  0.34949211  0.36476570  1
  H  H79  1  0.13523430  0.94609847  0.84949211  1
  H  H80  1  0.65050789  0.86476570  0.44609847  1
  H  H81  1  0.55390153  0.15050789  0.63523430  1
  H  H82  1  0.63523430  0.55390153  0.15050789  1
  H  H83  1  0.15050789  0.63523430  0.55390153  1
  S  S84  1  0.58518031  0.91481969  0.08518031  1
  S  S85  1  0.91481969  0.08518031  0.58518031  1
  S  S86  1  0.41481969  0.41481969  0.41481969  1
  S  S87  1  0.08518031  0.58518031  0.91481969  1
  O  O88  1  0.30036637  0.85465146  0.10141940  1
  O  O89  1  0.89858060  0.80036637  0.64534854  1
  O  O90  1  0.35465146  0.39858060  0.69963363  1
  O  O91  1  0.80036637  0.64534854  0.89858060  1
  O  O92  1  0.39858060  0.69963363  0.35465146  1
  O  O93  1  0.85465146  0.10141940  0.30036637  1
  O  O94  1  0.69963363  0.35465146  0.39858060  1
  O  O95  1  0.10141940  0.30036637  0.85465146  1
  O  O96  1  0.64534854  0.89858060  0.80036637  1
  O  O97  1  0.19963363  0.14534854  0.60141940  1
  O  O98  1  0.60141940  0.19963363  0.14534854  1
  O  O99  1  0.14534854  0.60141940  0.19963363  1
  O  O100  1  0.46282571  0.71547525  0.61301079  1
  O  O101  1  0.38698921  0.96282571  0.78452475  1
  O  O102  1  0.21547525  0.88698921  0.53717429  1
  O  O103  1  0.96282571  0.78452475  0.38698921  1
  O  O104  1  0.88698921  0.53717429  0.21547525  1
  O  O105  1  0.71547525  0.61301079  0.46282571  1
  O  O106  1  0.53717429  0.21547525  0.88698921  1
  O  O107  1  0.61301079  0.46282571  0.71547525  1
  O  O108  1  0.78452475  0.38698921  0.96282571  1
  O  O109  1  0.03717429  0.28452475  0.11301079  1
  O  O110  1  0.11301079  0.03717429  0.28452475  1
  O  O111  1  0.28452475  0.11301079  0.03717429  1
  O  O112  1  0.03276647  0.85048722  0.10783349  1
  O  O113  1  0.89216651  0.53276647  0.64951278  1
  O  O114  1  0.35048722  0.39216651  0.96723353  1
  O  O115  1  0.53276647  0.64951278  0.89216651  1
  O  O116  1  0.39216651  0.96723353  0.35048722  1
  O  O117  1  0.85048722  0.10783349  0.03276647  1
  O  O118  1  0.96723353  0.35048722  0.39216651  1
  O  O119  1  0.10783349  0.03276647  0.85048722  1
  O  O120  1  0.64951278  0.89216651  0.53276647  1
  O  O121  1  0.46723353  0.14951278  0.60783349  1
  O  O122  1  0.60783349  0.46723353  0.14951278  1
  O  O123  1  0.14951278  0.60783349  0.46723353  1
  O  O124  1  0.21787666  0.81476112  0.87429515  1
  O  O125  1  0.12570485  0.71787666  0.68523888  1
  O  O126  1  0.31476112  0.62570485  0.78212334  1
  O  O127  1  0.71787666  0.68523888  0.12570485  1
  O  O128  1  0.62570485  0.78212334  0.31476112  1
  O  O129  1  0.81476112  0.87429515  0.21787666  1
  O  O130  1  0.78212334  0.31476112  0.62570485  1
  O  O131  1  0.87429515  0.21787666  0.81476112  1
  O  O132  1  0.68523888  0.12570485  0.71787666  1
  O  O133  1  0.28212334  0.18523888  0.37429515  1
  O  O134  1  0.37429515  0.28212334  0.18523888  1
  O  O135  1  0.18523888  0.37429515  0.28212334  1
