# generated using pymatgen
data_Hg8Br3O4
_symmetry_space_group_name_H-M   'P 1'
_cell_length_a   6.52432526
_cell_length_b   6.93628643
_cell_length_c   40.02092655
_cell_angle_alpha   99.33777817
_cell_angle_beta   90.00000000
_cell_angle_gamma   90.00000000
_symmetry_Int_Tables_number   1
_chemical_formula_structural   Hg8Br3O4
_chemical_formula_sum   'Hg32 Br12 O16'
_cell_volume   1787.13118778
_cell_formula_units_Z   4
loop_
 _symmetry_equiv_pos_site_id
 _symmetry_equiv_pos_as_xyz
  1  'x, y, z'
loop_
 _atom_site_type_symbol
 _atom_site_label
 _atom_site_symmetry_multiplicity
 _atom_site_fract_x
 _atom_site_fract_y
 _atom_site_fract_z
 _atom_site_occupancy
  Hg  Hg0  1  0.68952897  0.69404293  0.17122828  1
  Hg  Hg1  1  0.26684428  0.88990718  0.23623171  1
  Hg  Hg2  1  0.85818193  0.64928139  0.38927090  1
  Hg  Hg3  1  0.38777843  0.14991280  0.18322276  1
  Hg  Hg4  1  0.18952897  0.80595707  0.32877172  1
  Hg  Hg5  1  0.57637383  0.58030659  0.62876807  1
  Hg  Hg6  1  0.24493203  0.47567926  0.10849176  1
  Hg  Hg7  1  0.64181807  0.14928139  0.88927090  1
  Hg  Hg8  1  0.42362617  0.41969341  0.37123193  1
  Hg  Hg9  1  0.14181807  0.35071861  0.61072910  1
  Hg  Hg10  1  0.75506797  0.52432074  0.89150824  1
  Hg  Hg11  1  0.11222157  0.64991280  0.68322276  1
  Hg  Hg12  1  0.88777843  0.35008720  0.31677724  1
  Hg  Hg13  1  0.07637383  0.91969341  0.87123193  1
  Hg  Hg14  1  0.80755829  0.53147017  0.49232578  1
  Hg  Hg15  1  0.69244171  0.03147017  0.99232578  1
  Hg  Hg16  1  0.26710454  0.89743081  0.75757377  1
  Hg  Hg17  1  0.73289546  0.10256919  0.24242623  1
  Hg  Hg18  1  0.19244171  0.46852983  0.50767422  1
  Hg  Hg19  1  0.76684428  0.61009282  0.26376829  1
  Hg  Hg20  1  0.92362617  0.08030659  0.12876807  1
  Hg  Hg21  1  0.35818193  0.85071861  0.11072910  1
  Hg  Hg22  1  0.81047103  0.19404293  0.67122828  1
  Hg  Hg23  1  0.73315572  0.11009282  0.76376829  1
  Hg  Hg24  1  0.23289546  0.39743081  0.25757377  1
  Hg  Hg25  1  0.76710454  0.60256919  0.74242623  1
  Hg  Hg26  1  0.61222157  0.85008720  0.81677724  1
  Hg  Hg27  1  0.30755829  0.96852983  0.00767422  1
  Hg  Hg28  1  0.74493203  0.02432074  0.39150824  1
  Hg  Hg29  1  0.23315572  0.38990718  0.73623171  1
  Hg  Hg30  1  0.25506797  0.97567926  0.60849176  1
  Hg  Hg31  1  0.31047103  0.30595707  0.82877172  1
  Br  Br32  1  0.25795210  0.52990591  0.88870377  1
  Br  Br33  1  0.01275848  0.15905581  0.96507015  1
  Br  Br34  1  0.90439421  0.42666532  0.81095422  1
  Br  Br35  1  0.48724152  0.65905581  0.46507015  1
  Br  Br36  1  0.24204790  0.02990591  0.38870377  1
  Br  Br37  1  0.98724152  0.84094419  0.03492985  1
  Br  Br38  1  0.74204790  0.47009409  0.11129623  1
  Br  Br39  1  0.40439421  0.07333468  0.68904578  1
  Br  Br40  1  0.09560579  0.57333468  0.18904578  1
  Br  Br41  1  0.51275848  0.34094419  0.53492985  1
  Br  Br42  1  0.75795210  0.97009409  0.61129623  1
  Br  Br43  1  0.59560579  0.92666532  0.31095422  1
  O  O44  1  0.44113079  0.62147872  0.75836907  1
  O  O45  1  0.71483928  0.32899900  0.38335976  1
  O  O46  1  0.65449077  0.97253755  0.14330040  1
  O  O47  1  0.34550923  0.02746245  0.85669960  1
  O  O48  1  0.40455103  0.19863974  0.77685067  1
  O  O49  1  0.55886921  0.37852128  0.24163093  1
  O  O50  1  0.21483928  0.17100100  0.11664024  1
  O  O51  1  0.84550923  0.47253755  0.64330040  1
  O  O52  1  0.15449077  0.52746245  0.35669960  1
  O  O53  1  0.59544897  0.80136026  0.22314933  1
  O  O54  1  0.28516072  0.67100100  0.61664024  1
  O  O55  1  0.90455103  0.30136026  0.72314933  1
  O  O56  1  0.94113079  0.87852128  0.74163093  1
  O  O57  1  0.05886921  0.12147872  0.25836907  1
  O  O58  1  0.09544897  0.69863974  0.27685067  1
  O  O59  1  0.78516072  0.82899900  0.88335976  1
