# generated using pymatgen
data_Sn4H26(Br4O5)3
_symmetry_space_group_name_H-M   'P 1'
_cell_length_a   10.26195084
_cell_length_b   14.45478472
_cell_length_c   14.91332641
_cell_angle_alpha   65.43080441
_cell_angle_beta   69.49526851
_cell_angle_gamma   74.47246144
_symmetry_Int_Tables_number   1
_chemical_formula_structural   Sn4H26(Br4O5)3
_chemical_formula_sum   'Sn8 H52 Br24 O30'
_cell_volume   1864.95872324
_cell_formula_units_Z   2
loop_
 _symmetry_equiv_pos_site_id
 _symmetry_equiv_pos_as_xyz
  1  'x, y, z'
loop_
 _atom_site_type_symbol
 _atom_site_label
 _atom_site_symmetry_multiplicity
 _atom_site_fract_x
 _atom_site_fract_y
 _atom_site_fract_z
 _atom_site_occupancy
  Sn  Sn0  1  0.74007024  0.81683058  0.57782417  1
  Sn  Sn1  1  0.25992976  0.18316942  0.42217583  1
  Sn  Sn2  1  0.75596048  0.68095468  0.43187721  1
  Sn  Sn3  1  0.24403952  0.31904532  0.56812279  1
  Sn  Sn4  1  0.64581549  0.06050703  0.92801740  1
  Sn  Sn5  1  0.35418451  0.93949297  0.07198260  1
  Sn  Sn6  1  0.14849057  0.55913382  0.93418138  1
  Sn  Sn7  1  0.85150943  0.44086618  0.06581862  1
  H  H8  1  0.59981200  0.68928625  0.77812130  1
  H  H9  1  0.40018800  0.31071375  0.22187870  1
  H  H10  1  0.62981704  0.63191088  0.69420512  1
  H  H11  1  0.37018296  0.36808912  0.30579488  1
  H  H12  1  0.52362991  0.80056951  0.51304207  1
  H  H13  1  0.47637009  0.19943049  0.48695793  1
  H  H14  1  0.97236372  0.69677422  0.49519224  1
  H  H15  1  0.02763628  0.30322578  0.50480776  1
  H  H16  1  0.89441312  0.81263361  0.23267491  1
  H  H17  1  0.10558688  0.18736639  0.76732509  1
  H  H18  1  0.85433712  0.87146348  0.31477609  1
  H  H19  1  0.14566288  0.12853652  0.68522391  1
  H  H20  1  0.66177760  0.07600585  0.72749699  1
  H  H21  1  0.33822240  0.92399415  0.27250301  1
  H  H22  1  0.53309463  0.01075615  0.81048022  1
  H  H23  1  0.46690537  0.98924385  0.18951978  1
  H  H24  1  0.35904748  0.14915794  0.97193485  1
  H  H25  1  0.64095252  0.85084206  0.02806515  1
  H  H26  1  0.16874902  0.57429055  0.73124994  1
  H  H27  1  0.83125098  0.42570945  0.26875006  1
  H  H28  1  0.01040604  0.55205240  0.80641753  1
  H  H29  1  0.98959396  0.44794760  0.19358247  1
  H  H30  1  0.87285767  0.64535614  0.00605400  1
  H  H31  1  0.12714233  0.35464386  0.99394600  1
  H  H32  1  0.83803676  0.76960879  0.07838190  1
  H  H33  1  0.16196324  0.23039121  0.92161810  1
  H  H34  1  0.71425066  0.70517646  0.13537611  1
  H  H35  1  0.28574934  0.29482354  0.86462389  1
  H  H36  1  0.14028608  0.93654538  0.38925830  1
  H  H37  1  0.85971392  0.06345462  0.61074170  1
  H  H38  1  0.26368269  0.87197307  0.44144703  1
  H  H39  1  0.73631731  0.12802693  0.55855297  1
  H  H40  1  0.32069927  0.73905059  0.58449278  1
  H  H41  1  0.67930073  0.26094941  0.41550722  1
  H  H42  1  0.30962091  0.84684951  0.59351345  1
  H  H43  1  0.69037909  0.15315049  0.40648655  1
  H  H44  1  0.05123856  0.74078778  0.12056164  1
  H  H45  1  0.94876144  0.25921222  0.87943836  1
  H  H46  1  0.01490028  0.85872336  0.06267622  1
  H  H47  1  0.98509972  0.14127664  0.93732378  1
  H  H48  1  0.23070486  0.63000795  0.56188329  1
  H  H49  1  0.76929514  0.36999205  0.43811671  1
  H  H50  1  0.35789787  0.56371137  0.61064912  1
  H  H51  1  0.64210213  0.43628863  0.38935088  1
  H  H52  1  0.82214647  0.24327478  0.58054916  1
  H  H53  1  0.17785353  0.75672522  0.41945084  1
  H  H54  1  0.81178910  0.35353694  0.58465823  1
  H  H55  1  0.18821090  0.64646306  0.41534177  1
  H  H56  1  0.53178276  0.64140608  0.94722870  1
  H  H57  1  0.46821724  0.35859392  0.05277130  1
  H  H58  1  0.45024731  0.74961176  0.89547332  1
  H  H59  1  0.54975269  0.25038824  0.10452668  1
  Br  Br60  1  0.85373480  0.96548910  0.41019237  1
  Br  Br61  1  0.14626520  0.03451090  0.58980763  1
  Br  Br62  1  0.91068579  0.80587937  0.67310229  1
  Br  Br63  1  0.08931421  0.19412063  0.32689771  1
  Br  Br64  1  0.52944236  0.93393629  0.64615687  1
  Br  Br65  1  0.47055764  0.06606371  0.35384313  1
  Br  Br66  1  0.58579661  0.68720766  0.33700821  1
  Br  Br67  1  0.41420339  0.31279234  0.66299179  1
  Br  Br68  1  0.64479996  0.53070352  0.59679018  1
  Br  Br69  1  0.35520004  0.46929648  0.40320982  1
  Br  Br70  1  0.96884485  0.57122704  0.35572839  1
  Br  Br71  1  0.03115515  0.42877296  0.64427161  1
  Br  Br72  1  0.67104060  0.25055268  0.82447190  1
  Br  Br73  1  0.32895940  0.74944732  0.17552810  1
  Br  Br74  1  0.69331783  0.06242849  0.08857411  1
  Br  Br75  1  0.30668217  0.93757151  0.91142589  1
  Br  Br76  1  0.89814641  0.97975255  0.86237210  1
  Br  Br77  1  0.10185359  0.02024745  0.13762790  1
  Br  Br78  1  0.18669257  0.55860085  0.09805902  1
  Br  Br79  1  0.81330743  0.44139915  0.90194098  1
  Br  Br80  1  0.17509507  0.74821781  0.83085706  1
  Br  Br81  1  0.82490493  0.25178219  0.16914294  1
  Br  Br82  1  0.40037951  0.47492080  0.87181758  1
  Br  Br83  1  0.59962049  0.52507920  0.12818242  1
  O  O84  1  0.65625474  0.68473331  0.70761766  1
  O  O85  1  0.34374526  0.31526669  0.29238234  1
  O  O86  1  0.62942659  0.79288372  0.49334705  1
  O  O87  1  0.37057341  0.20711628  0.50665295  1
  O  O88  1  0.86687703  0.70444084  0.51525753  1
  O  O89  1  0.13312297  0.29555916  0.48474247  1
  O  O90  1  0.83114919  0.81825066  0.29952256  1
  O  O91  1  0.16885081  0.18174934  0.70047744  1
  O  O92  1  0.59020535  0.06237486  0.79727119  1
  O  O93  1  0.40979465  0.93762514  0.20272881  1
  O  O94  1  0.42561349  0.08476864  0.99488960  1
  O  O95  1  0.57438651  0.91523136  0.00511040  1
  O  O96  1  0.10962547  0.54389008  0.80454149  1
  O  O97  1  0.89037453  0.45610992  0.19545851  1
  O  O98  1  0.92432478  0.58717796  0.98214405  1
  O  O99  1  0.07567522  0.41282204  0.01785595  1
  O  O100  1  0.76675453  0.74459532  0.06638477  1
  O  O101  1  0.23324547  0.25540468  0.93361523  1
  O  O102  1  0.22464191  0.88555174  0.38386694  1
  O  O103  1  0.77535809  0.11444826  0.61613306  1
  O  O104  1  0.34807299  0.80926095  0.54617361  1
  O  O105  1  0.65192701  0.19073905  0.45382639  1
  O  O106  1  0.97382024  0.79824093  0.11643440  1
  O  O107  1  0.02617976  0.20175907  0.88356560  1
  O  O108  1  0.27367953  0.61471725  0.61821769  1
  O  O109  1  0.72632047  0.38528275  0.38178231  1
  O  O110  1  0.84991825  0.31305521  0.53984538  1
  O  O111  1  0.15008175  0.68694479  0.46015462  1
  O  O112  1  0.53553072  0.70107464  0.88362829  1
  O  O113  1  0.46446928  0.29892536  0.11637171  1
