# generated using pymatgen
data_RbNb4Br11
_symmetry_space_group_name_H-M   'P 1'
_cell_length_a   7.39359652
_cell_length_b   7.42288890
_cell_length_c   17.11091381
_cell_angle_alpha   90.00000000
_cell_angle_beta   90.00000000
_cell_angle_gamma   90.00000000
_symmetry_Int_Tables_number   1
_chemical_formula_structural   RbNb4Br11
_chemical_formula_sum   'Rb2 Nb8 Br22'
_cell_volume   939.07852876
_cell_formula_units_Z   2
loop_
 _symmetry_equiv_pos_site_id
 _symmetry_equiv_pos_as_xyz
  1  'x, y, z'
loop_
 _atom_site_type_symbol
 _atom_site_label
 _atom_site_symmetry_multiplicity
 _atom_site_fract_x
 _atom_site_fract_y
 _atom_site_fract_z
 _atom_site_occupancy
  Rb  Rb0  1  0.99713099  0.50000000  0.75000000  1
  Rb  Rb1  1  0.00286901  0.50000000  0.25000000  1
  Nb  Nb2  1  0.61609238  0.00000000  0.86061863  1
  Nb  Nb3  1  0.38390762  0.00000000  0.13938137  1
  Nb  Nb4  1  0.61609238  0.00000000  0.63938137  1
  Nb  Nb5  1  0.38390762  0.00000000  0.36061863  1
  Nb  Nb6  1  0.50000000  0.79195623  0.00000000  1
  Nb  Nb7  1  0.50000000  0.79195623  0.50000000  1
  Nb  Nb8  1  0.50000000  0.20804377  0.00000000  1
  Nb  Nb9  1  0.50000000  0.20804377  0.50000000  1
  Br  Br10  1  0.28747492  0.00000000  0.91386616  1
  Br  Br11  1  0.71252508  0.00000000  0.08613384  1
  Br  Br12  1  0.28747492  0.00000000  0.58613384  1
  Br  Br13  1  0.71252508  0.00000000  0.41386616  1
  Br  Br14  1  0.80973110  0.25282960  0.92160669  1
  Br  Br15  1  0.19026890  0.25282960  0.07839331  1
  Br  Br16  1  0.80973110  0.25282960  0.57839331  1
  Br  Br17  1  0.19026890  0.25282960  0.42160669  1
  Br  Br18  1  0.19026890  0.74717040  0.07839331  1
  Br  Br19  1  0.80973110  0.74717040  0.92160669  1
  Br  Br20  1  0.19026890  0.74717040  0.42160669  1
  Br  Br21  1  0.80973110  0.74717040  0.57839331  1
  Br  Br22  1  0.63309340  0.50000000  0.08403956  1
  Br  Br23  1  0.36690660  0.50000000  0.91596044  1
  Br  Br24  1  0.63309340  0.50000000  0.41596044  1
  Br  Br25  1  0.36690660  0.50000000  0.58403956  1
  Br  Br26  1  0.89763216  0.00000000  0.75000000  1
  Br  Br27  1  0.10236784  0.00000000  0.25000000  1
  Br  Br28  1  0.48483021  0.76560584  0.75000000  1
  Br  Br29  1  0.51516979  0.76560584  0.25000000  1
  Br  Br30  1  0.51516979  0.23439416  0.25000000  1
  Br  Br31  1  0.48483021  0.23439416  0.75000000  1
