# generated using pymatgen
data_NaNpH2SeO7
_symmetry_space_group_name_H-M   'P 1'
_cell_length_a   5.84738650
_cell_length_b   9.87600755
_cell_length_c   24.38864092
_cell_angle_alpha   79.31877496
_cell_angle_beta   83.11486319
_cell_angle_gamma   72.78008936
_symmetry_Int_Tables_number   1
_chemical_formula_structural   NaNpH2SeO7
_chemical_formula_sum   'Na8 Np8 H16 Se8 O56'
_cell_volume   1318.80054499
_cell_formula_units_Z   8
loop_
 _symmetry_equiv_pos_site_id
 _symmetry_equiv_pos_as_xyz
  1  'x, y, z'
loop_
 _atom_site_type_symbol
 _atom_site_label
 _atom_site_symmetry_multiplicity
 _atom_site_fract_x
 _atom_site_fract_y
 _atom_site_fract_z
 _atom_site_occupancy
  Na  Na0  1  0.97647906  0.99314686  0.57614609  1
  Na  Na1  1  0.54577200  0.50685314  0.92385391  1
  Na  Na2  1  0.02352094  0.00685314  0.42385391  1
  Na  Na3  1  0.45422800  0.49314686  0.07614609  1
  Na  Na4  1  0.36467143  0.25000000  0.75000000  1
  Na  Na5  1  0.63532857  0.75000000  0.25000000  1
  Na  Na6  1  0.50000000  0.50000000  0.50000000  1
  Na  Na7  1  0.50000000  0.00000000  0.00000000  1
  Np  Np8  1  0.96988052  0.44503996  0.63853015  1
  Np  Np9  1  0.05345063  0.05496004  0.86146985  1
  Np  Np10  1  0.03011948  0.55496004  0.36146985  1
  Np  Np11  1  0.94654937  0.94503996  0.13853015  1
  Np  Np12  1  0.71961020  0.79540762  0.80796882  1
  Np  Np13  1  0.32298664  0.70459238  0.69203118  1
  Np  Np14  1  0.28038980  0.20459238  0.19203118  1
  Np  Np15  1  0.67701336  0.29540762  0.30796882  1
  H  H16  1  0.98112635  0.56584198  0.90582817  1
  H  H17  1  0.45279650  0.93415802  0.59417183  1
  H  H18  1  0.01887365  0.43415802  0.09417183  1
  H  H19  1  0.54720350  0.06584198  0.40582817  1
  H  H20  1  0.20900086  0.35300047  0.94906020  1
  H  H21  1  0.51106153  0.14699953  0.55093980  1
  H  H22  1  0.79099914  0.64699953  0.05093980  1
  H  H23  1  0.48893847  0.85300047  0.44906020  1
  H  H24  1  0.83929891  0.70446350  0.93394111  1
  H  H25  1  0.47770353  0.79553650  0.56605889  1
  H  H26  1  0.16070109  0.29553650  0.06605889  1
  H  H27  1  0.52229647  0.20446350  0.43394111  1
  H  H28  1  0.23573246  0.34906373  0.88575304  1
  H  H29  1  0.47054924  0.15093627  0.61424696  1
  H  H30  1  0.76426754  0.65093627  0.11424696  1
  H  H31  1  0.52945076  0.84906373  0.38575304  1
  Se  Se32  1  0.92791129  0.70590535  0.50052806  1
  Se  Se33  1  0.13434469  0.79409465  0.99947194  1
  Se  Se34  1  0.07208871  0.29409465  0.49947194  1
  Se  Se35  1  0.86565531  0.20590535  0.00052806  1
  Se  Se36  1  0.92630588  0.07422671  0.71528889  1
  Se  Se37  1  0.71582149  0.42577329  0.78471111  1
  Se  Se38  1  0.07369412  0.92577329  0.28471111  1
  Se  Se39  1  0.28417851  0.57422671  0.21528889  1
  O  O40  1  0.24316929  0.17778270  0.85498319  1
  O  O41  1  0.27593518  0.32221730  0.64501681  1
  O  O42  1  0.75683071  0.82221730  0.14501681  1
  O  O43  1  0.72406482  0.67778270  0.35498319  1
  O  O44  1  0.08927363  0.57665271  0.54773947  1
  O  O45  1  0.21366582  0.92334729  0.95226053  1
  O  O46  1  0.91072637  0.42334729  0.45226053  1
  O  O47  1  0.78633418  0.07665271  0.04773947  1
  O  O48  1  0.95830776  0.42492458  0.74002373  1
  O  O49  1  0.12325606  0.07507542  0.75997627  1
  O  O50  1  0.04169224  0.57507542  0.25997627  1
  O  O51  1  0.87674394  0.92492458  0.24002373  1
  O  O52  1  0.15244973  0.20248680  0.00486322  1
  O  O53  1  0.35979975  0.29751320  0.49513678  1
  O  O54  1  0.84755027  0.79751320  0.99513678  1
  O  O55  1  0.64020025  0.70248680  0.50486322  1
  O  O56  1  0.11351465  0.63816517  0.65885732  1
  O  O57  1  0.41053714  0.86183483  0.84114268  1
  O  O58  1  0.88648535  0.36183483  0.34114268  1
  O  O59  1  0.58946286  0.13816517  0.15885732  1
  O  O60  1  0.92852596  0.86784337  0.50972820  1
  O  O61  1  0.30609753  0.63215663  0.99027180  1
  O  O62  1  0.07147404  0.13215663  0.49027180  1
  O  O63  1  0.69390247  0.36784337  0.00972820  1
  O  O64  1  0.02908461  0.73598017  0.77323922  1
  O  O65  1  0.53830400  0.76401983  0.72676078  1
  O  O66  1  0.97091539  0.26401983  0.22676078  1
  O  O67  1  0.46169600  0.23598017  0.27323922  1
  O  O68  1  0.83169954  0.64875714  0.90484373  1
  O  O69  1  0.38530041  0.85124286  0.59515627  1
  O  O70  1  0.16830046  0.35124286  0.09515627  1
  O  O71  1  0.61469959  0.14875714  0.40484373  1
  O  O72  1  0.06536161  0.95908479  0.67147514  1
  O  O73  1  0.69592154  0.54091521  0.82852486  1
  O  O74  1  0.93463839  0.04091521  0.32852486  1
  O  O75  1  0.30407846  0.45908479  0.17147514  1
  O  O76  1  0.68689718  0.02589229  0.74940420  1
  O  O77  1  0.46219367  0.47410771  0.75059580  1
  O  O78  1  0.31310282  0.97410771  0.25059580  1
  O  O79  1  0.53780633  0.52589229  0.24940420  1
  O  O80  1  0.85380468  0.93640656  0.86317098  1
  O  O81  1  0.65338222  0.56359344  0.63682902  1
  O  O82  1  0.14619532  0.06359344  0.13682902  1
  O  O83  1  0.34661778  0.43640656  0.36317098  1
  O  O84  1  0.92779819  0.32042015  0.56207178  1
  O  O85  1  0.81029012  0.17957985  0.93792822  1
  O  O86  1  0.07220181  0.67957985  0.43792822  1
  O  O87  1  0.18970988  0.82042015  0.06207178  1
  O  O88  1  0.80967197  0.23736094  0.67995267  1
  O  O89  1  0.72698558  0.26263906  0.82004733  1
  O  O90  1  0.19032803  0.76263906  0.32004733  1
  O  O91  1  0.27301442  0.73736094  0.17995267  1
  O  O92  1  0.22356534  0.41490057  0.91254541  1
  O  O93  1  0.55101133  0.08509943  0.58745459  1
  O  O94  1  0.77643466  0.58509943  0.08745459  1
  O  O95  1  0.44898867  0.91490057  0.41254541  1
