# generated using pymatgen
data_Na2CaNi2P4(H5O6)4
_symmetry_space_group_name_H-M   'P 1'
_cell_length_a   8.17733556
_cell_length_b   8.17733556
_cell_length_c   17.45378130
_cell_angle_alpha   102.49711755
_cell_angle_beta   102.49711755
_cell_angle_gamma   94.37409385
_symmetry_Int_Tables_number   1
_chemical_formula_structural   Na2CaNi2P4(H5O6)4
_chemical_formula_sum   'Na4 Ca2 Ni4 P8 H40 O48'
_cell_volume   1103.14842388
_cell_formula_units_Z   2
loop_
 _symmetry_equiv_pos_site_id
 _symmetry_equiv_pos_as_xyz
  1  'x, y, z'
loop_
 _atom_site_type_symbol
 _atom_site_label
 _atom_site_symmetry_multiplicity
 _atom_site_fract_x
 _atom_site_fract_y
 _atom_site_fract_z
 _atom_site_occupancy
  Na  Na0  1  0.92894337  0.84180548  0.69996225  1
  Na  Na1  1  0.14184322  0.22898112  0.30003775  1
  Na  Na2  1  0.09180548  0.67894337  0.19996225  1
  Na  Na3  1  0.47898112  0.89184322  0.80003775  1
  Ca  Ca4  1  0.12661363  0.62661363  0.50000000  1
  Ca  Ca5  1  0.87661363  0.87661363  -0.00000000  1
  Ni  Ni6  1  -0.00180509  0.25487100  0.71374491  1
  Ni  Ni7  1  0.54112610  0.28445000  0.28625509  1
  Ni  Ni8  1  0.50487100  0.74819491  0.21374491  1
  Ni  Ni9  1  0.53445000  0.29112610  0.78625509  1
  P  P10  1  0.25430250  0.03661363  0.63984753  1
  P  P11  1  0.39676611  0.61445497  0.36015247  1
  P  P12  1  0.28661363  0.00430250  0.13984753  1
  P  P13  1  0.86445497  0.14676611  0.86015247  1
  P  P14  1  0.29518751  0.38645804  0.63587218  1
  P  P15  1  0.75058585  0.65931532  0.36412782  1
  P  P16  1  0.63645804  0.04518751  0.13587218  1
  P  P17  1  0.90931532  0.50058585  0.86412782  1
  H  H18  1  0.70149662  0.28568036  0.60111445  1
  H  H19  1  0.68456591  0.10038217  0.39888555  1
  H  H20  1  0.53568036  0.45149662  0.10111445  1
  H  H21  1  0.35038217  0.43456591  0.89888555  1
  H  H22  1  0.70032784  0.09436772  0.61271799  1
  H  H23  1  0.48164972  0.08760984  0.38728201  1
  H  H24  1  0.34436772  0.45032784  0.11271799  1
  H  H25  1  0.33760984  0.23164972  0.88728201  1
  H  H26  1  0.18763968  0.80019387  0.83296240  1
  H  H27  1  0.96723148  0.35467728  0.16703760  1
  H  H28  1  0.05019387  0.93763968  0.33296240  1
  H  H29  1  0.60467728  0.71723148  0.66703760  1
  H  H30  1  0.15244342  0.63570659  0.76458443  1
  H  H31  1  0.87112217  0.38785899  0.23541557  1
  H  H32  1  0.88570659  0.90244342  0.26458443  1
  H  H33  1  0.63785899  0.62112217  0.73541557  1
  H  H34  1  0.81746901  0.54704844  0.56670896  1
  H  H35  1  0.98033948  0.25076004  0.43329104  1
  H  H36  1  0.79704844  0.56746901  0.06670896  1
  H  H37  1  0.50076004  0.73033948  0.93329104  1
  H  H38  1  0.99564835  0.52151263  0.61933752  1
  H  H39  1  0.90217511  0.37631083  0.38066248  1
  H  H40  1  0.77151263  0.74564835  0.11933752  1
  H  H41  1  0.62631083  0.65217511  0.88066248  1
  H  H42  1  0.61195606  0.81976237  0.52475295  1
  H  H43  1  0.29500942  0.08720311  0.47524705  1
  H  H44  1  0.06976237  0.36195606  0.02475295  1
  H  H45  1  0.33720311  0.04500942  0.97524705  1
  H  H46  1  0.48628605  0.87315600  0.57908919  1
  H  H47  1  0.29406682  0.90719686  0.42091081  1
  H  H48  1  0.12315600  0.23628605  0.07908919  1
  H  H49  1  0.15719686  0.04406682  0.92091081  1
  H  H50  1  0.50452625  0.44636896  0.53917130  1
  H  H51  1  0.90719766  0.96535495  0.46082870  1
  H  H52  1  0.69636896  0.25452625  0.03917130  1
  H  H53  1  0.21535495  0.65719766  0.96082870  1
  H  H54  1  0.59738749  0.36138707  0.47322518  1
  H  H55  1  0.88816188  0.12416230  0.52677482  1
  H  H56  1  0.61138707  0.34738749  0.97322518  1
  H  H57  1  0.37416230  0.63816188  0.02677482  1
  O  O58  1  0.12598429  0.40538404  0.66063545  1
  O  O59  1  0.74474859  0.46534884  0.33936455  1
  O  O60  1  0.65538404  0.87598429  0.16063545  1
  O  O61  1  0.71534884  0.49474859  0.83936455  1
  O  O62  1  0.07582066  0.04420118  0.65337065  1
  O  O63  1  0.39083053  0.42245001  0.34662935  1
  O  O64  1  0.29420118  0.82582066  0.15337065  1
  O  O65  1  0.67245001  0.14083053  0.84662935  1
  O  O66  1  0.92585952  0.10886149  0.78204418  1
  O  O67  1  0.32681731  0.14381535  0.21795582  1
  O  O68  1  0.35886149  0.67585952  0.28204418  1
  O  O69  1  0.39381535  0.07681731  0.71795582  1
  O  O70  1  0.76485577  0.21004984  0.63049718  1
  O  O71  1  0.57955266  0.13435858  0.36950282  1
  O  O72  1  0.46004984  0.51485577  0.13049718  1
  O  O73  1  0.38435858  0.32955266  0.86950282  1
  O  O74  1  0.98848925  0.47045907  0.79142261  1
  O  O75  1  0.67903646  0.19706663  0.20857739  1
  O  O76  1  0.72045907  0.73848925  0.29142261  1
  O  O77  1  0.44706663  0.42903646  0.70857739  1
  O  O78  1  0.31500155  0.47919058  0.57094777  1
  O  O79  1  0.90824281  0.74405378  0.42905223  1
  O  O80  1  0.72919058  0.06500155  0.07094777  1
  O  O81  1  0.99405378  0.65824281  0.92905223  1
  O  O82  1  0.28663428  0.18570091  0.59214406  1
  O  O83  1  0.59355686  0.69449022  0.40785594  1
  O  O84  1  0.43570091  0.03663428  0.09214406  1
  O  O85  1  0.94449022  0.34355686  0.90785594  1
  O  O86  1  0.27249827  0.87523896  0.58190540  1
  O  O87  1  0.29333356  0.69059287  0.41809460  1
  O  O88  1  0.12523896  0.02249827  0.08190540  1
  O  O89  1  0.94059287  0.04333356  0.91809460  1
  O  O90  1  0.19147119  0.75733417  0.77651567  1
  O  O91  1  0.98081850  0.41495552  0.22348433  1
  O  O92  1  0.00733417  0.94147119  0.27651567  1
  O  O93  1  0.66495552  0.73081850  0.72348433  1
  O  O94  1  0.93588814  0.60128576  0.59001767  1
  O  O95  1  0.01126809  0.34587047  0.40998233  1
  O  O96  1  0.85128576  0.68588814  0.09001767  1
  O  O97  1  0.59587047  0.76126809  0.90998233  1
  O  O98  1  0.60924424  0.87700006  0.58003620  1
  O  O99  1  0.29696386  0.02920803  0.41996380  1
  O  O100  1  0.12700006  0.35924424  0.08003620  1
  O  O101  1  0.27920803  0.04696386  0.91996380  1
  O  O102  1  0.61646941  0.41538475  0.53091415  1
  O  O103  1  0.88447061  0.08555526  0.46908585  1
  O  O104  1  0.66538475  0.36646941  0.03091415  1
  O  O105  1  0.33555526  0.63447061  0.96908585  1
