# generated using pymatgen
data_KSi
_symmetry_space_group_name_H-M   'P 1'
_cell_length_a   10.60925843
_cell_length_b   10.60925843
_cell_length_c   11.43295480
_cell_angle_alpha   117.64404434
_cell_angle_beta   117.64404434
_cell_angle_gamma   90.00000000
_symmetry_Int_Tables_number   1
_chemical_formula_structural   KSi
_chemical_formula_sum   'K16 Si16'
_cell_volume   971.08334444
_cell_formula_units_Z   16
loop_
 _symmetry_equiv_pos_site_id
 _symmetry_equiv_pos_as_xyz
  1  'x, y, z'
loop_
 _atom_site_type_symbol
 _atom_site_label
 _atom_site_symmetry_multiplicity
 _atom_site_fract_x
 _atom_site_fract_y
 _atom_site_fract_z
 _atom_site_occupancy
  K  K0  1  0.25000000  0.39339786  0.00000000  1
  K  K1  1  0.25000000  0.89339786  0.00000000  1
  K  K2  1  0.10660214  0.75000000  0.50000000  1
  K  K3  1  0.89339786  0.25000000  0.50000000  1
  K  K4  1  0.75000000  0.60660214  -0.00000000  1
  K  K5  1  0.75000000  0.10660214  -0.00000000  1
  K  K6  1  0.60660214  0.75000000  0.50000000  1
  K  K7  1  0.39339786  0.25000000  0.50000000  1
  K  K8  1  0.75468767  0.24531233  0.75000000  1
  K  K9  1  0.49531233  0.74531233  0.75000000  1
  K  K10  1  0.00468767  0.99531233  0.25000000  1
  K  K11  1  0.74531233  0.49531233  0.25000000  1
  K  K12  1  0.24531233  0.75468767  0.25000000  1
  K  K13  1  0.50468767  0.25468767  0.25000000  1
  K  K14  1  0.99531233  0.00468767  0.75000000  1
  K  K15  1  0.25468767  0.50468767  0.75000000  1
  Si  Si16  1  0.27318276  0.48474895  0.34931365  1
  Si  Si17  1  0.57613089  0.98474895  0.34931365  1
  Si  Si18  1  0.36456470  0.07613089  0.84931365  1
  Si  Si19  1  0.98474895  0.57613089  0.84931365  1
  Si  Si20  1  0.72681724  0.51525105  0.65068635  1
  Si  Si21  1  0.42386911  0.01525105  0.65068635  1
  Si  Si22  1  0.63543530  0.92386911  0.15068635  1
  Si  Si23  1  0.01525105  0.42386911  0.15068635  1
  Si  Si24  1  0.77318276  0.86456470  0.34931365  1
  Si  Si25  1  0.07613089  0.36456470  0.34931365  1
  Si  Si26  1  0.86456470  0.77318276  0.84931365  1
  Si  Si27  1  0.48474895  0.27318276  0.84931365  1
  Si  Si28  1  0.22681724  0.13543530  0.65068635  1
  Si  Si29  1  0.92386911  0.63543530  0.65068635  1
  Si  Si30  1  0.13543530  0.22681724  0.15068635  1
  Si  Si31  1  0.51525105  0.72681724  0.15068635  1
