# generated using pymatgen
data_Ho3InS6
_symmetry_space_group_name_H-M   'P 1'
_cell_length_a   3.85801477
_cell_length_b   13.39572951
_cell_length_c   16.54785789
_cell_angle_alpha   90.00000000
_cell_angle_beta   90.00000000
_cell_angle_gamma   90.00000000
_symmetry_Int_Tables_number   1
_chemical_formula_structural   Ho3InS6
_chemical_formula_sum   'Ho12 In4 S24'
_cell_volume   855.20855792
_cell_formula_units_Z   4
loop_
 _symmetry_equiv_pos_site_id
 _symmetry_equiv_pos_as_xyz
  1  'x, y, z'
loop_
 _atom_site_type_symbol
 _atom_site_label
 _atom_site_symmetry_multiplicity
 _atom_site_fract_x
 _atom_site_fract_y
 _atom_site_fract_z
 _atom_site_occupancy
  Ho  Ho0  1  0.25412212  0.03633414  0.77679191  1
  Ho  Ho1  1  0.25412212  0.96366586  0.22320809  1
  Ho  Ho2  1  0.74587788  0.46366586  0.27679191  1
  Ho  Ho3  1  0.74587788  0.53633414  0.72320809  1
  Ho  Ho4  1  0.26342885  0.24664154  0.61075499  1
  Ho  Ho5  1  0.26342885  0.75335846  0.38924501  1
  Ho  Ho6  1  0.73657115  0.25335846  0.11075499  1
  Ho  Ho7  1  0.73657115  0.74664154  0.88924501  1
  Ho  Ho8  1  0.74713926  0.30964592  0.85613245  1
  Ho  Ho9  1  0.74713926  0.69035408  0.14386755  1
  Ho  Ho10  1  0.25286074  0.19035408  0.35613245  1
  Ho  Ho11  1  0.25286074  0.80964592  0.64386755  1
  In  In12  1  0.75158177  -0.00000000  0.50000000  1
  In  In13  1  0.24841823  0.50000000  0.00000000  1
  In  In14  1  0.39723029  0.50000000  0.50000000  1
  In  In15  1  0.60276971  -0.00000000  -0.00000000  1
  S  S16  1  0.76985832  0.39641332  0.59380267  1
  S  S17  1  0.76985832  0.60358668  0.40619733  1
  S  S18  1  0.23014168  0.10358668  0.09380267  1
  S  S19  1  0.23014168  0.89641332  0.90619733  1
  S  S20  1  0.24641592  0.30703882  0.98057891  1
  S  S21  1  0.24641592  0.69296118  0.01942109  1
  S  S22  1  0.75358408  0.19296118  0.48057891  1
  S  S23  1  0.75358408  0.80703882  0.51942109  1
  S  S24  1  0.75236958  0.10814758  0.88462443  1
  S  S25  1  0.75236958  0.89185242  0.11537557  1
  S  S26  1  0.24763042  0.39185242  0.38462443  1
  S  S27  1  0.24763042  0.60814758  0.61537557  1
  S  S28  1  0.75897471  0.17905835  0.71710286  1
  S  S29  1  0.75897471  0.82094165  0.28289714  1
  S  S30  1  0.24102529  0.32094165  0.21710286  1
  S  S31  1  0.24102529  0.67905835  0.78289714  1
  S  S32  1  0.24876244  0.38478883  0.75612758  1
  S  S33  1  0.24876244  0.61521117  0.24387242  1
  S  S34  1  0.75123756  0.11521117  0.25612758  1
  S  S35  1  0.75123756  0.88478883  0.74387242  1
  S  S36  1  0.25289127  0.02064748  0.60629868  1
  S  S37  1  0.25289127  0.97935252  0.39370132  1
  S  S38  1  0.74710873  0.47935252  0.10629868  1
  S  S39  1  0.74710873  0.52064748  0.89370132  1
