# generated using pymatgen
data_Ho5B2(O2F3)3
_symmetry_space_group_name_H-M   'P 1'
_cell_length_a   6.09655832
_cell_length_b   8.26238345
_cell_length_c   10.68581290
_cell_angle_alpha   99.67463640
_cell_angle_beta   106.57463777
_cell_angle_gamma   90.00000000
_symmetry_Int_Tables_number   1
_chemical_formula_structural   Ho5B2(O2F3)3
_chemical_formula_sum   'Ho10 B4 O12 F18'
_cell_volume   507.90906832
_cell_formula_units_Z   2
loop_
 _symmetry_equiv_pos_site_id
 _symmetry_equiv_pos_as_xyz
  1  'x, y, z'
loop_
 _atom_site_type_symbol
 _atom_site_label
 _atom_site_symmetry_multiplicity
 _atom_site_fract_x
 _atom_site_fract_y
 _atom_site_fract_z
 _atom_site_occupancy
  Ho  Ho0  1  0.18639363  0.68076322  0.61191944  1
  Ho  Ho1  1  0.57447419  0.81923678  0.38808056  1
  Ho  Ho2  1  0.81360637  0.31923678  0.38808056  1
  Ho  Ho3  1  0.42552581  0.18076322  0.61191944  1
  Ho  Ho4  1  0.00079918  0.09449559  0.78024661  1
  Ho  Ho5  1  0.22055256  0.40550441  0.21975339  1
  Ho  Ho6  1  0.99920082  0.90550441  0.21975339  1
  Ho  Ho7  1  0.77944744  0.59449559  0.78024661  1
  Ho  Ho8  1  0.38957364  0.75000000  0.00000000  1
  Ho  Ho9  1  0.61042636  0.25000000  0.00000000  1
  B  B10  1  0.48357753  0.93779399  0.77658342  1
  B  B11  1  0.70699411  0.56220601  0.22341658  1
  B  B12  1  0.51642247  0.06220601  0.22341658  1
  B  B13  1  0.29300589  0.43779399  0.77658342  1
  O  O14  1  0.64758646  0.06535330  0.81673819  1
  O  O15  1  0.83084827  0.43464670  0.18326181  1
  O  O16  1  0.35241354  0.93464670  0.18326181  1
  O  O17  1  0.16915173  0.56535330  0.81673819  1
  O  O18  1  0.27979410  0.96162781  0.68210538  1
  O  O19  1  0.59768871  0.53837219  0.31789462  1
  O  O20  1  0.72020590  0.03837219  0.31789462  1
  O  O21  1  0.40231129  0.46162781  0.68210538  1
  O  O22  1  0.30393537  0.28452661  0.81415508  1
  O  O23  1  0.48978029  0.21547339  0.18584492  1
  O  O24  1  0.69606463  0.71547339  0.18584492  1
  O  O25  1  0.51021971  0.78452661  0.81415508  1
  F  F26  1  0.86473310  0.52031961  0.57808866  1
  F  F27  1  0.28664444  0.97968039  0.42191134  1
  F  F28  1  0.13526690  0.47968039  0.42191134  1
  F  F29  1  0.71335556  0.02031961  0.57808866  1
  F  F30  1  0.94385275  0.81485337  0.73625534  1
  F  F31  1  0.20759742  0.68514663  0.26374466  1
  F  F32  1  0.05614725  0.18514663  0.26374466  1
  F  F33  1  0.79240258  0.31485337  0.73625534  1
  F  F34  1  0.01619874  0.75000000  0.00000000  1
  F  F35  1  0.98380126  0.25000000  0.00000000  1
  F  F36  1  0.49707869  0.71411247  0.55046242  1
  F  F37  1  0.94661627  0.78588753  0.44953758  1
  F  F38  1  0.50292131  0.28588753  0.44953758  1
  F  F39  1  0.05338373  0.21411247  0.55046242  1
  F  F40  1  0.28530900  0.01510194  0.93717928  1
  F  F41  1  0.34812972  0.48489806  0.06282072  1
  F  F42  1  0.71469100  0.98489806  0.06282072  1
  F  F43  1  0.65187028  0.51510194  0.93717928  1
