# generated using pymatgen
data_BH6N
_symmetry_space_group_name_H-M   'P 1'
_cell_length_a   4.77577048
_cell_length_b   6.37435529
_cell_length_c   7.68174959
_cell_angle_alpha   90.00000000
_cell_angle_beta   90.00000000
_cell_angle_gamma   90.00000000
_symmetry_Int_Tables_number   1
_chemical_formula_structural   BH6N
_chemical_formula_sum   'B4 H24 N4'
_cell_volume   233.85133790
_cell_formula_units_Z   4
loop_
 _symmetry_equiv_pos_site_id
 _symmetry_equiv_pos_as_xyz
  1  'x, y, z'
loop_
 _atom_site_type_symbol
 _atom_site_label
 _atom_site_symmetry_multiplicity
 _atom_site_fract_x
 _atom_site_fract_y
 _atom_site_fract_z
 _atom_site_occupancy
  B  B0  1  0.83056723  0.75000000  0.45687403  1
  B  B1  1  0.66943277  0.75000000  0.95687403  1
  B  B2  1  0.16943277  0.25000000  0.54312597  1
  B  B3  1  0.33056723  0.25000000  0.04312597  1
  H  H4  1  0.91702016  0.75000000  0.60651510  1
  H  H5  1  0.58297984  0.75000000  0.10651510  1
  H  H6  1  0.08297984  0.25000000  0.39348490  1
  H  H7  1  0.41702016  0.25000000  0.89348490  1
  H  H8  1  0.30810370  0.40742724  0.57251783  1
  H  H9  1  0.19189630  0.09257276  0.07251783  1
  H  H10  1  0.69189630  0.90742724  0.42748217  1
  H  H11  1  0.80810370  0.59257276  0.92748217  1
  H  H12  1  0.69189630  0.59257276  0.42748217  1
  H  H13  1  0.80810370  0.90742724  0.92748217  1
  H  H14  1  0.30810370  0.09257276  0.57251783  1
  H  H15  1  0.19189630  0.40742724  0.07251783  1
  H  H16  1  0.03879430  0.75000000  0.20044656  1
  H  H17  1  0.46120570  0.75000000  0.70044656  1
  H  H18  1  0.96120570  0.25000000  0.79955344  1
  H  H19  1  0.53879430  0.25000000  0.29955344  1
  H  H20  1  0.78009068  0.12064394  0.65079485  1
  H  H21  1  0.71990932  0.37935606  0.15079485  1
  H  H22  1  0.21990932  0.62064394  0.34920515  1
  H  H23  1  0.28009068  0.87935606  0.84920515  1
  H  H24  1  0.21990932  0.87935606  0.34920515  1
  H  H25  1  0.28009068  0.62064394  0.84920515  1
  H  H26  1  0.78009068  0.37935606  0.65079485  1
  H  H27  1  0.71990932  0.12064394  0.15079485  1
  N  N28  1  0.09559373  0.75000000  0.32979090  1
  N  N29  1  0.40440627  0.75000000  0.82979090  1
  N  N30  1  0.90440627  0.25000000  0.67020910  1
  N  N31  1  0.59559373  0.25000000  0.17020910  1
