# generated using pymatgen
data_MgH16(IO8)2
_symmetry_space_group_name_H-M   'P 1'
_cell_length_a   5.58619219
_cell_length_b   10.75713530
_cell_length_c   12.44901823
_cell_angle_alpha   113.74986864
_cell_angle_beta   90.00000000
_cell_angle_gamma   90.00000000
_symmetry_Int_Tables_number   1
_chemical_formula_structural   MgH16(IO8)2
_chemical_formula_sum   'Mg2 H32 I4 O32'
_cell_volume   684.72621377
_cell_formula_units_Z   2
loop_
 _symmetry_equiv_pos_site_id
 _symmetry_equiv_pos_as_xyz
  1  'x, y, z'
loop_
 _atom_site_type_symbol
 _atom_site_label
 _atom_site_symmetry_multiplicity
 _atom_site_fract_x
 _atom_site_fract_y
 _atom_site_fract_z
 _atom_site_occupancy
  Mg  Mg0  1  0.50000000  0.00000000  0.50000000  1
  Mg  Mg1  1  0.00000000  0.00000000  0.00000000  1
  H  H2  1  0.09725180  0.63736923  0.10463530  1
  H  H3  1  0.59725180  0.36263077  0.39536470  1
  H  H4  1  0.90274820  0.36263077  0.89536470  1
  H  H5  1  0.40274820  0.63736923  0.60463530  1
  H  H6  1  0.85348939  0.48792207  0.16730193  1
  H  H7  1  0.35348939  0.51207793  0.33269807  1
  H  H8  1  0.14651061  0.51207793  0.83269807  1
  H  H9  1  0.64651061  0.48792207  0.66730193  1
  H  H10  1  0.67352973  0.74949737  0.38747900  1
  H  H11  1  0.17352973  0.25050263  0.11252100  1
  H  H12  1  0.32647027  0.25050263  0.61252100  1
  H  H13  1  0.82647027  0.74949737  0.88747900  1
  H  H14  1  0.76899802  0.80628491  0.51948056  1
  H  H15  1  0.26899802  0.19371509  0.98051944  1
  H  H16  1  0.23100198  0.19371509  0.48051944  1
  H  H17  1  0.73100198  0.80628491  0.01948056  1
  H  H18  1  0.28272279  0.78350530  0.34302838  1
  H  H19  1  0.78272279  0.21649470  0.15697162  1
  H  H20  1  0.71727721  0.21649470  0.65697162  1
  H  H21  1  0.21727721  0.78350530  0.84302838  1
  H  H22  1  0.05832338  0.86289369  0.41642896  1
  H  H23  1  0.55832338  0.13710631  0.08357104  1
  H  H24  1  0.94167662  0.13710631  0.58357104  1
  H  H25  1  0.44167662  0.86289369  0.91642896  1
  H  H26  1  0.67457617  0.10750667  0.34482467  1
  H  H27  1  0.17457617  0.89249333  0.15517533  1
  H  H28  1  0.32542383  0.89249333  0.65517533  1
  H  H29  1  0.82542383  0.10750667  0.84482467  1
  H  H30  1  0.64754298  0.94698688  0.27211607  1
  H  H31  1  0.14754298  0.05301312  0.22788393  1
  H  H32  1  0.35245702  0.05301312  0.72788393  1
  H  H33  1  0.85245702  0.94698688  0.77211607  1
  I  I34  1  0.53692408  0.62551014  0.12100749  1
  I  I35  1  0.03692408  0.37448986  0.37899251  1
  I  I36  1  0.46307592  0.37448986  0.87899251  1
  I  I37  1  0.96307592  0.62551014  0.62100749  1
  O  O38  1  0.46790233  0.64244663  0.27019476  1
  O  O39  1  0.96790233  0.35755337  0.22980524  1
  O  O40  1  0.53209767  0.35755337  0.72980524  1
  O  O41  1  0.03209767  0.64244663  0.77019476  1
  O  O42  1  0.23030053  0.69805304  0.10109121  1
  O  O43  1  0.73030053  0.30194696  0.39890879  1
  O  O44  1  0.76969947  0.30194696  0.89890879  1
  O  O45  1  0.26969947  0.69805304  0.60109121  1
  O  O46  1  0.67480178  0.78598102  0.14185281  1
  O  O47  1  0.17480178  0.21401898  0.35814719  1
  O  O48  1  0.32519822  0.21401898  0.85814719  1
  O  O49  1  0.82519822  0.78598102  0.64185281  1
  O  O50  1  0.85636880  0.55206832  0.12842769  1
  O  O51  1  0.35636880  0.44793168  0.37157231  1
  O  O52  1  0.14363120  0.44793168  0.87157231  1
  O  O53  1  0.64363120  0.55206832  0.62842769  1
  O  O54  1  0.59582516  0.56177224  0.94566410  1
  O  O55  1  0.09582516  0.43822776  0.55433590  1
  O  O56  1  0.40417484  0.43822776  0.05433590  1
  O  O57  1  0.90417484  0.56177224  0.44566410  1
  O  O58  1  0.73563737  0.83219466  0.45214361  1
  O  O59  1  0.23563737  0.16780534  0.04785639  1
  O  O60  1  0.26436263  0.16780534  0.54785639  1
  O  O61  1  0.76436263  0.83219466  0.95214361  1
  O  O62  1  0.22378456  0.87486083  0.39479468  1
  O  O63  1  0.72378456  0.12513917  0.10520532  1
  O  O64  1  0.77621544  0.12513917  0.60520532  1
  O  O65  1  0.27621544  0.87486083  0.89479468  1
  O  O66  1  0.62604854  0.02215659  0.34937258  1
  O  O67  1  0.12604854  0.97784341  0.15062742  1
  O  O68  1  0.37395146  0.97784341  0.65062742  1
  O  O69  1  0.87395146  0.02215659  0.84937258  1
