# generated using pymatgen
data_ThV2SeO9
_symmetry_space_group_name_H-M   'P 1'
_cell_length_a   6.93870735
_cell_length_b   7.25145411
_cell_length_c   14.71421268
_cell_angle_alpha   90.00000000
_cell_angle_beta   90.00000000
_cell_angle_gamma   90.00000000
_symmetry_Int_Tables_number   1
_chemical_formula_structural   ThV2SeO9
_chemical_formula_sum   'Th4 V8 Se4 O36'
_cell_volume   740.35617479
_cell_formula_units_Z   4
loop_
 _symmetry_equiv_pos_site_id
 _symmetry_equiv_pos_as_xyz
  1  'x, y, z'
loop_
 _atom_site_type_symbol
 _atom_site_label
 _atom_site_symmetry_multiplicity
 _atom_site_fract_x
 _atom_site_fract_y
 _atom_site_fract_z
 _atom_site_occupancy
  Th  Th0  1  0.14535742  0.25000000  0.54592329  1
  Th  Th1  1  0.85464258  0.75000000  0.45407671  1
  Th  Th2  1  0.14535742  0.75000000  0.95407671  1
  Th  Th3  1  0.85464258  0.25000000  0.04592329  1
  V  V4  1  0.56231953  0.50000000  0.25000000  1
  V  V5  1  0.43768047  -0.00000000  0.75000000  1
  V  V6  1  0.43768047  0.50000000  0.75000000  1
  V  V7  1  0.56231953  0.00000000  0.25000000  1
  V  V8  1  0.19804181  0.25000000  0.27043726  1
  V  V9  1  0.80195819  0.75000000  0.72956274  1
  V  V10  1  0.19804181  0.75000000  0.22956274  1
  V  V11  1  0.80195819  0.25000000  0.77043726  1
  Se  Se12  1  0.69207020  0.25000000  0.45647436  1
  Se  Se13  1  0.30792980  0.75000000  0.54352564  1
  Se  Se14  1  0.69207020  0.75000000  0.04352564  1
  Se  Se15  1  0.30792980  0.25000000  0.95647436  1
  O  O16  1  0.82797071  0.42528531  0.51005920  1
  O  O17  1  0.17202929  0.92528531  0.48994080  1
  O  O18  1  0.82797071  0.57471469  0.98994080  1
  O  O19  1  0.17202929  0.07471469  0.01005920  1
  O  O20  1  0.17202929  0.57471469  0.48994080  1
  O  O21  1  0.82797071  0.07471469  0.51005920  1
  O  O22  1  0.17202929  0.42528531  0.01005920  1
  O  O23  1  0.82797071  0.92528531  0.98994080  1
  O  O24  1  0.47678448  0.25000000  0.51277459  1
  O  O25  1  0.52321552  0.75000000  0.48722541  1
  O  O26  1  0.47678448  0.75000000  0.98722541  1
  O  O27  1  0.52321552  0.25000000  0.01277459  1
  O  O28  1  0.69985243  0.54938738  0.34128426  1
  O  O29  1  0.30014757  0.04938738  0.65871574  1
  O  O30  1  0.69985243  0.45061262  0.15871574  1
  O  O31  1  0.30014757  0.95061262  0.84128426  1
  O  O32  1  0.30014757  0.45061262  0.65871574  1
  O  O33  1  0.69985243  0.95061262  0.34128426  1
  O  O34  1  0.30014757  0.54938738  0.84128426  1
  O  O35  1  0.69985243  0.04938738  0.15871574  1
  O  O36  1  0.48825051  0.75000000  0.22096855  1
  O  O37  1  0.51174949  0.25000000  0.77903145  1
  O  O38  1  0.48825051  0.25000000  0.27903145  1
  O  O39  1  0.51174949  0.75000000  0.72096855  1
  O  O40  1  0.27889309  0.50000000  0.25000000  1
  O  O41  1  0.72110691  -0.00000000  0.75000000  1
  O  O42  1  0.72110691  0.50000000  0.75000000  1
  O  O43  1  0.27889309  0.00000000  0.25000000  1
  O  O44  1  0.02798200  0.25000000  0.18835064  1
  O  O45  1  0.97201800  0.75000000  0.81164936  1
  O  O46  1  0.02798200  0.75000000  0.31164936  1
  O  O47  1  0.97201800  0.25000000  0.68835064  1
  O  O48  1  0.10059152  0.25000000  0.37525743  1
  O  O49  1  0.89940848  0.75000000  0.62474257  1
  O  O50  1  0.10059152  0.75000000  0.12474257  1
  O  O51  1  0.89940848  0.25000000  0.87525743  1
