# generated using pymatgen
data_Na2Mo(H2O3)4
_symmetry_space_group_name_H-M   'P 1'
_cell_length_a   8.73489869
_cell_length_b   9.17008471
_cell_length_c   12.56227085
_cell_angle_alpha   93.69320692
_cell_angle_beta   90.00000000
_cell_angle_gamma   90.00000000
_symmetry_Int_Tables_number   1
_chemical_formula_structural   Na2Mo(H2O3)4
_chemical_formula_sum   'Na8 Mo4 H32 O48'
_cell_volume   1004.14520583
_cell_formula_units_Z   4
loop_
 _symmetry_equiv_pos_site_id
 _symmetry_equiv_pos_as_xyz
  1  'x, y, z'
loop_
 _atom_site_type_symbol
 _atom_site_label
 _atom_site_symmetry_multiplicity
 _atom_site_fract_x
 _atom_site_fract_y
 _atom_site_fract_z
 _atom_site_occupancy
  Na  Na0  1  0.34834346  0.81018658  0.98406348  1
  Na  Na1  1  0.84834346  0.18981342  0.51593652  1
  Na  Na2  1  0.65165654  0.18981342  0.01593652  1
  Na  Na3  1  0.15165654  0.81018658  0.48406348  1
  Na  Na4  1  0.31405149  0.66722737  0.71793403  1
  Na  Na5  1  0.81405149  0.33277263  0.78206597  1
  Na  Na6  1  0.68594851  0.33277263  0.28206597  1
  Na  Na7  1  0.18594851  0.66722737  0.21793403  1
  Mo  Mo8  1  0.73124786  0.76238938  0.87262776  1
  Mo  Mo9  1  0.23124786  0.23761062  0.62737224  1
  Mo  Mo10  1  0.26875214  0.23761062  0.12737224  1
  Mo  Mo11  1  0.76875214  0.76238938  0.37262776  1
  H  H12  1  0.22225198  0.98530372  0.29938518  1
  H  H13  1  0.72225198  0.01469628  0.20061482  1
  H  H14  1  0.77774802  0.01469628  0.70061482  1
  H  H15  1  0.27774802  0.98530372  0.79938518  1
  H  H16  1  0.36513342  0.88959151  0.32408890  1
  H  H17  1  0.86513342  0.11040849  0.17591110  1
  H  H18  1  0.63486658  0.11040849  0.67591110  1
  H  H19  1  0.13486658  0.88959151  0.82408890  1
  H  H20  1  0.01188344  0.78239120  0.04031867  1
  H  H21  1  0.51188344  0.21760880  0.45968133  1
  H  H22  1  0.98811656  0.21760880  0.95968133  1
  H  H23  1  0.48811656  0.78239120  0.54031867  1
  H  H24  1  0.08616940  0.91965238  0.10495768  1
  H  H25  1  0.58616940  0.08034762  0.39504232  1
  H  H26  1  0.91383060  0.08034762  0.89504232  1
  H  H27  1  0.41383060  0.91965238  0.60495768  1
  H  H28  1  0.44904131  0.56081395  0.12089315  1
  H  H29  1  0.94904131  0.43918605  0.37910685  1
  H  H30  1  0.55095869  0.43918605  0.87910685  1
  H  H31  1  0.05095869  0.56081395  0.62089315  1
  H  H32  1  0.51542942  0.71180181  0.17026417  1
  H  H33  1  0.01542942  0.28819819  0.32973583  1
  H  H34  1  0.48457058  0.28819819  0.82973583  1
  H  H35  1  0.98457058  0.71180181  0.67026417  1
  H  H36  1  0.20820904  0.50222443  0.92616566  1
  H  H37  1  0.70820904  0.49777557  0.57383434  1
  H  H38  1  0.79179096  0.49777557  0.07383434  1
  H  H39  1  0.29179096  0.50222443  0.42616566  1
  H  H40  1  0.09292272  0.60514106  0.87837028  1
  H  H41  1  0.59292272  0.39485894  0.62162972  1
  H  H42  1  0.90707728  0.39485894  0.12162972  1
  H  H43  1  0.40707728  0.60514106  0.37837028  1
  O  O44  1  0.92119642  0.88234382  0.84699134  1
  O  O45  1  0.42119642  0.11765618  0.65300866  1
  O  O46  1  0.07880358  0.11765618  0.15300866  1
  O  O47  1  0.57880358  0.88234382  0.34699134  1
  O  O48  1  0.84411450  0.83629400  0.74546144  1
  O  O49  1  0.34411450  0.16370600  0.75453856  1
  O  O50  1  0.15588550  0.16370600  0.25453856  1
  O  O51  1  0.65588550  0.83629400  0.24546144  1
  O  O52  1  0.54637694  0.63591782  0.88672259  1
  O  O53  1  0.04637694  0.36408218  0.61327741  1
  O  O54  1  0.45362306  0.36408218  0.11327741  1
  O  O55  1  0.95362306  0.63591782  0.38672259  1
  O  O56  1  0.58094549  0.66318356  0.77375317  1
  O  O57  1  0.08094549  0.33681644  0.72624683  1
  O  O58  1  0.41905451  0.33681644  0.22624683  1
  O  O59  1  0.91905451  0.66318356  0.27375317  1
  O  O60  1  0.84415376  0.65049271  0.98042871  1
  O  O61  1  0.34415376  0.34950729  0.51957129  1
  O  O62  1  0.15584624  0.34950729  0.01957129  1
  O  O63  1  0.65584624  0.65049271  0.48042871  1
  O  O64  1  0.87116327  0.58736055  0.87055031  1
  O  O65  1  0.37116327  0.41263945  0.62944969  1
  O  O66  1  0.12883673  0.41263945  0.12944969  1
  O  O67  1  0.62883673  0.58736055  0.37055031  1
  O  O68  1  0.60849075  0.94285792  0.88588755  1
  O  O69  1  0.10849075  0.05714208  0.61411245  1
  O  O70  1  0.39150925  0.05714208  0.11411245  1
  O  O71  1  0.89150925  0.94285792  0.38588755  1
  O  O72  1  0.66030381  0.89771100  0.99166799  1
  O  O73  1  0.16030381  0.10228900  0.50833201  1
  O  O74  1  0.33969619  0.10228900  0.00833201  1
  O  O75  1  0.83969619  0.89771100  0.49166799  1
  O  O76  1  0.25291237  0.88666326  0.31801889  1
  O  O77  1  0.75291237  0.11333674  0.18198111  1
  O  O78  1  0.74708763  0.11333674  0.68198111  1
  O  O79  1  0.24708763  0.88666326  0.81801889  1
  O  O80  1  0.10485950  0.81795014  0.07709595  1
  O  O81  1  0.60485950  0.18204986  0.42290405  1
  O  O82  1  0.89514050  0.18204986  0.92290405  1
  O  O83  1  0.39514050  0.81795014  0.57709595  1
  O  O84  1  0.42857356  0.66706430  0.13018106  1
  O  O85  1  0.92857356  0.33293570  0.36981894  1
  O  O86  1  0.57142644  0.33293570  0.86981894  1
  O  O87  1  0.07142644  0.66706430  0.63018106  1
  O  O88  1  0.20367562  0.59277763  0.88830264  1
  O  O89  1  0.70367562  0.40722237  0.61169736  1
  O  O90  1  0.79632438  0.40722237  0.11169736  1
  O  O91  1  0.29632438  0.59277763  0.38830264  1
