# generated using pymatgen
data_K3Be2H7C3O13
_symmetry_space_group_name_H-M   'P 1'
_cell_length_a   9.61942142
_cell_length_b   9.68588951
_cell_length_c   16.18401202
_cell_angle_alpha   79.39466892
_cell_angle_beta   78.74260737
_cell_angle_gamma   65.03735173
_symmetry_Int_Tables_number   1
_chemical_formula_structural   K3Be2H7C3O13
_chemical_formula_sum   'K12 Be8 H28 C12 O52'
_cell_volume   1331.94997605
_cell_formula_units_Z   4
loop_
 _symmetry_equiv_pos_site_id
 _symmetry_equiv_pos_as_xyz
  1  'x, y, z'
loop_
 _atom_site_type_symbol
 _atom_site_label
 _atom_site_symmetry_multiplicity
 _atom_site_fract_x
 _atom_site_fract_y
 _atom_site_fract_z
 _atom_site_occupancy
  K  K0  1  0.74782313  0.24322362  0.63798840  1
  K  K1  1  0.25217687  0.75677638  0.36201160  1
  K  K2  1  0.91081012  0.85519759  0.17244548  1
  K  K3  1  0.08918988  0.14480241  0.82755452  1
  K  K4  1  0.72957951  0.36291022  0.98662310  1
  K  K5  1  0.27042049  0.63708978  0.01337690  1
  K  K6  1  0.79441473  0.89003042  0.43018470  1
  K  K7  1  0.20558527  0.10996958  0.56981530  1
  K  K8  1  0.50628621  0.27573060  0.43138487  1
  K  K9  1  0.49371379  0.72426940  0.56861513  1
  K  K10  1  0.58498649  0.77222592  0.09043152  1
  K  K11  1  0.41501351  0.22777408  0.90956848  1
  Be  Be12  1  0.91542009  0.61594823  0.80183505  1
  Be  Be13  1  0.08457991  0.38405177  0.19816495  1
  Be  Be14  1  0.68819259  0.90038533  0.77634913  1
  Be  Be15  1  0.31180741  0.09961467  0.22365087  1
  Be  Be16  1  0.98446840  0.85786717  0.73280617  1
  Be  Be17  1  0.01553160  0.14213283  0.26719383  1
  Be  Be18  1  0.85516367  0.74324817  0.64382951  1
  Be  Be19  1  0.14483633  0.25675183  0.35617049  1
  H  H20  1  0.95043722  0.66504297  0.97959652  1
  H  H21  1  0.04956278  0.33495703  0.02040348  1
  H  H22  1  0.94389980  0.57576836  0.07072596  1
  H  H23  1  0.05610020  0.42423164  0.92927404  1
  H  H24  1  0.59273172  0.13304000  0.24616807  1
  H  H25  1  0.40726828  0.86696000  0.75383193  1
  H  H26  1  0.72767641  0.17141684  0.26337649  1
  H  H27  1  0.27232359  0.82858316  0.73662351  1
  H  H28  1  0.73046156  0.04084569  0.00706403  1
  H  H29  1  0.26953844  0.95915431  0.99293597  1
  H  H30  1  0.60771360  0.09677159  0.08654471  1
  H  H31  1  0.39228640  0.90322841  0.91345529  1
  H  H32  1  0.87540647  0.42454115  0.47398238  1
  H  H33  1  0.12459353  0.57545885  0.52601762  1
  H  H34  1  0.82777006  0.52871935  0.54906028  1
  H  H35  1  0.17222994  0.47128065  0.45093972  1
  H  H36  1  0.60028279  0.80572661  0.28375182  1
  H  H37  1  0.39971721  0.19427339  0.71624818  1
  H  H38  1  0.76983937  0.66693834  0.26926969  1
  H  H39  1  0.23016063  0.33306166  0.73073031  1
  H  H40  1  0.35790917  0.48112947  0.55786722  1
  H  H41  1  0.64209083  0.51887053  0.44213278  1
  H  H42  1  0.40286423  0.41577503  0.64837464  1
  H  H43  1  0.59713577  0.58422497  0.35162536  1
  H  H44  1  0.63929667  0.51330102  0.76855379  1
  H  H45  1  0.36070333  0.48669898  0.23144621  1
  H  H46  1  0.52534678  0.49038049  0.21156555  1
  H  H47  1  0.47465322  0.50961951  0.78843445  1
  C  C48  1  0.59871266  0.99308721  0.62700159  1
  C  C49  1  0.40128734  0.00691279  0.37299841  1
  C  C50  1  0.83316428  0.37431457  0.17240266  1
  C  C51  1  0.16683572  0.62568543  0.82759734  1
  C  C52  1  0.62697331  0.69268528  0.87941651  1
  C  C53  1  0.37302669  0.30731472  0.12058349  1
  C  C54  1  0.80554301  0.03501540  0.85085181  1
  C  C55  1  0.19445699  0.96498460  0.14914819  1
  C  C56  1  0.92514948  0.15980759  0.42387309  1
  C  C57  1  0.07485052  0.84019241  0.57612691  1
  C  C58  1  0.94842472  0.44698626  0.68549739  1
  C  C59  1  0.05157528  0.55301374  0.31450261  1
  O  O60  1  0.86100955  0.77780727  0.73930116  1
  O  O61  1  0.13899045  0.22219273  0.26069884  1
  O  O62  1  0.69694979  0.85869958  0.60417692  1
  O  O63  1  0.30305021  0.14130042  0.39582308  1
  O  O64  1  0.60365372  0.02810589  0.70143967  1
  O  O65  1  0.39634628  0.97189411  0.29856033  1
  O  O66  1  0.50127445  0.08761807  0.58015908  1
  O  O67  1  0.49872555  0.91238193  0.41984092  1
  O  O68  1  0.84733853  0.27169602  0.23850556  1
  O  O69  1  0.15266147  0.72830398  0.76149444  1
  O  O70  1  0.95826096  0.39998909  0.13696431  1
  O  O71  1  0.04173904  0.60001091  0.86303569  1
  O  O72  1  0.70699299  0.44595236  0.14164189  1
  O  O73  1  0.29300701  0.55404764  0.85835811  1
  O  O74  1  0.57516985  0.81167635  0.82221962  1
  O  O75  1  0.42483015  0.18832365  0.17778038  1
  O  O76  1  0.77179699  0.59587909  0.86801800  1
  O  O77  1  0.22820301  0.40412091  0.13198200  1
  O  O78  1  0.53758379  0.67091982  0.94452005  1
  O  O79  1  0.46241621  0.32908018  0.05547995  1
  O  O80  1  0.92553657  0.99592886  0.79211782  1
  O  O81  1  0.07446343  0.00407114  0.20788218  1
  O  O82  1  0.69392635  0.99197557  0.85054212  1
  O  O83  1  0.30607365  0.00802443  0.14945788  1
  O  O84  1  0.79792182  0.11570727  0.90702619  1
  O  O85  1  0.20207818  0.88429273  0.09297381  1
  O  O86  1  0.97555992  0.07060335  0.36257995  1
  O  O87  1  0.02444008  0.92939665  0.63742005  1
  O  O88  1  0.99468396  0.25184585  0.42462679  1
  O  O89  1  0.00531604  0.74815415  0.57537321  1
  O  O90  1  0.81455733  0.15690811  0.47973918  1
  O  O91  1  0.18544267  0.84309189  0.52026082  1
  O  O92  1  0.85757703  0.57175679  0.64312869  1
  O  O93  1  0.14242297  0.42824321  0.35687131  1
  O  O94  1  0.00343824  0.46359719  0.74992041  1
  O  O95  1  0.99656176  0.53640281  0.25007959  1
  O  O96  1  0.98129887  0.31516085  0.66647336  1
  O  O97  1  0.01870113  0.68483915  0.33352664  1
  O  O98  1  0.93761154  0.67641291  0.03999059  1
  O  O99  1  0.06238846  0.32358709  0.96000941  1
  O  O100  1  0.67339690  0.10126475  0.28312820  1
  O  O101  1  0.32660310  0.89873525  0.71687180  1
  O  O102  1  0.69489043  0.00592041  0.06587199  1
  O  O103  1  0.30510957  0.99407959  0.93412801  1
  O  O104  1  0.79412479  0.51834737  0.49693941  1
  O  O105  1  0.20587521  0.48165263  0.50306059  1
  O  O106  1  0.66597217  0.71714949  0.25198069  1
  O  O107  1  0.33402783  0.28285051  0.74801931  1
  O  O108  1  0.56355592  0.53560308  0.40587843  1
  O  O109  1  0.43644408  0.46439692  0.59412157  1
  O  O110  1  0.57897902  0.46234125  0.75592817  1
  O  O111  1  0.42102098  0.53765875  0.24407183  1
