# generated using pymatgen
data_Hf3Ge
_symmetry_space_group_name_H-M   'P 1'
_cell_length_a   5.41447169
_cell_length_b   10.98422839
_cell_length_c   10.98422839
_cell_angle_alpha   90.00000000
_cell_angle_beta   90.00000000
_cell_angle_gamma   90.00000000
_symmetry_Int_Tables_number   1
_chemical_formula_structural   Hf3Ge
_chemical_formula_sum   'Hf24 Ge8'
_cell_volume   653.27373272
_cell_formula_units_Z   8
loop_
 _symmetry_equiv_pos_site_id
 _symmetry_equiv_pos_as_xyz
  1  'x, y, z'
loop_
 _atom_site_type_symbol
 _atom_site_label
 _atom_site_symmetry_multiplicity
 _atom_site_fract_x
 _atom_site_fract_y
 _atom_site_fract_z
 _atom_site_occupancy
  Hf  Hf0  1  0.50310515  0.81610141  0.71680717  1
  Hf  Hf1  1  0.50310515  0.18389859  0.28319283  1
  Hf  Hf2  1  0.99689485  0.31610141  0.21680717  1
  Hf  Hf3  1  0.99689485  0.68389859  0.78319283  1
  Hf  Hf4  1  0.49689485  0.71680717  0.18389859  1
  Hf  Hf5  1  0.49689485  0.28319283  0.81610141  1
  Hf  Hf6  1  0.00310515  0.21680717  0.68389859  1
  Hf  Hf7  1  0.00310515  0.78319283  0.31610141  1
  Hf  Hf8  1  0.72402409  0.47492661  0.64159567  1
  Hf  Hf9  1  0.72402409  0.52507339  0.35840433  1
  Hf  Hf10  1  0.77597591  0.97492661  0.14159567  1
  Hf  Hf11  1  0.77597591  0.02507339  0.85840433  1
  Hf  Hf12  1  0.27597591  0.64159567  0.52507339  1
  Hf  Hf13  1  0.27597591  0.35840433  0.47492661  1
  Hf  Hf14  1  0.22402409  0.14159567  0.02507339  1
  Hf  Hf15  1  0.22402409  0.85840433  0.97492661  1
  Hf  Hf16  1  0.02547879  0.91651157  0.60553596  1
  Hf  Hf17  1  0.02547879  0.08348843  0.39446404  1
  Hf  Hf18  1  0.47452121  0.41651157  0.10553596  1
  Hf  Hf19  1  0.47452121  0.58348843  0.89446404  1
  Hf  Hf20  1  0.97452121  0.60553596  0.08348843  1
  Hf  Hf21  1  0.97452121  0.39446404  0.91651157  1
  Hf  Hf22  1  0.52547879  0.10553596  0.58348843  1
  Hf  Hf23  1  0.52547879  0.89446404  0.41651157  1
  Ge  Ge24  1  0.21822964  0.46185581  0.70412086  1
  Ge  Ge25  1  0.21822964  0.53814419  0.29587914  1
  Ge  Ge26  1  0.28177036  0.96185581  0.20412086  1
  Ge  Ge27  1  0.28177036  0.03814419  0.79587914  1
  Ge  Ge28  1  0.78177036  0.70412086  0.53814419  1
  Ge  Ge29  1  0.78177036  0.29587914  0.46185581  1
  Ge  Ge30  1  0.71822964  0.20412086  0.03814419  1
  Ge  Ge31  1  0.71822964  0.79587914  0.96185581  1
