# generated using pymatgen
data_La4Ni3O10
_symmetry_space_group_name_H-M   'P 1'
_cell_length_a   5.45713958
_cell_length_b   5.53777331
_cell_length_c   14.22502715
_cell_angle_alpha   90.00000000
_cell_angle_beta   101.05870894
_cell_angle_gamma   90.00000000
_symmetry_Int_Tables_number   1
_chemical_formula_structural   La4Ni3O10
_chemical_formula_sum   'La8 Ni6 O20'
_cell_volume   421.90354975
_cell_formula_units_Z   2
loop_
 _symmetry_equiv_pos_site_id
 _symmetry_equiv_pos_as_xyz
  1  'x, y, z'
loop_
 _atom_site_type_symbol
 _atom_site_label
 _atom_site_symmetry_multiplicity
 _atom_site_fract_x
 _atom_site_fract_y
 _atom_site_fract_z
 _atom_site_occupancy
  La  La0  1  0.06763617  0.50003112  0.13527233  1
  La  La1  1  0.93236383  0.49996888  0.86472767  1
  La  La2  1  0.43236383  0.00003112  0.86472767  1
  La  La3  1  0.56763617  -0.00003112  0.13527233  1
  La  La4  1  0.19874105  0.51075698  0.39748209  1
  La  La5  1  0.80125895  0.48924302  0.60251791  1
  La  La6  1  0.30125895  0.01075698  0.60251791  1
  La  La7  1  0.69874105  0.98924302  0.39748209  1
  Ni  Ni8  1  0.50000000  0.50000000  0.00000000  1
  Ni  Ni9  1  0.00000000  -0.00000000  0.00000000  1
  Ni  Ni10  1  0.36017510  0.50173684  0.72035019  1
  Ni  Ni11  1  0.63982490  0.49826316  0.27964981  1
  Ni  Ni12  1  0.13982490  0.00173684  0.27964981  1
  Ni  Ni13  1  0.86017510  0.99826316  0.72035019  1
  O  O14  1  0.74112875  0.25000000  0.98225749  1
  O  O15  1  0.75887125  0.75000000  0.01774251  1
  O  O16  1  0.25887125  0.75000000  0.01774251  1
  O  O17  1  0.24112875  0.25000000  0.98225749  1
  O  O18  1  0.43132739  0.55988086  0.86265478  1
  O  O19  1  0.56867261  0.44011914  0.13734522  1
  O  O20  1  0.06867261  0.05988086  0.13734522  1
  O  O21  1  0.93132739  0.94011914  0.86265478  1
  O  O22  1  0.61664469  0.25000000  0.73328938  1
  O  O23  1  0.88335531  0.75000000  0.26671062  1
  O  O24  1  0.38335531  0.75000000  0.26671062  1
  O  O25  1  0.11664469  0.25000000  0.73328938  1
  O  O26  1  0.28291305  0.45979853  0.56582610  1
  O  O27  1  0.71708695  0.54020147  0.43417390  1
  O  O28  1  0.21708695  0.95979853  0.43417390  1
  O  O29  1  0.78291305  0.04020147  0.56582610  1
  O  O30  1  0.60329395  0.75000000  0.70658791  1
  O  O31  1  0.89670605  0.25000000  0.29341209  1
  O  O32  1  0.39670605  0.25000000  0.29341209  1
  O  O33  1  0.10329395  0.75000000  0.70658791  1
