# generated using pymatgen
data_Hg2ClO6
_symmetry_space_group_name_H-M   'P 1'
_cell_length_a   7.42000463
_cell_length_b   11.43866966
_cell_length_c   14.68008837
_cell_angle_alpha   90.00000000
_cell_angle_beta   90.00000000
_cell_angle_gamma   100.55972753
_symmetry_Int_Tables_number   1
_chemical_formula_structural   Hg2ClO6
_chemical_formula_sum   'Hg16 Cl8 O48'
_cell_volume   1224.87094999
_cell_formula_units_Z   8
loop_
 _symmetry_equiv_pos_site_id
 _symmetry_equiv_pos_as_xyz
  1  'x, y, z'
loop_
 _atom_site_type_symbol
 _atom_site_label
 _atom_site_symmetry_multiplicity
 _atom_site_fract_x
 _atom_site_fract_y
 _atom_site_fract_z
 _atom_site_occupancy
  Hg  Hg0  1  0.47132371  0.31984545  0.25133878  1
  Hg  Hg1  1  0.02867629  0.68015455  0.75133878  1
  Hg  Hg2  1  0.52867629  0.68015455  0.74866122  1
  Hg  Hg3  1  0.97132371  0.31984545  0.24866122  1
  Hg  Hg4  1  0.69871615  0.26691929  0.44987559  1
  Hg  Hg5  1  0.80128385  0.73308071  0.94987559  1
  Hg  Hg6  1  0.30128385  0.73308071  0.55012441  1
  Hg  Hg7  1  0.19871615  0.26691929  0.05012441  1
  Hg  Hg8  1  0.40891660  0.67492140  0.32058745  1
  Hg  Hg9  1  0.09108340  0.32507860  0.82058745  1
  Hg  Hg10  1  0.59108340  0.32507860  0.67941255  1
  Hg  Hg11  1  0.90891660  0.67492140  0.17941255  1
  Hg  Hg12  1  0.33719404  0.96539582  0.39152231  1
  Hg  Hg13  1  0.16280596  0.03460418  0.89152231  1
  Hg  Hg14  1  0.66280596  0.03460418  0.60847769  1
  Hg  Hg15  1  0.83719404  0.96539582  0.10847769  1
  Cl  Cl16  1  0.85033288  0.96111625  0.35865695  1
  Cl  Cl17  1  0.64966712  0.03888375  0.85865695  1
  Cl  Cl18  1  0.14966712  0.03888375  0.64134305  1
  Cl  Cl19  1  0.35033288  0.96111625  0.14134305  1
  Cl  Cl20  1  0.74085057  0.40345784  0.02407978  1
  Cl  Cl21  1  0.75914943  0.59654216  0.52407978  1
  Cl  Cl22  1  0.25914943  0.59654216  0.97592022  1
  Cl  Cl23  1  0.24085057  0.40345784  0.47592022  1
  O  O24  1  0.71738898  0.01819685  0.40996688  1
  O  O25  1  0.78261102  0.98180315  0.90996688  1
  O  O26  1  0.28261102  0.98180315  0.59003312  1
  O  O27  1  0.21738898  0.01819685  0.09003312  1
  O  O28  1  0.74682555  0.87864063  0.29187888  1
  O  O29  1  0.75317445  0.12135937  0.79187888  1
  O  O30  1  0.25317445  0.12135937  0.70812112  1
  O  O31  1  0.24682555  0.87864063  0.20812112  1
  O  O32  1  0.94629935  0.89626607  0.42164771  1
  O  O33  1  0.55370065  0.10373393  0.92164771  1
  O  O34  1  0.05370065  0.10373393  0.57835229  1
  O  O35  1  0.44629935  0.89626607  0.07835229  1
  O  O36  1  0.97910266  0.05204909  0.31101059  1
  O  O37  1  0.52089734  0.94795091  0.81101059  1
  O  O38  1  0.02089734  0.94795091  0.68898941  1
  O  O39  1  0.47910266  0.05204909  0.18898941  1
  O  O40  1  0.60023654  0.31262901  0.06677471  1
  O  O41  1  0.89976346  0.68737099  0.56677471  1
  O  O42  1  0.39976346  0.68737099  0.93322529  1
  O  O43  1  0.10023654  0.31262901  0.43322529  1
  O  O44  1  0.69909433  0.52136393  0.04489719  1
  O  O45  1  0.80090567  0.47863607  0.54489719  1
  O  O46  1  0.30090567  0.47863607  0.95510281  1
  O  O47  1  0.19909433  0.52136393  0.45510281  1
  O  O48  1  0.75424846  0.61502721  0.42662404  1
  O  O49  1  0.74575154  0.38497279  0.92662404  1
  O  O50  1  0.24575154  0.38497279  0.57337596  1
  O  O51  1  0.25424846  0.61502721  0.07337596  1
  O  O52  1  0.92011539  0.39635701  0.06457682  1
  O  O53  1  0.57988461  0.60364299  0.56457682  1
  O  O54  1  0.07988461  0.60364299  0.93542318  1
  O  O55  1  0.42011539  0.39635701  0.43542318  1
  O  O56  1  0.80540338  0.78324512  0.08745746  1
  O  O57  1  0.69459662  0.21675488  0.58745746  1
  O  O58  1  0.19459662  0.21675488  0.91254254  1
  O  O59  1  0.30540338  0.78324512  0.41254254  1
  O  O60  1  0.72597947  0.32874437  0.31564795  1
  O  O61  1  0.77402053  0.67125563  0.81564795  1
  O  O62  1  0.27402053  0.67125563  0.68435205  1
  O  O63  1  0.22597947  0.32874437  0.18435205  1
  O  O64  1  0.53374030  0.57445562  0.23792432  1
  O  O65  1  0.96625970  0.42554438  0.73792432  1
  O  O66  1  0.46625970  0.42554438  0.76207568  1
  O  O67  1  0.03374030  0.57445562  0.26207568  1
  O  O68  1  0.89573996  0.14401189  0.11965028  1
  O  O69  1  0.60426004  0.85598811  0.61965028  1
  O  O70  1  0.10426004  0.85598811  0.88034972  1
  O  O71  1  0.39573996  0.14401189  0.38034972  1
