# generated using pymatgen
data_Cu3P2H2O9
_symmetry_space_group_name_H-M   'P 1'
_cell_length_a   6.24834800
_cell_length_b   9.49413031
_cell_length_c   12.31735876
_cell_angle_alpha   104.25753047
_cell_angle_beta   90.00000000
_cell_angle_gamma   109.21195800
_symmetry_Int_Tables_number   1
_chemical_formula_structural   Cu3P2H2O9
_chemical_formula_sum   'Cu12 P8 H8 O36'
_cell_volume   666.12377120
_cell_formula_units_Z   4
loop_
 _symmetry_equiv_pos_site_id
 _symmetry_equiv_pos_as_xyz
  1  'x, y, z'
loop_
 _atom_site_type_symbol
 _atom_site_label
 _atom_site_symmetry_multiplicity
 _atom_site_fract_x
 _atom_site_fract_y
 _atom_site_fract_z
 _atom_site_occupancy
  Cu  Cu0  1  0.83767365  0.50105552  0.59275358  1
  Cu  Cu1  1  0.33661813  0.49894448  0.90724642  1
  Cu  Cu2  1  0.16232635  0.49894448  0.40724642  1
  Cu  Cu3  1  0.66338187  0.50105552  0.09275358  1
  Cu  Cu4  1  0.72499644  0.81710264  0.63977362  1
  Cu  Cu5  1  0.90789380  0.18289736  0.86022638  1
  Cu  Cu6  1  0.27500356  0.18289736  0.36022638  1
  Cu  Cu7  1  0.09210620  0.81710264  0.13977362  1
  Cu  Cu8  1  0.51788381  0.22651149  0.68413884  1
  Cu  Cu9  1  0.29137233  0.77348851  0.81586116  1
  Cu  Cu10  1  0.48211619  0.77348851  0.31586116  1
  Cu  Cu11  1  0.70862767  0.22651149  0.18413884  1
  P  P12  1  0.64839234  0.50926914  0.35764896  1
  P  P13  1  0.13912320  0.49073086  0.14235104  1
  P  P14  1  0.35160766  0.49073086  0.64235104  1
  P  P15  1  0.86087680  0.50926914  0.85764896  1
  P  P16  1  0.25096741  0.85718300  0.59666183  1
  P  P17  1  0.39378442  0.14281700  0.90333817  1
  P  P18  1  0.74903259  0.14281700  0.40333817  1
  P  P19  1  0.60621558  0.85718300  0.09666183  1
  H  H20  1  0.03641383  0.05177378  0.63181420  1
  H  H21  1  0.98464005  0.94822622  0.86818580  1
  H  H22  1  0.96358617  0.94822622  0.36818580  1
  H  H23  1  0.01535995  0.05177378  0.13181420  1
  H  H24  1  0.81688150  0.09135410  0.59547965  1
  H  H25  1  0.72552740  0.90864590  0.90452035  1
  H  H26  1  0.18311850  0.90864590  0.40452035  1
  H  H27  1  0.27447260  0.09135410  0.09547965  1
  O  O28  1  0.84041981  0.49352009  0.42904600  1
  O  O29  1  0.34689973  0.50647991  0.07095400  1
  O  O30  1  0.15958019  0.50647991  0.57095400  1
  O  O31  1  0.65310027  0.49352009  0.92904600  1
  O  O32  1  0.01262678  0.77718216  0.63351406  1
  O  O33  1  0.23544462  0.22281784  0.86648594  1
  O  O34  1  0.98737322  0.22281784  0.36648594  1
  O  O35  1  0.76455538  0.77718216  0.13351406  1
  O  O36  1  0.28273769  0.03131607  0.61829171  1
  O  O37  1  0.25142161  0.96868393  0.88170829  1
  O  O38  1  0.71726231  0.96868393  0.38170829  1
  O  O39  1  0.74857839  0.03131607  0.11829171  1
  O  O40  1  0.58814750  0.58787598  0.61059321  1
  O  O41  1  0.00027151  0.41212402  0.88940679  1
  O  O42  1  0.41185250  0.41212402  0.38940679  1
  O  O43  1  0.99972849  0.58787598  0.11059321  1
  O  O44  1  0.32882717  0.32195619  0.62069888  1
  O  O45  1  0.00687099  0.67804381  0.87930112  1
  O  O46  1  0.67117283  0.67804381  0.37930112  1
  O  O47  1  0.99312901  0.32195619  0.12069888  1
  O  O48  1  0.59390521  0.16610091  0.82332289  1
  O  O49  1  0.42780430  0.83389909  0.67667711  1
  O  O50  1  0.40609479  0.83389909  0.17667711  1
  O  O51  1  0.57219570  0.16610091  0.32332289  1
  O  O52  1  0.72490188  0.21048505  0.52705331  1
  O  O53  1  0.51441682  0.78951495  0.97294669  1
  O  O54  1  0.27509812  0.78951495  0.47294669  1
  O  O55  1  0.48558318  0.21048505  0.02705331  1
  O  O56  1  0.87204558  0.03911320  0.64507313  1
  O  O57  1  0.83293238  0.96088680  0.85492687  1
  O  O58  1  0.12795442  0.96088680  0.35492687  1
  O  O59  1  0.16706762  0.03911320  0.14507313  1
  O  O60  1  0.66602760  0.43183234  0.23153662  1
  O  O61  1  0.23419526  0.56816766  0.26846338  1
  O  O62  1  0.33397240  0.56816766  0.76846338  1
  O  O63  1  0.76580474  0.43183234  0.73153662  1
