# generated using pymatgen
data_CeH14Cl3O7
_symmetry_space_group_name_H-M   'P 1'
_cell_length_a   8.01654392
_cell_length_b   8.23852589
_cell_length_c   9.54150169
_cell_angle_alpha   110.07549564
_cell_angle_beta   105.80587663
_cell_angle_gamma   82.37297557
_symmetry_Int_Tables_number   1
_chemical_formula_structural   CeH14Cl3O7
_chemical_formula_sum   'Ce2 H28 Cl6 O14'
_cell_volume   568.96018521
_cell_formula_units_Z   2
loop_
 _symmetry_equiv_pos_site_id
 _symmetry_equiv_pos_as_xyz
  1  'x, y, z'
loop_
 _atom_site_type_symbol
 _atom_site_label
 _atom_site_symmetry_multiplicity
 _atom_site_fract_x
 _atom_site_fract_y
 _atom_site_fract_z
 _atom_site_occupancy
  Ce  Ce0  1  0.78289682  0.30934538  0.81695042  1
  Ce  Ce1  1  0.21247177  0.68226814  0.16628612  1
  H  H2  1  0.48065228  0.19551739  0.51690421  1
  H  H3  1  0.64426134  0.13739522  0.44670678  1
  H  H4  1  0.34542882  0.85047588  0.54032965  1
  H  H5  1  0.46415653  0.92569621  0.47132007  1
  H  H6  1  0.52869922  0.64061583  0.74396127  1
  H  H7  1  0.44858206  0.46888267  0.62342646  1
  H  H8  1  0.49233649  0.37492386  0.25116534  1
  H  H9  1  0.55447976  0.56115789  0.36289408  1
  H  H10  1  0.88371451  0.51215757  0.61619250  1
  H  H11  1  0.01013424  0.34330606  0.59128668  1
  H  H12  1  0.99654564  0.63279891  0.39392521  1
  H  H13  1  0.13120283  0.47029974  0.36458674  1
  H  H14  1  0.07588837  0.02527197  0.71176113  1
  H  H15  1  0.89830401  0.95108974  0.60210652  1
  H  H16  1  0.90329192  0.96106183  0.26082922  1
  H  H17  1  0.07779883  0.00960236  0.38837550  1
  H  H18  1  0.38928179  0.37513982  0.84736478  1
  H  H19  1  0.43178913  0.17669489  0.83768622  1
  H  H20  1  0.60960595  0.66268394  0.14432005  1
  H  H21  1  0.54207391  0.85417509  0.14772247  1
  H  H22  1  0.74294718  0.31107075  0.14239139  1
  H  H23  1  0.88652683  0.44629100  0.17847485  1
  H  H24  1  0.12214575  0.53996788  0.80392791  1
  H  H25  1  0.26031003  0.68259100  0.84248270  1
  H  H26  1  0.78425683  0.91472729  0.80915557  1
  H  H27  1  0.72923434  0.02297694  0.96295317  1
  H  H28  1  0.20148067  0.08032108  0.20435952  1
  H  H29  1  0.22572045  0.00281237  0.03481762  1
  Cl  Cl30  1  0.85558549  0.67409630  0.97923397  1
  Cl  Cl31  1  0.14424057  0.31270110  0.99697601  1
  Cl  Cl32  1  0.33012002  0.88473542  0.77279319  1
  Cl  Cl33  1  0.65798324  0.11406339  0.20767432  1
  Cl  Cl34  1  0.21949472  0.27471592  0.45870594  1
  Cl  Cl35  1  0.79423506  0.70229393  0.51859573  1
  O  O36  1  0.60220841  0.14559971  0.53788228  1
  O  O37  1  0.36260618  0.85551708  0.44241844  1
  O  O38  1  0.55587244  0.51590976  0.69923552  1
  O  O39  1  0.45293294  0.49726059  0.28850155  1
  O  O40  1  0.94211064  0.42055564  0.66313545  1
  O  O41  1  0.06825275  0.56256052  0.32134985  1
  O  O42  1  0.95688664  0.06201686  0.66413415  1
  O  O43  1  0.01361719  0.91102204  0.31012431  1
  O  O44  1  0.47862238  0.27966750  0.83440220  1
  O  O45  1  0.50820934  0.74382718  0.14918561  1
  O  O46  1  0.77665675  0.39719559  0.10439999  1
  O  O47  1  0.23130571  0.59138110  0.87786213  1
  O  O48  1  0.76521243  0.03303798  0.87533026  1
  O  O49  1  0.20902882  0.97122365  0.12032498  1
