# generated using pymatgen
data_La2CdTe4
_symmetry_space_group_name_H-M   'P 1'
_cell_length_a   8.40221697
_cell_length_b   8.40221619
_cell_length_c   8.40221626
_cell_angle_alpha   111.27333371
_cell_angle_beta   111.27333241
_cell_angle_gamma   105.92417368
_symmetry_Int_Tables_number   1
_chemical_formula_structural   La2CdTe4
_chemical_formula_sum   'La4 Cd2 Te8'
_cell_volume   455.32292685
_cell_formula_units_Z   2
loop_
 _symmetry_equiv_pos_site_id
 _symmetry_equiv_pos_as_xyz
  1  'x, y, z'
loop_
 _atom_site_type_symbol
 _atom_site_label
 _atom_site_symmetry_multiplicity
 _atom_site_fract_x
 _atom_site_fract_y
 _atom_site_fract_z
 _atom_site_occupancy
  La  La0  1  0.11867762  0.75000000  0.86867762  1
  La  La1  1  0.25000000  0.61867762  0.36867762  1
  La  La2  1  0.38132238  0.25000000  0.63132238  1
  La  La3  1  0.75000000  0.88132238  0.13132238  1
  Cd  Cd4  1  0.62500000  0.37500000  0.25000000  1
  Cd  Cd5  1  0.87500000  0.12500000  0.75000000  1
  Te  Te6  1  0.00415931  0.87970285  0.51615551  1
  Te  Te7  1  0.49584069  0.01199620  0.87554354  1
  Te  Te8  1  0.12029715  0.13645266  0.12445646  1
  Te  Te9  1  0.37970285  0.50415931  0.01615551  1
  Te  Te10  1  0.63645266  0.62029715  0.62445646  1
  Te  Te11  1  0.51199620  0.99584069  0.37554354  1
  Te  Te12  1  0.86354734  0.48800380  0.98384449  1
  Te  Te13  1  0.98800380  0.36354734  0.48384449  1
