# generated using pymatgen
data_La(Ga5Mo)8
_symmetry_space_group_name_H-M   'P 1'
_cell_length_a   9.67622901
_cell_length_b   9.67622901
_cell_length_c   9.67622915
_cell_angle_alpha   94.29959711
_cell_angle_beta   94.29959707
_cell_angle_gamma   94.29959546
_symmetry_Int_Tables_number   1
_chemical_formula_structural   La(Ga5Mo)8
_chemical_formula_sum   'La1 Ga40 Mo8'
_cell_volume   897.92357471
_cell_formula_units_Z   1
loop_
 _symmetry_equiv_pos_site_id
 _symmetry_equiv_pos_as_xyz
  1  'x, y, z'
loop_
 _atom_site_type_symbol
 _atom_site_label
 _atom_site_symmetry_multiplicity
 _atom_site_fract_x
 _atom_site_fract_y
 _atom_site_fract_z
 _atom_site_occupancy
  La  La0  1  0.00000000  -0.00000000  -0.00000000  1
  Ga  Ga1  1  0.50000000  0.50000000  0.50000000  1
  Ga  Ga2  1  0.50000000  -0.00000000  0.50000000  1
  Ga  Ga3  1  0.00000000  0.50000000  0.50000000  1
  Ga  Ga4  1  0.50000000  0.50000000  -0.00000000  1
  Ga  Ga5  1  0.63732306  0.26894710  0.61132024  1
  Ga  Ga6  1  0.26894710  0.61132024  0.63732306  1
  Ga  Ga7  1  0.61132024  0.63732306  0.26894710  1
  Ga  Ga8  1  0.36267694  0.73105290  0.38867976  1
  Ga  Ga9  1  0.73105290  0.38867976  0.36267694  1
  Ga  Ga10  1  0.38867976  0.36267694  0.73105290  1
  Ga  Ga11  1  0.77699265  0.67421180  0.53230582  1
  Ga  Ga12  1  0.67421180  0.53230582  0.77699265  1
  Ga  Ga13  1  0.53230582  0.77699265  0.67421180  1
  Ga  Ga14  1  0.22300735  0.32578820  0.46769418  1
  Ga  Ga15  1  0.32578820  0.46769418  0.22300735  1
  Ga  Ga16  1  0.46769418  0.22300735  0.32578820  1
  Ga  Ga17  1  0.07316780  0.77859185  0.44357572  1
  Ga  Ga18  1  0.77859185  0.44357572  0.07316780  1
  Ga  Ga19  1  0.44357572  0.07316780  0.77859185  1
  Ga  Ga20  1  0.92683220  0.22140815  0.55642428  1
  Ga  Ga21  1  0.22140815  0.55642428  0.92683220  1
  Ga  Ga22  1  0.55642428  0.92683220  0.22140815  1
  Ga  Ga23  1  0.78620357  0.96615763  0.59692805  1
  Ga  Ga24  1  0.96615763  0.59692805  0.78620357  1
  Ga  Ga25  1  0.59692805  0.78620357  0.96615763  1
  Ga  Ga26  1  0.21379643  0.03384237  0.40307195  1
  Ga  Ga27  1  0.03384237  0.40307195  0.21379643  1
  Ga  Ga28  1  0.40307195  0.21379643  0.03384237  1
  Ga  Ga29  1  0.71177029  0.04334169  0.85877847  1
  Ga  Ga30  1  0.04334169  0.85877847  0.71177029  1
  Ga  Ga31  1  0.85877847  0.71177029  0.04334169  1
  Ga  Ga32  1  0.28822971  0.95665831  0.14122153  1
  Ga  Ga33  1  0.95665831  0.14122153  0.28822971  1
  Ga  Ga34  1  0.14122153  0.28822971  0.95665831  1
  Ga  Ga35  1  0.17230914  0.12191470  0.68741686  1
  Ga  Ga36  1  0.12191470  0.68741686  0.17230914  1
  Ga  Ga37  1  0.68741686  0.17230914  0.12191470  1
  Ga  Ga38  1  0.82769086  0.87808530  0.31258314  1
  Ga  Ga39  1  0.87808530  0.31258314  0.82769086  1
  Ga  Ga40  1  0.31258314  0.82769086  0.87808530  1
  Mo  Mo41  1  0.78940952  0.78940952  0.78940952  1
  Mo  Mo42  1  0.21059048  0.21059048  0.21059048  1
  Mo  Mo43  1  0.61044172  0.29133331  0.88641372  1
  Mo  Mo44  1  0.29133331  0.88641372  0.61044172  1
  Mo  Mo45  1  0.88641372  0.61044172  0.29133331  1
  Mo  Mo46  1  0.38955828  0.70866669  0.11358628  1
  Mo  Mo47  1  0.70866669  0.11358628  0.38955828  1
  Mo  Mo48  1  0.11358628  0.38955828  0.70866669  1
