# generated using pymatgen
data_Rb2PH6(SO)3
_symmetry_space_group_name_H-M   'P 1'
_cell_length_a   9.24739098
_cell_length_b   9.34421015
_cell_length_c   13.05398970
_cell_angle_alpha   90.00000000
_cell_angle_beta   90.00000000
_cell_angle_gamma   115.50468599
_symmetry_Int_Tables_number   1
_chemical_formula_structural   Rb2PH6(SO)3
_chemical_formula_sum   'Rb8 P4 H24 S12 O12'
_cell_volume   1018.06706451
_cell_formula_units_Z   4
loop_
 _symmetry_equiv_pos_site_id
 _symmetry_equiv_pos_as_xyz
  1  'x, y, z'
loop_
 _atom_site_type_symbol
 _atom_site_label
 _atom_site_symmetry_multiplicity
 _atom_site_fract_x
 _atom_site_fract_y
 _atom_site_fract_z
 _atom_site_occupancy
  Rb  Rb0  1  0.84642908  0.40104231  0.62767359  1
  Rb  Rb1  1  0.15357092  0.09895769  0.12767359  1
  Rb  Rb2  1  0.15357092  0.59895769  0.37232641  1
  Rb  Rb3  1  0.84642908  0.90104231  0.87232641  1
  Rb  Rb4  1  0.61102867  0.18256213  0.30983651  1
  Rb  Rb5  1  0.38897133  0.31743787  0.80983651  1
  Rb  Rb6  1  0.38897133  0.81743787  0.69016349  1
  Rb  Rb7  1  0.61102867  0.68256213  0.19016349  1
  P  P8  1  0.61227713  0.61835753  0.50003735  1
  P  P9  1  0.38772287  0.88164247  0.00003735  1
  P  P10  1  0.38772287  0.38164247  0.49996265  1
  P  P11  1  0.61227713  0.11835753  0.99996265  1
  H  H12  1  0.70705220  0.97508774  0.54905404  1
  H  H13  1  0.29294780  0.52491226  0.04905404  1
  H  H14  1  0.29294780  0.02491226  0.45094596  1
  H  H15  1  0.70705220  0.47508774  0.95094596  1
  H  H16  1  0.85366247  0.05232998  0.62654485  1
  H  H17  1  0.14633753  0.44767002  0.12654485  1
  H  H18  1  0.14633753  0.94767002  0.37345515  1
  H  H19  1  0.85366247  0.55232998  0.87345515  1
  H  H20  1  0.05710881  0.48441671  0.84339453  1
  H  H21  1  0.94289119  0.01558329  0.34339453  1
  H  H22  1  0.94289119  0.51558329  0.15660547  1
  H  H23  1  0.05710881  0.98441671  0.65660547  1
  H  H24  1  0.09971579  0.66812799  0.84150410  1
  H  H25  1  0.90028421  0.83187201  0.34150410  1
  H  H26  1  0.90028421  0.33187201  0.15849590  1
  H  H27  1  0.09971579  0.16812799  0.65849590  1
  H  H28  1  0.10757813  0.84104393  0.53035639  1
  H  H29  1  0.89242187  0.65895607  0.03035639  1
  H  H30  1  0.89242187  0.15895607  0.46964361  1
  H  H31  1  0.10757813  0.34104393  0.96964361  1
  H  H32  1  0.95226788  0.75389448  0.59991438  1
  H  H33  1  0.04773212  0.74610552  0.09991438  1
  H  H34  1  0.04773212  0.24610552  0.40008562  1
  H  H35  1  0.95226788  0.25389448  0.90008562  1
  S  S36  1  0.77047498  0.58275983  0.40588204  1
  S  S37  1  0.22952502  0.91724017  0.90588204  1
  S  S38  1  0.22952502  0.41724017  0.59411796  1
  S  S39  1  0.77047498  0.08275983  0.09411796  1
  S  S40  1  0.68488694  0.65783751  0.64851303  1
  S  S41  1  0.31511306  0.84216249  0.14851303  1
  S  S42  1  0.31511306  0.34216249  0.35148697  1
  S  S43  1  0.68488694  0.15783751  0.85148697  1
  S  S44  1  0.54428511  0.78337573  0.44418251  1
  S  S45  1  0.45571489  0.71662427  0.94418251  1
  S  S46  1  0.45571489  0.21662427  0.55581749  1
  S  S47  1  0.54428511  0.28337573  0.05581749  1
  O  O48  1  0.77768559  0.07614493  0.58340219  1
  O  O49  1  0.22231441  0.42385507  0.08340219  1
  O  O50  1  0.22231441  0.92385507  0.41659781  1
  O  O51  1  0.77768559  0.57614493  0.91659781  1
  O  O52  1  0.02920262  0.06423284  0.69033278  1
  O  O53  1  0.97079738  0.43576716  0.19033278  1
  O  O54  1  0.97079738  0.93576716  0.30966722  1
  O  O55  1  0.02920262  0.56423284  0.80966722  1
  O  O56  1  0.07108423  0.80600418  0.60176247  1
  O  O57  1  0.92891577  0.69399582  0.10176247  1
  O  O58  1  0.92891577  0.19399582  0.39823753  1
  O  O59  1  0.07108423  0.30600418  0.89823753  1
