# generated using pymatgen
data_Ag6Mo10O33
_symmetry_space_group_name_H-M   'P 1'
_cell_length_a   7.66744961
_cell_length_b   8.44169367
_cell_length_c   11.47017791
_cell_angle_alpha   82.42516015
_cell_angle_beta   77.37466802
_cell_angle_gamma   73.86612174
_symmetry_Int_Tables_number   1
_chemical_formula_structural   Ag6Mo10O33
_chemical_formula_sum   'Ag6 Mo10 O33'
_cell_volume   693.93306749
_cell_formula_units_Z   1
loop_
 _symmetry_equiv_pos_site_id
 _symmetry_equiv_pos_as_xyz
  1  'x, y, z'
loop_
 _atom_site_type_symbol
 _atom_site_label
 _atom_site_symmetry_multiplicity
 _atom_site_fract_x
 _atom_site_fract_y
 _atom_site_fract_z
 _atom_site_occupancy
  Ag  Ag0  1  0.34653794  0.00539823  0.24819451  1
  Ag  Ag1  1  0.65346206  0.99460177  0.75180549  1
  Ag  Ag2  1  0.16183302  0.47800492  0.21112967  1
  Ag  Ag3  1  0.83816698  0.52199508  0.78887033  1
  Ag  Ag4  1  0.55516246  0.52369277  0.23784741  1
  Ag  Ag5  1  0.44483754  0.47630723  0.76215259  1
  Mo  Mo6  1  0.43115296  0.22558939  0.48878240  1
  Mo  Mo7  1  0.56884704  0.77441061  0.51121760  1
  Mo  Mo8  1  0.92834192  0.23086641  0.49004626  1
  Mo  Mo9  1  0.07165808  0.76913359  0.50995374  1
  Mo  Mo10  1  0.85602831  0.80205218  0.03036953  1
  Mo  Mo11  1  0.14397169  0.19794782  0.96963047  1
  Mo  Mo12  1  0.70326464  0.20319814  0.01510444  1
  Mo  Mo13  1  0.29673536  0.79680186  0.98489556  1
  Mo  Mo14  1  0.81654593  0.99968460  0.31815467  1
  Mo  Mo15  1  0.18345407  0.00031540  0.68184533  1
  O  O16  1  0.00000000  0.00000000  -0.00000000  1
  O  O17  1  0.11283457  0.67031746  0.02419010  1
  O  O18  1  0.88716543  0.32968254  0.97580990  1
  O  O19  1  0.65114754  0.99446117  0.07940205  1
  O  O20  1  0.34885246  0.00553883  0.92059795  1
  O  O21  1  0.50962952  0.34787164  0.08471056  1
  O  O22  1  0.49037048  0.65212836  0.91528944  1
  O  O23  1  0.75437547  0.64917568  0.11170495  1
  O  O24  1  0.24562453  0.35082432  0.88829505  1
  O  O25  1  0.17249843  0.20304155  0.11748887  1
  O  O26  1  0.82750157  0.79695845  0.88251113  1
  O  O27  1  0.33701054  0.79608011  0.13046908  1
  O  O28  1  0.66298946  0.20391989  0.86953092  1
  O  O29  1  0.78078760  0.17129933  0.21247804  1
  O  O30  1  0.21921240  0.82870067  0.78752196  1
  O  O31  1  0.90238934  0.83242657  0.22714103  1
  O  O32  1  0.09761066  0.16757343  0.77285897  1
  O  O33  1  0.40222910  0.33481166  0.34914843  1
  O  O34  1  0.59777090  0.66518834  0.65085157  1
  O  O35  1  0.96245852  0.37277683  0.36768363  1
  O  O36  1  0.03754148  0.62722317  0.63231637  1
  O  O37  1  0.03121767  0.00789865  0.37855242  1
  O  O38  1  0.96878233  0.99210135  0.62144758  1
  O  O39  1  0.55392046  0.98739283  0.37927457  1
  O  O40  1  0.44607954  0.01260717  0.62072543  1
  O  O41  1  0.18446463  0.65339961  0.38805121  1
  O  O42  1  0.81553537  0.34660039  0.61194879  1
  O  O43  1  0.60995078  0.62486925  0.41128793  1
  O  O44  1  0.39004922  0.37513075  0.58871207  1
  O  O45  1  0.70420901  0.17404590  0.46579209  1
  O  O46  1  0.29579099  0.82595410  0.53420791  1
  O  O47  1  0.81511006  0.82427992  0.48176023  1
  O  O48  1  0.18488994  0.17572008  0.51823977  1
