# generated using pymatgen
data_SnI3
_symmetry_space_group_name_H-M   'P 1'
_cell_length_a   8.27658523
_cell_length_b   8.27658523
_cell_length_c   8.35439701
_cell_angle_alpha   119.69237495
_cell_angle_beta   119.69237495
_cell_angle_gamma   90.00000000
_symmetry_Int_Tables_number   1
_chemical_formula_structural   SnI3
_chemical_formula_sum   'Sn2 I6'
_cell_volume   408.40565936
_cell_formula_units_Z   2
loop_
 _symmetry_equiv_pos_site_id
 _symmetry_equiv_pos_as_xyz
  1  'x, y, z'
loop_
 _atom_site_type_symbol
 _atom_site_label
 _atom_site_symmetry_multiplicity
 _atom_site_fract_x
 _atom_site_fract_y
 _atom_site_fract_z
 _atom_site_occupancy
  Sn  Sn0  1  0.50000000  0.50000000  0.00000000  1
  Sn  Sn1  1  -0.00000000  -0.00000000  0.00000000  1
  I  I2  1  0.32404465  0.82404465  0.00000000  1
  I  I3  1  0.67595535  0.17595535  -0.00000000  1
  I  I4  1  0.17595535  0.32404465  0.00000000  1
  I  I5  1  0.82404465  0.67595535  -0.00000000  1
  I  I6  1  0.75000000  0.75000000  0.50000000  1
  I  I7  1  0.25000000  0.25000000  0.50000000  1
