# generated using pymatgen
data_Pr2Ge2Ru
_symmetry_space_group_name_H-M   'P 1'
_cell_length_a   4.41431235
_cell_length_b   6.08578831
_cell_length_c   9.52919365
_cell_angle_alpha   82.85500244
_cell_angle_beta   76.60750972
_cell_angle_gamma   68.73550894
_symmetry_Int_Tables_number   1
_chemical_formula_structural   Pr2Ge2Ru
_chemical_formula_sum   'Pr4 Ge4 Ru2'
_cell_volume   231.85051226
_cell_formula_units_Z   2
loop_
 _symmetry_equiv_pos_site_id
 _symmetry_equiv_pos_as_xyz
  1  'x, y, z'
loop_
 _atom_site_type_symbol
 _atom_site_label
 _atom_site_symmetry_multiplicity
 _atom_site_fract_x
 _atom_site_fract_y
 _atom_site_fract_z
 _atom_site_occupancy
  Pr  Pr0  1  0.00054212  0.67231219  0.32660356  1
  Pr  Pr1  1  -0.00054212  0.32768781  0.67339644  1
  Pr  Pr2  1  0.81595023  0.26011752  0.10798202  1
  Pr  Pr3  1  0.18404977  0.73988248  0.89201798  1
  Ge  Ge4  1  0.65560784  0.25719790  0.43158642  1
  Ge  Ge5  1  0.34439216  0.74280210  0.56841358  1
  Ge  Ge6  1  0.50164970  0.86874648  0.12795413  1
  Ge  Ge7  1  0.49835030  0.13125352  0.87204587  1
  Ru  Ru8  1  0.72837662  0.92306836  0.62017840  1
  Ru  Ru9  1  0.27162338  0.07693164  0.37982160  1
