# generated using pymatgen
data_Tb3(Co2Sn)4
_symmetry_space_group_name_H-M   'P 1'
_cell_length_a   7.55511574
_cell_length_b   8.85301341
_cell_length_c   8.85301341
_cell_angle_alpha   120.00000021
_cell_angle_beta   90.00000000
_cell_angle_gamma   90.00000000
_symmetry_Int_Tables_number   1
_chemical_formula_structural   Tb3(Co2Sn)4
_chemical_formula_sum   'Tb6 Co16 Sn8'
_cell_volume   512.80706114
_cell_formula_units_Z   2
loop_
 _symmetry_equiv_pos_site_id
 _symmetry_equiv_pos_as_xyz
  1  'x, y, z'
loop_
 _atom_site_type_symbol
 _atom_site_label
 _atom_site_symmetry_multiplicity
 _atom_site_fract_x
 _atom_site_fract_y
 _atom_site_fract_z
 _atom_site_occupancy
  Tb  Tb0  1  0.78462411  0.47549064  0.95098127  1
  Tb  Tb1  1  0.78462411  0.47549064  0.52450936  1
  Tb  Tb2  1  0.28462411  0.52450936  0.04901873  1
  Tb  Tb3  1  0.78462411  0.04901873  0.52450936  1
  Tb  Tb4  1  0.28462411  0.52450936  0.47549064  1
  Tb  Tb5  1  0.28462411  0.95098127  0.47549064  1
  Co  Co6  1  0.62463967  0.66666700  0.33333300  1
  Co  Co7  1  0.12463967  0.33333300  0.66666700  1
  Co  Co8  1  0.75491600  0.09784076  0.19568151  1
  Co  Co9  1  0.75491600  0.09784076  0.90215924  1
  Co  Co10  1  0.25491600  0.90215924  0.80431849  1
  Co  Co11  1  0.75491600  0.80431849  0.90215924  1
  Co  Co12  1  0.25491600  0.90215924  0.09784076  1
  Co  Co13  1  0.25491600  0.19568151  0.09784076  1
  Co  Co14  1  0.94361487  0.84073617  0.68147234  1
  Co  Co15  1  0.94361487  0.84073617  0.15926383  1
  Co  Co16  1  0.44361487  0.15926383  0.31852766  1
  Co  Co17  1  0.94361487  0.31852766  0.15926383  1
  Co  Co18  1  0.44361487  0.15926383  0.84073617  1
  Co  Co19  1  0.44361487  0.68147234  0.84073617  1
  Co  Co20  1  -0.00124297  0.00000000  -0.00000000  1
  Co  Co21  1  0.49875703  0.00000000  -0.00000000  1
  Sn  Sn22  1  0.97435666  0.66666700  0.33333300  1
  Sn  Sn23  1  0.47435666  0.33333300  0.66666700  1
  Sn  Sn24  1  0.57262723  0.82906473  0.65812945  1
  Sn  Sn25  1  0.57262723  0.82906473  0.17093527  1
  Sn  Sn26  1  0.07262723  0.17093527  0.34187055  1
  Sn  Sn27  1  0.57262723  0.34187055  0.17093527  1
  Sn  Sn28  1  0.07262723  0.17093527  0.82906473  1
  Sn  Sn29  1  0.07262723  0.65812945  0.82906473  1
