# generated using pymatgen
data_Y12(ReC3)5
_symmetry_space_group_name_H-M   'P 1'
_cell_length_a   5.11715278
_cell_length_b   10.77013880
_cell_length_c   10.77013880
_cell_angle_alpha   120.00000442
_cell_angle_beta   90.00000000
_cell_angle_gamma   90.00000000
_symmetry_Int_Tables_number   1
_chemical_formula_structural   Y12(ReC3)5
_chemical_formula_sum   'Y12 Re5 C15'
_cell_volume   514.04554131
_cell_formula_units_Z   1
loop_
 _symmetry_equiv_pos_site_id
 _symmetry_equiv_pos_as_xyz
  1  'x, y, z'
loop_
 _atom_site_type_symbol
 _atom_site_label
 _atom_site_symmetry_multiplicity
 _atom_site_fract_x
 _atom_site_fract_y
 _atom_site_fract_z
 _atom_site_occupancy
  Y  Y0  1  0.50000000  0.20596643  0.20596643  1
  Y  Y1  1  0.50000000  1.00000000  0.79403357  1
  Y  Y2  1  0.50000000  0.79403357  1.00000000  1
  Y  Y3  1  -0.00000000  0.72917687  0.18540731  1
  Y  Y4  1  0.00000000  0.45623044  0.27082313  1
  Y  Y5  1  -0.00000000  0.54376956  0.81459269  1
  Y  Y6  1  0.00000000  0.81459269  0.54376956  1
  Y  Y7  1  -0.00000000  0.18540731  0.72917687  1
  Y  Y8  1  0.00000000  0.27082313  0.45623044  1
  Y  Y9  1  0.50000000  0.57560553  0.57560553  1
  Y  Y10  1  0.50000000  0.00000000  0.42439447  1
  Y  Y11  1  0.50000000  0.42439447  0.00000000  1
  Re  Re12  1  -0.00000000  0.84749969  0.84749969  1
  Re  Re13  1  0.00000000  0.00000000  0.15250031  1
  Re  Re14  1  0.00000000  0.15250031  0.00000000  1
  Re  Re15  1  0.50000000  0.66666700  0.33333300  1
  Re  Re16  1  0.50000000  0.33333300  0.66666700  1
  C  C17  1  0.00000000  0.66722576  0.66722576  1
  C  C18  1  -0.00000000  1.00000000  0.33277424  1
  C  C19  1  -0.00000000  0.33277424  1.00000000  1
  C  C20  1  0.00000000  0.21422645  0.21422645  1
  C  C21  1  -0.00000000  1.00000000  0.78577355  1
  C  C22  1  -0.00000000  0.78577355  1.00000000  1
  C  C23  1  -0.00000000  0.54130715  0.54130715  1
  C  C24  1  0.00000000  0.00000000  0.45869285  1
  C  C25  1  0.00000000  0.45869285  0.00000000  1
  C  C26  1  0.50000000  0.71804949  0.18731015  1
  C  C27  1  0.50000000  0.46926066  0.28195051  1
  C  C28  1  0.50000000  0.53073934  0.81268985  1
  C  C29  1  0.50000000  0.81268985  0.53073934  1
  C  C30  1  0.50000000  0.18731015  0.71804949  1
  C  C31  1  0.50000000  0.28195051  0.46926066  1
