# generated using pymatgen
data_Sr2P3Pb3O13
_symmetry_space_group_name_H-M   'P 1'
_cell_length_a   7.42564266
_cell_length_b   9.89739988
_cell_length_c   9.89739988
_cell_angle_alpha   119.99999999
_cell_angle_beta   90.00000000
_cell_angle_gamma   90.00000000
_symmetry_Int_Tables_number   1
_chemical_formula_structural   Sr2P3Pb3O13
_chemical_formula_sum   'Sr4 P6 Pb6 O26'
_cell_volume   629.95120656
_cell_formula_units_Z   2
loop_
 _symmetry_equiv_pos_site_id
 _symmetry_equiv_pos_as_xyz
  1  'x, y, z'
loop_
 _atom_site_type_symbol
 _atom_site_label
 _atom_site_symmetry_multiplicity
 _atom_site_fract_x
 _atom_site_fract_y
 _atom_site_fract_z
 _atom_site_occupancy
  Sr  Sr0  1  0.99540694  0.66666700  0.33333300  1
  Sr  Sr1  1  0.00459306  0.33333300  0.66666700  1
  Sr  Sr2  1  0.49540694  0.33333300  0.66666700  1
  Sr  Sr3  1  0.50459306  0.66666700  0.33333300  1
  P  P4  1  0.75000000  0.58931836  0.62367424  1
  P  P5  1  0.25000000  0.41068164  0.37632576  1
  P  P6  1  0.75000000  0.03435588  0.41068164  1
  P  P7  1  0.25000000  0.96564412  0.58931836  1
  P  P8  1  0.75000000  0.37632576  0.96564412  1
  P  P9  1  0.25000000  0.62367424  0.03435588  1
  Pb  Pb10  1  0.75000000  0.76029290  0.99407533  1
  Pb  Pb11  1  0.25000000  0.23970710  0.00592467  1
  Pb  Pb12  1  0.75000000  0.23378242  0.23970710  1
  Pb  Pb13  1  0.25000000  0.76621758  0.76029290  1
  Pb  Pb14  1  0.75000000  0.00592467  0.76621758  1
  Pb  Pb15  1  0.25000000  0.99407533  0.23378242  1
  O  O16  1  0.75000000  0.85720137  0.35014600  1
  O  O17  1  0.25000000  0.14279863  0.64985400  1
  O  O18  1  0.75000000  0.49294463  0.14279863  1
  O  O19  1  0.25000000  0.50705537  0.85720137  1
  O  O20  1  0.75000000  0.64985400  0.50705537  1
  O  O21  1  0.25000000  0.35014600  0.49294463  1
  O  O22  1  0.75000000  0.40656572  0.53492534  1
  O  O23  1  0.25000000  0.59343428  0.46507466  1
  O  O24  1  0.75000000  0.12835961  0.59343428  1
  O  O25  1  0.25000000  0.87164039  0.40656572  1
  O  O26  1  0.75000000  0.46507466  0.87164039  1
  O  O27  1  0.25000000  0.53492534  0.12835961  1
  O  O28  1  0.75000000  0.00000000  -0.00000000  1
  O  O29  1  0.25000000  0.00000000  -0.00000000  1
  O  O30  1  0.91902290  0.64533620  0.73354173  1
  O  O31  1  0.08097710  0.35466380  0.26645827  1
  O  O32  1  0.91902290  0.08820553  0.35466380  1
  O  O33  1  0.41902290  0.35466380  0.26645827  1
  O  O34  1  0.08097710  0.91179447  0.64533620  1
  O  O35  1  0.58097710  0.64533620  0.73354173  1
  O  O36  1  0.91902290  0.26645827  0.91179447  1
  O  O37  1  0.41902290  0.91179447  0.64533620  1
  O  O38  1  0.08097710  0.73354173  0.08820553  1
  O  O39  1  0.58097710  0.08820553  0.35466380  1
  O  O40  1  0.41902290  0.73354173  0.08820553  1
  O  O41  1  0.58097710  0.26645827  0.91179447  1
