# generated using pymatgen
data_Sr2LiTeO6
_symmetry_space_group_name_H-M   'P 1'
_cell_length_a   5.67966475
_cell_length_b   5.67929346
_cell_length_c   8.07000684
_cell_angle_alpha   90.08535612
_cell_angle_beta   90.00000000
_cell_angle_gamma   90.00000000
_symmetry_Int_Tables_number   1
_chemical_formula_structural   Sr2LiTeO6
_chemical_formula_sum   'Sr4 Li2 Te2 O12'
_cell_volume   260.30974858
_cell_formula_units_Z   2
loop_
 _symmetry_equiv_pos_site_id
 _symmetry_equiv_pos_as_xyz
  1  'x, y, z'
loop_
 _atom_site_type_symbol
 _atom_site_label
 _atom_site_symmetry_multiplicity
 _atom_site_fract_x
 _atom_site_fract_y
 _atom_site_fract_z
 _atom_site_occupancy
  Sr  Sr0  1  0.50098518  0.00227997  0.74994397  1
  Sr  Sr1  1  0.49901482  0.99772003  0.25005603  1
  Sr  Sr2  1  0.00098518  0.49772003  0.75005603  1
  Sr  Sr3  1  0.99901482  0.50227997  0.24994397  1
  Li  Li4  1  -0.00000000  0.00000000  0.50000000  1
  Li  Li5  1  0.50000000  0.50000000  -0.00000000  1
  Te  Te6  1  -0.00000000  0.00000000  -0.00000000  1
  Te  Te7  1  0.50000000  0.50000000  0.50000000  1
  O  O8  1  0.77644875  0.74318701  0.99588282  1
  O  O9  1  0.22355125  0.25681299  0.00411718  1
  O  O10  1  0.27644875  0.75681299  0.50411718  1
  O  O11  1  0.72355125  0.24318701  0.49588282  1
  O  O12  1  0.25640581  0.77607717  0.99671291  1
  O  O13  1  0.74359419  0.22392283  0.00328709  1
  O  O14  1  0.75640581  0.72392283  0.50328709  1
  O  O15  1  0.24359419  0.27607717  0.49671291  1
  O  O16  1  0.99989733  0.00868902  0.76055915  1
  O  O17  1  0.00010267  0.99131098  0.23944085  1
  O  O18  1  0.49989733  0.49131098  0.73944085  1
  O  O19  1  0.50010267  0.50868902  0.26055915  1
