# generated using pymatgen
data_Tm2MnS4
_symmetry_space_group_name_H-M   'P 1'
_cell_length_a   7.10519700
_cell_length_b   7.10519714
_cell_length_c   7.10519697
_cell_angle_alpha   110.61970605
_cell_angle_beta   110.61970629
_cell_angle_gamma   107.19789082
_symmetry_Int_Tables_number   1
_chemical_formula_structural   Tm2MnS4
_chemical_formula_sum   'Tm4 Mn2 S8'
_cell_volume   275.80106834
_cell_formula_units_Z   2
loop_
 _symmetry_equiv_pos_site_id
 _symmetry_equiv_pos_as_xyz
  1  'x, y, z'
loop_
 _atom_site_type_symbol
 _atom_site_label
 _atom_site_symmetry_multiplicity
 _atom_site_fract_x
 _atom_site_fract_y
 _atom_site_fract_z
 _atom_site_occupancy
  Tm  Tm0  1  0.11313417  0.75000000  0.86313417  1
  Tm  Tm1  1  0.25000000  0.61313417  0.36313417  1
  Tm  Tm2  1  0.38686583  0.25000000  0.63686583  1
  Tm  Tm3  1  0.75000000  0.88686583  0.13686583  1
  Mn  Mn4  1  0.62500000  0.37500000  0.25000000  1
  Mn  Mn5  1  0.87500000  0.12500000  0.75000000  1
  S  S6  1  0.00668708  0.89020462  0.51590203  1
  S  S7  1  0.99078504  0.37430259  0.48409797  1
  S  S8  1  0.49331292  0.00921496  0.88351755  1
  S  S9  1  0.10979538  0.12569741  0.11648245  1
  S  S10  1  0.39020462  0.50668708  0.01590203  1
  S  S11  1  0.62569741  0.60979538  0.61648245  1
  S  S12  1  0.50921496  0.99331292  0.38351755  1
  S  S13  1  0.87430259  0.49078504  0.98409797  1
