# generated using pymatgen
data_U3Ga2Ge3
_symmetry_space_group_name_H-M   'P 1'
_cell_length_a   7.74791357
_cell_length_b   7.74791357
_cell_length_c   7.79162681
_cell_angle_alpha   119.81458619
_cell_angle_beta   119.81458619
_cell_angle_gamma   90.00000000
_symmetry_Int_Tables_number   1
_chemical_formula_structural   U3Ga2Ge3
_chemical_formula_sum   'U6 Ga4 Ge6'
_cell_volume   332.58209770
_cell_formula_units_Z   2
loop_
 _symmetry_equiv_pos_site_id
 _symmetry_equiv_pos_as_xyz
  1  'x, y, z'
loop_
 _atom_site_type_symbol
 _atom_site_label
 _atom_site_symmetry_multiplicity
 _atom_site_fract_x
 _atom_site_fract_y
 _atom_site_fract_z
 _atom_site_occupancy
  U  U0  1  0.17458884  0.36290189  0.03733908  1
  U  U1  1  0.86275024  0.67443720  0.03733908  1
  U  U2  1  0.67443720  0.17458884  0.03733908  1
  U  U3  1  0.36290189  0.86275024  0.03733908  1
  U  U4  1  0.74919057  0.74919057  0.49838115  1
  U  U5  1  0.24926417  0.24926417  0.49852834  1
  Ga  Ga6  1  0.47336206  0.69296086  0.66630446  1
  Ga  Ga7  1  0.19294240  0.97334359  0.66630446  1
  Ga  Ga8  1  0.97334359  0.47336206  0.66630446  1
  Ga  Ga9  1  0.69296086  0.19294240  0.66630446  1
  Ge  Ge10  1  0.55435752  0.35276587  0.40721944  1
  Ge  Ge11  1  0.85286192  0.05445357  0.40721944  1
  Ge  Ge12  1  0.05445357  0.55435752  0.40721944  1
  Ge  Ge13  1  0.35276587  0.85286192  0.40721944  1
  Ge  Ge14  1  0.99928764  0.99928764  0.99857527  1
  Ge  Ge15  1  0.49943165  0.49943165  0.99886331  1
