# generated using pymatgen
data_U3(CuSi)4
_symmetry_space_group_name_H-M   'P 1'
_cell_length_a   3.94152955
_cell_length_b   3.99803732
_cell_length_c   12.16175360
_cell_angle_alpha   99.46059652
_cell_angle_beta   99.32567932
_cell_angle_gamma   90.00000000
_symmetry_Int_Tables_number   1
_chemical_formula_structural   U3(CuSi)4
_chemical_formula_sum   'U3 Cu4 Si4'
_cell_volume   186.47451172
_cell_formula_units_Z   1
loop_
 _symmetry_equiv_pos_site_id
 _symmetry_equiv_pos_as_xyz
  1  'x, y, z'
loop_
 _atom_site_type_symbol
 _atom_site_label
 _atom_site_symmetry_multiplicity
 _atom_site_fract_x
 _atom_site_fract_y
 _atom_site_fract_z
 _atom_site_occupancy
  U  U0  1  0.85312734  0.35312734  0.70625467  1
  U  U1  1  0.14687266  0.64687266  0.29374533  1
  U  U2  1  -0.00000000  -0.00000000  -0.00000000  1
  Cu  Cu3  1  0.25011253  0.25011253  0.50022505  1
  Cu  Cu4  1  0.74988747  0.74988747  0.49977495  1
  Cu  Cu5  1  0.59643590  0.09643590  0.19287180  1
  Cu  Cu6  1  0.40356410  0.90356410  0.80712820  1
  Si  Si7  1  0.45072785  0.45072785  0.90145571  1
  Si  Si8  1  0.54927215  0.54927215  0.09854429  1
  Si  Si9  1  0.69301109  0.19301109  0.38602217  1
  Si  Si10  1  0.30698891  0.80698891  0.61397783  1
