# generated using pymatgen
data_Tm2MgTiO6
_symmetry_space_group_name_H-M   'P 1'
_cell_length_a   5.26002741
_cell_length_b   5.58375917
_cell_length_c   7.66020181
_cell_angle_alpha   90.00000000
_cell_angle_beta   89.28753226
_cell_angle_gamma   90.00000000
_symmetry_Int_Tables_number   1
_chemical_formula_structural   Tm2MgTiO6
_chemical_formula_sum   'Tm4 Mg2 Ti2 O12'
_cell_volume   224.96829651
_cell_formula_units_Z   2
loop_
 _symmetry_equiv_pos_site_id
 _symmetry_equiv_pos_as_xyz
  1  'x, y, z'
loop_
 _atom_site_type_symbol
 _atom_site_label
 _atom_site_symmetry_multiplicity
 _atom_site_fract_x
 _atom_site_fract_y
 _atom_site_fract_z
 _atom_site_occupancy
  Tm  Tm0  1  0.02034518  0.43221466  0.25546199  1
  Tm  Tm1  1  0.97965482  0.56778534  0.74453801  1
  Tm  Tm2  1  0.47965482  0.93221466  0.24453801  1
  Tm  Tm3  1  0.52034518  0.06778534  0.75546199  1
  Mg  Mg4  1  0.00000000  -0.00000000  0.50000000  1
  Mg  Mg5  1  0.50000000  0.50000000  0.00000000  1
  Ti  Ti6  1  0.00000000  -0.00000000  -0.00000000  1
  Ti  Ti7  1  0.50000000  0.50000000  0.50000000  1
  O  O8  1  0.87683571  0.05151193  0.24229133  1
  O  O9  1  0.12316429  0.94848807  0.75770867  1
  O  O10  1  0.62316429  0.55151193  0.25770867  1
  O  O11  1  0.37683571  0.44848807  0.74229133  1
  O  O12  1  0.18474916  0.70337487  0.06903728  1
  O  O13  1  0.81525084  0.29662513  0.93096272  1
  O  O14  1  0.31525084  0.20337487  0.43096272  1
  O  O15  1  0.68474916  0.79662513  0.56903728  1
  O  O16  1  0.30319896  0.18642563  0.05642014  1
  O  O17  1  0.69680104  0.81357437  0.94357986  1
  O  O18  1  0.19680104  0.68642563  0.44357986  1
  O  O19  1  0.80319896  0.31357437  0.55642014  1
