# generated using pymatgen
data_Tm7Ru2C11
_symmetry_space_group_name_H-M   'P 1'
_cell_length_a   3.38662867
_cell_length_b   8.38212930
_cell_length_c   19.59768217
_cell_angle_alpha   90.00000000
_cell_angle_beta   90.00000000
_cell_angle_gamma   101.65480492
_symmetry_Int_Tables_number   1
_chemical_formula_structural   Tm7Ru2C11
_chemical_formula_sum   'Tm14 Ru4 C22'
_cell_volume   544.85252878
_cell_formula_units_Z   2
loop_
 _symmetry_equiv_pos_site_id
 _symmetry_equiv_pos_as_xyz
  1  'x, y, z'
loop_
 _atom_site_type_symbol
 _atom_site_label
 _atom_site_symmetry_multiplicity
 _atom_site_fract_x
 _atom_site_fract_y
 _atom_site_fract_z
 _atom_site_occupancy
  Tm  Tm0  1  0.89730564  0.79461128  0.25000000  1
  Tm  Tm1  1  0.10269436  0.20538872  0.75000000  1
  Tm  Tm2  1  0.27835719  0.55671437  0.65474515  1
  Tm  Tm3  1  0.72164281  0.44328563  0.34525485  1
  Tm  Tm4  1  0.72164281  0.44328563  0.15474515  1
  Tm  Tm5  1  0.27835719  0.55671437  0.84525485  1
  Tm  Tm6  1  0.33788818  0.67577636  0.01946440  1
  Tm  Tm7  1  0.66211182  0.32422364  0.98053560  1
  Tm  Tm8  1  0.66211182  0.32422364  0.51946440  1
  Tm  Tm9  1  0.33788818  0.67577636  0.48053560  1
  Tm  Tm10  1  0.52286538  0.04573077  0.12727556  1
  Tm  Tm11  1  0.47713462  0.95426923  0.87272444  1
  Tm  Tm12  1  0.47713462  0.95426923  0.62727556  1
  Tm  Tm13  1  0.52286538  0.04573077  0.37272444  1
  Ru  Ru14  1  0.08159036  0.16318072  0.25000000  1
  Ru  Ru15  1  0.91840964  0.83681928  0.75000000  1
  Ru  Ru16  1  0.00000000  0.00000000  0.00000000  1
  Ru  Ru17  1  0.00000000  0.00000000  0.50000000  1
  C  C18  1  0.28050688  0.56101376  0.25000000  1
  C  C19  1  0.71949312  0.43898624  0.75000000  1
  C  C20  1  0.50139901  0.00279803  0.25000000  1
  C  C21  1  0.49860099  0.99720197  0.75000000  1
  C  C22  1  0.07453514  0.14907028  0.58002943  1
  C  C23  1  0.92546486  0.85092972  0.41997057  1
  C  C24  1  0.92546486  0.85092972  0.08002943  1
  C  C25  1  0.07453514  0.14907028  0.91997057  1
  C  C26  1  0.13474141  0.26948282  0.62331056  1
  C  C27  1  0.86525859  0.73051718  0.37668944  1
  C  C28  1  0.86525859  0.73051718  0.12331056  1
  C  C29  1  0.13474141  0.26948282  0.87668944  1
  C  C30  1  0.20622430  0.41244861  0.06321068  1
  C  C31  1  0.79377570  0.58755139  0.93678932  1
  C  C32  1  0.79377570  0.58755139  0.56321068  1
  C  C33  1  0.20622430  0.41244861  0.43678932  1
  C  C34  1  0.19931240  0.39862480  0.25000000  1
  C  C35  1  0.80068760  0.60137520  0.75000000  1
  C  C36  1  0.12628008  0.25256016  0.08412908  1
  C  C37  1  0.87371992  0.74743984  0.91587092  1
  C  C38  1  0.87371992  0.74743984  0.58412908  1
  C  C39  1  0.12628008  0.25256016  0.41587092  1
