# generated using pymatgen
data_Sc2SiO5
_symmetry_space_group_name_H-M   'P 1'
_cell_length_a   6.48377124
_cell_length_b   7.65242927
_cell_length_c   9.21598836
_cell_angle_alpha   71.28996592
_cell_angle_beta   69.40453563
_cell_angle_gamma   64.93530318
_symmetry_Int_Tables_number   1
_chemical_formula_structural   Sc2SiO5
_chemical_formula_sum   'Sc8 Si4 O20'
_cell_volume   379.69480628
_cell_formula_units_Z   4
loop_
 _symmetry_equiv_pos_site_id
 _symmetry_equiv_pos_as_xyz
  1  'x, y, z'
loop_
 _atom_site_type_symbol
 _atom_site_label
 _atom_site_symmetry_multiplicity
 _atom_site_fract_x
 _atom_site_fract_y
 _atom_site_fract_z
 _atom_site_occupancy
  Sc  Sc0  1  0.70409547  0.60221141  0.47609507  1
  Sc  Sc1  1  0.29590453  0.39778859  0.52390493  1
  Sc  Sc2  1  0.78240195  0.89778859  0.02390493  1
  Sc  Sc3  1  0.21759805  0.10221141  0.97609507  1
  Sc  Sc4  1  0.51822609  0.56211105  0.15838538  1
  Sc  Sc5  1  0.48177391  0.43788895  0.84161462  1
  Sc  Sc6  1  0.23872252  0.93788895  0.34161462  1
  Sc  Sc7  1  0.76127748  0.06211105  0.65838538  1
  Si  Si8  1  0.72128617  0.05801263  0.30792903  1
  Si  Si9  1  0.27871383  0.94198737  0.69207097  1
  Si  Si10  1  0.08722783  0.44198737  0.19207097  1
  Si  Si11  1  0.91277217  0.55801263  0.80792903  1
  O  O12  1  0.58001162  0.90868213  0.33750884  1
  O  O13  1  0.41998838  0.09131787  0.66249116  1
  O  O14  1  0.82620260  0.59131787  0.16249116  1
  O  O15  1  0.17379740  0.40868213  0.83750884  1
  O  O16  1  0.41653435  0.86224426  0.10241009  1
  O  O17  1  0.58346565  0.13775574  0.89758991  1
  O  O18  1  0.38118870  0.63775574  0.39758991  1
  O  O19  1  0.61881130  0.36224426  0.60241009  1
  O  O20  1  0.54529852  0.28436274  0.31809338  1
  O  O21  1  0.45470148  0.71563726  0.68190662  1
  O  O22  1  0.14775464  0.21563726  0.18190662  1
  O  O23  1  0.85224536  0.78436274  0.81809338  1
  O  O24  1  0.28333858  0.53127963  0.06112497  1
  O  O25  1  0.71666142  0.46872037  0.93887503  1
  O  O26  1  0.87574317  0.96872037  0.43887503  1
  O  O27  1  0.12425683  0.03127963  0.56112497  1
  O  O28  1  0.89823738  0.03522177  0.13225133  1
  O  O29  1  0.10176262  0.96477823  0.86774867  1
  O  O30  1  0.06571048  0.46477823  0.36774867  1
  O  O31  1  0.93428952  0.53522177  0.63225133  1
