# generated using pymatgen
data_NdGaCo4
_symmetry_space_group_name_H-M   'P 1'
_cell_length_a   4.02175289
_cell_length_b   8.72686739
_cell_length_c   8.72686739
_cell_angle_alpha   120.00000126
_cell_angle_beta   90.00000000
_cell_angle_gamma   90.00000000
_symmetry_Int_Tables_number   1
_chemical_formula_structural   NdGaCo4
_chemical_formula_sum   'Nd3 Ga3 Co12'
_cell_volume   265.25450080
_cell_formula_units_Z   3
loop_
 _symmetry_equiv_pos_site_id
 _symmetry_equiv_pos_as_xyz
  1  'x, y, z'
loop_
 _atom_site_type_symbol
 _atom_site_label
 _atom_site_symmetry_multiplicity
 _atom_site_fract_x
 _atom_site_fract_y
 _atom_site_fract_z
 _atom_site_occupancy
  Nd  Nd0  1  -0.00000000  0.66666700  0.33333300  1
  Nd  Nd1  1  -0.00000000  0.33333300  0.66666700  1
  Nd  Nd2  1  0.00000000  0.00000000  -0.00000000  1
  Ga  Ga3  1  0.50000000  0.50000000  0.50000000  1
  Ga  Ga4  1  0.50000000  0.00000000  0.50000000  1
  Ga  Ga5  1  0.50000000  0.50000000  -0.00000000  1
  Co  Co6  1  0.50000000  0.83961826  0.16038174  1
  Co  Co7  1  0.50000000  0.16038174  0.83961826  1
  Co  Co8  1  0.50000000  0.32076347  0.16038174  1
  Co  Co9  1  0.50000000  0.67923653  0.83961826  1
  Co  Co10  1  0.50000000  0.83961826  0.67923653  1
  Co  Co11  1  0.50000000  0.16038174  0.32076347  1
  Co  Co12  1  0.00000000  0.67611015  0.67611015  1
  Co  Co13  1  -0.00000000  0.32388985  0.32388985  1
  Co  Co14  1  0.00000000  0.00000000  0.32388985  1
  Co  Co15  1  -0.00000000  1.00000000  0.67611015  1
  Co  Co16  1  -0.00000000  0.32388985  0.00000000  1
  Co  Co17  1  0.00000000  0.67611015  1.00000000  1
