# generated using pymatgen
data_Nd2ZnPtO6
_symmetry_space_group_name_H-M   'P 1'
_cell_length_a   5.50626009
_cell_length_b   5.84690812
_cell_length_c   7.89366923
_cell_angle_alpha   90.00000000
_cell_angle_beta   90.27432739
_cell_angle_gamma   90.00000000
_symmetry_Int_Tables_number   1
_chemical_formula_structural   Nd2ZnPtO6
_chemical_formula_sum   'Nd4 Zn2 Pt2 O12'
_cell_volume   254.13058564
_cell_formula_units_Z   2
loop_
 _symmetry_equiv_pos_site_id
 _symmetry_equiv_pos_as_xyz
  1  'x, y, z'
loop_
 _atom_site_type_symbol
 _atom_site_label
 _atom_site_symmetry_multiplicity
 _atom_site_fract_x
 _atom_site_fract_y
 _atom_site_fract_z
 _atom_site_occupancy
  Nd  Nd0  1  0.01872735  0.43107522  0.25099909  1
  Nd  Nd1  1  0.98127265  0.56892478  0.74900091  1
  Nd  Nd2  1  0.48127265  0.93107522  0.24900091  1
  Nd  Nd3  1  0.51872735  0.06892478  0.75099909  1
  Zn  Zn4  1  -0.00000000  0.00000000  0.50000000  1
  Zn  Zn5  1  0.50000000  0.50000000  0.00000000  1
  Pt  Pt6  1  -0.00000000  0.00000000  0.00000000  1
  Pt  Pt7  1  0.50000000  0.50000000  0.50000000  1
  O  O8  1  0.89235027  0.03505909  0.24759936  1
  O  O9  1  0.10764973  0.96494091  0.75240064  1
  O  O10  1  0.60764973  0.53505909  0.25240064  1
  O  O11  1  0.39235027  0.46494091  0.74759936  1
  O  O12  1  0.18876351  0.70462120  0.05579089  1
  O  O13  1  0.81123649  0.29537880  0.94420911  1
  O  O14  1  0.31123649  0.20462120  0.44420911  1
  O  O15  1  0.68876351  0.79537880  0.55579089  1
  O  O16  1  0.30151828  0.19506929  0.05319089  1
  O  O17  1  0.69848172  0.80493071  0.94680911  1
  O  O18  1  0.19848172  0.69506929  0.44680911  1
  O  O19  1  0.80151828  0.30493071  0.55319089  1
