# generated using pymatgen
data_SrIn5Au3
_symmetry_space_group_name_H-M   'P 1'
_cell_length_a   4.52642345
_cell_length_b   15.35934618
_cell_length_c   12.82314598
_cell_angle_alpha   90.00000000
_cell_angle_beta   90.00000000
_cell_angle_gamma   90.00000000
_symmetry_Int_Tables_number   1
_chemical_formula_structural   SrIn5Au3
_chemical_formula_sum   'Sr4 In20 Au12'
_cell_volume   891.50235625
_cell_formula_units_Z   4
loop_
 _symmetry_equiv_pos_site_id
 _symmetry_equiv_pos_as_xyz
  1  'x, y, z'
loop_
 _atom_site_type_symbol
 _atom_site_label
 _atom_site_symmetry_multiplicity
 _atom_site_fract_x
 _atom_site_fract_y
 _atom_site_fract_z
 _atom_site_occupancy
  Sr  Sr0  1  0.75000000  0.70410742  0.10406439  1
  Sr  Sr1  1  0.25000000  0.29589258  0.89593561  1
  Sr  Sr2  1  0.25000000  0.79589258  0.60406439  1
  Sr  Sr3  1  0.75000000  0.20410742  0.39593561  1
  In  In4  1  0.75000000  0.99393567  0.58831954  1
  In  In5  1  0.25000000  0.00606433  0.41168046  1
  In  In6  1  0.25000000  0.50606433  0.08831954  1
  In  In7  1  0.75000000  0.49393567  0.91168046  1
  In  In8  1  0.75000000  0.68925254  0.39527059  1
  In  In9  1  0.25000000  0.31074746  0.60472941  1
  In  In10  1  0.25000000  0.81074746  0.89527059  1
  In  In11  1  0.75000000  0.18925254  0.10472941  1
  In  In12  1  0.75000000  0.93073927  0.98532074  1
  In  In13  1  0.25000000  0.06926073  0.01467926  1
  In  In14  1  0.25000000  0.56926073  0.48532074  1
  In  In15  1  0.75000000  0.43073927  0.51467926  1
  In  In16  1  0.75000000  0.97403860  0.22603184  1
  In  In17  1  0.25000000  0.02596140  0.77396816  1
  In  In18  1  0.25000000  0.52596140  0.72603184  1
  In  In19  1  0.75000000  0.47403860  0.27396816  1
  In  In20  1  0.75000000  0.69531408  0.80138944  1
  In  In21  1  0.25000000  0.30468592  0.19861056  1
  In  In22  1  0.25000000  0.80468592  0.30138944  1
  In  In23  1  0.75000000  0.19531408  0.69861056  1
  Au  Au24  1  0.75000000  0.87533932  0.42129610  1
  Au  Au25  1  0.25000000  0.12466068  0.57870390  1
  Au  Au26  1  0.25000000  0.62466068  0.92129610  1
  Au  Au27  1  0.75000000  0.37533932  0.07870390  1
  Au  Au28  1  0.75000000  0.88922816  0.76844795  1
  Au  Au29  1  0.25000000  0.11077184  0.23155205  1
  Au  Au30  1  0.25000000  0.61077184  0.26844795  1
  Au  Au31  1  0.75000000  0.38922816  0.73155205  1
  Au  Au32  1  0.75000000  0.61825657  0.60793561  1
  Au  Au33  1  0.25000000  0.38174343  0.39206439  1
  Au  Au34  1  0.25000000  0.88174343  0.10793561  1
  Au  Au35  1  0.75000000  0.11825657  0.89206439  1
