# generated using pymatgen
data_RbEr(WO4)2
_symmetry_space_group_name_H-M   'P 1'
_cell_length_a   8.04374375
_cell_length_b   9.05047970
_cell_length_c   10.40561273
_cell_angle_alpha   90.00000000
_cell_angle_beta   90.00000000
_cell_angle_gamma   99.26240488
_symmetry_Int_Tables_number   1
_chemical_formula_structural   RbEr(WO4)2
_chemical_formula_sum   'Rb4 Er4 W8 O32'
_cell_volume   747.64892648
_cell_formula_units_Z   4
loop_
 _symmetry_equiv_pos_site_id
 _symmetry_equiv_pos_as_xyz
  1  'x, y, z'
loop_
 _atom_site_type_symbol
 _atom_site_label
 _atom_site_symmetry_multiplicity
 _atom_site_fract_x
 _atom_site_fract_y
 _atom_site_fract_z
 _atom_site_occupancy
  Rb  Rb0  1  0.07309057  0.51195424  0.21323371  1
  Rb  Rb1  1  0.92690943  0.48804576  0.78676629  1
  Rb  Rb2  1  0.42690943  0.48804576  0.71323371  1
  Rb  Rb3  1  0.57309057  0.51195424  0.28676629  1
  Er  Er4  1  0.02129969  0.06004482  0.77677926  1
  Er  Er5  1  0.97870031  0.93995518  0.22322074  1
  Er  Er6  1  0.47870031  0.93995518  0.27677926  1
  Er  Er7  1  0.52129969  0.06004482  0.72322074  1
  W  W8  1  0.28716218  0.22020788  0.00937381  1
  W  W9  1  0.71283782  0.77979212  0.99062619  1
  W  W10  1  0.21283782  0.77979212  0.50937381  1
  W  W11  1  0.78716218  0.22020788  0.49062619  1
  W  W12  1  0.17819004  0.16216098  0.48947747  1
  W  W13  1  0.82180996  0.83783902  0.51052253  1
  W  W14  1  0.32180996  0.83783902  0.98947747  1
  W  W15  1  0.67819004  0.16216098  0.01052253  1
  O  O16  1  0.25551026  0.00875260  0.39003384  1
  O  O17  1  0.74448974  0.99124740  0.60996616  1
  O  O18  1  0.24448974  0.99124740  0.89003384  1
  O  O19  1  0.75551026  0.00875260  0.10996616  1
  O  O20  1  0.35012187  0.39483378  0.08659310  1
  O  O21  1  0.64987813  0.60516622  0.91340690  1
  O  O22  1  0.14987813  0.60516622  0.58659310  1
  O  O23  1  0.85012187  0.39483378  0.41340690  1
  O  O24  1  0.11341476  0.13367127  0.11401124  1
  O  O25  1  0.88658524  0.86632873  0.88598876  1
  O  O26  1  0.38658524  0.86632873  0.61401124  1
  O  O27  1  0.61341476  0.13367127  0.38598876  1
  O  O28  1  0.33441924  0.73155482  0.36925073  1
  O  O29  1  0.66558076  0.26844518  0.63074927  1
  O  O30  1  0.16558076  0.26844518  0.86925073  1
  O  O31  1  0.83441924  0.73155482  0.13074927  1
  O  O32  1  0.26792794  0.32969032  0.41272384  1
  O  O33  1  0.73207206  0.67030968  0.58727616  1
  O  O34  1  0.23207206  0.67030968  0.91272384  1
  O  O35  1  0.76792794  0.32969032  0.08727616  1
  O  O36  1  0.00337357  0.22593923  0.60340912  1
  O  O37  1  0.99662643  0.77406077  0.39659088  1
  O  O38  1  0.49662643  0.77406077  0.10340912  1
  O  O39  1  0.50337357  0.22593923  0.89659088  1
  O  O40  1  0.30439623  0.15356387  0.63715567  1
  O  O41  1  0.69560377  0.84643613  0.36284433  1
  O  O42  1  0.19560377  0.84643613  0.13715567  1
  O  O43  1  0.80439623  0.15356387  0.86284433  1
  O  O44  1  0.45148101  0.09048608  0.10171502  1
  O  O45  1  0.54851899  0.90951392  0.89828498  1
  O  O46  1  0.04851899  0.90951392  0.60171502  1
  O  O47  1  0.95148101  0.09048608  0.39828498  1
