# generated using pymatgen
data_Se(OF)2
_symmetry_space_group_name_H-M   'P 1'
_cell_length_a   5.98474286
_cell_length_b   8.28584260
_cell_length_c   15.88858350
_cell_angle_alpha   90.00000000
_cell_angle_beta   90.00000000
_cell_angle_gamma   104.76948351
_symmetry_Int_Tables_number   1
_chemical_formula_structural   Se(OF)2
_chemical_formula_sum   'Se8 O16 F16'
_cell_volume   761.86066660
_cell_formula_units_Z   8
loop_
 _symmetry_equiv_pos_site_id
 _symmetry_equiv_pos_as_xyz
  1  'x, y, z'
loop_
 _atom_site_type_symbol
 _atom_site_label
 _atom_site_symmetry_multiplicity
 _atom_site_fract_x
 _atom_site_fract_y
 _atom_site_fract_z
 _atom_site_occupancy
  Se  Se0  1  0.94912374  0.82093719  0.85844226  1
  Se  Se1  1  0.05087626  0.17906281  0.14155774  1
  Se  Se2  1  0.05087626  0.67906281  0.35844226  1
  Se  Se3  1  0.94912374  0.32093719  0.64155774  1
  Se  Se4  1  0.65851200  0.78235180  0.59134402  1
  Se  Se5  1  0.34148800  0.21764820  0.40865598  1
  Se  Se6  1  0.34148800  0.71764820  0.09134402  1
  Se  Se7  1  0.65851200  0.28235180  0.90865598  1
  O  O8  1  0.72779779  0.74275892  0.80045685  1
  O  O9  1  0.27220221  0.25724108  0.19954315  1
  O  O10  1  0.27220221  0.75724108  0.30045685  1
  O  O11  1  0.72779779  0.24275892  0.69954315  1
  O  O12  1  0.96109729  0.81168363  0.95931092  1
  O  O13  1  0.03890271  0.18831637  0.04068908  1
  O  O14  1  0.03890271  0.68831637  0.45931092  1
  O  O15  1  0.96109729  0.31168363  0.54068908  1
  O  O16  1  0.89812766  0.91114282  0.61741014  1
  O  O17  1  0.10187234  0.08885718  0.38258986  1
  O  O18  1  0.10187234  0.58885718  0.11741014  1
  O  O19  1  0.89812766  0.41114282  0.88258986  1
  O  O20  1  0.59128246  0.58230010  0.59846010  1
  O  O21  1  0.40871754  0.41769990  0.40153990  1
  O  O22  1  0.40871754  0.91769990  0.09846010  1
  O  O23  1  0.59128246  0.08230010  0.90153990  1
  F  F24  1  0.43585030  0.85449963  0.63597471  1
  F  F25  1  0.56414970  0.14550037  0.36402529  1
  F  F26  1  0.56414970  0.64550037  0.13597471  1
  F  F27  1  0.43585030  0.35449963  0.86402529  1
  F  F28  1  0.94518934  0.96996380  0.16964883  1
  F  F29  1  0.05481066  0.03003620  0.83035117  1
  F  F30  1  0.05481066  0.53003620  0.66964883  1
  F  F31  1  0.94518934  0.46996380  0.33035117  1
  F  F32  1  0.81257577  0.73557479  0.31610321  1
  F  F33  1  0.18742423  0.26442521  0.68389679  1
  F  F34  1  0.18742423  0.76442521  0.81610321  1
  F  F35  1  0.81257577  0.23557479  0.18389679  1
  F  F36  1  0.59363118  0.83312751  0.48908843  1
  F  F37  1  0.40636882  0.16687249  0.51091157  1
  F  F38  1  0.40636882  0.66687249  0.98908843  1
  F  F39  1  0.59363118  0.33312751  0.01091157  1
