# generated using pymatgen
data_Sn17Os4
_symmetry_space_group_name_H-M   'P 1'
_cell_length_a   7.08319010
_cell_length_b   14.45987181
_cell_length_c   19.48516894
_cell_angle_alpha   90.00000000
_cell_angle_beta   90.00000000
_cell_angle_gamma   90.00000000
_symmetry_Int_Tables_number   1
_chemical_formula_structural   Sn17Os4
_chemical_formula_sum   'Sn68 Os16'
_cell_volume   1995.71037947
_cell_formula_units_Z   4
loop_
 _symmetry_equiv_pos_site_id
 _symmetry_equiv_pos_as_xyz
  1  'x, y, z'
loop_
 _atom_site_type_symbol
 _atom_site_label
 _atom_site_symmetry_multiplicity
 _atom_site_fract_x
 _atom_site_fract_y
 _atom_site_fract_z
 _atom_site_occupancy
  Sn  Sn0  1  0.55907182  0.09866674  0.00342188  1
  Sn  Sn1  1  0.44092818  0.90133326  0.99657812  1
  Sn  Sn2  1  0.44092818  0.90133326  0.50342188  1
  Sn  Sn3  1  0.44092818  0.59866674  0.49657812  1
  Sn  Sn4  1  0.55907182  0.09866674  0.49657812  1
  Sn  Sn5  1  0.55907182  0.40133326  0.50342188  1
  Sn  Sn6  1  0.55907182  0.40133326  0.99657812  1
  Sn  Sn7  1  0.44092818  0.59866674  0.00342188  1
  Sn  Sn8  1  0.13653637  0.06067052  0.07313923  1
  Sn  Sn9  1  0.86346363  0.93932948  0.92686077  1
  Sn  Sn10  1  0.86346363  0.93932948  0.57313923  1
  Sn  Sn11  1  0.86346363  0.56067052  0.42686077  1
  Sn  Sn12  1  0.13653637  0.06067052  0.42686077  1
  Sn  Sn13  1  0.13653637  0.43932948  0.57313923  1
  Sn  Sn14  1  0.13653637  0.43932948  0.92686077  1
  Sn  Sn15  1  0.86346363  0.56067052  0.07313923  1
  Sn  Sn16  1  0.20893144  0.61320850  0.17201536  1
  Sn  Sn17  1  0.79106856  0.38679150  0.82798464  1
  Sn  Sn18  1  0.79106856  0.38679150  0.67201536  1
  Sn  Sn19  1  0.79106856  0.11320850  0.32798464  1
  Sn  Sn20  1  0.20893144  0.61320850  0.32798464  1
  Sn  Sn21  1  0.20893144  0.88679150  0.67201536  1
  Sn  Sn22  1  0.20893144  0.88679150  0.82798464  1
  Sn  Sn23  1  0.79106856  0.11320850  0.17201536  1
  Sn  Sn24  1  0.04845554  0.30723061  0.25000000  1
  Sn  Sn25  1  0.95154446  0.69276939  0.75000000  1
  Sn  Sn26  1  0.95154446  0.80723061  0.25000000  1
  Sn  Sn27  1  0.04845554  0.19276939  0.75000000  1
  Sn  Sn28  1  0.37245194  0.18635647  0.17136839  1
  Sn  Sn29  1  0.62754806  0.81364353  0.82863161  1
  Sn  Sn30  1  0.62754806  0.81364353  0.67136839  1
  Sn  Sn31  1  0.62754806  0.68635647  0.32863161  1
  Sn  Sn32  1  0.37245194  0.18635647  0.32863161  1
  Sn  Sn33  1  0.37245194  0.31364353  0.67136839  1
  Sn  Sn34  1  0.37245194  0.31364353  0.82863161  1
  Sn  Sn35  1  0.62754806  0.68635647  0.17136839  1
  Sn  Sn36  1  0.25837727  0.25000000  0.00000000  1
  Sn  Sn37  1  0.74162273  0.75000000  0.00000000  1
  Sn  Sn38  1  0.74162273  0.75000000  0.50000000  1
  Sn  Sn39  1  0.25837727  0.25000000  0.50000000  1
  Sn  Sn40  1  0.22481498  0.00682074  0.25000000  1
  Sn  Sn41  1  0.77518502  0.99317926  0.75000000  1
  Sn  Sn42  1  0.77518502  0.50682074  0.25000000  1
  Sn  Sn43  1  0.22481498  0.49317926  0.75000000  1
  Sn  Sn44  1  0.68300323  0.33412294  0.15015887  1
  Sn  Sn45  1  0.31699677  0.66587706  0.84984113  1
  Sn  Sn46  1  0.31699677  0.66587706  0.65015887  1
  Sn  Sn47  1  0.31699677  0.83412294  0.34984113  1
  Sn  Sn48  1  0.68300323  0.33412294  0.34984113  1
  Sn  Sn49  1  0.68300323  0.16587706  0.65015887  1
  Sn  Sn50  1  0.68300323  0.16587706  0.84984113  1
  Sn  Sn51  1  0.31699677  0.83412294  0.15015887  1
  Sn  Sn52  1  0.83113968  0.25000000  0.00000000  1
  Sn  Sn53  1  0.16886032  0.75000000  0.00000000  1
  Sn  Sn54  1  0.16886032  0.75000000  0.50000000  1
  Sn  Sn55  1  0.83113968  0.25000000  0.50000000  1
  Sn  Sn56  1  0.37104702  0.43683776  0.25000000  1
  Sn  Sn57  1  0.62895298  0.56316224  0.75000000  1
  Sn  Sn58  1  0.62895298  0.93683776  0.25000000  1
  Sn  Sn59  1  0.37104702  0.06316224  0.75000000  1
  Sn  Sn60  1  0.16839276  0.41744712  0.09014030  1
  Sn  Sn61  1  0.83160724  0.58255288  0.90985970  1
  Sn  Sn62  1  0.83160724  0.58255288  0.59014030  1
  Sn  Sn63  1  0.83160724  0.91744712  0.40985970  1
  Sn  Sn64  1  0.16839276  0.41744712  0.40985970  1
  Sn  Sn65  1  0.16839276  0.08255288  0.59014030  1
  Sn  Sn66  1  0.16839276  0.08255288  0.90985970  1
  Sn  Sn67  1  0.83160724  0.91744712  0.09014030  1
  Os  Os68  1  0.48734797  0.00321528  0.12447415  1
  Os  Os69  1  0.51265203  0.99678472  0.87552585  1
  Os  Os70  1  0.51265203  0.99678472  0.62447415  1
  Os  Os71  1  0.51265203  0.50321528  0.37552585  1
  Os  Os72  1  0.48734797  0.00321528  0.37552585  1
  Os  Os73  1  0.48734797  0.49678472  0.62447415  1
  Os  Os74  1  0.48734797  0.49678472  0.87552585  1
  Os  Os75  1  0.51265203  0.50321528  0.12447415  1
  Os  Os76  1  0.02789023  0.24404308  0.11940062  1
  Os  Os77  1  0.97210977  0.75595692  0.88059938  1
  Os  Os78  1  0.97210977  0.75595692  0.61940062  1
  Os  Os79  1  0.97210977  0.74404308  0.38059938  1
  Os  Os80  1  0.02789023  0.24404308  0.38059938  1
  Os  Os81  1  0.02789023  0.25595692  0.61940062  1
  Os  Os82  1  0.02789023  0.25595692  0.88059938  1
  Os  Os83  1  0.97210977  0.74404308  0.11940062  1
