# generated using pymatgen
data_Rb2Fe2(PO4)3
_symmetry_space_group_name_H-M   'P 1'
_cell_length_a   10.09973229
_cell_length_b   10.09973229
_cell_length_c   10.09973229
_cell_angle_alpha   90.00000000
_cell_angle_beta   90.00000000
_cell_angle_gamma   90.00000000
_symmetry_Int_Tables_number   1
_chemical_formula_structural   Rb2Fe2(PO4)3
_chemical_formula_sum   'Rb8 Fe8 P12 O48'
_cell_volume   1030.21907488
_cell_formula_units_Z   4
loop_
 _symmetry_equiv_pos_site_id
 _symmetry_equiv_pos_as_xyz
  1  'x, y, z'
loop_
 _atom_site_type_symbol
 _atom_site_label
 _atom_site_symmetry_multiplicity
 _atom_site_fract_x
 _atom_site_fract_y
 _atom_site_fract_z
 _atom_site_occupancy
  Rb  Rb0  1  0.04099801  0.04099801  0.04099801  1
  Rb  Rb1  1  0.45900199  0.95900199  0.54099801  1
  Rb  Rb2  1  0.95900199  0.54099801  0.45900199  1
  Rb  Rb3  1  0.54099801  0.45900199  0.95900199  1
  Rb  Rb4  1  0.81658587  0.81658587  0.81658587  1
  Rb  Rb5  1  0.68341413  0.18341413  0.31658587  1
  Rb  Rb6  1  0.18341413  0.31658587  0.68341413  1
  Rb  Rb7  1  0.31658587  0.68341413  0.18341413  1
  Fe  Fe8  1  0.60484903  0.60484903  0.60484903  1
  Fe  Fe9  1  0.89515097  0.39515097  0.10484903  1
  Fe  Fe10  1  0.39515097  0.10484903  0.89515097  1
  Fe  Fe11  1  0.10484903  0.89515097  0.39515097  1
  Fe  Fe12  1  0.33838146  0.33838146  0.33838146  1
  Fe  Fe13  1  0.16161854  0.66161854  0.83838146  1
  Fe  Fe14  1  0.66161854  0.83838146  0.16161854  1
  Fe  Fe15  1  0.83838146  0.16161854  0.66161854  1
  P  P16  1  0.02529382  0.20886361  0.37533673  1
  P  P17  1  0.47470618  0.79113639  0.87533673  1
  P  P18  1  0.97470618  0.70886361  0.12466327  1
  P  P19  1  0.37533673  0.02529382  0.20886361  1
  P  P20  1  0.52529382  0.29113639  0.62466327  1
  P  P21  1  0.87533673  0.47470618  0.79113639  1
  P  P22  1  0.12466327  0.97470618  0.70886361  1
  P  P23  1  0.62466327  0.52529382  0.29113639  1
  P  P24  1  0.20886361  0.37533673  0.02529382  1
  P  P25  1  0.70886361  0.12466327  0.97470618  1
  P  P26  1  0.29113639  0.62466327  0.52529382  1
  P  P27  1  0.79113639  0.87533673  0.47470618  1
  O  O28  1  0.01706234  0.06221824  0.33011930  1
  O  O29  1  0.48293766  0.93778176  0.83011930  1
  O  O30  1  0.98293766  0.56221824  0.16988070  1
  O  O31  1  0.33011930  0.01706234  0.06221824  1
  O  O32  1  0.51706234  0.43778176  0.66988070  1
  O  O33  1  0.83011930  0.48293766  0.93778176  1
  O  O34  1  0.16988070  0.98293766  0.56221824  1
  O  O35  1  0.66988070  0.51706234  0.43778176  1
  O  O36  1  0.06221824  0.33011930  0.01706234  1
  O  O37  1  0.56221824  0.16988070  0.98293766  1
  O  O38  1  0.43778176  0.66988070  0.51706234  1
  O  O39  1  0.93778176  0.83011930  0.48293766  1
  O  O40  1  0.17060557  0.24954260  0.39864581  1
  O  O41  1  0.32939443  0.75045740  0.89864581  1
  O  O42  1  0.82939443  0.74954260  0.10135419  1
  O  O43  1  0.39864581  0.17060557  0.24954260  1
  O  O44  1  0.67060557  0.25045740  0.60135419  1
  O  O45  1  0.89864581  0.32939443  0.75045740  1
  O  O46  1  0.10135419  0.82939443  0.74954260  1
  O  O47  1  0.60135419  0.67060557  0.25045740  1
  O  O48  1  0.24954260  0.39864581  0.17060557  1
  O  O49  1  0.74954260  0.10135419  0.82939443  1
  O  O50  1  0.25045740  0.60135419  0.67060557  1
  O  O51  1  0.75045740  0.89864581  0.32939443  1
  O  O52  1  0.04290437  0.79762040  0.22920247  1
  O  O53  1  0.45709563  0.20237960  0.72920247  1
  O  O54  1  0.95709563  0.29762040  0.27079753  1
  O  O55  1  0.22920247  0.04290437  0.79762040  1
  O  O56  1  0.54290437  0.70237960  0.77079753  1
  O  O57  1  0.72920247  0.45709563  0.20237960  1
  O  O58  1  0.27079753  0.95709563  0.29762040  1
  O  O59  1  0.77079753  0.54290437  0.70237960  1
  O  O60  1  0.79762040  0.22920247  0.04290437  1
  O  O61  1  0.29762040  0.27079753  0.95709563  1
  O  O62  1  0.70237960  0.77079753  0.54290437  1
  O  O63  1  0.20237960  0.72920247  0.45709563  1
  O  O64  1  0.27079897  0.49316328  0.44809516  1
  O  O65  1  0.22920103  0.50683672  0.94809516  1
  O  O66  1  0.72920103  0.99316328  0.05190484  1
  O  O67  1  0.44809516  0.27079897  0.49316328  1
  O  O68  1  0.77079897  0.00683672  0.55190484  1
  O  O69  1  0.94809516  0.22920103  0.50683672  1
  O  O70  1  0.05190484  0.72920103  0.99316328  1
  O  O71  1  0.55190484  0.77079897  0.00683672  1
  O  O72  1  0.49316328  0.44809516  0.27079897  1
  O  O73  1  0.99316328  0.05190484  0.72920103  1
  O  O74  1  0.00683672  0.55190484  0.77079897  1
  O  O75  1  0.50683672  0.94809516  0.22920103  1
