# generated using pymatgen
data_RbTm(WO4)2
_symmetry_space_group_name_H-M   'P 1'
_cell_length_a   8.02873102
_cell_length_b   9.04158023
_cell_length_c   10.36747179
_cell_angle_alpha   90.00000000
_cell_angle_beta   90.00000000
_cell_angle_gamma   99.24837061
_symmetry_Int_Tables_number   1
_chemical_formula_structural   RbTm(WO4)2
_chemical_formula_sum   'Rb4 Tm4 W8 O32'
_cell_volume   742.81672912
_cell_formula_units_Z   4
loop_
 _symmetry_equiv_pos_site_id
 _symmetry_equiv_pos_as_xyz
  1  'x, y, z'
loop_
 _atom_site_type_symbol
 _atom_site_label
 _atom_site_symmetry_multiplicity
 _atom_site_fract_x
 _atom_site_fract_y
 _atom_site_fract_z
 _atom_site_occupancy
  Rb  Rb0  1  0.07288299  0.51181390  0.21335262  1
  Rb  Rb1  1  0.92711701  0.48818610  0.78664738  1
  Rb  Rb2  1  0.42711701  0.48818610  0.71335262  1
  Rb  Rb3  1  0.57288299  0.51181390  0.28664738  1
  Tm  Tm4  1  0.02139385  0.06031919  0.77685529  1
  Tm  Tm5  1  0.97860615  0.93968081  0.22314471  1
  Tm  Tm6  1  0.47860615  0.93968081  0.27685529  1
  Tm  Tm7  1  0.52139385  0.06031919  0.72314471  1
  W  W8  1  0.28699540  0.22017977  0.00964769  1
  W  W9  1  0.71300460  0.77982023  0.99035231  1
  W  W10  1  0.21300460  0.77982023  0.50964769  1
  W  W11  1  0.78699540  0.22017977  0.49035231  1
  W  W12  1  0.17877606  0.16230020  0.48932820  1
  W  W13  1  0.82122394  0.83769980  0.51067180  1
  W  W14  1  0.32122394  0.83769980  0.98932820  1
  W  W15  1  0.67877606  0.16230020  0.01067180  1
  O  O16  1  0.25631018  0.00861871  0.38947200  1
  O  O17  1  0.74368982  0.99138129  0.61052800  1
  O  O18  1  0.24368982  0.99138129  0.88947200  1
  O  O19  1  0.75631018  0.00861871  0.11052800  1
  O  O20  1  0.34998341  0.39453140  0.08653185  1
  O  O21  1  0.65001659  0.60546860  0.91346815  1
  O  O22  1  0.15001659  0.60546860  0.58653185  1
  O  O23  1  0.84998341  0.39453140  0.41346815  1
  O  O24  1  0.11285755  0.13323460  0.11465812  1
  O  O25  1  0.88714245  0.86676540  0.88534188  1
  O  O26  1  0.38714245  0.86676540  0.61465812  1
  O  O27  1  0.61285755  0.13323460  0.38534188  1
  O  O28  1  0.33517332  0.73240046  0.36882214  1
  O  O29  1  0.66482668  0.26759954  0.63117786  1
  O  O30  1  0.16482668  0.26759954  0.86882214  1
  O  O31  1  0.83517332  0.73240046  0.13117786  1
  O  O32  1  0.26792800  0.32969831  0.41270439  1
  O  O33  1  0.73207200  0.67030169  0.58729561  1
  O  O34  1  0.23207200  0.67030169  0.91270439  1
  O  O35  1  0.76792800  0.32969831  0.08729561  1
  O  O36  1  0.00329199  0.22541581  0.60398555  1
  O  O37  1  0.99670801  0.77458419  0.39601445  1
  O  O38  1  0.49670801  0.77458419  0.10398555  1
  O  O39  1  0.50329199  0.22541581  0.89601445  1
  O  O40  1  0.30520149  0.15319406  0.63746826  1
  O  O41  1  0.69479851  0.84680594  0.36253174  1
  O  O42  1  0.19479851  0.84680594  0.13746826  1
  O  O43  1  0.80520149  0.15319406  0.86253174  1
  O  O44  1  0.45145469  0.08996284  0.10235862  1
  O  O45  1  0.54854531  0.91003716  0.89764138  1
  O  O46  1  0.04854531  0.91003716  0.60235862  1
  O  O47  1  0.95145469  0.08996284  0.39764138  1
