# generated using pymatgen
data_Ge6Bi7O22
_symmetry_space_group_name_H-M   'P 1'
_cell_length_a   9.24570497
_cell_length_b   9.13807237
_cell_length_c   9.35305446
_cell_angle_alpha   107.77723501
_cell_angle_beta   111.16607492
_cell_angle_gamma   109.36182997
_symmetry_Int_Tables_number   1
_chemical_formula_structural   Ge6Bi7O22
_chemical_formula_sum   'Ge6 Bi7 O22'
_cell_volume   608.72443399
_cell_formula_units_Z   1
loop_
 _symmetry_equiv_pos_site_id
 _symmetry_equiv_pos_as_xyz
  1  'x, y, z'
loop_
 _atom_site_type_symbol
 _atom_site_label
 _atom_site_symmetry_multiplicity
 _atom_site_fract_x
 _atom_site_fract_y
 _atom_site_fract_z
 _atom_site_occupancy
  Ge  Ge0  1  0.11548193  0.79711363  0.87694712  1
  Ge  Ge1  1  0.25368188  0.63719174  0.37333131  1
  Ge  Ge2  1  0.37050342  0.25230025  0.63146830  1
  Ge  Ge3  1  0.62020941  0.37192312  0.24770197  1
  Ge  Ge4  1  0.74296895  0.87113522  0.12029275  1
  Ge  Ge5  1  0.89354345  0.12970333  0.75615930  1
  Bi  Bi6  1  0.99020834  0.31585795  0.48129278  1
  Bi  Bi7  1  0.18654872  0.18934570  0.19425240  1
  Bi  Bi8  1  0.66146636  0.66713304  0.66809699  1
  Bi  Bi9  1  0.51248116  0.00179604  0.83047377  1
  Bi  Bi10  1  0.50156303  0.97827872  0.31871720  1
  Bi  Bi11  1  0.99145348  0.81825186  0.48407024  1
  Bi  Bi12  1  0.82250554  0.49605308  0.00728963  1
  O  O13  1  0.16775292  0.77959165  0.71692175  1
  O  O14  1  0.04881829  0.63192799  0.34416447  1
  O  O15  1  0.20920120  0.29923505  0.65264245  1
  O  O16  1  0.19502548  0.42312780  0.35808349  1
  O  O17  1  0.27820258  0.96164814  0.08781404  1
  O  O18  1  0.45272939  0.78088072  0.58763267  1
  O  O19  1  0.29085479  0.68689278  0.22175063  1
  O  O20  1  0.70354513  0.85311581  0.91366848  1
  O  O21  1  0.33754529  0.05610600  0.64850376  1
  O  O22  1  0.35902548  0.19370555  0.42438486  1
  O  O23  1  0.58668451  0.44620858  0.77924461  1
  O  O24  1  0.54778059  0.84148225  0.12340885  1
  O  O25  1  0.41269449  0.35703207  0.19929665  1
  O  O26  1  0.87925858  0.91615838  0.71419656  1
  O  O27  1  0.91317890  0.66166224  0.84209721  1
  O  O28  1  0.74063004  0.17089028  0.81825017  1
  O  O29  1  0.77290170  0.58620883  0.43755629  1
  O  O30  1  0.67074158  0.22132534  0.30682929  1
  O  O31  1  0.63739050  0.32758171  0.05531794  1
  O  O32  1  0.81706479  0.72877837  0.17524761  1
  O  O33  1  0.82911765  0.12736287  0.54935705  1
  O  O34  1  0.93774046  0.08509390  0.27253746  1
