# generated using pymatgen
data_Pr5Si3O13
_symmetry_space_group_name_H-M   'P 1'
_cell_length_a   7.15994753
_cell_length_b   9.75675047
_cell_length_c   9.75675047
_cell_angle_alpha   119.99999805
_cell_angle_beta   90.00000000
_cell_angle_gamma   90.00000000
_symmetry_Int_Tables_number   1
_chemical_formula_structural   Pr5Si3O13
_chemical_formula_sum   'Pr10 Si6 O26'
_cell_volume   590.27022433
_cell_formula_units_Z   2
loop_
 _symmetry_equiv_pos_site_id
 _symmetry_equiv_pos_as_xyz
  1  'x, y, z'
loop_
 _atom_site_type_symbol
 _atom_site_label
 _atom_site_symmetry_multiplicity
 _atom_site_fract_x
 _atom_site_fract_y
 _atom_site_fract_z
 _atom_site_occupancy
  Pr  Pr0  1  0.00136798  0.66666700  0.33333300  1
  Pr  Pr1  1  0.99863202  0.33333300  0.66666700  1
  Pr  Pr2  1  0.50136798  0.33333300  0.66666700  1
  Pr  Pr3  1  0.49863202  0.66666700  0.33333300  1
  Pr  Pr4  1  0.75000000  0.75821274  0.98976698  1
  Pr  Pr5  1  0.25000000  0.24178726  0.01023302  1
  Pr  Pr6  1  0.75000000  0.23155424  0.24178726  1
  Pr  Pr7  1  0.25000000  0.76844576  0.75821274  1
  Pr  Pr8  1  0.75000000  0.01023302  0.76844576  1
  Pr  Pr9  1  0.25000000  0.98976698  0.23155424  1
  Si  Si10  1  0.75000000  0.97155287  0.37015592  1
  Si  Si11  1  0.25000000  0.02844713  0.62984408  1
  Si  Si12  1  0.75000000  0.39860305  0.02844713  1
  Si  Si13  1  0.25000000  0.60139695  0.97155287  1
  Si  Si14  1  0.75000000  0.62984408  0.60139695  1
  Si  Si15  1  0.25000000  0.37015592  0.39860305  1
  O  O16  1  0.75000000  0.87841613  0.47206525  1
  O  O17  1  0.25000000  0.12158387  0.52793475  1
  O  O18  1  0.75000000  0.59364912  0.12158387  1
  O  O19  1  0.25000000  0.40635088  0.87841613  1
  O  O20  1  0.75000000  0.52793475  0.40635088  1
  O  O21  1  0.25000000  0.47206525  0.59364912  1
  O  O22  1  0.75000000  0.00000000  -0.00000000  1
  O  O23  1  0.25000000  0.00000000  -0.00000000  1
  O  O24  1  0.75000000  0.51793504  0.68256121  1
  O  O25  1  0.25000000  0.48206496  0.31743879  1
  O  O26  1  0.75000000  0.16462617  0.48206496  1
  O  O27  1  0.25000000  0.83537383  0.51793504  1
  O  O28  1  0.75000000  0.31743879  0.83537383  1
  O  O29  1  0.25000000  0.68256121  0.16462617  1
  O  O30  1  0.93327466  0.90874573  0.25146112  1
  O  O31  1  0.06672534  0.09125427  0.74853888  1
  O  O32  1  0.93327466  0.34271539  0.09125427  1
  O  O33  1  0.43327466  0.09125427  0.74853888  1
  O  O34  1  0.06672534  0.65728461  0.90874573  1
  O  O35  1  0.56672534  0.90874573  0.25146112  1
  O  O36  1  0.93327466  0.74853888  0.65728461  1
  O  O37  1  0.43327466  0.65728461  0.90874573  1
  O  O38  1  0.06672534  0.25146112  0.34271539  1
  O  O39  1  0.56672534  0.34271539  0.09125427  1
  O  O40  1  0.43327466  0.25146112  0.34271539  1
  O  O41  1  0.56672534  0.74853888  0.65728461  1
