# generated using pymatgen
data_KLu(MoO4)2
_symmetry_space_group_name_H-M   'P 1'
_cell_length_a   5.08572687
_cell_length_b   8.00089289
_cell_length_c   18.47539865
_cell_angle_alpha   90.00000000
_cell_angle_beta   90.00000000
_cell_angle_gamma   90.00000000
_symmetry_Int_Tables_number   1
_chemical_formula_structural   KLu(MoO4)2
_chemical_formula_sum   'K4 Lu4 Mo8 O32'
_cell_volume   751.77054747
_cell_formula_units_Z   4
loop_
 _symmetry_equiv_pos_site_id
 _symmetry_equiv_pos_as_xyz
  1  'x, y, z'
loop_
 _atom_site_type_symbol
 _atom_site_label
 _atom_site_symmetry_multiplicity
 _atom_site_fract_x
 _atom_site_fract_y
 _atom_site_fract_z
 _atom_site_occupancy
  K  K0  1  0.00000000  0.75000000  0.22900070  1
  K  K1  1  0.00000000  0.25000000  0.77099930  1
  K  K2  1  0.50000000  0.25000000  0.27099930  1
  K  K3  1  0.50000000  0.75000000  0.72900070  1
  Lu  Lu4  1  0.00000000  0.75000000  0.99409868  1
  Lu  Lu5  1  0.00000000  0.25000000  0.00590132  1
  Lu  Lu6  1  0.50000000  0.25000000  0.50590132  1
  Lu  Lu7  1  0.50000000  0.75000000  0.49409868  1
  Mo  Mo8  1  0.97749326  0.98456335  0.59977475  1
  Mo  Mo9  1  0.02250674  0.01543665  0.40022525  1
  Mo  Mo10  1  0.52250674  0.48456335  0.90022525  1
  Mo  Mo11  1  0.02250674  0.51543665  0.59977475  1
  Mo  Mo12  1  0.47749326  0.51543665  0.09977475  1
  Mo  Mo13  1  0.97749326  0.48456335  0.40022525  1
  Mo  Mo14  1  0.47749326  0.01543665  0.90022525  1
  Mo  Mo15  1  0.52250674  0.98456335  0.09977475  1
  O  O16  1  0.90062766  0.52343438  0.68846738  1
  O  O17  1  0.09937234  0.47656562  0.31153262  1
  O  O18  1  0.59937234  0.02343438  0.81153262  1
  O  O19  1  0.09937234  0.97656562  0.68846738  1
  O  O20  1  0.40062766  0.97656562  0.18846738  1
  O  O21  1  0.90062766  0.02343438  0.31153262  1
  O  O22  1  0.40062766  0.47656562  0.81153262  1
  O  O23  1  0.59937234  0.52343438  0.18846738  1
  O  O24  1  0.73605431  0.66374031  0.90277396  1
  O  O25  1  0.26394569  0.33625969  0.09722604  1
  O  O26  1  0.76394569  0.16374031  0.59722604  1
  O  O27  1  0.26394569  0.83625969  0.90277396  1
  O  O28  1  0.23605431  0.83625969  0.40277396  1
  O  O29  1  0.73605431  0.16374031  0.09722604  1
  O  O30  1  0.23605431  0.33625969  0.59722604  1
  O  O31  1  0.76394569  0.66374031  0.40277396  1
  O  O32  1  0.75622907  0.99335475  0.96563045  1
  O  O33  1  0.24377093  0.00664525  0.03436955  1
  O  O34  1  0.74377093  0.49335475  0.53436955  1
  O  O35  1  0.24377093  0.50664525  0.96563045  1
  O  O36  1  0.25622907  0.50664525  0.46563045  1
  O  O37  1  0.75622907  0.49335475  0.03436955  1
  O  O38  1  0.25622907  0.00664525  0.53436955  1
  O  O39  1  0.74377093  0.99335475  0.46563045  1
  O  O40  1  0.75442092  0.80740341  0.59040943  1
  O  O41  1  0.24557908  0.19259659  0.40959057  1
  O  O42  1  0.74557908  0.30740341  0.90959057  1
  O  O43  1  0.24557908  0.69259659  0.59040943  1
  O  O44  1  0.25442092  0.69259659  0.09040943  1
  O  O45  1  0.75442092  0.30740341  0.40959057  1
  O  O46  1  0.25442092  0.19259659  0.90959057  1
  O  O47  1  0.74557908  0.80740341  0.09040943  1
