# generated using pymatgen
data_Lu3(GeRh)2
_symmetry_space_group_name_H-M   'P 1'
_cell_length_a   5.50527357
_cell_length_b   7.76218632
_cell_length_c   13.06480078
_cell_angle_alpha   90.00000000
_cell_angle_beta   90.00000000
_cell_angle_gamma   90.00000000
_symmetry_Int_Tables_number   1
_chemical_formula_structural   Lu3(GeRh)2
_chemical_formula_sum   'Lu12 Ge8 Rh8'
_cell_volume   558.29759860
_cell_formula_units_Z   4
loop_
 _symmetry_equiv_pos_site_id
 _symmetry_equiv_pos_as_xyz
  1  'x, y, z'
loop_
 _atom_site_type_symbol
 _atom_site_label
 _atom_site_symmetry_multiplicity
 _atom_site_fract_x
 _atom_site_fract_y
 _atom_site_fract_z
 _atom_site_occupancy
  Lu  Lu0  1  0.62895521  0.25329039  0.25000000  1
  Lu  Lu1  1  0.37104479  0.74670961  0.75000000  1
  Lu  Lu2  1  0.37104479  0.75329039  0.25000000  1
  Lu  Lu3  1  0.62895521  0.24670961  0.75000000  1
  Lu  Lu4  1  0.14796542  0.39428561  0.10039701  1
  Lu  Lu5  1  0.85203458  0.60571439  0.89960299  1
  Lu  Lu6  1  0.85203458  0.60571439  0.60039701  1
  Lu  Lu7  1  0.85203458  0.89428561  0.39960299  1
  Lu  Lu8  1  0.14796542  0.39428561  0.39960299  1
  Lu  Lu9  1  0.14796542  0.10571439  0.60039701  1
  Lu  Lu10  1  0.14796542  0.10571439  0.89960299  1
  Lu  Lu11  1  0.85203458  0.89428561  0.10039701  1
  Ge  Ge12  1  0.12118933  0.11042826  0.25000000  1
  Ge  Ge13  1  0.87881067  0.88957174  0.75000000  1
  Ge  Ge14  1  0.87881067  0.61042826  0.25000000  1
  Ge  Ge15  1  0.12118933  0.38957174  0.75000000  1
  Ge  Ge16  1  0.66114924  0.25000000  -0.00000000  1
  Ge  Ge17  1  0.33885076  0.75000000  0.00000000  1
  Ge  Ge18  1  0.33885076  0.75000000  0.50000000  1
  Ge  Ge19  1  0.66114924  0.25000000  0.50000000  1
  Rh  Rh20  1  0.37108607  0.03854319  0.09383811  1
  Rh  Rh21  1  0.62891393  0.96145681  0.90616189  1
  Rh  Rh22  1  0.62891393  0.96145681  0.59383811  1
  Rh  Rh23  1  0.62891393  0.53854319  0.40616189  1
  Rh  Rh24  1  0.37108607  0.03854319  0.40616189  1
  Rh  Rh25  1  0.37108607  0.46145681  0.59383811  1
  Rh  Rh26  1  0.37108607  0.46145681  0.90616189  1
  Rh  Rh27  1  0.62891393  0.53854319  0.09383811  1
