# generated using pymatgen
data_Lu2TiO5
_symmetry_space_group_name_H-M   'P 1'
_cell_length_a   7.35927575
_cell_length_b   7.26648545
_cell_length_c   21.51392653
_cell_angle_alpha   59.29904188
_cell_angle_beta   60.23641996
_cell_angle_gamma   59.94395468
_symmetry_Int_Tables_number   1
_chemical_formula_structural   Lu2TiO5
_chemical_formula_sum   'Lu16 Ti8 O40'
_cell_volume   810.19452166
_cell_formula_units_Z   8
loop_
 _symmetry_equiv_pos_site_id
 _symmetry_equiv_pos_as_xyz
  1  'x, y, z'
loop_
 _atom_site_type_symbol
 _atom_site_label
 _atom_site_symmetry_multiplicity
 _atom_site_fract_x
 _atom_site_fract_y
 _atom_site_fract_z
 _atom_site_occupancy
  Lu  Lu0  1  0.54553820  0.99112482  0.99288120  1
  Lu  Lu1  1  0.49450906  0.50855454  0.16955896  1
  Lu  Lu2  1  0.52854202  0.00155315  0.32666769  1
  Lu  Lu3  1  0.51932836  0.48075257  0.32843948  1
  Lu  Lu4  1  0.54282703  0.99267378  0.15931748  1
  Lu  Lu5  1  0.54312430  0.49102979  0.49751996  1
  Lu  Lu6  1  0.98818219  0.52864684  0.15806112  1
  Lu  Lu7  1  0.48828837  0.00653751  0.66749719  1
  Lu  Lu8  1  0.47637311  0.97588167  0.51102945  1
  Lu  Lu9  1  0.53843871  0.48168249  0.66974312  1
  Lu  Lu10  1  0.00743081  0.51712780  0.33028970  1
  Lu  Lu11  1  0.54051788  0.48673909  0.82512502  1
  Lu  Lu12  1  0.99380154  0.47604422  0.50808262  1
  Lu  Lu13  1  0.48947047  0.52825508  0.99023270  1
  Lu  Lu14  1  0.54250246  0.00188138  0.82451103  1
  Lu  Lu15  1  0.00302241  0.50481537  0.82412075  1
  Ti  Ti16  1  0.03536955  0.00125289  0.99521533  1
  Ti  Ti17  1  0.01478098  0.00615816  0.32908885  1
  Ti  Ti18  1  0.01206995  0.98856839  0.66958028  1
  Ti  Ti19  1  0.03677710  0.47310232  -0.00014440  1
  Ti  Ti20  1  0.01597482  0.97657464  0.16472687  1
  Ti  Ti21  1  0.99746826  0.99541222  0.83666843  1
  Ti  Ti22  1  0.00819415  0.50392872  0.66348004  1
  Ti  Ti23  1  0.03973754  0.99691527  0.49448321  1
  O  O24  1  0.11207328  0.65160479  0.03144862  1
  O  O25  1  0.93190475  0.90494224  0.27401985  1
  O  O26  1  0.60114674  0.16480004  0.04081316  1
  O  O27  1  0.13883983  0.61266825  0.19951974  1
  O  O28  1  0.13458032  0.62646363  0.38838485  1
  O  O29  1  0.32212521  0.92539237  0.12376140  1
  O  O30  1  0.35930712  0.35972949  0.30041012  1
  O  O31  1  0.10730581  0.10192409  0.55215738  1
  O  O32  1  0.60399151  0.61177263  0.04706104  1
  O  O33  1  0.63564394  0.13848769  0.19959077  1
  O  O34  1  0.64080477  0.63223318  0.20118752  1
  O  O35  1  0.63411687  0.10428950  0.38735771  1
  O  O36  1  0.97589594  0.30279926  0.11423144  1
  O  O37  1  0.31507979  0.95521995  0.27799918  1
  O  O38  1  0.01713912  0.69976422  0.55441346  1
  O  O39  1  0.99783245  0.71098753  0.69406632  1
  O  O40  1  0.34735023  0.88110400  0.45856238  1
  O  O41  1  0.32379784  0.38951916  0.63440873  1
  O  O42  1  0.95435791  0.08038398  0.91573590  1
  O  O43  1  0.58455260  0.13730294  0.54063060  1
  O  O44  1  0.62550647  0.61921745  0.37080765  1
  O  O45  1  0.92245749  0.32171023  0.28122579  1
  O  O46  1  0.92135007  0.91254231  0.10913203  1
  O  O47  1  0.64756883  0.62065875  0.54340208  1
  O  O48  1  0.66357357  0.10496238  0.69781625  1
  O  O49  1  0.35736359  0.38272725  0.79230822  1
  O  O50  1  0.89906785  0.34593676  0.45837857  1
  O  O51  1  0.32438264  0.86249688  0.64798617  1
  O  O52  1  0.95120416  0.72774794  0.92091320  1
  O  O53  1  0.31315209  0.90097055  0.79556209  1
  O  O54  1  0.34051185  0.37334837  0.95346657  1
  O  O55  1  0.66219404  0.63814462  0.70035998  1
  O  O56  1  0.65814609  0.12107307  0.86743628  1
  O  O57  1  0.93890216  0.31420121  0.64470512  1
  O  O58  1  0.01041243  0.02179989  0.41238501  1
  O  O59  1  0.64642094  0.62477256  0.86936160  1
  O  O60  1  0.95238099  0.32673140  0.77696917  1
  O  O61  1  0.34334209  0.92821846  0.95465792  1
  O  O62  1  0.94849988  0.88536785  0.78007380  1
  O  O63  1  0.98344747  0.31077043  0.96778327  1
