# generated using pymatgen
data_Na2Fe2Ni(PO4)3
_symmetry_space_group_name_H-M   'P 1'
_cell_length_a   6.56066722
_cell_length_b   8.64939872
_cell_length_c   8.64939872
_cell_angle_alpha   93.61041775
_cell_angle_beta   106.00178916
_cell_angle_gamma   106.00178916
_symmetry_Int_Tables_number   1
_chemical_formula_structural   Na2Fe2Ni(PO4)3
_chemical_formula_sum   'Na4 Fe4 Ni2 P6 O24'
_cell_volume   448.36064056
_cell_formula_units_Z   2
loop_
 _symmetry_equiv_pos_site_id
 _symmetry_equiv_pos_as_xyz
  1  'x, y, z'
loop_
 _atom_site_type_symbol
 _atom_site_label
 _atom_site_symmetry_multiplicity
 _atom_site_fract_x
 _atom_site_fract_y
 _atom_site_fract_z
 _atom_site_occupancy
  Na  Na0  1  0.75000000  0.98529330  0.01470670  1
  Na  Na1  1  0.25000000  0.01470670  0.98529330  1
  Na  Na2  1  0.00000000  0.50000000  0.50000000  1
  Na  Na3  1  0.50000000  0.50000000  0.50000000  1
  Fe  Fe4  1  0.62545092  0.38059487  0.05596612  1
  Fe  Fe5  1  0.37454908  0.61940513  0.94403388  1
  Fe  Fe6  1  0.87454908  0.94403388  0.61940513  1
  Fe  Fe7  1  0.12545092  0.05596612  0.38059487  1
  Ni  Ni8  1  0.75000000  0.26477158  0.73522842  1
  Ni  Ni9  1  0.25000000  0.73522842  0.26477158  1
  P  P10  1  0.75000000  0.70983140  0.29016860  1
  P  P11  1  0.25000000  0.29016860  0.70983140  1
  P  P12  1  0.88120928  0.65454160  0.87537396  1
  P  P13  1  0.11879072  0.34545840  0.12462604  1
  P  P14  1  0.61879072  0.12462604  0.34545840  1
  P  P15  1  0.38120928  0.87537396  0.65454160  1
  O  O16  1  0.74442596  0.53088872  0.26275168  1
  O  O17  1  0.25557404  0.46911128  0.73724832  1
  O  O18  1  0.75557404  0.73724832  0.46911128  1
  O  O19  1  0.24442596  0.26275168  0.53088872  1
  O  O20  1  0.83356270  0.52079771  0.73234034  1
  O  O21  1  0.16643730  0.47920229  0.26765966  1
  O  O22  1  0.66643730  0.26765966  0.47920229  1
  O  O23  1  0.33356270  0.73234034  0.52079771  1
  O  O24  1  0.53756949  0.74223791  0.17915675  1
  O  O25  1  0.46243051  0.25776209  0.82084325  1
  O  O26  1  0.96243051  0.82084325  0.25776209  1
  O  O27  1  0.03756949  0.17915675  0.74223791  1
  O  O28  1  0.69239696  0.60353365  0.95645053  1
  O  O29  1  0.30760304  0.39646635  0.04354947  1
  O  O30  1  0.80760304  0.04354947  0.39646635  1
  O  O31  1  0.19239696  0.95645053  0.60353365  1
  O  O32  1  0.89080047  0.82522384  0.82496866  1
  O  O33  1  0.10919953  0.17477616  0.17503134  1
  O  O34  1  0.60919953  0.17503134  0.17477616  1
  O  O35  1  0.39080047  0.82496866  0.82522384  1
  O  O36  1  0.88801523  0.32293791  0.99377597  1
  O  O37  1  0.11198477  0.67706209  0.00622403  1
  O  O38  1  0.61198477  0.00622403  0.67706209  1
  O  O39  1  0.38801523  0.99377597  0.32293791  1
