# generated using pymatgen
data_KLiTb2(MoO4)4
_symmetry_space_group_name_H-M   'P 1'
_cell_length_a   5.28837363
_cell_length_b   6.92746863
_cell_length_c   19.63968279
_cell_angle_alpha   88.80352190
_cell_angle_beta   86.86402598
_cell_angle_gamma   67.56122196
_symmetry_Int_Tables_number   1
_chemical_formula_structural   KLiTb2(MoO4)4
_chemical_formula_sum   'K2 Li2 Tb4 Mo8 O32'
_cell_volume   664.02985452
_cell_formula_units_Z   2
loop_
 _symmetry_equiv_pos_site_id
 _symmetry_equiv_pos_as_xyz
  1  'x, y, z'
loop_
 _atom_site_type_symbol
 _atom_site_label
 _atom_site_symmetry_multiplicity
 _atom_site_fract_x
 _atom_site_fract_y
 _atom_site_fract_z
 _atom_site_occupancy
  K  K0  1  0.46897172  0.06205656  0.75000000  1
  K  K1  1  0.53102828  0.93794344  0.25000000  1
  Li  Li2  1  0.18673047  0.62653906  0.75000000  1
  Li  Li3  1  0.81326953  0.37346094  0.25000000  1
  Tb  Tb4  1  0.35219056  0.29381099  0.96754689  1
  Tb  Tb5  1  0.64780944  0.70618901  0.03245311  1
  Tb  Tb6  1  0.35399844  0.29381099  0.53245311  1
  Tb  Tb7  1  0.64600156  0.70618901  0.46754689  1
  Mo  Mo8  1  0.08115581  0.87531507  0.90816682  1
  Mo  Mo9  1  0.91884419  0.12468493  0.09183318  1
  Mo  Mo10  1  0.04352913  0.87531507  0.59183318  1
  Mo  Mo11  1  0.95647087  0.12468493  0.40816682  1
  Mo  Mo12  1  0.76785592  0.48505825  0.85186739  1
  Mo  Mo13  1  0.23214408  0.51494175  0.14813261  1
  Mo  Mo14  1  0.74708583  0.48505825  0.64813261  1
  Mo  Mo15  1  0.25291417  0.51494175  0.35186739  1
  O  O16  1  0.33226890  0.66060632  0.95765807  1
  O  O17  1  0.66773110  0.33939368  0.04234193  1
  O  O18  1  0.00712478  0.66060632  0.54234193  1
  O  O19  1  0.99287522  0.33939368  0.45765807  1
  O  O20  1  0.51002921  0.72159936  0.82667557  1
  O  O21  1  0.48997079  0.27840064  0.17332443  1
  O  O22  1  0.76837143  0.72159936  0.67332443  1
  O  O23  1  0.23162857  0.27840064  0.32667557  1
  O  O24  1  0.27797492  0.96084894  0.53721482  1
  O  O25  1  0.72202508  0.03915106  0.46278518  1
  O  O26  1  0.76117614  0.96084894  0.96278518  1
  O  O27  1  0.23882386  0.03915106  0.03721482  1
  O  O28  1  0.56371752  0.51993297  0.56677326  1
  O  O29  1  0.43628248  0.48006703  0.43322674  1
  O  O30  1  0.91634951  0.51993297  0.93322674  1
  O  O31  1  0.08365049  0.48006703  0.06677326  1
  O  O32  1  0.19973240  0.81706631  0.67061214  1
  O  O33  1  0.80026760  0.18293369  0.32938786  1
  O  O34  1  0.98320128  0.81706631  0.82938786  1
  O  O35  1  0.01679872  0.18293369  0.17061214  1
  O  O36  1  0.27845850  0.90869392  0.39847455  1
  O  O37  1  0.72154150  0.09130608  0.60152545  1
  O  O38  1  0.81284758  0.90869392  0.10152545  1
  O  O39  1  0.18715242  0.09130608  0.89847455  1
  O  O40  1  0.60066018  0.30171442  0.86776912  1
  O  O41  1  0.39933982  0.69828558  0.13223088  1
  O  O42  1  0.09762541  0.30171442  0.63223088  1
  O  O43  1  0.90237459  0.69828558  0.36776912  1
  O  O44  1  0.56465736  0.40686974  0.71387677  1
  O  O45  1  0.43534264  0.59313026  0.28612323  1
  O  O46  1  0.02847290  0.40686974  0.78612323  1
  O  O47  1  0.97152710  0.59313026  0.21387677  1
