# generated using pymatgen
data_K3YbF6
_symmetry_space_group_name_H-M   'P 1'
_cell_length_a   6.38042684
_cell_length_b   6.64978538
_cell_length_c   9.13216011
_cell_angle_alpha   90.00000000
_cell_angle_beta   90.50193971
_cell_angle_gamma   90.00000000
_symmetry_Int_Tables_number   1
_chemical_formula_structural   K3YbF6
_chemical_formula_sum   'K6 Yb2 F12'
_cell_volume   387.44870520
_cell_formula_units_Z   2
loop_
 _symmetry_equiv_pos_site_id
 _symmetry_equiv_pos_as_xyz
  1  'x, y, z'
loop_
 _atom_site_type_symbol
 _atom_site_label
 _atom_site_symmetry_multiplicity
 _atom_site_fract_x
 _atom_site_fract_y
 _atom_site_fract_z
 _atom_site_occupancy
  K  K0  1  0.00000000  -0.00000000  0.50000000  1
  K  K1  1  0.50000000  0.50000000  -0.00000000  1
  K  K2  1  0.01393469  0.44536008  0.25376284  1
  K  K3  1  0.98606531  0.55463992  0.74623716  1
  K  K4  1  0.48606531  0.94536008  0.24623716  1
  K  K5  1  0.51393469  0.05463992  0.75376284  1
  Yb  Yb6  1  0.00000000  -0.00000000  -0.00000000  1
  Yb  Yb7  1  0.50000000  0.50000000  0.50000000  1
  F  F8  1  0.17391445  0.72352349  0.06882529  1
  F  F9  1  0.82608555  0.27647651  0.93117471  1
  F  F10  1  0.32608555  0.22352349  0.43117471  1
  F  F11  1  0.67391445  0.77647651  0.56882529  1
  F  F12  1  0.88729104  0.05788808  0.22564877  1
  F  F13  1  0.11270896  0.94211192  0.77435123  1
  F  F14  1  0.61270896  0.55788808  0.27435123  1
  F  F15  1  0.38729104  0.44211192  0.72564877  1
  F  F16  1  0.28236761  0.17781079  0.05114220  1
  F  F17  1  0.71763239  0.82218921  0.94885780  1
  F  F18  1  0.21763239  0.67781079  0.44885780  1
  F  F19  1  0.78236761  0.32218921  0.55114220  1
