# generated using pymatgen
data_Mn5P3ClO12
_symmetry_space_group_name_H-M   'P 1'
_cell_length_a   6.28160933
_cell_length_b   9.66398404
_cell_length_c   9.66398404
_cell_angle_alpha   120.00000685
_cell_angle_beta   90.00000000
_cell_angle_gamma   90.00000000
_symmetry_Int_Tables_number   1
_chemical_formula_structural   Mn5P3ClO12
_chemical_formula_sum   'Mn10 P6 Cl2 O24'
_cell_volume   508.05874705
_cell_formula_units_Z   2
loop_
 _symmetry_equiv_pos_site_id
 _symmetry_equiv_pos_as_xyz
  1  'x, y, z'
loop_
 _atom_site_type_symbol
 _atom_site_label
 _atom_site_symmetry_multiplicity
 _atom_site_fract_x
 _atom_site_fract_y
 _atom_site_fract_z
 _atom_site_occupancy
  Mn  Mn0  1  0.99398861  0.66666700  0.33333300  1
  Mn  Mn1  1  0.00601139  0.33333300  0.66666700  1
  Mn  Mn2  1  0.49398861  0.33333300  0.66666700  1
  Mn  Mn3  1  0.50601139  0.66666700  0.33333300  1
  Mn  Mn4  1  0.75000000  0.72212058  0.96499772  1
  Mn  Mn5  1  0.25000000  0.27787942  0.03500228  1
  Mn  Mn6  1  0.75000000  0.24287714  0.27787942  1
  Mn  Mn7  1  0.25000000  0.75712286  0.72212058  1
  Mn  Mn8  1  0.75000000  0.03500228  0.75712286  1
  Mn  Mn9  1  0.25000000  0.96499772  0.24287714  1
  P  P10  1  0.75000000  0.59346632  0.61935621  1
  P  P11  1  0.25000000  0.40653368  0.38064379  1
  P  P12  1  0.75000000  0.02588988  0.40653368  1
  P  P13  1  0.25000000  0.97411012  0.59346632  1
  P  P14  1  0.75000000  0.38064379  0.97411012  1
  P  P15  1  0.25000000  0.61935621  0.02588988  1
  Cl  Cl16  1  0.75000000  0.00000000  0.00000000  1
  Cl  Cl17  1  0.25000000  0.00000000  0.00000000  1
  O  O18  1  0.94745434  0.65618681  0.73095815  1
  O  O19  1  0.05254566  0.34381319  0.26904185  1
  O  O20  1  0.94745434  0.07477134  0.34381319  1
  O  O21  1  0.44745434  0.34381319  0.26904185  1
  O  O22  1  0.05254566  0.92522866  0.65618681  1
  O  O23  1  0.55254566  0.65618681  0.73095815  1
  O  O24  1  0.94745434  0.26904185  0.92522866  1
  O  O25  1  0.44745434  0.92522866  0.65618681  1
  O  O26  1  0.05254566  0.73095815  0.07477134  1
  O  O27  1  0.55254566  0.07477134  0.34381319  1
  O  O28  1  0.44745434  0.73095815  0.07477134  1
  O  O29  1  0.55254566  0.26904185  0.92522866  1
  O  O30  1  0.75000000  0.40503325  0.54244698  1
  O  O31  1  0.25000000  0.59496675  0.45755302  1
  O  O32  1  0.75000000  0.13741372  0.59496675  1
  O  O33  1  0.25000000  0.86258628  0.40503325  1
  O  O34  1  0.75000000  0.45755302  0.86258628  1
  O  O35  1  0.25000000  0.54244698  0.13741372  1
  O  O36  1  0.75000000  0.84844280  0.36053282  1
  O  O37  1  0.25000000  0.15155720  0.63946718  1
  O  O38  1  0.75000000  0.51209002  0.15155720  1
  O  O39  1  0.25000000  0.48790998  0.84844280  1
  O  O40  1  0.75000000  0.63946718  0.48790998  1
  O  O41  1  0.25000000  0.36053282  0.51209002  1
