# generated using pymatgen
data_NaCu5Sb2As6(H9O17)2
_symmetry_space_group_name_H-M   'P 1'
_cell_length_a   7.17727671
_cell_length_b   10.02583671
_cell_length_c   10.99138695
_cell_angle_alpha   107.70163535
_cell_angle_beta   104.30545346
_cell_angle_gamma   93.91022583
_symmetry_Int_Tables_number   1
_chemical_formula_structural   NaCu5Sb2As6(H9O17)2
_chemical_formula_sum   'Na1 Cu5 Sb2 As6 H18 O34'
_cell_volume   721.25534511
_cell_formula_units_Z   1
loop_
 _symmetry_equiv_pos_site_id
 _symmetry_equiv_pos_as_xyz
  1  'x, y, z'
loop_
 _atom_site_type_symbol
 _atom_site_label
 _atom_site_symmetry_multiplicity
 _atom_site_fract_x
 _atom_site_fract_y
 _atom_site_fract_z
 _atom_site_occupancy
  Na  Na0  1  -0.00000000  0.00000000  0.00000000  1
  Cu  Cu1  1  0.50000000  0.50000000  0.50000000  1
  Cu  Cu2  1  0.07777468  0.38902455  0.18106912  1
  Cu  Cu3  1  0.92222532  0.61097545  0.81893088  1
  Cu  Cu4  1  -0.00000000  0.50000000  0.50000000  1
  Cu  Cu5  1  0.50000000  0.50000000  0.00000000  1
  Sb  Sb6  1  -0.00000000  0.00000000  0.50000000  1
  Sb  Sb7  1  0.50000000  0.00000000  0.50000000  1
  As  As8  1  0.20674411  0.19791637  0.35203589  1
  As  As9  1  0.79325589  0.80208363  0.64796411  1
  As  As10  1  0.64731225  0.35420561  0.22706131  1
  As  As11  1  0.35268775  0.64579439  0.77293869  1
  As  As12  1  0.16089409  0.70461843  0.35054187  1
  As  As13  1  0.83910591  0.29538157  0.64945813  1
  H  H14  1  0.34529568  0.05463479  0.93964630  1
  H  H15  1  0.65470432  0.94536521  0.06035370  1
  H  H16  1  0.18226562  0.02903844  0.80889263  1
  H  H17  1  0.81773438  0.97096156  0.19110737  1
  H  H18  1  0.18803739  0.25751809  0.97282145  1
  H  H19  1  0.81196261  0.74248191  0.02717855  1
  H  H20  1  0.31595946  0.90457693  0.17584196  1
  H  H21  1  0.68404054  0.09542307  0.82415804  1
  H  H22  1  0.31023050  0.79766565  0.03658306  1
  H  H23  1  0.68976950  0.20233435  0.96341694  1
  H  H24  1  0.53502814  0.14735840  0.25431094  1
  H  H25  1  0.46497186  0.85264160  0.74568906  1
  H  H26  1  0.05498995  0.36979229  0.93671894  1
  H  H27  1  0.94501005  0.63020771  0.06328106  1
  H  H28  1  0.28366845  0.29129716  0.77219955  1
  H  H29  1  0.71633155  0.70870284  0.22780045  1
  H  H30  1  0.50267629  0.69375036  0.23855445  1
  H  H31  1  0.49732371  0.30624964  0.76144555  1
  O  O32  1  0.27723802  0.35395588  0.48041898  1
  O  O33  1  0.72276198  0.64604412  0.51958102  1
  O  O34  1  0.62590366  0.18977627  0.64127528  1
  O  O35  1  0.37409634  0.81022373  0.35872472  1
  O  O36  1  0.02098850  0.18678910  0.64606559  1
  O  O37  1  0.97901150  0.81321090  0.35393441  1
  O  O38  1  0.09526139  0.58875692  0.19189385  1
  O  O39  1  0.90473861  0.41124308  0.80810615  1
  O  O40  1  0.25976369  0.88304159  0.08078310  1
  O  O41  1  0.74023631  0.11695841  0.91921690  1
  O  O42  1  0.48668382  0.42604040  0.31030007  1
  O  O43  1  0.51331618  0.57395960  0.68969993  1
  O  O44  1  0.00869146  0.09612967  0.36540359  1
  O  O45  1  0.99130854  0.90387033  0.63459641  1
  O  O46  1  0.20541438  0.63556545  0.47549778  1
  O  O47  1  0.79458562  0.36443455  0.52450222  1
  O  O48  1  0.10351923  0.58535936  0.69477800  1
  O  O49  1  0.89648077  0.41464064  0.30522200  1
  O  O50  1  0.28250844  0.02480327  0.57656939  1
  O  O51  1  0.71749156  0.97519673  0.42343061  1
  O  O52  1  0.60498500  0.16816483  0.19330795  1
  O  O53  1  0.39501500  0.83183517  0.80669205  1
  O  O54  1  0.13409264  0.20426580  0.19487828  1
  O  O55  1  0.86590736  0.79573420  0.80512172  1
  O  O56  1  0.15694833  0.35456391  0.00955969  1
  O  O57  1  0.84305167  0.64543609  0.99044031  1
  O  O58  1  0.39417500  0.09113050  0.35684062  1
  O  O59  1  0.60582500  0.90886950  0.64315938  1
  O  O60  1  0.58970821  0.64682211  0.18861772  1
  O  O61  1  0.41029179  0.35317789  0.81138228  1
  O  O62  1  0.61335519  0.35842816  0.06825963  1
  O  O63  1  0.38664481  0.64157184  0.93174037  1
  O  O64  1  0.22609627  0.08781009  0.90302790  1
  O  O65  1  0.77390373  0.91218991  0.09697210  1
