# generated using pymatgen
data_MgTa2Zn2O8
_symmetry_space_group_name_H-M   'P 1'
_cell_length_a   5.25902476
_cell_length_b   5.95011423
_cell_length_c   10.09819049
_cell_angle_alpha   107.13432893
_cell_angle_beta   90.26100148
_cell_angle_gamma   90.00000000
_symmetry_Int_Tables_number   1
_chemical_formula_structural   MgTa2Zn2O8
_chemical_formula_sum   'Mg2 Ta4 Zn4 O16'
_cell_volume   301.96239386
_cell_formula_units_Z   2
loop_
 _symmetry_equiv_pos_site_id
 _symmetry_equiv_pos_as_xyz
  1  'x, y, z'
loop_
 _atom_site_type_symbol
 _atom_site_label
 _atom_site_symmetry_multiplicity
 _atom_site_fract_x
 _atom_site_fract_y
 _atom_site_fract_z
 _atom_site_occupancy
  Mg  Mg0  1  0.75000000  0.64595551  1.00000000  1
  Mg  Mg1  1  0.25000000  0.35404449  0.00000000  1
  Ta  Ta2  1  0.73782691  0.27533392  0.22967489  1
  Ta  Ta3  1  0.26217309  0.72466608  0.77032511  1
  Ta  Ta4  1  0.76217309  0.04565903  0.77032511  1
  Ta  Ta5  1  0.23782691  0.95434097  0.22967489  1
  Zn  Zn6  1  0.76097286  0.43372994  0.55979210  1
  Zn  Zn7  1  0.23902714  0.56627006  0.44020790  1
  Zn  Zn8  1  0.73902714  0.87393784  0.44020790  1
  Zn  Zn9  1  0.26097286  0.12606216  0.55979210  1
  O  O10  1  0.55648973  0.71818070  0.64015772  1
  O  O11  1  0.44351027  0.28181930  0.35984228  1
  O  O12  1  0.94351027  0.07802298  0.35984228  1
  O  O13  1  0.05648973  0.92197702  0.64015772  1
  O  O14  1  0.92562537  0.81578079  0.86011502  1
  O  O15  1  0.07437463  0.18421921  0.13988498  1
  O  O16  1  0.57437463  0.95566577  0.13988498  1
  O  O17  1  0.42562537  0.04433423  0.86011502  1
  O  O18  1  0.86870775  0.54659367  0.38497451  1
  O  O19  1  0.13129225  0.45340633  0.61502549  1
  O  O20  1  0.63129225  0.16161915  0.61502549  1
  O  O21  1  0.36870775  0.83838085  0.38497451  1
  O  O22  1  0.90996756  0.31653005  0.88303828  1
  O  O23  1  0.09003244  0.68346995  0.11696172  1
  O  O24  1  0.59003244  0.43349177  0.11696172  1
  O  O25  1  0.40996756  0.56650823  0.88303828  1
