# generated using pymatgen
data_Li2Al2Si3(HO3)4
_symmetry_space_group_name_H-M   'P 1'
_cell_length_a   6.53430868
_cell_length_b   9.58797973
_cell_length_c   9.97481939
_cell_angle_alpha   83.59180671
_cell_angle_beta   70.88045652
_cell_angle_gamma   70.07710592
_symmetry_Int_Tables_number   1
_chemical_formula_structural   Li2Al2Si3(HO3)4
_chemical_formula_sum   'Li4 Al4 Si6 H8 O24'
_cell_volume   555.12002406
_cell_formula_units_Z   2
loop_
 _symmetry_equiv_pos_site_id
 _symmetry_equiv_pos_as_xyz
  1  'x, y, z'
loop_
 _atom_site_type_symbol
 _atom_site_label
 _atom_site_symmetry_multiplicity
 _atom_site_fract_x
 _atom_site_fract_y
 _atom_site_fract_z
 _atom_site_occupancy
  Li  Li0  1  0.54182094  0.56551462  0.07818086  1
  Li  Li1  1  0.18551642  0.43448538  0.92181914  1
  Li  Li2  1  0.37000180  0.06551462  0.42181914  1
  Li  Li3  1  0.85733556  0.93448538  0.57818086  1
  Al  Al4  1  0.32727595  0.92619472  0.18524183  1
  Al  Al5  1  0.43871250  0.07380528  0.81475817  1
  Al  Al6  1  0.26251778  0.42619472  0.31475817  1
  Al  Al7  1  0.00347066  0.57380528  0.68524183  1
  Si  Si8  1  0.31250713  0.70028883  0.42712461  1
  Si  Si9  1  0.43992058  0.29971117  0.57287539  1
  Si  Si10  1  0.48963175  0.20028883  0.07287539  1
  Si  Si11  1  0.76279597  0.79971117  0.92712461  1
  Si  Si12  1  0.99807789  0.00000000  -0.00000000  1
  Si  Si13  1  0.74807789  0.50000000  0.50000000  1
  H  H14  1  0.82005182  0.93070625  0.31105642  1
  H  H15  1  0.06181449  0.06929375  0.68894358  1
  H  H16  1  0.88110824  0.43070625  0.18894358  1
  H  H17  1  0.50075807  0.56929375  0.81105642  1
  H  H18  1  0.69576253  0.82185213  0.40645052  1
  H  H19  1  0.92406519  0.17814787  0.59354948  1
  H  H20  1  0.85221306  0.32185213  0.09354948  1
  H  H21  1  0.26761467  0.67814787  0.90645052  1
  O  O22  1  0.54352795  0.65018947  0.47870231  1
  O  O23  1  0.67241974  0.34981053  0.52129769  1
  O  O24  1  0.77223026  0.15018947  0.02129769  1
  O  O25  1  0.94371742  0.84981053  0.97870231  1
  O  O26  1  0.54504200  0.79060292  0.06392860  1
  O  O27  1  0.39957352  0.20939708  0.93607140  1
  O  O28  1  0.35897060  0.29060292  0.43607140  1
  O  O29  1  0.08564491  0.70939708  0.56392860  1
  O  O30  1  0.34995270  0.58245942  0.30798044  1
  O  O31  1  0.24039256  0.41754058  0.69201956  1
  O  O32  1  0.40793314  0.08245942  0.19201956  1
  O  O33  1  0.68241212  0.91754058  0.80798044  1
  O  O34  1  0.96494472  0.47417510  0.35628960  1
  O  O35  1  0.79540942  0.52582490  0.64371040  1
  O  O36  1  0.07123432  0.97417510  0.14371040  1
  O  O37  1  0.18911982  0.02582490  0.85628960  1
  O  O38  1  0.71180272  0.92023744  0.40482758  1
  O  O39  1  0.03686773  0.07976256  0.59517242  1
  O  O40  1  0.86663030  0.42023744  0.09517242  1
  O  O41  1  0.38204016  0.57976256  0.90482758  1
  O  O42  1  0.28484394  0.86558047  0.36107318  1
  O  O43  1  0.51149759  0.13441953  0.63892682  1
  O  O44  1  0.39591711  0.36558047  0.13892682  1
  O  O45  1  0.90042441  0.63441953  0.86107318  1
