# generated using pymatgen
data_KLiGd2(MoO4)4
_symmetry_space_group_name_H-M   'P 1'
_cell_length_a   5.31204257
_cell_length_b   6.96232271
_cell_length_c   19.65176020
_cell_angle_alpha   88.83899126
_cell_angle_beta   86.95538212
_cell_angle_gamma   67.57431016
_symmetry_Int_Tables_number   1
_chemical_formula_structural   KLiGd2(MoO4)4
_chemical_formula_sum   'K2 Li2 Gd4 Mo8 O32'
_cell_volume   670.89094630
_cell_formula_units_Z   2
loop_
 _symmetry_equiv_pos_site_id
 _symmetry_equiv_pos_as_xyz
  1  'x, y, z'
loop_
 _atom_site_type_symbol
 _atom_site_label
 _atom_site_symmetry_multiplicity
 _atom_site_fract_x
 _atom_site_fract_y
 _atom_site_fract_z
 _atom_site_occupancy
  K  K0  1  0.46884769  0.06230461  0.75000000  1
  K  K1  1  0.53115231  0.93769539  0.25000000  1
  Li  Li2  1  0.18643258  0.62713483  0.75000000  1
  Li  Li3  1  0.81356742  0.37286517  0.25000000  1
  Gd  Gd4  1  0.35280656  0.29284755  0.96717777  1
  Gd  Gd5  1  0.64719344  0.70715245  0.03282223  1
  Gd  Gd6  1  0.35434588  0.29284755  0.53282223  1
  Gd  Gd7  1  0.64565412  0.70715245  0.46717777  1
  Mo  Mo8  1  0.08140461  0.87516338  0.90802704  1
  Mo  Mo9  1  0.91859539  0.12483662  0.09197296  1
  Mo  Mo10  1  0.04343200  0.87516338  0.59197296  1
  Mo  Mo11  1  0.95656800  0.12483662  0.40802704  1
  Mo  Mo12  1  0.76731698  0.48549651  0.85141137  1
  Mo  Mo13  1  0.23268302  0.51450349  0.14858863  1
  Mo  Mo14  1  0.74718651  0.48549651  0.64858863  1
  Mo  Mo15  1  0.25281349  0.51450349  0.35141137  1
  O  O16  1  0.33045391  0.66112185  0.95712599  1
  O  O17  1  0.66954609  0.33887815  0.04287401  1
  O  O18  1  0.00842424  0.66112185  0.54287401  1
  O  O19  1  0.99157576  0.33887815  0.45712599  1
  O  O20  1  0.51135438  0.72097524  0.82633430  1
  O  O21  1  0.48864562  0.27902476  0.17366570  1
  O  O22  1  0.76767037  0.72097524  0.67366570  1
  O  O23  1  0.23232963  0.27902476  0.32633430  1
  O  O24  1  0.27572330  0.96108587  0.53760084  1
  O  O25  1  0.72427670  0.03891413  0.46239916  1
  O  O26  1  0.76319083  0.96108587  0.96239916  1
  O  O27  1  0.23680917  0.03891413  0.03760084  1
  O  O28  1  0.56633398  0.51950368  0.56716233  1
  O  O29  1  0.43366602  0.48049632  0.43283767  1
  O  O30  1  0.91416233  0.51950368  0.93283767  1
  O  O31  1  0.08583767  0.48049632  0.06716233  1
  O  O32  1  0.19874639  0.81635057  0.67066909  1
  O  O33  1  0.80125361  0.18364943  0.32933091  1
  O  O34  1  0.98490304  0.81635057  0.82933091  1
  O  O35  1  0.01509696  0.18364943  0.17066909  1
  O  O36  1  0.27733824  0.91081960  0.39819669  1
  O  O37  1  0.72266176  0.08918040  0.60180331  1
  O  O38  1  0.81184216  0.91081960  0.10180331  1
  O  O39  1  0.18815784  0.08918040  0.89819669  1
  O  O40  1  0.60239890  0.30216625  0.86685249  1
  O  O41  1  0.39760110  0.69783375  0.13314751  1
  O  O42  1  0.09543485  0.30216625  0.63314751  1
  O  O43  1  0.90456515  0.69783375  0.36685249  1
  O  O44  1  0.56397750  0.40749688  0.71385920  1
  O  O45  1  0.43602250  0.59250312  0.28614080  1
  O  O46  1  0.02852562  0.40749688  0.78614080  1
  O  O47  1  0.97147438  0.59250312  0.21385920  1
