# generated using pymatgen
data_Ho7Ru2C11
_symmetry_space_group_name_H-M   'P 1'
_cell_length_a   3.42713088
_cell_length_b   8.43591422
_cell_length_c   19.83429884
_cell_angle_alpha   90.00000000
_cell_angle_beta   90.00000000
_cell_angle_gamma   101.71990156
_symmetry_Int_Tables_number   1
_chemical_formula_structural   Ho7Ru2C11
_chemical_formula_sum   'Ho14 Ru4 C22'
_cell_volume   561.47439030
_cell_formula_units_Z   2
loop_
 _symmetry_equiv_pos_site_id
 _symmetry_equiv_pos_as_xyz
  1  'x, y, z'
loop_
 _atom_site_type_symbol
 _atom_site_label
 _atom_site_symmetry_multiplicity
 _atom_site_fract_x
 _atom_site_fract_y
 _atom_site_fract_z
 _atom_site_occupancy
  Ho  Ho0  1  0.89746967  0.79493933  0.25000000  1
  Ho  Ho1  1  0.10253033  0.20506067  0.75000000  1
  Ho  Ho2  1  0.27825457  0.55650913  0.65499573  1
  Ho  Ho3  1  0.72174543  0.44349087  0.34500427  1
  Ho  Ho4  1  0.72174543  0.44349087  0.15499573  1
  Ho  Ho5  1  0.27825457  0.55650913  0.84500427  1
  Ho  Ho6  1  0.33846182  0.67692363  0.01933072  1
  Ho  Ho7  1  0.66153818  0.32307637  0.98066928  1
  Ho  Ho8  1  0.66153818  0.32307637  0.51933072  1
  Ho  Ho9  1  0.33846182  0.67692363  0.48066928  1
  Ho  Ho10  1  0.52265279  0.04530558  0.12717744  1
  Ho  Ho11  1  0.47734721  0.95469442  0.87282256  1
  Ho  Ho12  1  0.47734721  0.95469442  0.62717744  1
  Ho  Ho13  1  0.52265279  0.04530558  0.37282256  1
  Ru  Ru14  1  0.08108120  0.16216241  0.25000000  1
  Ru  Ru15  1  0.91891880  0.83783759  0.75000000  1
  Ru  Ru16  1  -0.00000000  -0.00000000  0.00000000  1
  Ru  Ru17  1  -0.00000000  -0.00000000  0.50000000  1
  C  C18  1  0.27907166  0.55814332  0.25000000  1
  C  C19  1  0.72092834  0.44185668  0.75000000  1
  C  C20  1  0.50338554  0.00677108  0.25000000  1
  C  C21  1  0.49661446  0.99322892  0.75000000  1
  C  C22  1  0.07394038  0.14788077  0.57943011  1
  C  C23  1  0.92605962  0.85211923  0.42056989  1
  C  C24  1  0.92605962  0.85211923  0.07943011  1
  C  C25  1  0.07394038  0.14788077  0.92056989  1
  C  C26  1  0.13320220  0.26640441  0.62285718  1
  C  C27  1  0.86679780  0.73359559  0.37714282  1
  C  C28  1  0.86679780  0.73359559  0.12285718  1
  C  C29  1  0.13320220  0.26640441  0.87714282  1
  C  C30  1  0.20593204  0.41186407  0.06326496  1
  C  C31  1  0.79406796  0.58813593  0.93673504  1
  C  C32  1  0.79406796  0.58813593  0.56326496  1
  C  C33  1  0.20593204  0.41186407  0.43673504  1
  C  C34  1  0.19854546  0.39709093  0.25000000  1
  C  C35  1  0.80145454  0.60290907  0.75000000  1
  C  C36  1  0.12690612  0.25381224  0.08409942  1
  C  C37  1  0.87309388  0.74618776  0.91590058  1
  C  C38  1  0.87309388  0.74618776  0.58409942  1
  C  C39  1  0.12690612  0.25381224  0.41590058  1
