# generated using pymatgen
data_K2BaAs5
_symmetry_space_group_name_H-M   'P 1'
_cell_length_a   6.68611243
_cell_length_b   6.68611243
_cell_length_c   11.86185243
_cell_angle_alpha   90.00000000
_cell_angle_beta   90.00000000
_cell_angle_gamma   107.38689404
_symmetry_Int_Tables_number   1
_chemical_formula_structural   K2BaAs5
_chemical_formula_sum   'K4 Ba2 As10'
_cell_volume   506.04455180
_cell_formula_units_Z   2
loop_
 _symmetry_equiv_pos_site_id
 _symmetry_equiv_pos_as_xyz
  1  'x, y, z'
loop_
 _atom_site_type_symbol
 _atom_site_label
 _atom_site_symmetry_multiplicity
 _atom_site_fract_x
 _atom_site_fract_y
 _atom_site_fract_z
 _atom_site_occupancy
  K  K0  1  0.76134532  0.23865468  0.64771424  1
  K  K1  1  0.23865468  0.76134532  0.14771424  1
  K  K2  1  0.85797345  0.14202655  0.27265093  1
  K  K3  1  0.14202655  0.85797345  0.77265093  1
  Ba  Ba4  1  0.60598516  0.39401484  0.97344191  1
  Ba  Ba5  1  0.39401484  0.60598516  0.47344191  1
  As  As6  1  0.61040300  0.69950730  0.74316870  1
  As  As7  1  0.38959700  0.30049270  0.24316870  1
  As  As8  1  0.69950730  0.61040300  0.24316870  1
  As  As9  1  0.30049270  0.38959700  0.74316870  1
  As  As10  1  0.94073920  0.05926080  0.99120208  1
  As  As11  1  0.05926080  0.94073920  0.49120208  1
  As  As12  1  0.58491355  0.89542047  0.91687172  1
  As  As13  1  0.41508645  0.10457953  0.41687172  1
  As  As14  1  0.89542047  0.58491355  0.41687172  1
  As  As15  1  0.10457953  0.41508645  0.91687172  1
