# generated using pymatgen
data_Pr10Ti9GaO34
_symmetry_space_group_name_H-M   'P 1'
_cell_length_a   5.53459629
_cell_length_b   7.79313292
_cell_length_c   32.07559922
_cell_angle_alpha   97.05696632
_cell_angle_beta   90.00000000
_cell_angle_gamma   90.00000000
_symmetry_Int_Tables_number   1
_chemical_formula_structural   Pr10Ti9GaO34
_chemical_formula_sum   'Pr20 Ti18 Ga2 O68'
_cell_volume   1372.99919857
_cell_formula_units_Z   2
loop_
 _symmetry_equiv_pos_site_id
 _symmetry_equiv_pos_as_xyz
  1  'x, y, z'
loop_
 _atom_site_type_symbol
 _atom_site_label
 _atom_site_symmetry_multiplicity
 _atom_site_fract_x
 _atom_site_fract_y
 _atom_site_fract_z
 _atom_site_occupancy
  Pr  Pr0  1  0.48454144  0.78722683  0.58226467  1
  Pr  Pr1  1  0.51545856  0.21277317  0.41773533  1
  Pr  Pr2  1  0.98454144  0.21277317  0.91773533  1
  Pr  Pr3  1  0.01545856  0.78722683  0.08226467  1
  Pr  Pr4  1  0.50312125  0.69996999  0.40447496  1
  Pr  Pr5  1  0.49687875  0.30003001  0.59552504  1
  Pr  Pr6  1  0.00312125  0.30003001  0.09552504  1
  Pr  Pr7  1  0.99687875  0.69996999  0.90447496  1
  Pr  Pr8  1  0.44948909  0.64434909  0.79860602  1
  Pr  Pr9  1  0.55051091  0.35565091  0.20139398  1
  Pr  Pr10  1  0.94948909  0.35565091  0.70139398  1
  Pr  Pr11  1  0.05051091  0.64434909  0.29860602  1
  Pr  Pr12  1  0.49205957  0.74212601  0.99374592  1
  Pr  Pr13  1  0.50794043  0.25787399  0.00625408  1
  Pr  Pr14  1  0.99205957  0.25787399  0.50625408  1
  Pr  Pr15  1  0.00794043  0.74212601  0.49374592  1
  Pr  Pr16  1  0.88608255  0.85716664  0.72061388  1
  Pr  Pr17  1  0.11391745  0.14283336  0.27938612  1
  Pr  Pr18  1  0.38608255  0.14283336  0.77938612  1
  Pr  Pr19  1  0.61391745  0.85716664  0.22061388  1
  Ti  Ti20  1  0.98579673  0.54546115  0.59361174  1
  Ti  Ti21  1  0.01420327  0.45453885  0.40638826  1
  Ti  Ti22  1  0.48579673  0.45453885  0.90638826  1
  Ti  Ti23  1  0.51420327  0.54546115  0.09361174  1
  Ti  Ti24  1  0.95380525  0.92110507  0.82406746  1
  Ti  Ti25  1  0.04619475  0.07889493  0.17593254  1
  Ti  Ti26  1  0.45380525  0.07889493  0.67593254  1
  Ti  Ti27  1  0.54619475  0.92110507  0.32406746  1
  Ti  Ti28  1  0.94516145  0.40640515  0.82143372  1
  Ti  Ti29  1  0.05483855  0.59359485  0.17856628  1
  Ti  Ti30  1  0.44516145  0.59359485  0.67856628  1
  Ti  Ti31  1  0.55483855  0.40640515  0.32143372  1
  Ti  Ti32  1  0.48386026  0.95197234  0.90729980  1
  Ti  Ti33  1  0.51613974  0.04802766  0.09270020  1
  Ti  Ti34  1  0.98386026  0.04802766  0.59270020  1
  Ti  Ti35  1  0.01613974  0.95197234  0.40729980  1
  Ti  Ti36  1  -0.00000000  0.00000000  -0.00000000  1
  Ti  Ti37  1  0.50000000  0.00000000  0.50000000  1
  Ga  Ga38  1  0.00000000  0.50000000  -0.00000000  1
  Ga  Ga39  1  0.50000000  0.50000000  0.50000000  1
  O  O40  1  0.89897952  0.66323830  0.82896156  1
  O  O41  1  0.10102048  0.33676170  0.17103844  1
  O  O42  1  0.39897952  0.33676170  0.67103844  1
  O  O43  1  0.60102048  0.66323830  0.32896156  1
  O  O44  1  0.68640979  0.91708875  0.78937154  1
  O  O45  1  0.31359021  0.08291125  0.21062846  1
  O  O46  1  0.18640979  0.08291125  0.71062846  1
  O  O47  1  0.81359021  0.91708875  0.28937154  1
  O  O48  1  0.17254228  0.87030599  0.77946687  1
  O  O49  1  0.82745772  0.12969401  0.22053313  1
  O  O50  1  0.67254228  0.12969401  0.72053313  1
  O  O51  1  0.32745772  0.87030599  0.27946687  1
  O  O52  1  0.28701209  0.87227894  0.86301902  1
  O  O53  1  0.71298791  0.12772106  0.13698098  1
  O  O54  1  0.78701209  0.12772106  0.63698098  1
  O  O55  1  0.21298791  0.87227894  0.36301902  1
  O  O56  1  0.71779456  0.48650470  0.55129516  1
  O  O57  1  0.28220544  0.51349530  0.44870484  1
  O  O58  1  0.21779456  0.51349530  0.94870484  1
  O  O59  1  0.78220544  0.48650470  0.05129516  1
  O  O60  1  0.65628930  0.59556178  0.72581214  1
  O  O61  1  0.34371070  0.40443822  0.27418786  1
  O  O62  1  0.15628930  0.40443822  0.77418786  1
  O  O63  1  0.84371070  0.59556178  0.22581214  1
  O  O64  1  0.71698758  0.44047290  0.96391114  1
  O  O65  1  0.28301242  0.55952710  0.03608886  1
  O  O66  1  0.21698758  0.55952710  0.53608886  1
  O  O67  1  0.78301242  0.44047290  0.46391114  1
  O  O68  1  0.80216936  0.42065979  0.88065462  1
  O  O69  1  0.19783064  0.57934021  0.11934538  1
  O  O70  1  0.30216936  0.57934021  0.61934538  1
  O  O71  1  0.69783064  0.42065979  0.38065462  1
  O  O72  1  0.92261345  0.75303553  0.00321596  1
  O  O73  1  0.07738655  0.24696447  0.99678404  1
  O  O74  1  0.42261345  0.24696447  0.49678404  1
  O  O75  1  0.57738655  0.75303553  0.50321596  1
  O  O76  1  0.92909053  0.79347452  0.58903334  1
  O  O77  1  0.07090947  0.20652548  0.41096666  1
  O  O78  1  0.42909053  0.20652548  0.91096666  1
  O  O79  1  0.57090947  0.79347452  0.08903334  1
  O  O80  1  0.54465908  0.83379801  0.66929323  1
  O  O81  1  0.45534092  0.16620199  0.33070677  1
  O  O82  1  0.04465908  0.16620199  0.83070677  1
  O  O83  1  0.95534092  0.83379801  0.16929323  1
  O  O84  1  0.21512674  0.97807031  0.53574683  1
  O  O85  1  0.78487326  0.02192969  0.46425317  1
  O  O86  1  0.71512674  0.02192969  0.96425317  1
  O  O87  1  0.28487326  0.97807031  0.03574683  1
  O  O88  1  0.79349877  0.50902609  0.63817680  1
  O  O89  1  0.20650123  0.49097391  0.36182320  1
  O  O90  1  0.29349877  0.49097391  0.86182320  1
  O  O91  1  0.70650123  0.50902609  0.13817680  1
  O  O92  1  0.21229410  0.93796432  0.94949607  1
  O  O93  1  0.78770590  0.06203568  0.05050393  1
  O  O94  1  0.71229410  0.06203568  0.55050393  1
  O  O95  1  0.28770590  0.93796432  0.44949607  1
  O  O96  1  0.66436076  0.37081633  0.79516007  1
  O  O97  1  0.33563924  0.62918367  0.20483993  1
  O  O98  1  0.16436076  0.62918367  0.70483993  1
  O  O99  1  0.83563924  0.37081633  0.29516007  1
  O  O100  1  0.79919702  0.96216506  0.88086744  1
  O  O101  1  0.20080298  0.03783494  0.11913256  1
  O  O102  1  0.29919702  0.03783494  0.61913256  1
  O  O103  1  0.70080298  0.96216506  0.38086744  1
  O  O104  1  0.56895085  0.71004272  0.91908196  1
  O  O105  1  0.43104915  0.28995728  0.08091804  1
  O  O106  1  0.06895085  0.28995728  0.58091804  1
  O  O107  1  0.93104915  0.71004272  0.41908196  1
