# generated using pymatgen
data_Gd2NiRuO6
_symmetry_space_group_name_H-M   'P 1'
_cell_length_a   5.36553462
_cell_length_b   5.73874465
_cell_length_c   7.71885350
_cell_angle_alpha   90.00000000
_cell_angle_beta   89.63254754
_cell_angle_gamma   90.00000000
_symmetry_Int_Tables_number   1
_chemical_formula_structural   Gd2NiRuO6
_chemical_formula_sum   'Gd4 Ni2 Ru2 O12'
_cell_volume   237.66967319
_cell_formula_units_Z   2
loop_
 _symmetry_equiv_pos_site_id
 _symmetry_equiv_pos_as_xyz
  1  'x, y, z'
loop_
 _atom_site_type_symbol
 _atom_site_label
 _atom_site_symmetry_multiplicity
 _atom_site_fract_x
 _atom_site_fract_y
 _atom_site_fract_z
 _atom_site_occupancy
  Gd  Gd0  1  0.02204276  0.42866315  0.25294672  1
  Gd  Gd1  1  0.97795724  0.57133685  0.74705328  1
  Gd  Gd2  1  0.47795724  0.92866315  0.24705328  1
  Gd  Gd3  1  0.52204276  0.07133685  0.75294672  1
  Ni  Ni4  1  0.00000000  0.00000000  0.50000000  1
  Ni  Ni5  1  0.50000000  0.50000000  -0.00000000  1
  Ru  Ru6  1  0.00000000  0.00000000  -0.00000000  1
  Ru  Ru7  1  0.50000000  0.50000000  0.50000000  1
  O  O8  1  0.88324233  0.04460925  0.24729372  1
  O  O9  1  0.11675767  0.95539075  0.75270628  1
  O  O10  1  0.61675767  0.54460925  0.25270628  1
  O  O11  1  0.38324233  0.45539075  0.74729372  1
  O  O12  1  0.18532602  0.70338054  0.06334196  1
  O  O13  1  0.81467398  0.29661946  0.93665804  1
  O  O14  1  0.31467398  0.20338054  0.43665804  1
  O  O15  1  0.68532602  0.79661946  0.56334196  1
  O  O16  1  0.30811167  0.19192885  0.05341331  1
  O  O17  1  0.69188833  0.80807115  0.94658669  1
  O  O18  1  0.19188833  0.69192885  0.44658669  1
  O  O19  1  0.80811167  0.30807115  0.55341331  1
