# generated using pymatgen
data_Eu3V2O7
_symmetry_space_group_name_H-M   'P 1'
_cell_length_a   3.87422469
_cell_length_b   3.87422469
_cell_length_c   10.62244694
_cell_angle_alpha   100.50727251
_cell_angle_beta   100.50727251
_cell_angle_gamma   90.00000000
_symmetry_Int_Tables_number   1
_chemical_formula_structural   Eu3V2O7
_chemical_formula_sum   'Eu3 V2 O7'
_cell_volume   154.04545172
_cell_formula_units_Z   1
loop_
 _symmetry_equiv_pos_site_id
 _symmetry_equiv_pos_as_xyz
  1  'x, y, z'
loop_
 _atom_site_type_symbol
 _atom_site_label
 _atom_site_symmetry_multiplicity
 _atom_site_fract_x
 _atom_site_fract_y
 _atom_site_fract_z
 _atom_site_occupancy
  Eu  Eu0  1  0.31490545  0.31490545  0.62981091  1
  Eu  Eu1  1  0.68509455  0.68509455  0.37018909  1
  Eu  Eu2  1  0.50000000  0.50000000  -0.00000000  1
  V  V3  1  0.09785610  0.09785610  0.19571220  1
  V  V4  1  0.90214390  0.90214390  0.80428780  1
  O  O5  1  0.09753655  0.59753655  0.19507310  1
  O  O6  1  0.90246345  0.40246345  0.80492690  1
  O  O7  1  0.59753655  0.09753655  0.19507310  1
  O  O8  1  0.40246345  0.90246345  0.80492690  1
  O  O9  1  0.19986036  0.19986036  0.39972072  1
  O  O10  1  0.80013964  0.80013964  0.60027928  1
  O  O11  1  0.00000000  -0.00000000  -0.00000000  1
