# generated using pymatgen
data_Hg2AsF6
_symmetry_space_group_name_H-M   'P 1'
_cell_length_a   6.82695853
_cell_length_b   6.82695829
_cell_length_c   8.51103629
_cell_angle_alpha   113.57582981
_cell_angle_beta   113.57582747
_cell_angle_gamma   90.09561513
_symmetry_Int_Tables_number   1
_chemical_formula_structural   Hg2AsF6
_chemical_formula_sum   'Hg4 As2 F12'
_cell_volume   326.99354335
_cell_formula_units_Z   2
loop_
 _symmetry_equiv_pos_site_id
 _symmetry_equiv_pos_as_xyz
  1  'x, y, z'
loop_
 _atom_site_type_symbol
 _atom_site_label
 _atom_site_symmetry_multiplicity
 _atom_site_fract_x
 _atom_site_fract_y
 _atom_site_fract_z
 _atom_site_occupancy
  Hg  Hg0  1  0.00000000  0.00000000  0.50000000  1
  Hg  Hg1  1  0.00000000  0.00000000  0.00000000  1
  Hg  Hg2  1  0.50000000  0.00000000  0.50000000  1
  Hg  Hg3  1  0.00000000  0.50000000  0.00000000  1
  As  As4  1  0.37470597  0.62529403  0.75000000  1
  As  As5  1  0.62529403  0.37470597  0.25000000  1
  F  F6  1  0.19029047  0.80970953  0.75000000  1
  F  F7  1  0.18979108  0.44066370  0.74979757  1
  F  F8  1  0.24933732  0.50009029  0.49916825  1
  F  F9  1  0.50009029  0.24933732  0.99916825  1
  F  F10  1  0.55896008  0.44103992  0.75000000  1
  F  F11  1  0.55933630  0.81020892  0.75020243  1
  F  F12  1  0.44066370  0.18979108  0.24979757  1
  F  F13  1  0.44103992  0.55896008  0.25000000  1
  F  F14  1  0.49990971  0.75066268  0.00083175  1
  F  F15  1  0.75066268  0.49990971  0.50083175  1
  F  F16  1  0.81020892  0.55933630  0.25020243  1
  F  F17  1  0.80970953  0.19029047  0.25000000  1
