# generated using pymatgen
data_La6Al4Fe9P
_symmetry_space_group_name_H-M   'P 1'
_cell_length_a   8.12810683
_cell_length_b   8.12810683
_cell_length_c   13.05516325
_cell_angle_alpha   108.13750256
_cell_angle_beta   108.13750256
_cell_angle_gamma   90.00000000
_symmetry_Int_Tables_number   1
_chemical_formula_structural   La6Al4Fe9P
_chemical_formula_sum   'La12 Al8 Fe18 P2'
_cell_volume   774.42410902
_cell_formula_units_Z   2
loop_
 _symmetry_equiv_pos_site_id
 _symmetry_equiv_pos_as_xyz
  1  'x, y, z'
loop_
 _atom_site_type_symbol
 _atom_site_label
 _atom_site_symmetry_multiplicity
 _atom_site_fract_x
 _atom_site_fract_y
 _atom_site_fract_z
 _atom_site_occupancy
  La  La0  1  0.36228027  0.86228027  0.38261294  1
  La  La1  1  0.63771973  0.13771973  0.61738706  1
  La  La2  1  0.02033267  0.52033267  0.38261294  1
  La  La3  1  0.52033267  0.36228027  0.38261294  1
  La  La4  1  0.13771973  0.97966733  0.61738706  1
  La  La5  1  0.97966733  0.47966733  0.61738706  1
  La  La6  1  0.47966733  0.63771973  0.61738706  1
  La  La7  1  0.86228027  0.02033267  0.38261294  1
  La  La8  1  0.10754872  0.10754872  0.21509744  1
  La  La9  1  0.89245128  0.89245128  0.78490256  1
  La  La10  1  0.39245128  0.39245128  0.78490256  1
  La  La11  1  0.60754872  0.60754872  0.21509744  1
  Al  Al12  1  0.71149346  0.21149346  0.18586052  1
  Al  Al13  1  0.28850654  0.78850654  0.81413948  1
  Al  Al14  1  0.47436705  0.97436705  0.18586052  1
  Al  Al15  1  0.97436705  0.71149346  0.18586052  1
  Al  Al16  1  0.78850654  0.52563295  0.81413948  1
  Al  Al17  1  0.52563295  0.02563295  0.81413948  1
  Al  Al18  1  0.02563295  0.28850654  0.81413948  1
  Al  Al19  1  0.21149346  0.47436705  0.18586052  1
  Fe  Fe20  1  0.06804065  0.21003351  1.00000000  1
  Fe  Fe21  1  0.93195935  0.78996649  0.00000000  1
  Fe  Fe22  1  0.78996649  0.06804065  0.00000000  1
  Fe  Fe23  1  0.43195935  0.71003351  1.00000000  1
  Fe  Fe24  1  0.21003351  0.93195935  1.00000000  1
  Fe  Fe25  1  0.56804065  0.28996649  0.00000000  1
  Fe  Fe26  1  0.71003351  0.56804065  1.00000000  1
  Fe  Fe27  1  0.28996649  0.43195935  0.00000000  1
  Fe  Fe28  1  0.23207886  0.73207886  0.11295006  1
  Fe  Fe29  1  0.76792114  0.26792114  0.88704994  1
  Fe  Fe30  1  0.88087120  0.38087120  0.11295006  1
  Fe  Fe31  1  0.38087120  0.23207886  0.11295006  1
  Fe  Fe32  1  0.26792114  0.11912880  0.88704994  1
  Fe  Fe33  1  0.11912880  0.61912880  0.88704994  1
  Fe  Fe34  1  0.61912880  0.76792114  0.88704994  1
  Fe  Fe35  1  0.73207886  0.88087120  0.11295006  1
  Fe  Fe36  1  0.00000000  0.50000000  0.00000000  1
  Fe  Fe37  1  0.50000000  0.00000000  0.00000000  1
  P  P38  1  0.25000000  0.25000000  0.50000000  1
  P  P39  1  0.75000000  0.75000000  0.50000000  1
