# generated using pymatgen
data_Ca4Sm2Cu3(ClO2)4
_symmetry_space_group_name_H-M   'P 1'
_cell_length_a   3.90375208
_cell_length_b   3.90375208
_cell_length_c   21.69838417
_cell_angle_alpha   95.16101269
_cell_angle_beta   95.16101269
_cell_angle_gamma   90.00000000
_symmetry_Int_Tables_number   1
_chemical_formula_structural   Ca4Sm2Cu3(ClO2)4
_chemical_formula_sum   'Ca4 Sm2 Cu3 Cl4 O8'
_cell_volume   327.98111877
_cell_formula_units_Z   1
loop_
 _symmetry_equiv_pos_site_id
 _symmetry_equiv_pos_as_xyz
  1  'x, y, z'
loop_
 _atom_site_type_symbol
 _atom_site_label
 _atom_site_symmetry_multiplicity
 _atom_site_fract_x
 _atom_site_fract_y
 _atom_site_fract_z
 _atom_site_occupancy
  Ca  Ca0  1  0.46315384  0.46315384  0.92630768  1
  Ca  Ca1  1  0.53684616  0.53684616  0.07369232  1
  Ca  Ca2  1  0.14375432  0.14375432  0.28750864  1
  Ca  Ca3  1  0.85624568  0.85624568  0.71249136  1
  Sm  Sm4  1  0.22188458  0.22188458  0.44376915  1
  Sm  Sm5  1  0.77811542  0.77811542  0.55623085  1
  Cu  Cu6  1  0.32005142  0.32005142  0.64010285  1
  Cu  Cu7  1  0.67994858  0.67994858  0.35989715  1
  Cu  Cu8  1  -0.00000000  -0.00000000  -0.00000000  1
  Cl  Cl9  1  0.38468364  0.38468364  0.76936729  1
  Cl  Cl10  1  0.61531636  0.61531636  0.23063271  1
  Cl  Cl11  1  0.06453166  0.06453166  0.12906332  1
  Cl  Cl12  1  0.93546834  0.93546834  0.87093668  1
  O  O13  1  -0.00000000  0.50000000  -0.00000000  1
  O  O14  1  0.50000000  -0.00000000  -0.00000000  1
  O  O15  1  0.25000000  0.75000000  0.50000000  1
  O  O16  1  0.75000000  0.25000000  0.50000000  1
  O  O17  1  0.17903777  0.67903777  0.35807554  1
  O  O18  1  0.82096223  0.32096223  0.64192446  1
  O  O19  1  0.67903777  0.17903777  0.35807554  1
  O  O20  1  0.32096223  0.82096223  0.64192446  1
