# generated using pymatgen
data_Cs3Li2Fe(MoO4)4
_symmetry_space_group_name_H-M   'P 1'
_cell_length_a   10.85027829
_cell_length_b   10.85027829
_cell_length_c   10.85027829
_cell_angle_alpha   109.53295012
_cell_angle_beta   109.34783208
_cell_angle_gamma   109.53295012
_symmetry_Int_Tables_number   1
_chemical_formula_structural   Cs3Li2Fe(MoO4)4
_chemical_formula_sum   'Cs6 Li4 Fe2 Mo8 O32'
_cell_volume   983.32986767
_cell_formula_units_Z   2
loop_
 _symmetry_equiv_pos_site_id
 _symmetry_equiv_pos_as_xyz
  1  'x, y, z'
loop_
 _atom_site_type_symbol
 _atom_site_label
 _atom_site_symmetry_multiplicity
 _atom_site_fract_x
 _atom_site_fract_y
 _atom_site_fract_z
 _atom_site_occupancy
  Cs  Cs0  1  0.76055749  0.88555749  0.37500000  1
  Cs  Cs1  1  0.48944251  0.11444251  0.87500000  1
  Cs  Cs2  1  0.12500000  0.61444251  0.23944251  1
  Cs  Cs3  1  0.62500000  0.38555749  0.51055749  1
  Cs  Cs4  1  0.00000000  0.00000000  0.00000000  1
  Cs  Cs5  1  0.25000000  0.50000000  0.75000000  1
  Li  Li6  1  0.24917883  0.37417883  0.37500000  1
  Li  Li7  1  0.00082117  0.62582117  0.87500000  1
  Li  Li8  1  0.12500000  0.12582117  0.75082117  1
  Li  Li9  1  0.62500000  0.87417883  0.99917883  1
  Fe  Fe10  1  0.50000000  0.00000000  0.50000000  1
  Fe  Fe11  1  0.75000000  0.50000000  0.25000000  1
  Mo  Mo12  1  0.37789801  0.44658757  0.12584095  1
  Mo  Mo13  1  0.67925338  0.55341243  0.93131044  1
  Mo  Mo14  1  0.06868956  0.74794294  0.62210199  1
  Mo  Mo15  1  0.87210199  0.24794294  0.81868956  1
  Mo  Mo16  1  0.87415905  0.25205706  0.32074662  1
  Mo  Mo17  1  0.57074662  0.75205706  0.62415905  1
  Mo  Mo18  1  0.18131044  0.05341243  0.42925338  1
  Mo  Mo19  1  0.37584095  0.94658757  0.12789801  1
  O  O20  1  0.24741084  0.19051916  0.37651140  1
  O  O21  1  0.18599225  0.80948084  0.05689168  1
  O  O22  1  0.94310832  0.12910056  0.75258916  1
  O  O23  1  0.00258916  0.62910056  0.69310832  1
  O  O24  1  0.62348860  0.87089944  0.81400775  1
  O  O25  1  0.06400775  0.37089944  0.37348860  1
  O  O26  1  0.30689168  0.30948084  0.93599225  1
  O  O27  1  0.62651140  0.69051916  0.99741084  1
  O  O28  1  0.25958187  0.37849272  0.19652095  1
  O  O29  1  0.81802823  0.62150728  0.88108915  1
  O  O30  1  0.11891085  0.93693908  0.74041813  1
  O  O31  1  0.99041813  0.43693908  0.86891085  1
  O  O32  1  0.80347905  0.06306092  0.18197177  1
  O  O33  1  0.43197177  0.56306092  0.55347905  1
  O  O34  1  0.13108915  0.12150728  0.56802823  1
  O  O35  1  0.44652095  0.87849272  0.00958187  1
  O  O36  1  0.51835026  0.39256109  0.76677342  1
  O  O37  1  0.37421233  0.60743891  0.12578917  1
  O  O38  1  0.87421083  0.24842316  0.48164974  1
  O  O39  1  0.73164974  0.74842316  0.62421083  1
  O  O40  1  0.23322658  0.75157684  0.62578767  1
  O  O41  1  0.87578767  0.25157684  0.98322658  1
  O  O42  1  0.37578917  0.10743891  0.12421233  1
  O  O43  1  0.01677342  0.89256109  0.26835026  1
  O  O44  1  0.57902980  0.50475262  0.25203388  1
  O  O45  1  0.74728126  0.49524738  0.07427718  1
  O  O46  1  0.92572282  0.67300408  0.42097020  1
  O  O47  1  0.67097020  0.17300408  0.67572282  1
  O  O48  1  0.74796612  0.32699592  0.25271874  1
  O  O49  1  0.50271874  0.82699592  0.49796612  1
  O  O50  1  0.32427718  0.99524738  0.49728126  1
  O  O51  1  0.50203388  0.00475262  0.32902980  1
