# generated using pymatgen
data_Ba2YV3O11
_symmetry_space_group_name_H-M   'P 1'
_cell_length_a   7.78427383
_cell_length_b   12.45504432
_cell_length_c   11.37661750
_cell_angle_alpha   103.26144022
_cell_angle_beta   90.00000000
_cell_angle_gamma   90.00000000
_symmetry_Int_Tables_number   1
_chemical_formula_structural   Ba2YV3O11
_chemical_formula_sum   'Ba8 Y4 V12 O44'
_cell_volume   1073.58936016
_cell_formula_units_Z   4
loop_
 _symmetry_equiv_pos_site_id
 _symmetry_equiv_pos_as_xyz
  1  'x, y, z'
loop_
 _atom_site_type_symbol
 _atom_site_label
 _atom_site_symmetry_multiplicity
 _atom_site_fract_x
 _atom_site_fract_y
 _atom_site_fract_z
 _atom_site_occupancy
  Ba  Ba0  1  0.27563190  0.77087394  0.94249687  1
  Ba  Ba1  1  0.72436810  0.22912606  0.05750313  1
  Ba  Ba2  1  0.77563190  0.22912606  0.55750313  1
  Ba  Ba3  1  0.22436810  0.77087394  0.44249687  1
  Ba  Ba4  1  0.74743185  0.55402988  0.88927954  1
  Ba  Ba5  1  0.25256815  0.44597012  0.11072046  1
  Ba  Ba6  1  0.24743185  0.44597012  0.61072046  1
  Ba  Ba7  1  0.75256815  0.55402988  0.38927954  1
  Y  Y8  1  0.50129705  0.99731699  0.71621489  1
  Y  Y9  1  0.49870295  0.00268301  0.28378511  1
  Y  Y10  1  0.00129705  0.00268301  0.78378511  1
  Y  Y11  1  0.99870295  0.99731699  0.21621489  1
  V  V12  1  0.75571348  0.90682945  0.97680086  1
  V  V13  1  0.24428652  0.09317055  0.02319914  1
  V  V14  1  0.25571348  0.09317055  0.52319914  1
  V  V15  1  0.74428652  0.90682945  0.47680086  1
  V  V16  1  0.51948761  0.68486837  0.67272974  1
  V  V17  1  0.48051239  0.31513163  0.32727026  1
  V  V18  1  0.01948761  0.31513163  0.82727026  1
  V  V19  1  0.98051239  0.68486837  0.17272974  1
  V  V20  1  0.98099752  0.68855205  0.67201519  1
  V  V21  1  0.01900248  0.31144795  0.32798481  1
  V  V22  1  0.48099752  0.31144795  0.82798481  1
  V  V23  1  0.51900248  0.68855205  0.17201519  1
  O  O24  1  0.44735259  0.81995907  0.71651347  1
  O  O25  1  0.55264741  0.18004093  0.28348653  1
  O  O26  1  0.94735259  0.18004093  0.78348653  1
  O  O27  1  0.05264741  0.81995907  0.21651347  1
  O  O28  1  0.54839916  0.17551697  0.80401435  1
  O  O29  1  0.45160084  0.82448303  0.19598565  1
  O  O30  1  0.04839916  0.82448303  0.69598565  1
  O  O31  1  0.95160084  0.17551697  0.30401435  1
  O  O32  1  0.75046145  0.66462830  0.66685584  1
  O  O33  1  0.24953855  0.33537170  0.33314416  1
  O  O34  1  0.25046145  0.33537170  0.83314416  1
  O  O35  1  0.74953855  0.66462830  0.16685584  1
  O  O36  1  0.94468103  0.37529204  0.96690178  1
  O  O37  1  0.05531897  0.62470796  0.03309822  1
  O  O38  1  0.44468103  0.62470796  0.53309822  1
  O  O39  1  0.55531897  0.37529204  0.46690178  1
  O  O40  1  0.93986388  0.39009358  0.73106692  1
  O  O41  1  0.06013612  0.60990642  0.26893308  1
  O  O42  1  0.43986388  0.60990642  0.76893308  1
  O  O43  1  0.56013612  0.39009358  0.23106692  1
  O  O44  1  0.78299616  0.98763203  0.62559752  1
  O  O45  1  0.21700384  0.01236797  0.37440248  1
  O  O46  1  0.28299616  0.01236797  0.87440248  1
  O  O47  1  0.71700384  0.98763203  0.12559752  1
  O  O48  1  0.97453837  0.88466499  0.97555484  1
  O  O49  1  0.02546163  0.11533501  0.02444516  1
  O  O50  1  0.47453837  0.11533501  0.52444516  1
  O  O51  1  0.52546163  0.88466499  0.47555484  1
  O  O52  1  0.64366898  0.78659483  0.94698223  1
  O  O53  1  0.35633102  0.21340517  0.05301777  1
  O  O54  1  0.14366898  0.21340517  0.55301777  1
  O  O55  1  0.85633102  0.78659483  0.44698223  1
  O  O56  1  0.72106211  0.98437192  0.86462538  1
  O  O57  1  0.27893789  0.01562808  0.13537462  1
  O  O58  1  0.22106211  0.01562808  0.63537462  1
  O  O59  1  0.77893789  0.98437192  0.36462538  1
  O  O60  1  0.55825776  0.37001292  0.71809103  1
  O  O61  1  0.44174224  0.62998708  0.28190897  1
  O  O62  1  0.05825776  0.62998708  0.78190897  1
  O  O63  1  0.94174224  0.37001292  0.21809103  1
  O  O64  1  0.56363368  0.38561044  0.96097117  1
  O  O65  1  0.43636632  0.61438956  0.03902883  1
  O  O66  1  0.06363368  0.61438956  0.53902883  1
  O  O67  1  0.93636632  0.38561044  0.46097117  1
