# generated using pymatgen
data_CeGe3Pt5
_symmetry_space_group_name_H-M   'P 1'
_cell_length_a   4.22720461
_cell_length_b   20.50548976
_cell_length_c   7.33812741
_cell_angle_alpha   90.00000000
_cell_angle_beta   90.00000000
_cell_angle_gamma   90.00000000
_symmetry_Int_Tables_number   1
_chemical_formula_structural   CeGe3Pt5
_chemical_formula_sum   'Ce4 Ge12 Pt20'
_cell_volume   636.07549441
_cell_formula_units_Z   4
loop_
 _symmetry_equiv_pos_site_id
 _symmetry_equiv_pos_as_xyz
  1  'x, y, z'
loop_
 _atom_site_type_symbol
 _atom_site_label
 _atom_site_symmetry_multiplicity
 _atom_site_fract_x
 _atom_site_fract_y
 _atom_site_fract_z
 _atom_site_occupancy
  Ce  Ce0  1  0.75000000  0.64606353  0.12215389  1
  Ce  Ce1  1  0.25000000  0.35393647  0.87784611  1
  Ce  Ce2  1  0.25000000  0.85393647  0.62215389  1
  Ce  Ce3  1  0.75000000  0.14606353  0.37784611  1
  Ge  Ge4  1  0.75000000  0.73639330  0.61584000  1
  Ge  Ge5  1  0.25000000  0.26360670  0.38416000  1
  Ge  Ge6  1  0.25000000  0.76360670  0.11584000  1
  Ge  Ge7  1  0.75000000  0.23639330  0.88416000  1
  Ge  Ge8  1  0.75000000  0.92388733  0.34299769  1
  Ge  Ge9  1  0.25000000  0.07611267  0.65700231  1
  Ge  Ge10  1  0.25000000  0.57611267  0.84299769  1
  Ge  Ge11  1  0.75000000  0.42388733  0.15700231  1
  Ge  Ge12  1  0.75000000  0.91433465  0.90965901  1
  Ge  Ge13  1  0.25000000  0.08566535  0.09034099  1
  Ge  Ge14  1  0.25000000  0.58566535  0.40965901  1
  Ge  Ge15  1  0.75000000  0.41433465  0.59034099  1
  Pt  Pt16  1  0.75000000  0.79941735  0.32119771  1
  Pt  Pt17  1  0.25000000  0.20058265  0.67880229  1
  Pt  Pt18  1  0.25000000  0.70058265  0.82119771  1
  Pt  Pt19  1  0.75000000  0.29941735  0.17880229  1
  Pt  Pt20  1  0.75000000  0.98779128  0.62463866  1
  Pt  Pt21  1  0.25000000  0.01220872  0.37536134  1
  Pt  Pt22  1  0.25000000  0.51220872  0.12463866  1
  Pt  Pt23  1  0.75000000  0.48779128  0.87536134  1
  Pt  Pt24  1  0.75000000  0.51896251  0.38011750  1
  Pt  Pt25  1  0.25000000  0.48103749  0.61988250  1
  Pt  Pt26  1  0.25000000  0.98103749  0.88011750  1
  Pt  Pt27  1  0.75000000  0.01896251  0.11988250  1
  Pt  Pt28  1  0.75000000  0.79555568  0.91540265  1
  Pt  Pt29  1  0.25000000  0.20444432  0.08459735  1
  Pt  Pt30  1  0.25000000  0.70444432  0.41540265  1
  Pt  Pt31  1  0.75000000  0.29555568  0.58459735  1
  Pt  Pt32  1  0.75000000  0.61603925  0.67429183  1
  Pt  Pt33  1  0.25000000  0.38396075  0.32570817  1
  Pt  Pt34  1  0.25000000  0.88396075  0.17429183  1
  Pt  Pt35  1  0.75000000  0.11603925  0.82570817  1
