# generated using pymatgen
data_Ba(InSb2)2
_symmetry_space_group_name_H-M   'P 1'
_cell_length_a   4.58718316
_cell_length_b   10.44082903
_cell_length_c   19.87182029
_cell_angle_alpha   90.00000000
_cell_angle_beta   90.00000000
_cell_angle_gamma   90.00000000
_symmetry_Int_Tables_number   1
_chemical_formula_structural   Ba(InSb2)2
_chemical_formula_sum   'Ba4 In8 Sb16'
_cell_volume   951.74086365
_cell_formula_units_Z   4
loop_
 _symmetry_equiv_pos_site_id
 _symmetry_equiv_pos_as_xyz
  1  'x, y, z'
loop_
 _atom_site_type_symbol
 _atom_site_label
 _atom_site_symmetry_multiplicity
 _atom_site_fract_x
 _atom_site_fract_y
 _atom_site_fract_z
 _atom_site_occupancy
  Ba  Ba0  1  0.75000000  0.74750241  0.95506509  1
  Ba  Ba1  1  0.25000000  0.25249759  0.04493491  1
  Ba  Ba2  1  0.25000000  0.75249759  0.45506509  1
  Ba  Ba3  1  0.75000000  0.24750241  0.54493491  1
  In  In4  1  0.75000000  0.85049036  0.63576208  1
  In  In5  1  0.25000000  0.14950964  0.36423792  1
  In  In6  1  0.25000000  0.64950964  0.13576208  1
  In  In7  1  0.75000000  0.35049036  0.86423792  1
  In  In8  1  0.75000000  0.87719635  0.27024552  1
  In  In9  1  0.25000000  0.12280365  0.72975448  1
  In  In10  1  0.25000000  0.62280365  0.77024552  1
  In  In11  1  0.75000000  0.37719635  0.22975448  1
  Sb  Sb12  1  0.75000000  0.99925749  0.40192945  1
  Sb  Sb13  1  0.25000000  0.00074251  0.59807055  1
  Sb  Sb14  1  0.25000000  0.50074251  0.90192945  1
  Sb  Sb15  1  0.75000000  0.49925749  0.09807055  1
  Sb  Sb16  1  0.75000000  0.60195732  0.57072025  1
  Sb  Sb17  1  0.25000000  0.39804268  0.42927975  1
  Sb  Sb18  1  0.25000000  0.89804268  0.07072025  1
  Sb  Sb19  1  0.75000000  0.10195732  0.92927975  1
  Sb  Sb20  1  0.75000000  0.52214390  0.35770062  1
  Sb  Sb21  1  0.25000000  0.47785610  0.64229938  1
  Sb  Sb22  1  0.25000000  0.97785610  0.85770062  1
  Sb  Sb23  1  0.75000000  0.02214390  0.14229938  1
  Sb  Sb24  1  0.75000000  0.79427549  0.77502839  1
  Sb  Sb25  1  0.25000000  0.20572451  0.22497161  1
  Sb  Sb26  1  0.25000000  0.70572451  0.27502839  1
  Sb  Sb27  1  0.75000000  0.29427549  0.72497161  1
