# generated using pymatgen
data_BaGdCuBO5
_symmetry_space_group_name_H-M   'P 1'
_cell_length_a   5.51276134
_cell_length_b   5.51276134
_cell_length_c   7.54152091
_cell_angle_alpha   90.00000000
_cell_angle_beta   90.00000000
_cell_angle_gamma   90.00000000
_symmetry_Int_Tables_number   1
_chemical_formula_structural   BaGdCuBO5
_chemical_formula_sum   'Ba2 Gd2 Cu2 B2 O10'
_cell_volume   229.19087471
_cell_formula_units_Z   2
loop_
 _symmetry_equiv_pos_site_id
 _symmetry_equiv_pos_as_xyz
  1  'x, y, z'
loop_
 _atom_site_type_symbol
 _atom_site_label
 _atom_site_symmetry_multiplicity
 _atom_site_fract_x
 _atom_site_fract_y
 _atom_site_fract_z
 _atom_site_occupancy
  Ba  Ba0  1  -0.00000000  0.00000000  0.01083519  1
  Ba  Ba1  1  0.50000000  0.50000000  0.01083519  1
  Gd  Gd2  1  -0.00000000  -0.00000000  0.51472047  1
  Gd  Gd3  1  0.50000000  0.50000000  0.51472047  1
  Cu  Cu4  1  0.50000000  0.00000000  0.73284954  1
  Cu  Cu5  1  -0.00000000  0.50000000  0.73284954  1
  B  B6  1  0.50000000  -0.00000000  0.25226773  1
  B  B7  1  -0.00000000  0.50000000  0.25226773  1
  O  O8  1  0.15747586  0.65747586  0.34000483  1
  O  O9  1  0.84252414  0.34252414  0.34000483  1
  O  O10  1  0.34252414  0.15747586  0.34000483  1
  O  O11  1  0.65747586  0.84252414  0.34000483  1
  O  O12  1  0.50000000  -0.00000000  0.06699330  1
  O  O13  1  -0.00000000  0.50000000  0.06699330  1
  O  O14  1  0.25265680  0.75265680  0.71266206  1
  O  O15  1  0.74734320  0.24734320  0.71266206  1
  O  O16  1  0.24734320  0.25265680  0.71266206  1
  O  O17  1  0.75265680  0.74734320  0.71266206  1
