# generated using pymatgen
data_Y6Zn(SiS7)2
_symmetry_space_group_name_H-M   'P 1'
_cell_length_a   5.63403105
_cell_length_b   9.93644555
_cell_length_c   9.93630262
_cell_angle_alpha   59.99992484
_cell_angle_beta   89.99985014
_cell_angle_gamma   89.99973887
_symmetry_Int_Tables_number   1
_chemical_formula_structural   Y6Zn(SiS7)2
_chemical_formula_sum   'Y6 Zn1 Si2 S14'
_cell_volume   481.73189973
_cell_formula_units_Z   1
loop_
 _symmetry_equiv_pos_site_id
 _symmetry_equiv_pos_as_xyz
  1  'x, y, z'
loop_
 _atom_site_type_symbol
 _atom_site_label
 _atom_site_symmetry_multiplicity
 _atom_site_fract_x
 _atom_site_fract_y
 _atom_site_fract_z
 _atom_site_occupancy
  Y  Y0  1  0.25021439  0.23272184  0.12279522  1
  Y  Y1  1  0.25021415  0.64449532  0.23271542  1
  Y  Y2  1  0.25021686  0.12280101  0.64448075  1
  Y  Y3  1  0.74925771  0.76723568  0.87720854  1
  Y  Y4  1  0.74925992  0.35554505  0.76724022  1
  Y  Y5  1  0.74925935  0.87720318  0.35555955  1
  Zn  Zn6  1  0.49000038  0.00000025  0.99999953  1
  Si  Si7  1  0.83489781  0.33334716  0.33332720  1
  Si  Si8  1  0.33825368  0.66665178  0.66667380  1
  S  S9  1  0.46137639  0.33333454  0.33333287  1
  S  S10  1  0.96393091  0.66665924  0.66667091  1
  S  S11  1  0.72342797  0.16177186  0.08785472  1
  S  S12  1  0.72342753  0.75037668  0.16177554  1
  S  S13  1  0.72343192  0.08784895  0.75036760  1
  S  S14  1  0.24330077  0.83521150  0.91483595  1
  S  S15  1  0.24329804  0.24994944  0.83520714  1
  S  S16  1  0.24329636  0.91484145  0.24995777  1
  S  S17  1  0.98674343  0.10799082  0.41209416  1
  S  S18  1  0.98674728  0.47992145  0.10798650  1
  S  S19  1  0.98674838  0.41210342  0.47991041  1
  S  S20  1  0.48956146  0.89188150  0.58788761  1
  S  S21  1  0.48956843  0.52022673  0.89188511  1
  S  S22  1  0.48956688  0.58788115  0.52023348  1
