# generated using pymatgen
data_ZnCr2(SeS)2
_symmetry_space_group_name_H-M   'P 1'
_cell_length_a   7.30627290
_cell_length_b   7.30627290
_cell_length_c   7.30627290
_cell_angle_alpha   90.00000000
_cell_angle_beta   60.00000000
_cell_angle_gamma   120.00000000
_symmetry_Int_Tables_number   1
_chemical_formula_structural   ZnCr2(SeS)2
_chemical_formula_sum   'Zn2 Cr4 Se4 S4'
_cell_volume   275.78628876
_cell_formula_units_Z   2
loop_
 _symmetry_equiv_pos_site_id
 _symmetry_equiv_pos_as_xyz
  1  'x, y, z'
loop_
 _atom_site_type_symbol
 _atom_site_label
 _atom_site_symmetry_multiplicity
 _atom_site_fract_x
 _atom_site_fract_y
 _atom_site_fract_z
 _atom_site_occupancy
  Zn  Zn0  1  0.75000000  0.37500000  0.37500000  1
  Zn  Zn1  1  0.25000000  0.62500000  0.62500000  1
  Cr  Cr2  1  0.49139901  0.48709851  0.00430050  1
  Cr  Cr3  1  0.49139901  0.00430050  0.00430050  1
  Cr  Cr4  1  0.00860099  0.00430050  0.48709851  1
  Cr  Cr5  1  0.00860099  0.00430050  0.00430050  1
  Se  Se6  1  0.97926050  0.21889076  0.76036975  1
  Se  Se7  1  0.97926050  0.76036975  0.76036975  1
  Se  Se8  1  0.52073950  0.76036975  0.21889076  1
  Se  Se9  1  0.52073950  0.76036975  0.76036975  1
  S  S10  1  0.02209264  0.78313896  0.23895368  1
  S  S11  1  0.02209264  0.23895368  0.23895368  1
  S  S12  1  0.47790736  0.23895368  0.78313896  1
  S  S13  1  0.47790736  0.23895368  0.23895368  1
