# generated using pymatgen
data_NdZr9O20
_symmetry_space_group_name_H-M   'P 1'
_cell_length_a   7.34879179
_cell_length_b   18.38402762
_cell_length_c   9.72654791
_cell_angle_alpha   19.08127672
_cell_angle_beta   55.49717016
_cell_angle_gamma   59.97372627
_symmetry_Int_Tables_number   1
_chemical_formula_structural   NdZr9O20
_chemical_formula_sum   'Nd1 Zr9 O20'
_cell_volume   351.02701599
_cell_formula_units_Z   1
loop_
 _symmetry_equiv_pos_site_id
 _symmetry_equiv_pos_as_xyz
  1  'x, y, z'
loop_
 _atom_site_type_symbol
 _atom_site_label
 _atom_site_symmetry_multiplicity
 _atom_site_fract_x
 _atom_site_fract_y
 _atom_site_fract_z
 _atom_site_occupancy
  Nd  Nd0  1  0.50000000  0.80000000  0.00000000  1
  Zr  Zr1  1  0.99869745  0.00149702  0.99830438  1
  Zr  Zr2  1  0.00133960  0.19995309  0.99944613  1
  Zr  Zr3  1  0.49970923  0.00101639  0.99967412  1
  Zr  Zr4  1  0.99866040  0.40004691  0.00055387  1
  Zr  Zr5  1  0.49950599  0.19983138  0.00011325  1
  Zr  Zr6  1  0.00130255  0.59850298  0.00169562  1
  Zr  Zr7  1  0.50049401  0.40016862  0.99988675  1
  Zr  Zr8  1  0.00000000  0.80000000  0.00000000  1
  Zr  Zr9  1  0.50029077  0.59898361  0.00032588  1
  O  O10  1  0.12209514  0.15415899  0.24369271  1
  O  O11  1  0.12134743  0.35445261  0.24436805  1
  O  O12  1  0.63579124  0.16982361  0.20543633  1
  O  O13  1  0.36867207  0.06652121  0.73191660  1
  O  O14  1  0.12409020  0.54174024  0.26602487  1
  O  O15  1  0.62714838  0.35351557  0.24409114  1
  O  O16  1  0.37285162  0.24648443  0.75590886  1
  O  O17  1  0.10253328  0.74963103  0.25979590  1
  O  O18  1  0.87590980  0.05825976  0.73397513  1
  O  O19  1  0.36420876  0.43017639  0.79456367  1
  O  O20  1  0.12473088  0.94617925  0.25558065  1
  O  O21  1  0.63132793  0.53347879  0.26808340  1
  O  O22  1  0.87865257  0.24554739  0.75563195  1
  O  O23  1  0.37148546  0.64981762  0.75396451  1
  O  O24  1  0.63218460  0.74746409  0.26535217  1
  O  O25  1  0.36781540  0.85253591  0.73464783  1
  O  O26  1  0.62851454  0.95018238  0.24603549  1
  O  O27  1  0.87790486  0.44584101  0.75630729  1
  O  O28  1  0.87526912  0.65382075  0.74441935  1
  O  O29  1  0.89746672  0.85036897  0.74020410  1
