# generated using pymatgen
data_Y5B4Rh15
_symmetry_space_group_name_H-M   'P 1'
_cell_length_a   4.21902194
_cell_length_b   4.21902194
_cell_length_c   20.63377385
_cell_angle_alpha   90.00000000
_cell_angle_beta   90.00000000
_cell_angle_gamma   90.00000000
_symmetry_Int_Tables_number   1
_chemical_formula_structural   Y5B4Rh15
_chemical_formula_sum   'Y5 B4 Rh15'
_cell_volume   367.28418975
_cell_formula_units_Z   1
loop_
 _symmetry_equiv_pos_site_id
 _symmetry_equiv_pos_as_xyz
  1  'x, y, z'
loop_
 _atom_site_type_symbol
 _atom_site_label
 _atom_site_symmetry_multiplicity
 _atom_site_fract_x
 _atom_site_fract_y
 _atom_site_fract_z
 _atom_site_occupancy
  Y  Y0  1  0.00000000  -0.00000000  0.00336631  1
  Y  Y1  1  -0.00000000  0.00000000  0.19663369  1
  Y  Y2  1  0.00000000  0.00000000  0.39897618  1
  Y  Y3  1  -0.00000000  -0.00000000  0.60000000  1
  Y  Y4  1  0.00000000  -0.00000000  0.80102382  1
  B  B5  1  0.50000000  0.50000000  0.28950318  1
  B  B6  1  0.50000000  0.50000000  0.49767667  1
  B  B7  1  0.50000000  0.50000000  0.70232333  1
  B  B8  1  0.50000000  0.50000000  0.91049682  1
  Rh  Rh9  1  0.50000000  0.50000000  0.00989180  1
  Rh  Rh10  1  0.50000000  0.50000000  0.19010820  1
  Rh  Rh11  1  0.50000000  0.50000000  0.39603183  1
  Rh  Rh12  1  0.50000000  0.50000000  0.60000000  1
  Rh  Rh13  1  0.50000000  0.50000000  0.80396817  1
  Rh  Rh14  1  0.50000000  -0.00000000  0.10000000  1
  Rh  Rh15  1  0.50000000  0.00000000  0.29767765  1
  Rh  Rh16  1  0.50000000  -0.00000000  0.49934969  1
  Rh  Rh17  1  0.50000000  0.00000000  0.70065031  1
  Rh  Rh18  1  0.50000000  -0.00000000  0.90232235  1
  Rh  Rh19  1  -0.00000000  0.50000000  0.10000000  1
  Rh  Rh20  1  -0.00000000  0.50000000  0.29767765  1
  Rh  Rh21  1  -0.00000000  0.50000000  0.49934969  1
  Rh  Rh22  1  0.00000000  0.50000000  0.70065031  1
  Rh  Rh23  1  0.00000000  0.50000000  0.90232235  1
