# generated using pymatgen
data_Zn5TeSe4
_symmetry_space_group_name_H-M   'P 1'
_cell_length_a   4.13691697
_cell_length_b   14.80047578
_cell_length_c   4.13691697
_cell_angle_alpha   98.03373974
_cell_angle_beta   90.00000000
_cell_angle_gamma   98.03373974
_symmetry_Int_Tables_number   1
_chemical_formula_structural   Zn5TeSe4
_chemical_formula_sum   'Zn5 Te1 Se4'
_cell_volume   248.29993573
_cell_formula_units_Z   1
loop_
 _symmetry_equiv_pos_site_id
 _symmetry_equiv_pos_as_xyz
  1  'x, y, z'
loop_
 _atom_site_type_symbol
 _atom_site_label
 _atom_site_symmetry_multiplicity
 _atom_site_fract_x
 _atom_site_fract_y
 _atom_site_fract_z
 _atom_site_occupancy
  Zn  Zn0  1  0.99394517  0.98789034  0.99394517  1
  Zn  Zn1  1  0.60605483  0.21210966  0.60605483  1
  Zn  Zn2  1  0.20305675  0.40611349  0.20305675  1
  Zn  Zn3  1  0.80000000  0.60000000  0.80000000  1
  Zn  Zn4  1  0.39694325  0.79388651  0.39694325  1
  Te  Te5  1  0.05000000  0.10000000  0.55000000  1
  Se  Se6  1  0.65456376  0.30912751  0.15456376  1
  Se  Se7  1  0.25128919  0.50257838  0.75128919  1
  Se  Se8  1  0.84871081  0.69742162  0.34871081  1
  Se  Se9  1  0.44543624  0.89087249  0.94543624  1
