# generated using pymatgen
data_Zn3InAgS5
_symmetry_space_group_name_H-M   'P 1'
_cell_length_a   6.50350069
_cell_length_b   6.86600052
_cell_length_c   10.50052819
_cell_angle_alpha   109.08279524
_cell_angle_beta   89.95483158
_cell_angle_gamma   90.04240713
_symmetry_Int_Tables_number   1
_chemical_formula_structural   Zn3InAgS5
_chemical_formula_sum   'Zn6 In2 Ag2 S10'
_cell_volume   443.11396974
_cell_formula_units_Z   2
loop_
 _symmetry_equiv_pos_site_id
 _symmetry_equiv_pos_as_xyz
  1  'x, y, z'
loop_
 _atom_site_type_symbol
 _atom_site_label
 _atom_site_symmetry_multiplicity
 _atom_site_fract_x
 _atom_site_fract_y
 _atom_site_fract_z
 _atom_site_occupancy
  Zn  Zn0  1  0.49264020  0.52857211  0.40734105  1
  Zn  Zn1  1  0.50142578  0.13938121  0.59814348  1
  Zn  Zn2  1  0.50486857  0.72563675  0.79275447  1
  Zn  Zn3  1  0.99902666  0.66901089  0.99737033  1
  Zn  Zn4  1  0.00095665  0.27201425  0.20716924  1
  Zn  Zn5  1  0.99683806  0.46507456  0.59468039  1
  In  In6  1  0.49955998  0.93700467  0.20063864  1
  In  In7  1  0.99847337  0.06842773  0.80125058  1
  Ag  Ag8  1  0.49776598  0.33268990  0.00087082  1
  Ag  Ag9  1  0.00010210  0.85981824  0.39988848  1
  S  S10  1  0.10472020  0.34773311  0.01062000  1
  S  S11  1  0.11621690  0.93570342  0.18554537  1
  S  S12  1  0.13339000  0.51178502  0.40214590  1
  S  S13  1  0.13656407  0.15266077  0.60520460  1
  S  S14  1  0.13331544  0.72031995  0.79634249  1
  S  S15  1  0.61497261  0.05003254  0.78576074  1
  S  S16  1  0.63598923  0.67858496  0.98985653  1
  S  S17  1  0.63758848  0.28196025  0.21564451  1
  S  S18  1  0.60467945  0.85977130  0.40761728  1
  S  S19  1  0.63090628  0.46381839  0.60115509  1
