# generated using pymatgen
data_K7(Si2Te5)4
_symmetry_space_group_name_H-M   'P 1'
_cell_length_a   17.73888859
_cell_length_b   10.84245122
_cell_length_c   15.23171649
_cell_angle_alpha   90.00000000
_cell_angle_beta   90.00000000
_cell_angle_gamma   106.64117665
_symmetry_Int_Tables_number   1
_chemical_formula_structural   K7(Si2Te5)4
_chemical_formula_sum   'K14 Si16 Te40'
_cell_volume   2806.86342751
_cell_formula_units_Z   2
loop_
 _symmetry_equiv_pos_site_id
 _symmetry_equiv_pos_as_xyz
  1  'x, y, z'
loop_
 _atom_site_type_symbol
 _atom_site_label
 _atom_site_symmetry_multiplicity
 _atom_site_fract_x
 _atom_site_fract_y
 _atom_site_fract_z
 _atom_site_occupancy
  K  K0  1  0.16775692  -0.03116945  0.34016181  1
  K  K1  1  0.10304523  0.55754199  0.40897758  1
  K  K2  1  0.06365240  0.77237404  0.97639917  1
  K  K3  1  0.32418094  0.62727455  0.72262730  1
  K  K4  1  0.34348548  -0.01590415  0.85816458  1
  K  K5  1  0.37500299  0.39262501  0.90751314  1
  K  K6  1  0.49455061  0.81439871  0.46587950  1
  K  K7  1  0.66775692  0.46883055  0.15983819  1
  K  K8  1  0.60304523  0.05754199  0.09102242  1
  K  K9  1  0.56365240  0.27237404  0.52360083  1
  K  K10  1  0.82418094  0.12727455  0.77737270  1
  K  K11  1  0.84348548  0.48409585  0.64183542  1
  K  K12  1  0.87500299  0.89262501  0.59248686  1
  K  K13  1  0.99455061  0.31439871  0.03412050  1
  Si  Si14  1  0.35261537  0.65821703  0.25764352  1
  Si  Si15  1  0.39308808  0.24026996  0.19394026  1
  Si  Si16  1  0.39270983  0.37166614  0.32212680  1
  Si  Si17  1  0.41482673  0.07970646  0.29067313  1
  Si  Si18  1  0.08108454  0.07256169  0.76792474  1
  Si  Si19  1  0.07271145  0.41727846  0.76781423  1
  Si  Si20  1  0.02860072  0.21903224  0.68948188  1
  Si  Si21  1  0.22489695  0.83137138  0.65201283  1
  Si  Si22  1  0.85261537  0.15821703  0.24235648  1
  Si  Si23  1  0.89308808  0.74026996  0.30605974  1
  Si  Si24  1  0.91482673  0.57970646  0.20932687  1
  Si  Si25  1  0.89270983  0.87166614  0.17787320  1
  Si  Si26  1  0.58108454  0.57256169  0.73207526  1
  Si  Si27  1  0.57271145  0.91727846  0.73218577  1
  Si  Si28  1  0.52860072  0.71903224  0.81051812  1
  Si  Si29  1  0.72489695  0.33137138  0.84798717  1
  Te  Te30  1  0.03505392  0.03043160  0.16490792  1
  Te  Te31  1  0.05558881  0.59437212  0.18617422  1
  Te  Te32  1  0.26876078  0.34573344  0.58438930  1
  Te  Te33  1  0.10840746  0.25594735  0.54561673  1
  Te  Te34  1  0.86071374  0.67306485  0.07291653  1
  Te  Te35  1  0.81364654  0.01761910  0.10338909  1
  Te  Te36  1  0.00298794  0.23119481  0.26165457  1
  Te  Te37  1  0.10582412  0.94013905  0.62954027  1
  Te  Te38  1  0.11980948  0.58990594  0.64199119  1
  Te  Te39  1  0.27057868  0.81807114  0.49430157  1
  Te  Te40  1  0.23644137  0.69206383  0.93295521  1
  Te  Te41  1  0.35327128  0.50842024  0.12810344  1
  Te  Te42  1  0.32540587  0.87253019  0.21419406  1
  Te  Te43  1  0.51371883  0.22023430  0.76595040  1
  Te  Te44  1  0.68141067  0.93185062  0.61246490  1
  Te  Te45  1  0.67825798  0.60722019  0.60928593  1
  Te  Te46  1  0.48608970  0.28664503  0.06793573  1
  Te  Te47  1  0.25600118  0.24639422  0.13928233  1
  Te  Te48  1  0.45343759  -0.03654666  0.65988378  1
  Te  Te49  1  0.44958585  0.41746458  0.67523192  1
  Te  Te50  1  0.53505392  0.53043160  0.33509208  1
  Te  Te51  1  0.55558881  0.09437212  0.31382578  1
  Te  Te52  1  0.76876078  0.84573344  0.91561070  1
  Te  Te53  1  0.60840746  0.75594735  0.95438327  1
  Te  Te54  1  0.31364654  0.51761910  0.39661091  1
  Te  Te55  1  0.36071374  0.17306485  0.42708347  1
  Te  Te56  1  0.50298794  0.73119481  0.23834543  1
  Te  Te57  1  0.61980948  0.08990594  0.85800881  1
  Te  Te58  1  0.60582412  0.44013905  0.87045973  1
  Te  Te59  1  0.77057868  0.31807114  0.00569843  1
  Te  Te60  1  0.73644137  0.19206383  0.56704479  1
  Te  Te61  1  0.82540587  0.37253019  0.28580594  1
  Te  Te62  1  0.85327128  0.00842024  0.37189656  1
  Te  Te63  1  0.01371883  0.72023430  0.73404960  1
  Te  Te64  1  0.18141067  0.43185062  0.88753510  1
  Te  Te65  1  0.17825798  0.10722019  0.89071407  1
  Te  Te66  1  0.98608970  0.78664503  0.43206427  1
  Te  Te67  1  0.75600118  0.74639422  0.36071767  1
  Te  Te68  1  0.95343759  0.46345334  0.84011622  1
  Te  Te69  1  0.94958585  0.91746458  0.82476808  1
