# generated using pymatgen
data_TiP4W3
_symmetry_space_group_name_H-M   'P 1'
_cell_length_a   3.28019786
_cell_length_b   5.75229616
_cell_length_c   6.29907492
_cell_angle_alpha   89.81361388
_cell_angle_beta   90.00000000
_cell_angle_gamma   90.00000000
_symmetry_Int_Tables_number   1
_chemical_formula_structural   TiP4W3
_chemical_formula_sum   'Ti1 P4 W3'
_cell_volume   118.85453415
_cell_formula_units_Z   1
loop_
 _symmetry_equiv_pos_site_id
 _symmetry_equiv_pos_as_xyz
  1  'x, y, z'
loop_
 _atom_site_type_symbol
 _atom_site_label
 _atom_site_symmetry_multiplicity
 _atom_site_fract_x
 _atom_site_fract_y
 _atom_site_fract_z
 _atom_site_occupancy
  Ti  Ti0  1  0.75000000  0.49080309  0.69068533  1
  P  P1  1  0.75000000  0.31060425  0.06921956  1
  P  P2  1  0.75000000  0.80943043  0.43402764  1
  P  P3  1  0.25000000  0.68959961  0.93300186  1
  P  P4  1  0.25000000  0.18598460  0.56237349  1
  W  W5  1  0.75000000  0.99236990  0.81046336  1
  W  W6  1  0.25000000  0.51113120  0.31170104  1
  W  W7  1  0.25000000  0.01007693  0.18852771  1
