# generated using pymatgen
data_Y4CdMo3O16
_symmetry_space_group_name_H-M   'P 1'
_cell_length_a   10.86018869
_cell_length_b   10.86018869
_cell_length_c   10.86018869
_cell_angle_alpha   90.00000000
_cell_angle_beta   90.00000000
_cell_angle_gamma   90.00000000
_symmetry_Int_Tables_number   1
_chemical_formula_structural   Y4CdMo3O16
_chemical_formula_sum   'Y16 Cd4 Mo12 O64'
_cell_volume   1280.89081923
_cell_formula_units_Z   4
loop_
 _symmetry_equiv_pos_site_id
 _symmetry_equiv_pos_as_xyz
  1  'x, y, z'
loop_
 _atom_site_type_symbol
 _atom_site_label
 _atom_site_symmetry_multiplicity
 _atom_site_fract_x
 _atom_site_fract_y
 _atom_site_fract_z
 _atom_site_occupancy
  Y  Y0  1  0.01410053  0.25000000  0.25000000  1
  Y  Y1  1  0.48589947  0.25000000  0.25000000  1
  Y  Y2  1  0.51410053  0.75000000  0.75000000  1
  Y  Y3  1  0.98589947  0.75000000  0.75000000  1
  Y  Y4  1  0.25000000  0.01410053  0.25000000  1
  Y  Y5  1  0.25000000  0.48589947  0.25000000  1
  Y  Y6  1  0.75000000  0.51410053  0.75000000  1
  Y  Y7  1  0.75000000  0.98589947  0.75000000  1
  Y  Y8  1  0.25000000  0.25000000  0.01410053  1
  Y  Y9  1  0.25000000  0.25000000  0.48589947  1
  Y  Y10  1  0.75000000  0.75000000  0.51410053  1
  Y  Y11  1  0.75000000  0.75000000  0.98589947  1
  Y  Y12  1  0.50000000  0.50000000  0.00000000  1
  Y  Y13  1  0.50000000  0.00000000  0.50000000  1
  Y  Y14  1  0.00000000  0.50000000  0.50000000  1
  Y  Y15  1  0.00000000  0.00000000  -0.00000000  1
  Cd  Cd16  1  0.00000000  0.00000000  0.50000000  1
  Cd  Cd17  1  0.00000000  0.50000000  -0.00000000  1
  Cd  Cd18  1  0.50000000  0.00000000  -0.00000000  1
  Cd  Cd19  1  0.50000000  0.50000000  0.50000000  1
  Mo  Mo20  1  0.00129950  0.25000000  0.75000000  1
  Mo  Mo21  1  0.49870050  0.25000000  0.75000000  1
  Mo  Mo22  1  0.75000000  0.00129950  0.25000000  1
  Mo  Mo23  1  0.75000000  0.49870050  0.25000000  1
  Mo  Mo24  1  0.25000000  0.75000000  0.00129950  1
  Mo  Mo25  1  0.25000000  0.75000000  0.49870050  1
  Mo  Mo26  1  0.99870050  0.75000000  0.25000000  1
  Mo  Mo27  1  0.50129950  0.75000000  0.25000000  1
  Mo  Mo28  1  0.25000000  0.99870050  0.75000000  1
  Mo  Mo29  1  0.25000000  0.50129950  0.75000000  1
  Mo  Mo30  1  0.75000000  0.25000000  0.99870050  1
  Mo  Mo31  1  0.75000000  0.25000000  0.50129950  1
  O  O32  1  0.33151120  0.87068249  0.41499635  1
  O  O33  1  0.33151120  0.62931751  0.08500365  1
  O  O34  1  0.16848880  0.87068249  0.08500365  1
  O  O35  1  0.16848880  0.62931751  0.41499635  1
  O  O36  1  0.82623326  0.59236992  0.13761594  1
  O  O37  1  0.82623326  0.90763008  0.36238406  1
  O  O38  1  0.67376674  0.59236992  0.36238406  1
  O  O39  1  0.67376674  0.90763008  0.13761594  1
  O  O40  1  0.41499635  0.33151120  0.87068249  1
  O  O41  1  0.08500365  0.33151120  0.62931751  1
  O  O42  1  0.08500365  0.16848880  0.87068249  1
  O  O43  1  0.41499635  0.16848880  0.62931751  1
  O  O44  1  0.13761594  0.82623326  0.59236992  1
  O  O45  1  0.36238406  0.82623326  0.90763008  1
  O  O46  1  0.36238406  0.67376674  0.59236992  1
  O  O47  1  0.13761594  0.67376674  0.90763008  1
  O  O48  1  0.87068249  0.41499635  0.33151120  1
  O  O49  1  0.62931751  0.08500365  0.33151120  1
  O  O50  1  0.87068249  0.08500365  0.16848880  1
  O  O51  1  0.62931751  0.41499635  0.16848880  1
  O  O52  1  0.59236992  0.13761594  0.82623326  1
  O  O53  1  0.90763008  0.36238406  0.82623326  1
  O  O54  1  0.59236992  0.36238406  0.67376674  1
  O  O55  1  0.90763008  0.13761594  0.67376674  1
  O  O56  1  0.66848880  0.12931751  0.58500365  1
  O  O57  1  0.66848880  0.37068249  0.91499635  1
  O  O58  1  0.83151120  0.12931751  0.91499635  1
  O  O59  1  0.83151120  0.37068249  0.58500365  1
  O  O60  1  0.17376674  0.40763008  0.86238406  1
  O  O61  1  0.17376674  0.09236992  0.63761594  1
  O  O62  1  0.32623326  0.40763008  0.63761594  1
  O  O63  1  0.32623326  0.09236992  0.86238406  1
  O  O64  1  0.58500365  0.66848880  0.12931751  1
  O  O65  1  0.91499635  0.66848880  0.37068249  1
  O  O66  1  0.91499635  0.83151120  0.12931751  1
  O  O67  1  0.58500365  0.83151120  0.37068249  1
  O  O68  1  0.86238406  0.17376674  0.40763008  1
  O  O69  1  0.63761594  0.17376674  0.09236992  1
  O  O70  1  0.63761594  0.32623326  0.40763008  1
  O  O71  1  0.86238406  0.32623326  0.09236992  1
  O  O72  1  0.12931751  0.58500365  0.66848880  1
  O  O73  1  0.37068249  0.91499635  0.66848880  1
  O  O74  1  0.12931751  0.91499635  0.83151120  1
  O  O75  1  0.37068249  0.58500365  0.83151120  1
  O  O76  1  0.40763008  0.86238406  0.17376674  1
  O  O77  1  0.09236992  0.63761594  0.17376674  1
  O  O78  1  0.40763008  0.63761594  0.32623326  1
  O  O79  1  0.09236992  0.86238406  0.32623326  1
  O  O80  1  0.11995354  0.11995354  0.38004646  1
  O  O81  1  0.11995354  0.38004646  0.11995354  1
  O  O82  1  0.38004646  0.11995354  0.11995354  1
  O  O83  1  0.38004646  0.38004646  0.38004646  1
  O  O84  1  0.62094742  0.62094742  0.87905258  1
  O  O85  1  0.62094742  0.87905258  0.62094742  1
  O  O86  1  0.87905258  0.62094742  0.62094742  1
  O  O87  1  0.87905258  0.87905258  0.87905258  1
  O  O88  1  0.88004646  0.88004646  0.61995354  1
  O  O89  1  0.88004646  0.61995354  0.88004646  1
  O  O90  1  0.61995354  0.88004646  0.88004646  1
  O  O91  1  0.61995354  0.61995354  0.61995354  1
  O  O92  1  0.37905258  0.37905258  0.12094742  1
  O  O93  1  0.37905258  0.12094742  0.37905258  1
  O  O94  1  0.12094742  0.37905258  0.37905258  1
  O  O95  1  0.12094742  0.12094742  0.12094742  1
