# generated using pymatgen
data_TiB2W
_symmetry_space_group_name_H-M   'P 1'
_cell_length_a   3.08531520
_cell_length_b   3.18655192
_cell_length_c   4.50441813
_cell_angle_alpha   69.28534820
_cell_angle_beta   90.00000000
_cell_angle_gamma   90.00000000
_symmetry_Int_Tables_number   1
_chemical_formula_structural   TiB2W
_chemical_formula_sum   'Ti1 B2 W1'
_cell_volume   41.42238124
_cell_formula_units_Z   1
loop_
 _symmetry_equiv_pos_site_id
 _symmetry_equiv_pos_as_xyz
  1  'x, y, z'
loop_
 _atom_site_type_symbol
 _atom_site_label
 _atom_site_symmetry_multiplicity
 _atom_site_fract_x
 _atom_site_fract_y
 _atom_site_fract_z
 _atom_site_occupancy
  Ti  Ti0  1  0.25000000  0.85383887  0.29232227  1
  B  B1  1  0.25000000  0.56030627  0.87938747  1
  B  B2  1  0.75000000  0.43946221  0.12107558  1
  W  W3  1  0.75000000  0.14639266  0.70721469  1
