# generated using pymatgen
data_TiCuSnS4
_symmetry_space_group_name_H-M   'P 1'
_cell_length_a   7.33144199
_cell_length_b   7.15731995
_cell_length_c   7.46481844
_cell_angle_alpha   90.00000000
_cell_angle_beta   59.39635357
_cell_angle_gamma   119.21741629
_symmetry_Int_Tables_number   1
_chemical_formula_structural   TiCuSnS4
_chemical_formula_sum   'Ti2 Cu2 Sn2 S8'
_cell_volume   277.68403544
_cell_formula_units_Z   2
loop_
 _symmetry_equiv_pos_site_id
 _symmetry_equiv_pos_as_xyz
  1  'x, y, z'
loop_
 _atom_site_type_symbol
 _atom_site_label
 _atom_site_symmetry_multiplicity
 _atom_site_fract_x
 _atom_site_fract_y
 _atom_site_fract_z
 _atom_site_occupancy
  Ti  Ti0  1  0.50000000  0.50000000  -0.00000000  1
  Ti  Ti1  1  0.50000000  0.00000000  -0.00000000  1
  Cu  Cu2  1  0.73975052  0.36987526  0.38012474  1
  Cu  Cu3  1  0.26024948  0.63012474  0.61987526  1
  Sn  Sn4  1  -0.00000000  0.00000000  0.50000000  1
  Sn  Sn5  1  -0.00000000  0.00000000  -0.00000000  1
  S  S6  1  0.03134026  0.75955000  0.23432987  1
  S  S7  1  0.03134026  0.27179026  0.23432987  1
  S  S8  1  0.50548376  0.25274188  0.76512977  1
  S  S9  1  0.50548376  0.25274188  0.22938646  1
  S  S10  1  0.96865974  0.24045000  0.76567013  1
  S  S11  1  0.96865974  0.72820974  0.76567013  1
  S  S12  1  0.49451624  0.74725812  0.23487023  1
  S  S13  1  0.49451624  0.74725812  0.77061354  1
