# generated using pymatgen
data_V(CrSi3)2
_symmetry_space_group_name_H-M   'P 1'
_cell_length_a   4.48286834
_cell_length_b   4.46833426
_cell_length_c   6.34426400
_cell_angle_alpha   90.00000000
_cell_angle_beta   90.00000000
_cell_angle_gamma   59.89234388
_symmetry_Int_Tables_number   1
_chemical_formula_structural   V(CrSi3)2
_chemical_formula_sum   'V1 Cr2 Si6'
_cell_volume   109.93636270
_cell_formula_units_Z   1
loop_
 _symmetry_equiv_pos_site_id
 _symmetry_equiv_pos_as_xyz
  1  'x, y, z'
loop_
 _atom_site_type_symbol
 _atom_site_label
 _atom_site_symmetry_multiplicity
 _atom_site_fract_x
 _atom_site_fract_y
 _atom_site_fract_z
 _atom_site_occupancy
  V  V0  1  0.50000000  -0.00000000  0.16666700  1
  Cr  Cr1  1  -0.00000000  0.50000000  0.50225983  1
  Cr  Cr2  1  0.50000000  0.50000000  0.83107317  1
  Si  Si3  1  0.16478653  0.67042693  0.16666700  1
  Si  Si4  1  0.67079545  0.16558561  0.50079712  1
  Si  Si5  1  0.16361895  0.16558561  0.83253588  1
  Si  Si6  1  0.83521347  0.32957307  0.16666700  1
  Si  Si7  1  0.32920455  0.83441439  0.50079712  1
  Si  Si8  1  0.83638105  0.83441439  0.83253588  1
