# generated using pymatgen
data_Y(CuSe)3
_symmetry_space_group_name_H-M   'P 1'
_cell_length_a   7.03355488
_cell_length_b   7.03372001
_cell_length_c   7.77776216
_cell_angle_alpha   63.11290835
_cell_angle_beta   89.99430898
_cell_angle_gamma   59.99563263
_symmetry_Int_Tables_number   1
_chemical_formula_structural   Y(CuSe)3
_chemical_formula_sum   'Y2 Cu6 Se6'
_cell_volume   284.18258814
_cell_formula_units_Z   2
loop_
 _symmetry_equiv_pos_site_id
 _symmetry_equiv_pos_as_xyz
  1  'x, y, z'
loop_
 _atom_site_type_symbol
 _atom_site_label
 _atom_site_symmetry_multiplicity
 _atom_site_fract_x
 _atom_site_fract_y
 _atom_site_fract_z
 _atom_site_occupancy
  Y  Y0  1  0.00029141  0.99940774  0.00089669  1
  Y  Y1  1  0.33304159  0.33392526  0.99910331  1
  Cu  Cu2  1  0.44555199  0.41892293  0.37376076  1
  Cu  Cu3  1  0.79283786  0.76157157  0.37382012  1
  Cu  Cu4  1  0.13553245  0.07162595  0.37378289  1
  Cu  Cu5  1  0.19780155  0.26170805  0.62621711  1
  Cu  Cu6  1  0.54049514  0.57176143  0.62617988  1
  Cu  Cu7  1  0.88778101  0.91441007  0.62623924  1
  Se  Se8  1  0.25598671  0.83290730  0.75248071  1
  Se  Se9  1  0.91112289  0.50347226  0.75255651  1
  Se  Se10  1  0.58544066  0.15874995  0.75246631  1
  Se  Se11  1  0.74789334  0.17458405  0.24753369  1
  Se  Se12  1  0.42221011  0.82986074  0.24744349  1
  Se  Se13  1  0.07734629  0.50042570  0.24751929  1
