# generated using pymatgen
data_Tb12Ge5S28
_symmetry_space_group_name_H-M   'P 1'
_cell_length_a   9.91402988
_cell_length_b   11.45010133
_cell_length_c   11.45438588
_cell_angle_alpha   60.29373893
_cell_angle_beta   64.36039384
_cell_angle_gamma   64.34195620
_symmetry_Int_Tables_number   1
_chemical_formula_structural   Tb12Ge5S28
_chemical_formula_sum   'Tb12 Ge5 S28'
_cell_volume   977.70625859
_cell_formula_units_Z   1
loop_
 _symmetry_equiv_pos_site_id
 _symmetry_equiv_pos_as_xyz
  1  'x, y, z'
loop_
 _atom_site_type_symbol
 _atom_site_label
 _atom_site_symmetry_multiplicity
 _atom_site_fract_x
 _atom_site_fract_y
 _atom_site_fract_z
 _atom_site_occupancy
  Tb  Tb0  1  0.87038274  0.06725939  0.29728358  1
  Tb  Tb1  1  0.87547630  0.53750943  0.80881720  1
  Tb  Tb2  1  0.77705301  0.30230307  0.57332228  1
  Tb  Tb3  1  0.76675016  0.81946099  0.05096918  1
  Tb  Tb4  1  0.34660941  0.25413905  0.52547408  1
  Tb  Tb5  1  0.36324967  0.76618305  0.99665912  1
  Tb  Tb6  1  0.12069148  0.96315442  0.69280347  1
  Tb  Tb7  1  0.13601409  0.43372343  0.19903656  1
  Tb  Tb8  1  0.23364171  0.68395506  0.44881751  1
  Tb  Tb9  1  0.22191294  0.19580793  0.92634164  1
  Tb  Tb10  1  0.63498305  0.73371066  0.49747834  1
  Tb  Tb11  1  0.65435535  0.24583180  0.97754887  1
  Ge  Ge12  1  0.66962732  0.91962414  0.74608024  1
  Ge  Ge13  1  0.66355518  0.42042506  0.24770179  1
  Ge  Ge14  1  0.33272801  0.00226919  0.33232144  1
  Ge  Ge15  1  0.33358890  0.50001368  0.83235818  1
  Ge  Ge16  1  0.00017878  0.76287272  0.23744031  1
  S  S17  1  0.59631573  0.75817186  0.74884461  1
  S  S18  1  0.57151820  0.26661636  0.25778816  1
  S  S19  1  0.90481639  0.79102018  0.78210509  1
  S  S20  1  0.89592417  0.30219070  0.29309355  1
  S  S21  1  0.51290799  0.95612996  0.94463163  1
  S  S22  1  0.51848726  0.45447091  0.44731372  1
  S  S23  1  0.41967444  0.99413137  0.48732297  1
  S  S24  1  0.41680966  0.49486292  0.98934445  1
  S  S25  1  0.09903271  0.96114387  0.45466150  1
  S  S26  1  0.09883868  0.46277018  0.95725332  1
  S  S27  1  0.48378322  0.80250255  0.29650225  1
  S  S28  1  0.48227198  0.30231893  0.79664171  1
  S  S29  1  0.66565517  0.11042143  0.55727629  1
  S  S30  1  0.66714490  0.60968177  0.05619533  1
  S  S31  1  0.32651933  0.69717852  0.64857822  1
  S  S32  1  0.33978138  0.18574825  0.13565451  1
  S  S33  1  0.91128184  0.77124783  0.46573604  1
  S  S34  1  0.90480917  0.26315185  0.99976380  1
  S  S35  1  0.83217612  0.08537307  0.82070171  1
  S  S36  1  0.85290299  0.60733969  0.30268464  1
  S  S37  1  0.26021546  0.04900360  0.78294016  1
  S  S38  1  0.23869450  0.57739615  0.27377265  1
  S  S39  1  0.09566792  0.25576695  0.48340430  1
  S  S40  1  0.08557532  0.75514749  0.00216641  1
  S  S41  1  0.15704098  0.91928686  0.16605634  1
  S  S42  1  0.16481252  0.43409632  0.66142639  1
  S  S43  1  0.75697104  0.95573848  0.20192193  1
  S  S44  1  0.73957284  0.46834886  0.69626451  1
