# generated using pymatgen
data_Tb3(Al2Fe)2
_symmetry_space_group_name_H-M   'P 1'
_cell_length_a   5.41548401
_cell_length_b   5.42114035
_cell_length_c   13.43452116
_cell_angle_alpha   90.33912169
_cell_angle_beta   89.20829254
_cell_angle_gamma   119.18295570
_symmetry_Int_Tables_number   1
_chemical_formula_structural   Tb3(Al2Fe)2
_chemical_formula_sum   'Tb6 Al8 Fe4'
_cell_volume   344.31514338
_cell_formula_units_Z   2
loop_
 _symmetry_equiv_pos_site_id
 _symmetry_equiv_pos_as_xyz
  1  'x, y, z'
loop_
 _atom_site_type_symbol
 _atom_site_label
 _atom_site_symmetry_multiplicity
 _atom_site_fract_x
 _atom_site_fract_y
 _atom_site_fract_z
 _atom_site_occupancy
  Tb  Tb0  1  0.33767321  0.66861415  0.91932991  1
  Tb  Tb1  1  0.01184550  0.00255072  0.24616899  1
  Tb  Tb2  1  0.66814292  0.33068735  0.58299966  1
  Tb  Tb3  1  0.33185708  0.66931265  0.66700034  1
  Tb  Tb4  1  0.98815450  0.99744928  0.00383101  1
  Tb  Tb5  1  0.66232679  0.33138585  0.33067009  1
  Al  Al6  1  0.16816627  0.33552353  0.45642800  1
  Al  Al7  1  0.83183373  0.66447647  0.79357200  1
  Al  Al8  1  0.34340375  0.67922476  0.28619088  1
  Al  Al9  1  -0.00000000  -0.00000000  0.62500000  1
  Al  Al10  1  0.65659625  0.32077524  0.96380912  1
  Al  Al11  1  -0.00000000  0.50000000  0.12500000  1
  Al  Al12  1  0.66697229  0.83278224  0.45697759  1
  Al  Al13  1  0.33302771  0.16721776  0.79302241  1
  Fe  Fe14  1  0.50000000  0.50000000  0.12500000  1
  Fe  Fe15  1  0.16620360  0.83298707  0.45791462  1
  Fe  Fe16  1  0.83379640  0.16701293  0.79208538  1
  Fe  Fe17  1  0.50000000  -0.00000000  0.12500000  1
