# generated using pymatgen
data_Na2Sr3As4
_symmetry_space_group_name_H-M   'P 1'
_cell_length_a   9.34155799
_cell_length_b   9.64551307
_cell_length_c   11.80686042
_cell_angle_alpha   100.14758029
_cell_angle_beta   90.00000000
_cell_angle_gamma   90.00000000
_symmetry_Int_Tables_number   1
_chemical_formula_structural   Na2Sr3As4
_chemical_formula_sum   'Na8 Sr12 As16'
_cell_volume   1047.20523342
_cell_formula_units_Z   4
loop_
 _symmetry_equiv_pos_site_id
 _symmetry_equiv_pos_as_xyz
  1  'x, y, z'
loop_
 _atom_site_type_symbol
 _atom_site_label
 _atom_site_symmetry_multiplicity
 _atom_site_fract_x
 _atom_site_fract_y
 _atom_site_fract_z
 _atom_site_occupancy
  Na  Na0  1  0.07046155  0.53661749  0.78274895  1
  Na  Na1  1  0.29115894  0.29594972  0.13991792  1
  Na  Na2  1  0.20884106  0.79594972  0.63991792  1
  Na  Na3  1  0.42953845  0.03661749  0.28274895  1
  Na  Na4  1  0.57046155  0.96338251  0.71725105  1
  Na  Na5  1  0.79115894  0.20405028  0.36008208  1
  Na  Na6  1  0.70884106  0.70405028  0.86008208  1
  Na  Na7  1  0.92953845  0.46338251  0.21725105  1
  Sr  Sr8  1  0.94562748  0.78898584  0.05917866  1
  Sr  Sr9  1  0.03130470  0.92814156  0.35297188  1
  Sr  Sr10  1  0.17617006  0.32759973  0.43045618  1
  Sr  Sr11  1  0.32382994  0.82759973  0.93045618  1
  Sr  Sr12  1  0.55437252  0.28898584  0.55917866  1
  Sr  Sr13  1  0.46869530  0.42814156  0.85297188  1
  Sr  Sr14  1  0.53130470  0.57185844  0.14702812  1
  Sr  Sr15  1  0.44562748  0.71101416  0.44082134  1
  Sr  Sr16  1  0.67617006  0.17240027  0.06954382  1
  Sr  Sr17  1  0.82382994  0.67240027  0.56954382  1
  Sr  Sr18  1  0.96869530  0.07185844  0.64702812  1
  Sr  Sr19  1  0.05437252  0.21101416  0.94082134  1
  As  As20  1  0.97990162  0.84647373  0.80881591  1
  As  As21  1  0.11115598  0.63012520  0.39776931  1
  As  As22  1  0.22052929  0.54637819  0.02657617  1
  As  As23  1  0.22526189  0.70750369  0.21876293  1
  As  As24  1  0.27473811  0.20750369  0.71876293  1
  As  As25  1  0.27947071  0.04637819  0.52657617  1
  As  As26  1  0.38884402  0.13012520  0.89776931  1
  As  As27  1  0.52009838  0.34647373  0.30881591  1
  As  As28  1  0.47990162  0.65352627  0.69118409  1
  As  As29  1  0.61115598  0.86987480  0.10223069  1
  As  As30  1  0.72052929  0.95362181  0.47342383  1
  As  As31  1  0.72526189  0.79249631  0.28123707  1
  As  As32  1  0.77473811  0.29249631  0.78123707  1
  As  As33  1  0.88884402  0.36987480  0.60223069  1
  As  As34  1  0.77947071  0.45362181  0.97342383  1
  As  As35  1  0.02009838  0.15352627  0.19118409  1
