# generated using pymatgen
data_Tb4Fe29Si5
_symmetry_space_group_name_H-M   'P 1'
_cell_length_a   6.35179434
_cell_length_b   6.35179434
_cell_length_c   12.64869652
_cell_angle_alpha   82.91091269
_cell_angle_beta   82.91091269
_cell_angle_gamma   82.68951732
_symmetry_Int_Tables_number   1
_chemical_formula_structural   Tb4Fe29Si5
_chemical_formula_sum   'Tb4 Fe29 Si5'
_cell_volume   499.28123554
_cell_formula_units_Z   1
loop_
 _symmetry_equiv_pos_site_id
 _symmetry_equiv_pos_as_xyz
  1  'x, y, z'
loop_
 _atom_site_type_symbol
 _atom_site_label
 _atom_site_symmetry_multiplicity
 _atom_site_fract_x
 _atom_site_fract_y
 _atom_site_fract_z
 _atom_site_occupancy
  Tb  Tb0  1  0.65769252  0.65769252  0.32921697  1
  Tb  Tb1  1  0.65740193  0.65740193  0.82902149  1
  Tb  Tb2  1  0.34230748  0.34230748  0.17078303  1
  Tb  Tb3  1  0.34259807  0.34259807  0.67097851  1
  Fe  Fe4  1  0.29642112  0.70463559  0.00043104  1
  Fe  Fe5  1  0.29536441  0.70357888  0.49956896  1
  Fe  Fe6  1  0.70314765  0.99996074  0.14914343  1
  Fe  Fe7  1  0.70327409  0.99937573  0.64849218  1
  Fe  Fe8  1  0.00003926  0.29685235  0.35085657  1
  Fe  Fe9  1  0.00062427  0.29672591  0.85150782  1
  Fe  Fe10  1  0.29685235  0.00003926  0.35085657  1
  Fe  Fe11  1  0.29672591  0.00062427  0.85150782  1
  Fe  Fe12  1  0.99996074  0.70314765  0.14914343  1
  Fe  Fe13  1  0.99937573  0.70327409  0.64849218  1
  Fe  Fe14  1  0.70357888  0.29536441  0.49956896  1
  Fe  Fe15  1  0.70463559  0.29642112  0.00043104  1
  Fe  Fe16  1  0.34083964  0.34083964  0.42524157  1
  Fe  Fe17  1  0.34062151  0.34062151  0.92418955  1
  Fe  Fe18  1  0.34138953  0.84938148  0.17063258  1
  Fe  Fe19  1  0.34083619  0.84962114  0.67117095  1
  Fe  Fe20  1  0.84938148  0.34138953  0.17063258  1
  Fe  Fe21  1  0.84962114  0.34083619  0.67117095  1
  Fe  Fe22  1  0.65916036  0.65916036  0.07475843  1
  Fe  Fe23  1  0.65937849  0.65937849  0.57581045  1
  Fe  Fe24  1  0.65861047  0.15061852  0.32936742  1
  Fe  Fe25  1  0.65916381  0.15037886  0.82882905  1
  Fe  Fe26  1  0.15061852  0.65861047  0.32936742  1
  Fe  Fe27  1  0.15037886  0.65916381  0.82882905  1
  Fe  Fe28  1  0.90347028  0.90347028  0.45234639  1
  Fe  Fe29  1  0.90493550  0.90493550  0.95229528  1
  Fe  Fe30  1  0.09652972  0.09652972  0.04765361  1
  Fe  Fe31  1  0.09506450  0.09506450  0.54770472  1
  Fe  Fe32  1  -0.00000000  0.00000000  0.25000000  1
  Si  Si33  1  -0.00000000  0.00000000  0.75000000  1
  Si  Si34  1  0.00093080  0.50120480  0.99955650  1
  Si  Si35  1  0.99906920  0.49879520  0.50044350  1
  Si  Si36  1  0.49879520  0.99906920  0.50044350  1
  Si  Si37  1  0.50120480  0.00093080  0.99955650  1
