# generated using pymatgen
data_Ti2In3FeO10
_symmetry_space_group_name_H-M   'P 1'
_cell_length_a   5.97506815
_cell_length_b   6.50610519
_cell_length_c   10.22595018
_cell_angle_alpha   90.00000000
_cell_angle_beta   90.00000000
_cell_angle_gamma   107.73937873
_symmetry_Int_Tables_number   1
_chemical_formula_structural   Ti2In3FeO10
_chemical_formula_sum   'Ti4 In6 Fe2 O20'
_cell_volume   378.62636344
_cell_formula_units_Z   2
loop_
 _symmetry_equiv_pos_site_id
 _symmetry_equiv_pos_as_xyz
  1  'x, y, z'
loop_
 _atom_site_type_symbol
 _atom_site_label
 _atom_site_symmetry_multiplicity
 _atom_site_fract_x
 _atom_site_fract_y
 _atom_site_fract_z
 _atom_site_occupancy
  Ti  Ti0  1  0.55289774  0.50911109  0.65520992  1
  Ti  Ti1  1  0.94710226  0.49088891  0.15520992  1
  Ti  Ti2  1  0.50592693  0.49977104  0.00136706  1
  Ti  Ti3  1  0.99407307  0.50022896  0.50136706  1
  In  In4  1  0.49998476  0.00216449  0.49835567  1
  In  In5  1  0.00001524  0.99783551  0.99835567  1
  In  In6  1  0.47872688  0.99780389  0.16772963  1
  In  In7  1  0.02127312  0.00219611  0.66772963  1
  In  In8  1  0.51963411  0.00315826  0.83339560  1
  In  In9  1  0.98036589  0.99684174  0.33339560  1
  Fe  Fe10  1  0.44276605  0.49438037  0.34434991  1
  Fe  Fe11  1  0.05723395  0.50561963  0.84434991  1
  O  O12  1  0.19362885  0.50163894  0.04133741  1
  O  O13  1  0.30637115  0.49836106  0.54133741  1
  O  O14  1  0.80471382  0.49909249  0.96235499  1
  O  O15  1  0.69528618  0.50090751  0.46235499  1
  O  O16  1  0.14062203  0.83332533  0.83314895  1
  O  O17  1  0.35937797  0.16667467  0.33314895  1
  O  O18  1  0.86207914  0.17130696  0.16570086  1
  O  O19  1  0.63792086  0.82869304  0.66570086  1
  O  O20  1  0.10783018  0.49857249  0.31577019  1
  O  O21  1  0.39216982  0.50142751  0.81577019  1
  O  O22  1  0.87703249  0.50277864  0.68049908  1
  O  O23  1  0.62296751  0.49722136  0.18049908  1
  O  O24  1  0.11324757  0.83045277  0.50103779  1
  O  O25  1  0.38675243  0.16954723  0.00103779  1
  O  O26  1  0.88977881  0.16824763  0.50085958  1
  O  O27  1  0.61022119  0.83175237  0.00085958  1
  O  O28  1  0.07994468  0.82782376  0.16593447  1
  O  O29  1  0.42005532  0.17217624  0.66593447  1
  O  O30  1  0.91512336  0.16888131  0.83294889  1
  O  O31  1  0.58487664  0.83111869  0.33294889  1
