# generated using pymatgen
data_Tb24Fe3CoBi8
_symmetry_space_group_name_H-M   'P 1'
_cell_length_a   4.18406755
_cell_length_b   8.40304814
_cell_length_c   29.18045919
_cell_angle_alpha   89.95261566
_cell_angle_beta   90.00000000
_cell_angle_gamma   90.00000000
_symmetry_Int_Tables_number   1
_chemical_formula_structural   Tb24Fe3CoBi8
_chemical_formula_sum   'Tb24 Fe3 Co1 Bi8'
_cell_volume   1025.95311011
_cell_formula_units_Z   1
loop_
 _symmetry_equiv_pos_site_id
 _symmetry_equiv_pos_as_xyz
  1  'x, y, z'
loop_
 _atom_site_type_symbol
 _atom_site_label
 _atom_site_symmetry_multiplicity
 _atom_site_fract_x
 _atom_site_fract_y
 _atom_site_fract_z
 _atom_site_occupancy
  Tb  Tb0  1  -0.00000000  0.37224916  0.19159896  1
  Tb  Tb1  1  0.00000000  0.87171927  0.44171270  1
  Tb  Tb2  1  -0.00000000  0.37162898  0.69176204  1
  Tb  Tb3  1  0.00000000  0.87268341  0.94235618  1
  Tb  Tb4  1  0.50000000  0.09803122  0.25049116  1
  Tb  Tb5  1  0.50000000  0.59776107  0.50042158  1
  Tb  Tb6  1  0.50000000  0.09754028  0.75031544  1
  Tb  Tb7  1  0.50000000  0.59751441  0.00004982  1
  Tb  Tb8  1  0.50000000  0.68713920  0.15294122  1
  Tb  Tb9  1  0.50000000  0.18713030  0.40288192  1
  Tb  Tb10  1  0.50000000  0.68709874  0.65273215  1
  Tb  Tb11  1  0.50000000  0.18622232  0.90232711  1
  Tb  Tb12  1  0.50000000  0.19300757  0.10200989  1
  Tb  Tb13  1  0.50000000  0.69066935  0.35079437  1
  Tb  Tb14  1  0.50000000  0.19044687  0.60061264  1
  Tb  Tb15  1  0.50000000  0.68960370  0.85044976  1
  Tb  Tb16  1  0.00000000  0.21505405  0.00140492  1
  Tb  Tb17  1  0.00000000  0.71362017  0.25108617  1
  Tb  Tb18  1  -0.00000000  0.21453459  0.50102915  1
  Tb  Tb19  1  0.00000000  0.71408694  0.75117449  1
  Tb  Tb20  1  -0.00000000  0.87574250  0.05820735  1
  Tb  Tb21  1  -0.00000000  0.37472361  0.30824518  1
  Tb  Tb22  1  0.00000000  0.87444660  0.55833309  1
  Tb  Tb23  1  0.00000000  0.37438486  0.80827402  1
  Fe  Fe24  1  0.50000000  0.47860876  0.24876019  1
  Fe  Fe25  1  0.50000000  0.98008704  0.49835132  1
  Fe  Fe26  1  0.50000000  0.47954043  0.74881070  1
  Co  Co27  1  0.50000000  0.98098449  0.99724822  1
  Bi  Bi28  1  0.00000000  0.98765603  0.16761768  1
  Bi  Bi29  1  0.00000000  0.48767157  0.41734052  1
  Bi  Bi30  1  -0.00000000  0.98827531  0.66752010  1
  Bi  Bi31  1  0.00000000  0.48777785  0.91734131  1
  Bi  Bi32  1  0.00000000  0.49266890  0.08356102  1
  Bi  Bi33  1  0.00000000  0.99105471  0.33345330  1
  Bi  Bi34  1  0.00000000  0.49113166  0.58353641  1
  Bi  Bi35  1  0.00000000  0.99006410  0.83358590  1
