# generated using pymatgen
data_Tm2Mn12InSn11
_symmetry_space_group_name_H-M   'P 1'
_cell_length_a   5.44720439
_cell_length_b   5.44535374
_cell_length_c   18.05186283
_cell_angle_alpha   90.00000000
_cell_angle_beta   90.00000000
_cell_angle_gamma   60.02261406
_symmetry_Int_Tables_number   1
_chemical_formula_structural   Tm2Mn12InSn11
_chemical_formula_sum   'Tm2 Mn12 In1 Sn11'
_cell_volume   463.82200003
_cell_formula_units_Z   1
loop_
 _symmetry_equiv_pos_site_id
 _symmetry_equiv_pos_as_xyz
  1  'x, y, z'
loop_
 _atom_site_type_symbol
 _atom_site_label
 _atom_site_symmetry_multiplicity
 _atom_site_fract_x
 _atom_site_fract_y
 _atom_site_fract_z
 _atom_site_occupancy
  Tm  Tm0  1  0.00000524  0.99994146  0.99996003  1
  Tm  Tm1  1  0.00000524  0.99994146  0.50003997  1
  Mn  Mn2  1  0.49978824  0.49980545  0.12288533  1
  Mn  Mn3  1  0.49994951  0.49998266  0.62328048  1
  Mn  Mn4  1  0.49976003  0.00048512  0.12290334  1
  Mn  Mn5  1  0.49999518  0.00002414  0.62329968  1
  Mn  Mn6  1  0.00045846  0.49975970  0.12288608  1
  Mn  Mn7  1  0.00000123  0.50002205  0.62328756  1
  Mn  Mn8  1  0.49978824  0.49980545  0.37711467  1
  Mn  Mn9  1  0.49994951  0.49998266  0.87671952  1
  Mn  Mn10  1  0.49976003  0.00048512  0.37709666  1
  Mn  Mn11  1  0.49999518  0.00002414  0.87670032  1
  Mn  Mn12  1  0.00045846  0.49975970  0.37711392  1
  Mn  Mn13  1  0.00000123  0.50002205  0.87671244  1
  In  In14  1  0.66673291  0.66679054  0.25000000  1
  Sn  Sn15  1  0.66659859  0.66673783  0.50004707  1
  Sn  Sn16  1  0.66659859  0.66673783  0.99995293  1
  Sn  Sn17  1  0.33331113  0.33325264  0.99992030  1
  Sn  Sn18  1  0.33331113  0.33325264  0.50007970  1
  Sn  Sn19  1  0.99990216  -0.00000061  0.16661645  1
  Sn  Sn20  1  0.00000171  0.99996589  0.66669406  1
  Sn  Sn21  1  0.99990216  -0.00000061  0.33338355  1
  Sn  Sn22  1  0.00000171  0.99996589  0.83330594  1
  Sn  Sn23  1  0.66668034  0.66667235  0.75000000  1
  Sn  Sn24  1  0.33337345  0.33322056  0.25000000  1
  Sn  Sn25  1  0.33327038  0.33336387  0.75000000  1
