# generated using pymatgen
data_Ta6O
_symmetry_space_group_name_H-M   'P 1'
_cell_length_a   4.88951005
_cell_length_b   4.89952006
_cell_length_c   9.72559148
_cell_angle_alpha   90.00000000
_cell_angle_beta   90.00000000
_cell_angle_gamma   95.82023351
_symmetry_Int_Tables_number   1
_chemical_formula_structural   Ta6O
_chemical_formula_sum   'Ta12 O2'
_cell_volume   231.78765976
_cell_formula_units_Z   2
loop_
 _symmetry_equiv_pos_site_id
 _symmetry_equiv_pos_as_xyz
  1  'x, y, z'
loop_
 _atom_site_type_symbol
 _atom_site_label
 _atom_site_symmetry_multiplicity
 _atom_site_fract_x
 _atom_site_fract_y
 _atom_site_fract_z
 _atom_site_occupancy
  Ta  Ta0  1  0.28286244  0.71362246  -0.00000000  1
  Ta  Ta1  1  0.71713756  0.28637754  -0.00000000  1
  Ta  Ta2  1  0.24642700  0.74007749  0.33200811  1
  Ta  Ta3  1  0.75357300  0.25992251  0.33200811  1
  Ta  Ta4  1  0.24642700  0.74007749  0.66799189  1
  Ta  Ta5  1  0.75357300  0.25992251  0.66799189  1
  Ta  Ta6  1  0.75468864  0.75873607  0.16795857  1
  Ta  Ta7  1  0.24531136  0.24126393  0.16795857  1
  Ta  Ta8  1  0.24531136  0.24126393  0.83204143  1
  Ta  Ta9  1  0.75468864  0.75873607  0.83204143  1
  Ta  Ta10  1  0.71904012  0.78813503  0.50000000  1
  Ta  Ta11  1  0.28095988  0.21186497  0.50000000  1
  O  O12  1  0.00000000  -0.00000000  -0.00000000  1
  O  O13  1  0.00000000  0.50000000  0.50000000  1
