# generated using pymatgen
data_Sr3In3Ga2
_symmetry_space_group_name_H-M   'P 1'
_cell_length_a   4.92094122
_cell_length_b   6.39320858
_cell_length_c   16.40159868
_cell_angle_alpha   90.00000000
_cell_angle_beta   90.00000000
_cell_angle_gamma   67.36514158
_symmetry_Int_Tables_number   1
_chemical_formula_structural   Sr3In3Ga2
_chemical_formula_sum   'Sr6 In6 Ga4'
_cell_volume   476.25961357
_cell_formula_units_Z   2
loop_
 _symmetry_equiv_pos_site_id
 _symmetry_equiv_pos_as_xyz
  1  'x, y, z'
loop_
 _atom_site_type_symbol
 _atom_site_label
 _atom_site_symmetry_multiplicity
 _atom_site_fract_x
 _atom_site_fract_y
 _atom_site_fract_z
 _atom_site_occupancy
  Sr  Sr0  1  0.91210671  0.17578658  0.39070635  1
  Sr  Sr1  1  0.08789329  0.82421342  0.60929365  1
  Sr  Sr2  1  0.91210671  0.17578658  0.10929365  1
  Sr  Sr3  1  0.08789329  0.82421342  0.89070635  1
  Sr  Sr4  1  0.63035161  0.73929677  0.25000000  1
  Sr  Sr5  1  0.36964839  0.26070323  0.75000000  1
  In  In6  1  0.33795309  0.32409381  0.25000000  1
  In  In7  1  0.66204691  0.67590619  0.75000000  1
  In  In8  1  0.62070174  0.75859652  0.46498106  1
  In  In9  1  0.37929826  0.24140348  0.53501894  1
  In  In10  1  0.62070174  0.75859652  0.03501894  1
  In  In11  1  0.37929826  0.24140348  0.96498106  1
  Ga  Ga12  1  0.79249908  0.41500183  0.90034918  1
  Ga  Ga13  1  0.20750092  0.58499817  0.09965082  1
  Ga  Ga14  1  0.79249908  0.41500183  0.59965082  1
  Ga  Ga15  1  0.20750092  0.58499817  0.40034918  1
