# generated using pymatgen
data_SrCa3V4O12
_symmetry_space_group_name_H-M   'P 1'
_cell_length_a   5.38212360
_cell_length_b   5.41185548
_cell_length_c   7.87248708
_cell_angle_alpha   90.00000000
_cell_angle_beta   90.00000000
_cell_angle_gamma   90.13192988
_symmetry_Int_Tables_number   1
_chemical_formula_structural   SrCa3V4O12
_chemical_formula_sum   'Sr1 Ca3 V4 O12'
_cell_volume   229.30348919
_cell_formula_units_Z   1
loop_
 _symmetry_equiv_pos_site_id
 _symmetry_equiv_pos_as_xyz
  1  'x, y, z'
loop_
 _atom_site_type_symbol
 _atom_site_label
 _atom_site_symmetry_multiplicity
 _atom_site_fract_x
 _atom_site_fract_y
 _atom_site_fract_z
 _atom_site_occupancy
  Sr  Sr0  1  0.51838106  0.50307159  0.75000000  1
  Ca  Ca1  1  0.02844025  0.00208634  0.75000000  1
  Ca  Ca2  1  0.47215461  0.49957833  0.25000000  1
  Ca  Ca3  1  0.97443968  0.99568213  0.25000000  1
  V  V4  1  -0.00068142  0.49913547  0.00274313  1
  V  V5  1  0.50099269  0.99889773  0.49749587  1
  V  V6  1  -0.00068142  0.49913547  0.49725687  1
  V  V7  1  0.50099269  0.99889773  0.00250413  1
  O  O8  1  0.00602762  0.43444849  0.75000000  1
  O  O9  1  0.47310644  0.04243371  0.75000000  1
  O  O10  1  0.99891317  0.56583923  0.25000000  1
  O  O11  1  0.52391596  0.93559955  0.25000000  1
  O  O12  1  0.27888540  0.70639708  0.98460629  1
  O  O13  1  0.78471868  0.80205267  0.53385290  1
  O  O14  1  0.71776562  0.29928437  0.47094224  1
  O  O15  1  0.22062964  0.20486299  0.03716595  1
  O  O16  1  0.71776562  0.29928437  0.02905776  1
  O  O17  1  0.22062964  0.20486299  0.46283405  1
  O  O18  1  0.27888540  0.70639708  0.51539371  1
  O  O19  1  0.78471868  0.80205267  0.96614710  1
