# generated using pymatgen
data_Sr4Hf3TiO12
_symmetry_space_group_name_H-M   'P 1'
_cell_length_a   5.73240586
_cell_length_b   8.23335652
_cell_length_c   5.73758209
_cell_angle_alpha   89.96234647
_cell_angle_beta   90.02071950
_cell_angle_gamma   90.01808721
_symmetry_Int_Tables_number   1
_chemical_formula_structural   Sr4Hf3TiO12
_chemical_formula_sum   'Sr4 Hf3 Ti1 O12'
_cell_volume   270.79623438
_cell_formula_units_Z   1
loop_
 _symmetry_equiv_pos_site_id
 _symmetry_equiv_pos_as_xyz
  1  'x, y, z'
loop_
 _atom_site_type_symbol
 _atom_site_label
 _atom_site_symmetry_multiplicity
 _atom_site_fract_x
 _atom_site_fract_y
 _atom_site_fract_z
 _atom_site_occupancy
  Sr  Sr0  1  0.49351302  0.24302366  0.50407454  1
  Sr  Sr1  1  0.99214634  0.24308671  0.99684253  1
  Sr  Sr2  1  0.50648698  0.75697634  0.49592546  1
  Sr  Sr3  1  0.00785366  0.75691329  0.00315747  1
  Hf  Hf4  1  0.00000000  0.50000000  0.50000000  1
  Hf  Hf5  1  0.50000000  0.50000000  -0.00000000  1
  Hf  Hf6  1  0.00000000  -0.00000000  0.50000000  1
  Ti  Ti7  1  0.50000000  -0.00000000  -0.00000000  1
  O  O8  1  0.72015464  0.01363355  0.26754789  1
  O  O9  1  0.19343343  0.48965991  0.19316670  1
  O  O10  1  0.30697377  0.51232791  0.69354443  1
  O  O11  1  0.76771653  0.99017824  0.77984011  1
  O  O12  1  0.27984536  0.98636645  0.73245211  1
  O  O13  1  0.80656657  0.51034009  0.80683330  1
  O  O14  1  0.69302623  0.48767209  0.30645557  1
  O  O15  1  0.23228347  0.00982176  0.22015989  1
  O  O16  1  0.00416219  0.24927280  0.52705680  1
  O  O17  1  0.49850347  0.24352906  0.97580219  1
  O  O18  1  0.99583781  0.75072720  0.47294320  1
  O  O19  1  0.50149653  0.75647094  0.02419781  1
