# generated using pymatgen
data_SrCa3(SnO3)4
_symmetry_space_group_name_H-M   'P 1'
_cell_length_a   5.63828564
_cell_length_b   5.76841277
_cell_length_c   8.05072718
_cell_angle_alpha   90.00000000
_cell_angle_beta   90.00000000
_cell_angle_gamma   89.97363197
_symmetry_Int_Tables_number   1
_chemical_formula_structural   SrCa3(SnO3)4
_chemical_formula_sum   'Sr1 Ca3 Sn4 O12'
_cell_volume   261.84149217
_cell_formula_units_Z   1
loop_
 _symmetry_equiv_pos_site_id
 _symmetry_equiv_pos_as_xyz
  1  'x, y, z'
loop_
 _atom_site_type_symbol
 _atom_site_label
 _atom_site_symmetry_multiplicity
 _atom_site_fract_x
 _atom_site_fract_y
 _atom_site_fract_z
 _atom_site_occupancy
  Sr  Sr0  1  0.51092434  0.54224649  0.25000000  1
  Ca  Ca1  1  0.98646491  0.05034266  0.25000000  1
  Ca  Ca2  1  0.48944161  0.44778427  0.75000000  1
  Ca  Ca3  1  0.00939189  0.95255112  0.75000000  1
  Sn  Sn4  1  0.50042952  0.99874343  0.99784678  1
  Sn  Sn5  1  0.99967533  0.49987600  0.50272829  1
  Sn  Sn6  1  0.50042952  0.99874343  0.50215322  1
  Sn  Sn7  1  0.99967533  0.49987600  0.99727171  1
  O  O8  1  0.39741593  0.97802458  0.25000000  1
  O  O9  1  0.08120956  0.45996142  0.25000000  1
  O  O10  1  0.60213239  0.03729135  0.75000000  1
  O  O11  1  0.89587725  0.54227333  0.75000000  1
  O  O12  1  0.80466674  0.80120045  0.05069930  1
  O  O13  1  0.70508681  0.29152396  0.45562286  1
  O  O14  1  0.20139544  0.20316422  0.55535954  1
  O  O15  1  0.30231723  0.70025433  0.94532221  1
  O  O16  1  0.20139544  0.20316422  0.94464046  1
  O  O17  1  0.30231723  0.70025433  0.55467779  1
  O  O18  1  0.80466674  0.80120045  0.44930070  1
  O  O19  1  0.70508681  0.29152396  0.04437714  1
