# generated using pymatgen
data_SrAgGe
_symmetry_space_group_name_H-M   'P 1'
_cell_length_a   4.73147686
_cell_length_b   6.06729423
_cell_length_c   14.95600313
_cell_angle_alpha   102.52662675
_cell_angle_beta   90.00000000
_cell_angle_gamma   67.05069305
_symmetry_Int_Tables_number   1
_chemical_formula_structural   SrAgGe
_chemical_formula_sum   'Sr5 Ag5 Ge5'
_cell_volume   384.23996957
_cell_formula_units_Z   5
loop_
 _symmetry_equiv_pos_site_id
 _symmetry_equiv_pos_as_xyz
  1  'x, y, z'
loop_
 _atom_site_type_symbol
 _atom_site_label
 _atom_site_symmetry_multiplicity
 _atom_site_fract_x
 _atom_site_fract_y
 _atom_site_fract_z
 _atom_site_occupancy
  Sr  Sr0  1  0.23646821  0.52706357  0.18678507  1
  Sr  Sr1  1  0.76215500  0.47569000  0.81092309  1
  Sr  Sr2  1  0.61653863  0.76692274  0.58098126  1
  Sr  Sr3  1  0.38256444  0.23487112  0.42133821  1
  Sr  Sr4  1  0.00038143  0.99923713  0.99793420  1
  Ag  Ag5  1  0.91225737  0.17548526  0.59110589  1
  Ag  Ag6  1  0.08922725  0.82154550  0.40946559  1
  Ag  Ag7  1  0.52695707  0.94608586  0.20346986  1
  Ag  Ag8  1  0.46828303  0.06343394  0.80478550  1
  Ag  Ag9  1  0.70637527  0.58724947  0.03184374  1
  Ge  Ge10  1  0.29932423  0.40135154  0.96606398  1
  Ge  Ge11  1  0.92257307  0.15485387  0.25945009  1
  Ge  Ge12  1  0.07586072  0.84827855  0.73963195  1
  Ge  Ge13  1  0.69861592  0.60276817  0.34334479  1
  Ge  Ge14  1  0.30241836  0.39516327  0.65287680  1
