# generated using pymatgen
data_Sr5ZrTi4O15
_symmetry_space_group_name_H-M   'P 1'
_cell_length_a   5.64624240
_cell_length_b   5.64624240
_cell_length_c   12.00331778
_cell_angle_alpha   76.38518267
_cell_angle_beta   90.01510171
_cell_angle_gamma   120.00916817
_symmetry_Int_Tables_number   1
_chemical_formula_structural   Sr5ZrTi4O15
_chemical_formula_sum   'Sr5 Zr1 Ti4 O15'
_cell_volume   318.90448757
_cell_formula_units_Z   1
loop_
 _symmetry_equiv_pos_site_id
 _symmetry_equiv_pos_as_xyz
  1  'x, y, z'
loop_
 _atom_site_type_symbol
 _atom_site_label
 _atom_site_symmetry_multiplicity
 _atom_site_fract_x
 _atom_site_fract_y
 _atom_site_fract_z
 _atom_site_occupancy
  Sr  Sr0  1  0.10238121  0.20466092  0.69295787  1
  Sr  Sr1  1  0.89761879  0.79533908  0.30704213  1
  Sr  Sr2  1  0.50000000  -0.00000000  0.50000000  1
  Sr  Sr3  1  0.70231814  0.40457276  0.89310910  1
  Sr  Sr4  1  0.29768186  0.59542724  0.10689090  1
  Zr  Zr5  1  0.00000000  -0.00000000  0.00000000  1
  Ti  Ti6  1  0.59800315  0.19604107  0.20595577  1
  Ti  Ti7  1  0.19950668  0.39902139  0.40147194  1
  Ti  Ti8  1  0.80049332  0.60097861  0.59852806  1
  Ti  Ti9  1  0.40199685  0.80395893  0.79404423  1
  O  O10  1  0.10012127  0.70211579  0.69585292  1
  O  O11  1  0.89987873  0.29788421  0.30414708  1
  O  O12  1  0.50000000  0.50000000  0.50000000  1
  O  O13  1  0.69181200  0.89934875  0.89300431  1
  O  O14  1  0.30818800  0.10065125  0.10699569  1
  O  O15  1  0.60203129  0.20402581  0.69585292  1
  O  O16  1  0.39796871  0.79597419  0.30414708  1
  O  O17  1  0.00000000  -0.00000000  0.50000000  1
  O  O18  1  0.20764694  0.41518369  0.89300431  1
  O  O19  1  0.79235306  0.58481631  0.10699569  1
  O  O20  1  0.60203747  0.70211420  0.69584833  1
  O  O21  1  0.39796253  0.29788580  0.30415167  1
  O  O22  1  0.00000000  0.50000000  0.50000000  1
  O  O23  1  0.20756387  0.89936941  0.89306672  1
  O  O24  1  0.79243613  0.10063059  0.10693328  1
