# generated using pymatgen
data_Cs2CaAl4(SiO4)4
_symmetry_space_group_name_H-M   'P 1'
_cell_length_a   12.55172748
_cell_length_b   12.35067934
_cell_length_c   12.23582815
_cell_angle_alpha   90.08573540
_cell_angle_beta   90.46639250
_cell_angle_gamma   88.45106625
_symmetry_Int_Tables_number   1
_chemical_formula_structural   Cs2CaAl4(SiO4)4
_chemical_formula_sum   'Cs6 Ca3 Al12 Si12 O48'
_cell_volume   1896.06951435
_cell_formula_units_Z   3
loop_
 _symmetry_equiv_pos_site_id
 _symmetry_equiv_pos_as_xyz
  1  'x, y, z'
loop_
 _atom_site_type_symbol
 _atom_site_label
 _atom_site_symmetry_multiplicity
 _atom_site_fract_x
 _atom_site_fract_y
 _atom_site_fract_z
 _atom_site_occupancy
  Cs  Cs0  1  0.03251485  0.52102873  0.50634642  1
  Cs  Cs1  1  0.45580507  0.46751842  0.00797580  1
  Cs  Cs2  1  0.49570128  0.03581838  0.48908261  1
  Cs  Cs3  1  0.52141913  0.73083105  0.24100585  1
  Cs  Cs4  1  0.62369247  0.63243263  0.78694947  1
  Cs  Cs5  1  0.90809331  0.11092801  0.09957554  1
  Ca  Ca6  1  0.77277959  0.19282192  0.80908241  1
  Ca  Ca7  1  0.79644143  0.82438326  0.18087791  1
  Ca  Ca8  1  0.82807361  0.85101738  0.83552777  1
  Al  Al9  1  0.01876965  0.81708141  0.36632219  1
  Al  Al10  1  0.00495455  0.63056978  0.81377785  1
  Al  Al11  1  0.17905829  0.36568764  0.99983237  1
  Al  Al12  1  0.37187626  0.80883073  0.00120712  1
  Al  Al13  1  0.62348349  0.01502285  0.19132063  1
  Al  Al14  1  0.62490635  0.18787467  0.01020497  1
  Al  Al15  1  0.62098535  0.99117058  0.81080137  1
  Al  Al16  1  0.61985179  0.81391819  0.99541240  1
  Al  Al17  1  0.82742034  0.99109970  0.36797439  1
  Al  Al18  1  0.83854916  0.00461467  0.63356435  1
  Al  Al19  1  0.81847679  0.37546279  0.98493570  1
  Al  Al20  1  0.83451050  0.63650605  -0.00000217  1
  Si  Si21  1  0.99672665  0.36902901  0.18138358  1
  Si  Si22  1  0.00481073  0.19021602  0.62534942  1
  Si  Si23  1  0.01440476  0.62162934  0.19371918  1
  Si  Si24  1  0.02047733  0.81964377  0.63015727  1
  Si  Si25  1  0.18994612  0.00462348  0.62441663  1
  Si  Si26  1  0.18693413  0.61959475  0.00930268  1
  Si  Si27  1  0.18941421  0.00707708  0.37126115  1
  Si  Si28  1  0.37428124  0.00127773  0.18713991  1
  Si  Si29  1  0.37320150  0.17906793  0.99709076  1
  Si  Si30  1  0.37733705  0.99720298  0.81032415  1
  Si  Si31  1  0.99707761  0.18283270  0.36831950  1
  Si  Si32  1  0.99934463  0.37317964  0.80527737  1
  O  O33  1  0.99369138  0.22458106  0.49622749  1
  O  O34  1  0.99186721  0.49458945  0.22827398  1
  O  O35  1  0.01769059  0.30383104  0.68962695  1
  O  O36  1  0.02355317  0.68717912  0.30742097  1
  O  O37  1  0.98094831  0.49820066  0.76646479  1
  O  O38  1  0.03141949  0.70812704  0.69793858  1
  O  O39  1  0.10944755  0.11346791  0.35067865  1
  O  O40  1  0.10452869  0.34079973  0.11720892  1
  O  O41  1  0.09940028  0.35159294  0.88376265  1
  O  O42  1  0.13291501  0.89410462  0.35311973  1
  O  O43  1  0.10683415  0.10732270  0.64453710  1
  O  O44  1  0.12513522  0.63268091  0.12818069  1
  O  O45  1  0.10180032  0.64212118  0.91248536  1
  O  O46  1  0.12951267  0.89118474  0.63984916  1
  O  O47  1  0.23772179  0.01514582  0.49920693  1
  O  O48  1  0.23477498  0.49561483  0.00471602  1
  O  O49  1  0.29002425  0.27900029  0.99299696  1
  O  O50  1  0.28964869  0.00853442  0.70875312  1
  O  O51  1  0.28494917  0.70189621  0.00690732  1
  O  O52  1  0.29297025  0.01650427  0.29228541  1
  O  O53  1  0.34921129  0.10038461  0.10231519  1
  O  O54  1  0.36508003  0.10694515  0.88423531  1
  O  O55  1  0.36460642  0.88449052  0.12677112  1
  O  O56  1  0.36137089  0.89046374  0.88333380  1
  O  O57  1  0.49232782  0.00985839  0.24463318  1
  O  O58  1  0.49094646  0.23090074  0.00776684  1
  O  O59  1  0.50145910  0.74397537  0.00268911  1
  O  O60  1  0.49429879  0.99588753  0.74893795  1
  O  O61  1  0.66572961  0.13384681  0.13426903  1
  O  O62  1  0.64938699  0.09747074  0.89950537  1
  O  O63  1  0.64183931  0.90601105  0.09950474  1
  O  O64  1  0.64999533  0.85882116  0.86161974  1
  O  O65  1  0.73805270  0.00640311  0.73197369  1
  O  O66  1  0.71139381  0.28902695  0.96422830  1
  O  O67  1  0.73192151  0.73096539  0.02662697  1
  O  O68  1  0.71265336  0.96440886  0.29115908  1
  O  O69  1  0.79468269  0.98863113  0.50394062  1
  O  O70  1  0.78307037  0.51074694  0.97655777  1
  O  O71  1  0.89554756  0.11180082  0.33709684  1
  O  O72  1  0.89235330  0.34446581  0.10558347  1
  O  O73  1  0.88945175  0.32652820  0.86219471  1
  O  O74  1  0.90887905  0.88653603  0.30735429  1
  O  O75  1  0.89650827  0.13269456  0.66885669  1
  O  O76  1  0.91136942  0.66785690  0.12069680  1
  O  O77  1  0.88627281  0.68715530  0.87420348  1
  O  O78  1  0.92271949  0.89572050  0.68575748  1
  O  O79  1  0.99432149  0.29166207  0.29249553  1
  O  O80  1  0.99479799  0.79106942  0.50473559  1
