# generated using pymatgen
data_SmYFe17
_symmetry_space_group_name_H-M   'P 1'
_cell_length_a   6.42590952
_cell_length_b   6.42590978
_cell_length_c   6.42590952
_cell_angle_alpha   83.03209491
_cell_angle_beta   83.03208994
_cell_angle_gamma   83.03209491
_symmetry_Int_Tables_number   1
_chemical_formula_structural   SmYFe17
_chemical_formula_sum   'Sm1 Y1 Fe17'
_cell_volume   259.90115039
_cell_formula_units_Z   1
loop_
 _symmetry_equiv_pos_site_id
 _symmetry_equiv_pos_as_xyz
  1  'x, y, z'
loop_
 _atom_site_type_symbol
 _atom_site_label
 _atom_site_symmetry_multiplicity
 _atom_site_fract_x
 _atom_site_fract_y
 _atom_site_fract_z
 _atom_site_occupancy
  Sm  Sm0  1  0.65776703  0.65776703  0.65776703  1
  Y  Y1  1  0.34146382  0.34146382  0.34146382  1
  Fe  Fe2  1  0.00038079  0.49969356  0.00038079  1
  Fe  Fe3  1  0.49969356  0.00038079  0.00038079  1
  Fe  Fe4  1  0.00038079  0.00038079  0.49969356  1
  Fe  Fe5  1  0.70852718  0.00052803  0.29104581  1
  Fe  Fe6  1  0.00052803  0.29104581  0.70852718  1
  Fe  Fe7  1  0.29104581  0.70852718  0.00052803  1
  Fe  Fe8  1  0.00052803  0.70852718  0.29104581  1
  Fe  Fe9  1  0.70852718  0.29104581  0.00052803  1
  Fe  Fe10  1  0.29104581  0.00052803  0.70852718  1
  Fe  Fe11  1  0.90305434  0.90305434  0.90305434  1
  Fe  Fe12  1  0.09743984  0.09743984  0.09743984  1
  Fe  Fe13  1  0.34330221  0.84575941  0.34330221  1
  Fe  Fe14  1  0.84575941  0.34330221  0.34330221  1
  Fe  Fe15  1  0.34330221  0.34330221  0.84575941  1
  Fe  Fe16  1  0.65624521  0.15476353  0.65624521  1
  Fe  Fe17  1  0.15476353  0.65624521  0.65624521  1
  Fe  Fe18  1  0.65624521  0.65624521  0.15476353  1
