# generated using pymatgen
data_SnTe5Pb4
_symmetry_space_group_name_H-M   'P 1'
_cell_length_a   4.65892834
_cell_length_b   4.65892834
_cell_length_c   18.91976439
_cell_angle_alpha   82.92760735
_cell_angle_beta   90.00000000
_cell_angle_gamma   120.00000000
_symmetry_Int_Tables_number   1
_chemical_formula_structural   SnTe5Pb4
_chemical_formula_sum   'Sn1 Te5 Pb4'
_cell_volume   352.03380533
_cell_formula_units_Z   1
loop_
 _symmetry_equiv_pos_site_id
 _symmetry_equiv_pos_as_xyz
  1  'x, y, z'
loop_
 _atom_site_type_symbol
 _atom_site_label
 _atom_site_symmetry_multiplicity
 _atom_site_fract_x
 _atom_site_fract_y
 _atom_site_fract_z
 _atom_site_occupancy
  Sn  Sn0  1  0.00000000  0.00000000  -0.00000000  1
  Te  Te1  1  0.69923854  0.39847707  0.90228439  1
  Te  Te2  1  0.50000000  0.00000000  0.50000000  1
  Te  Te3  1  0.09994825  0.19989650  0.70015525  1
  Te  Te4  1  0.30076146  0.60152293  0.09771561  1
  Te  Te5  1  0.90005175  0.80010350  0.29984475  1
  Pb  Pb6  1  0.60003166  0.20006331  0.19990503  1
  Pb  Pb7  1  0.19998179  0.39996357  0.40005464  1
  Pb  Pb8  1  0.80001821  0.60003643  0.59994536  1
  Pb  Pb9  1  0.39996834  0.79993669  0.80009497  1
