# generated using pymatgen
data_Na8Al11Si13(AgO16)3
_symmetry_space_group_name_H-M   'P 1'
_cell_length_a   12.77223833
_cell_length_b   12.39927356
_cell_length_c   12.06695071
_cell_angle_alpha   90.04370665
_cell_angle_beta   88.51488114
_cell_angle_gamma   89.84611403
_symmetry_Int_Tables_number   1
_chemical_formula_structural   Na8Al11Si13(AgO16)3
_chemical_formula_sum   'Na8 Al11 Si13 Ag3 O48'
_cell_volume   1910.35099676
_cell_formula_units_Z   1
loop_
 _symmetry_equiv_pos_site_id
 _symmetry_equiv_pos_as_xyz
  1  'x, y, z'
loop_
 _atom_site_type_symbol
 _atom_site_label
 _atom_site_symmetry_multiplicity
 _atom_site_fract_x
 _atom_site_fract_y
 _atom_site_fract_z
 _atom_site_occupancy
  Na  Na0  1  0.20759286  0.21076564  0.19585224  1
  Na  Na1  1  0.61395310  0.99869916  0.55633291  1
  Na  Na2  1  0.56807546  0.38903484  0.99757620  1
  Na  Na3  1  0.59214716  0.60464359  0.00204520  1
  Na  Na4  1  0.78618140  0.18973932  0.81745651  1
  Na  Na5  1  0.78525573  0.19001481  0.19323465  1
  Na  Na6  1  0.78163002  0.81208473  0.18783032  1
  Na  Na7  1  0.78310118  0.81508743  0.82330905  1
  Al  Al8  1  0.18013719  0.36904292  0.99791601  1
  Al  Al9  1  0.37978860  0.00164329  0.79583992  1
  Al  Al10  1  0.37395324  0.81068664  0.99720253  1
  Al  Al11  1  0.61156815  0.99966890  0.20682431  1
  Al  Al12  1  0.61923177  0.17542870  0.00680815  1
  Al  Al13  1  0.61465400  0.00021495  0.80405619  1
  Al  Al14  1  0.61374019  0.82060029  0.00658442  1
  Al  Al15  1  0.82461899  0.99584679  0.36594364  1
  Al  Al16  1  0.83833659  0.99604422  0.64378600  1
  Al  Al17  1  0.81422814  0.37323749  0.00237430  1
  Al  Al18  1  0.81988240  0.63138849  0.00156071  1
  Si  Si19  1  0.99214926  0.18401489  0.36681787  1
  Si  Si20  1  0.99438879  0.37191371  0.18767776  1
  Si  Si21  1  0.99701541  0.18666020  0.63257628  1
  Si  Si22  1  0.99633324  0.62588827  0.18760466  1
  Si  Si23  1  0.00394301  0.37044425  0.81298663  1
  Si  Si24  1  0.00026446  0.81648970  0.36605221  1
  Si  Si25  1  0.00769461  0.62762986  0.81252368  1
  Si  Si26  1  0.00802653  0.81455009  0.63276976  1
  Si  Si27  1  0.17600959  0.00605573  0.62555623  1
  Si  Si28  1  0.17935652  0.62631883  0.99673174  1
  Si  Si29  1  0.16931291  0.00632042  0.36350721  1
  Si  Si30  1  0.36818621  0.00081959  0.18927037  1
  Si  Si31  1  0.37257767  0.18415002  0.00105632  1
  Ag  Ag32  1  0.20576556  0.81517527  0.81064897  1
  Ag  Ag33  1  0.20354491  0.18704928  0.81118298  1
  Ag  Ag34  1  0.19665317  0.80194768  0.18327777  1
  O  O35  1  0.00105077  0.29912123  0.30189110  1
  O  O36  1  0.99373969  0.49972846  0.22491166  1
  O  O37  1  0.00628498  0.30296039  0.69504361  1
  O  O38  1  0.01702355  0.70284250  0.29702632  1
  O  O39  1  0.00462874  0.79002219  0.49898637  1
  O  O40  1  0.10530586  0.11551493  0.65388684  1
  O  O41  1  0.10077987  0.64719234  0.10703357  1
  O  O42  1  0.11251613  0.65988117  0.88446853  1
  O  O43  1  0.11337500  0.89125289  0.65531777  1
  O  O44  1  0.10323443  0.11696172  0.33475115  1
  O  O45  1  0.10203929  0.34380294  0.11816310  1
  O  O46  1  0.11008536  0.33356202  0.87761670  1
  O  O47  1  0.10546089  0.89394815  0.33465597  1
  O  O48  1  0.19983457  0.00608971  0.49209180  1
  O  O49  1  0.21851386  0.50328673  0.99018147  1
  O  O50  1  0.27262866  0.01269300  0.28564220  1
  O  O51  1  0.28502825  0.28056232  0.01337338  1
  O  O52  1  0.27154967  0.71265852  0.00818146  1
  O  O53  1  0.27910124  0.01446261  0.69556887  1
  O  O54  1  0.34513570  0.10997541  0.11338258  1
  O  O55  1  0.35350271  0.11637329  0.88692730  1
  O  O56  1  0.34180012  0.89247079  0.11803641  1
  O  O57  1  0.34934509  0.88602711  0.87654788  1
  O  O58  1  0.48849744  0.23608667  0.00965555  1
  O  O59  1  0.49946766  0.00593265  0.72668920  1
  O  O60  1  0.47664329  0.00327283  0.24924794  1
  O  O61  1  0.49369715  0.74650833  0.00883214  1
  O  O62  1  0.63971123  0.11708509  0.13283360  1
  O  O63  1  0.63699481  0.11640078  0.87991755  1
  O  O64  1  0.63258042  0.88301421  0.13123023  1
  O  O65  1  0.62705324  0.88491875  0.88194463  1
  O  O66  1  0.70180354  0.99594274  0.31340769  1
  O  O67  1  0.70858645  0.28597707  0.00014230  1
  O  O68  1  0.72006465  0.72499153  0.99908351  1
  O  O69  1  0.71841445  0.99261116  0.70731114  1
  O  O70  1  0.82168749  0.99501879  0.50579550  1
  O  O71  1  0.75764777  0.50372824  0.00166344  1
  O  O72  1  0.90151385  0.11812658  0.68587145  1
  O  O73  1  0.89140856  0.66010391  0.12464950  1
  O  O74  1  0.90193918  0.65855836  0.88168967  1
  O  O75  1  0.90884438  0.87798013  0.68583472  1
  O  O76  1  0.89638833  0.11446973  0.32136729  1
  O  O77  1  0.88814850  0.34248734  0.12306319  1
  O  O78  1  0.89700697  0.34419067  0.88332202  1
  O  O79  1  0.89847590  0.87745524  0.32163042  1
  O  O80  1  0.99013996  0.20978907  0.49960998  1
  O  O81  1  0.01309834  0.49942580  0.78296052  1
  O  O82  1  0.02212400  0.69883394  0.69738709  1
