# generated using pymatgen
data_Sr2CePrCu3(PbO5)2
_symmetry_space_group_name_H-M   'P 1'
_cell_length_a   3.90292957
_cell_length_b   3.87411879
_cell_length_c   18.97512677
_cell_angle_alpha   83.89246976
_cell_angle_beta   85.04855572
_cell_angle_gamma   90.02033115
_symmetry_Int_Tables_number   1
_chemical_formula_structural   Sr2CePrCu3(PbO5)2
_chemical_formula_sum   'Sr2 Ce1 Pr1 Cu3 Pb2 O10'
_cell_volume   284.20543528
_cell_formula_units_Z   1
loop_
 _symmetry_equiv_pos_site_id
 _symmetry_equiv_pos_as_xyz
  1  'x, y, z'
loop_
 _atom_site_type_symbol
 _atom_site_label
 _atom_site_symmetry_multiplicity
 _atom_site_fract_x
 _atom_site_fract_y
 _atom_site_fract_z
 _atom_site_occupancy
  Sr  Sr0  1  0.86984930  0.88540569  0.23638797  1
  Sr  Sr1  1  0.13048599  0.11402467  0.76461925  1
  Ce  Ce2  1  0.21740721  0.21395592  0.57068600  1
  Pr  Pr3  1  0.78319772  0.78564337  0.42947106  1
  Cu  Cu4  1  0.33161296  0.33546761  0.33062206  1
  Cu  Cu5  1  0.66875506  0.66597361  0.66695187  1
  Cu  Cu6  1  0.00089516  0.00037471  0.99918041  1
  Pb  Pb7  1  0.45341507  0.46033571  0.09374603  1
  Pb  Pb8  1  0.54659890  0.54029185  0.90573881  1
  O  O9  1  0.32505080  0.82951754  0.34189133  1
  O  O10  1  0.17286008  0.67176959  0.65584362  1
  O  O11  1  0.67304648  0.17212077  0.65537921  1
  O  O12  1  0.82777701  0.33044709  0.34083851  1
  O  O13  1  0.25013593  0.74680917  0.50589485  1
  O  O14  1  0.74795871  0.24588311  0.50639686  1
  O  O15  1  0.38087525  0.39943616  0.20907175  1
  O  O16  1  0.61984479  0.60159129  0.78905925  1
  O  O17  1  0.85305613  0.96735741  0.09565092  1
  O  O18  1  0.14717745  0.03359471  0.90257024  1
