# generated using pymatgen
data_Sr2CaTi3O9
_symmetry_space_group_name_H-M   'P 1'
_cell_length_a   5.55699839
_cell_length_b   5.55699839
_cell_length_c   12.38982431
_cell_angle_alpha   77.11570476
_cell_angle_beta   102.88429524
_cell_angle_gamma   89.67461092
_symmetry_Int_Tables_number   1
_chemical_formula_structural   Sr2CaTi3O9
_chemical_formula_sum   'Sr4 Ca2 Ti6 O18'
_cell_volume   362.95881605
_cell_formula_units_Z   2
loop_
 _symmetry_equiv_pos_site_id
 _symmetry_equiv_pos_as_xyz
  1  'x, y, z'
loop_
 _atom_site_type_symbol
 _atom_site_label
 _atom_site_symmetry_multiplicity
 _atom_site_fract_x
 _atom_site_fract_y
 _atom_site_fract_z
 _atom_site_occupancy
  Sr  Sr0  1  0.25006977  0.25006977  0.50000000  1
  Sr  Sr1  1  0.41673591  0.08325903  0.83347588  1
  Sr  Sr2  1  0.08325903  0.41673591  0.16652412  1
  Sr  Sr3  1  0.75000290  0.75000290  0.50000000  1
  Ca  Ca4  1  0.91660209  0.58332758  0.83327352  1
  Ca  Ca5  1  0.58332758  0.91660209  0.16672648  1
  Ti  Ti6  1  0.16660207  0.83339827  0.33286459  1
  Ti  Ti7  1  0.83339827  0.16660207  0.66713541  1
  Ti  Ti8  1  0.50000158  0.50000158  -0.00000000  1
  Ti  Ti9  1  0.33373648  0.66626386  0.66713541  1
  Ti  Ti10  1  0.00000158  0.00000158  -0.00000000  1
  Ti  Ti11  1  0.66626386  0.33373648  0.33286459  1
  O  O12  1  0.22357390  0.77658373  0.50000000  1
  O  O13  1  0.89033166  0.11233541  0.83340329  1
  O  O14  1  0.55692736  0.44573971  0.16659671  1
  O  O15  1  0.11233541  0.89033166  0.16659671  1
  O  O16  1  0.77658373  0.22357390  0.50000000  1
  O  O17  1  0.44573971  0.55692736  0.83340329  1
  O  O18  1  0.90576050  0.09108548  0.31467502  1
  O  O19  1  0.57478216  0.42560229  0.64917887  1
  O  O20  1  0.23938818  0.75787633  0.98151286  1
  O  O21  1  0.42560229  0.57478216  0.35082113  1
  O  O22  1  0.09108548  0.90576050  0.68532498  1
  O  O23  1  0.75787633  0.23938818  0.01848714  1
  O  O24  1  0.08289373  0.41711709  0.66720292  1
  O  O25  1  0.74999527  0.74999527  -0.00000000  1
  O  O26  1  0.41711709  0.08289373  0.33279708  1
  O  O27  1  0.24999527  0.24999527  -0.00000000  1
  O  O28  1  0.91569182  0.58431901  0.33279708  1
  O  O29  1  0.58431901  0.91569182  0.66720292  1
