# generated using pymatgen
data_SnTe2Pb
_symmetry_space_group_name_H-M   'P 1'
_cell_length_a   4.58909511
_cell_length_b   4.58909511
_cell_length_c   7.94525309
_cell_angle_alpha   73.21418547
_cell_angle_beta   90.00000000
_cell_angle_gamma   120.00000000
_symmetry_Int_Tables_number   1
_chemical_formula_structural   SnTe2Pb
_chemical_formula_sum   'Sn1 Te2 Pb1'
_cell_volume   136.61353176
_cell_formula_units_Z   1
loop_
 _symmetry_equiv_pos_site_id
 _symmetry_equiv_pos_as_xyz
  1  'x, y, z'
loop_
 _atom_site_type_symbol
 _atom_site_label
 _atom_site_symmetry_multiplicity
 _atom_site_fract_x
 _atom_site_fract_y
 _atom_site_fract_z
 _atom_site_occupancy
  Sn  Sn0  1  0.50000000  0.00000000  0.50000000  1
  Te  Te1  1  0.24755230  0.49510460  0.25734310  1
  Te  Te2  1  0.75244770  0.50489540  0.74265690  1
  Pb  Pb3  1  0.00000000  0.00000000  0.00000000  1
