# generated using pymatgen
data_SmY3Fe34
_symmetry_space_group_name_H-M   'P 1'
_cell_length_a   8.26837489
_cell_length_b   8.52270140
_cell_length_c   8.52378087
_cell_angle_alpha   60.00418526
_cell_angle_beta   90.00000000
_cell_angle_gamma   90.00000000
_symmetry_Int_Tables_number   1
_chemical_formula_structural   SmY3Fe34
_chemical_formula_sum   'Sm1 Y3 Fe34'
_cell_volume   520.20994997
_cell_formula_units_Z   1
loop_
 _symmetry_equiv_pos_site_id
 _symmetry_equiv_pos_as_xyz
  1  'x, y, z'
loop_
 _atom_site_type_symbol
 _atom_site_label
 _atom_site_symmetry_multiplicity
 _atom_site_fract_x
 _atom_site_fract_y
 _atom_site_fract_z
 _atom_site_occupancy
  Sm  Sm0  1  0.25000000  0.66667935  0.66664129  1
  Y  Y1  1  0.75000000  0.33335550  0.33328901  1
  Y  Y2  1  0.75000000  0.99998830  0.00002339  1
  Y  Y3  1  0.25000000  -0.00004738  0.00009477  1
  Fe  Fe4  1  0.60745837  0.66667326  0.66665348  1
  Fe  Fe5  1  0.39292983  0.33332212  0.33335577  1
  Fe  Fe6  1  0.10707017  0.33332212  0.33335577  1
  Fe  Fe7  1  0.89254163  0.66667326  0.66665348  1
  Fe  Fe8  1  0.48637254  0.83431576  0.83436193  1
  Fe  Fe9  1  0.48633142  0.83434475  0.33131051  1
  Fe  Fe10  1  0.48637254  0.33132230  0.83436193  1
  Fe  Fe11  1  0.51510745  0.16618491  0.16613702  1
  Fe  Fe12  1  0.51506575  0.16615344  0.66769313  1
  Fe  Fe13  1  0.51510745  0.66767808  0.16613702  1
  Fe  Fe14  1  0.98489255  0.16618491  0.16613702  1
  Fe  Fe15  1  0.98493425  0.16615344  0.66769313  1
  Fe  Fe16  1  0.98489255  0.66767808  0.16613702  1
  Fe  Fe17  1  0.01362746  0.83431576  0.83436193  1
  Fe  Fe18  1  0.01366858  0.83434475  0.33131051  1
  Fe  Fe19  1  0.01362746  0.33132230  0.83436193  1
  Fe  Fe20  1  0.50063942  0.49950331  0.49949989  1
  Fe  Fe21  1  0.50063812  0.49949701  0.00100598  1
  Fe  Fe22  1  0.50063942  0.00099680  0.49949989  1
  Fe  Fe23  1  0.99936058  0.49950331  0.49949989  1
  Fe  Fe24  1  0.99936188  0.49949701  0.00100598  1
  Fe  Fe25  1  0.99936058  0.00099680  0.49949989  1
  Fe  Fe26  1  0.75000000  0.67069787  0.36827729  1
  Fe  Fe27  1  0.75000000  0.36830225  0.96098936  1
  Fe  Fe28  1  0.75000000  0.96109526  0.67072453  1
  Fe  Fe29  1  0.75000000  0.36818021  0.67072453  1
  Fe  Fe30  1  0.75000000  0.96102484  0.36827729  1
  Fe  Fe31  1  0.75000000  0.67070840  0.96098936  1
  Fe  Fe32  1  0.25000000  0.32869650  0.63156399  1
  Fe  Fe33  1  0.25000000  0.63154700  0.03974486  1
  Fe  Fe34  1  0.25000000  0.03984721  0.32865921  1
  Fe  Fe35  1  0.25000000  0.63149358  0.32865921  1
  Fe  Fe36  1  0.25000000  0.03973952  0.63156399  1
  Fe  Fe37  1  0.25000000  0.32870815  0.03974486  1
