# generated using pymatgen
data_Fe5O7
_symmetry_space_group_name_H-M   'P 1'
_cell_length_a   2.91424039
_cell_length_b   5.08707244
_cell_length_c   8.88309848
_cell_angle_alpha   104.60410489
_cell_angle_beta   90.00000000
_cell_angle_gamma   106.64470379
_symmetry_Int_Tables_number   1
_chemical_formula_structural   Fe5O7
_chemical_formula_sum   'Fe5 O7'
_cell_volume   121.72602400
_cell_formula_units_Z   1
loop_
 _symmetry_equiv_pos_site_id
 _symmetry_equiv_pos_as_xyz
  1  'x, y, z'
loop_
 _atom_site_type_symbol
 _atom_site_label
 _atom_site_symmetry_multiplicity
 _atom_site_fract_x
 _atom_site_fract_y
 _atom_site_fract_z
 _atom_site_occupancy
  Fe  Fe0  1  -0.00000000  0.00000000  -0.00000000  1
  Fe  Fe1  1  0.30541561  0.61083123  0.18410118  1
  Fe  Fe2  1  0.69458439  0.38916877  0.81589882  1
  Fe  Fe3  1  0.11063826  0.22127653  0.41530684  1
  Fe  Fe4  1  0.88936174  0.77872347  0.58469316  1
  O  O5  1  0.03938006  0.07876012  0.78630077  1
  O  O6  1  0.96061994  0.92123988  0.21369923  1
  O  O7  1  0.26271894  0.52543787  0.63554865  1
  O  O8  1  0.73728106  0.47456213  0.36445135  1
  O  O9  1  0.34700849  0.69401698  0.94829679  1
  O  O10  1  0.65299151  0.30598302  0.05170321  1
  O  O11  1  0.50000000  0.00000000  0.50000000  1
