# generated using pymatgen
data_Sm2MnRhO6
_symmetry_space_group_name_H-M   'P 1'
_cell_length_a   5.48202587
_cell_length_b   5.86103403
_cell_length_c   7.59361648
_cell_angle_alpha   90.00000000
_cell_angle_beta   91.66938641
_cell_angle_gamma   90.00000000
_symmetry_Int_Tables_number   1
_chemical_formula_structural   Sm2MnRhO6
_chemical_formula_sum   'Sm4 Mn2 Rh2 O12'
_cell_volume   243.88192569
_cell_formula_units_Z   2
loop_
 _symmetry_equiv_pos_site_id
 _symmetry_equiv_pos_as_xyz
  1  'x, y, z'
loop_
 _atom_site_type_symbol
 _atom_site_label
 _atom_site_symmetry_multiplicity
 _atom_site_fract_x
 _atom_site_fract_y
 _atom_site_fract_z
 _atom_site_occupancy
  Sm  Sm0  1  0.52227233  0.57417174  0.24901810  1
  Sm  Sm1  1  0.97772767  0.07417174  0.25098190  1
  Sm  Sm2  1  0.47772767  0.42582826  0.75098190  1
  Sm  Sm3  1  0.02227233  0.92582826  0.74901810  1
  Mn  Mn4  1  0.00000000  0.50000000  -0.00000000  1
  Mn  Mn5  1  0.50000000  0.00000000  0.50000000  1
  Rh  Rh6  1  0.00000000  0.50000000  0.50000000  1
  Rh  Rh7  1  0.50000000  -0.00000000  -0.00000000  1
  O  O8  1  0.38779406  0.96188684  0.25586214  1
  O  O9  1  0.11220594  0.46188684  0.24413786  1
  O  O10  1  0.61220594  0.03811316  0.74413786  1
  O  O11  1  0.88779406  0.53811316  0.75586214  1
  O  O12  1  0.81111514  0.80395806  0.05535393  1
  O  O13  1  0.68888486  0.30395806  0.44464607  1
  O  O14  1  0.18738786  0.19501775  0.55257115  1
  O  O15  1  0.31261214  0.69501775  0.94742885  1
  O  O16  1  0.18888486  0.19604194  0.94464607  1
  O  O17  1  0.31111514  0.69604194  0.55535393  1
  O  O18  1  0.81261214  0.80498225  0.44742885  1
  O  O19  1  0.68738786  0.30498225  0.05257115  1
