# generated using pymatgen
data_SbH8N2F5
_symmetry_space_group_name_H-M   'P 1'
_cell_length_a   6.44882025
_cell_length_b   6.79884813
_cell_length_c   8.37683303
_cell_angle_alpha   90.00000000
_cell_angle_beta   65.82834274
_cell_angle_gamma   90.00000000
_symmetry_Int_Tables_number   1
_chemical_formula_structural   SbH8N2F5
_chemical_formula_sum   'Sb2 H16 N4 F10'
_cell_volume   335.07651583
_cell_formula_units_Z   2
loop_
 _symmetry_equiv_pos_site_id
 _symmetry_equiv_pos_as_xyz
  1  'x, y, z'
loop_
 _atom_site_type_symbol
 _atom_site_label
 _atom_site_symmetry_multiplicity
 _atom_site_fract_x
 _atom_site_fract_y
 _atom_site_fract_z
 _atom_site_occupancy
  Sb  Sb0  1  0.08779382  0.75000000  0.81889399  1
  Sb  Sb1  1  0.91220618  0.25000000  0.18110601  1
  H  H2  1  0.50199544  0.75000000  0.99118412  1
  H  H3  1  0.49800456  0.25000000  0.00881588  1
  H  H4  1  0.58533749  0.75000000  0.56681454  1
  H  H5  1  0.15192009  0.25000000  0.43665580  1
  H  H6  1  0.41466251  0.25000000  0.43318546  1
  H  H7  1  0.84807991  0.75000000  0.56334420  1
  H  H8  1  0.79680873  0.62590914  0.40954811  1
  H  H9  1  0.20319127  0.37409086  0.59045189  1
  H  H10  1  0.79680873  0.87409086  0.40954811  1
  H  H11  1  0.20319127  0.12590914  0.59045189  1
  H  H12  1  0.32045961  0.87467530  0.16950934  1
  H  H13  1  0.32045961  0.62532470  0.16950934  1
  H  H14  1  0.67954039  0.12532470  0.83049066  1
  H  H15  1  0.67954039  0.37467530  0.83049066  1
  H  H16  1  0.54636179  0.75000000  0.17465066  1
  H  H17  1  0.45363821  0.25000000  0.82534934  1
  N  N18  1  0.42493976  0.75000000  0.12545527  1
  N  N19  1  0.57506024  0.25000000  0.87454473  1
  N  N20  1  0.75664016  0.75000000  0.48740848  1
  N  N21  1  0.24335984  0.25000000  0.51259152  1
  F  F22  1  0.21491680  0.75000000  0.55958323  1
  F  F23  1  0.78508320  0.25000000  0.44041677  1
  F  F24  1  0.34078534  0.53869147  0.76283761  1
  F  F25  1  0.11953464  0.46515308  0.23538333  1
  F  F26  1  0.34078534  0.96130853  0.76283761  1
  F  F27  1  0.11953464  0.03484692  0.23538333  1
  F  F28  1  0.65921466  0.46130853  0.23716239  1
  F  F29  1  0.88046536  0.53484692  0.76461667  1
  F  F30  1  0.65921466  0.03869147  0.23716239  1
  F  F31  1  0.88046536  0.96515308  0.76461667  1
