# generated using pymatgen
data_Sm4Fe31Co3
_symmetry_space_group_name_H-M   'P 1'
_cell_length_a   6.44697122
_cell_length_b   6.42397358
_cell_length_c   12.86992957
_cell_angle_alpha   82.42167058
_cell_angle_beta   82.75280699
_cell_angle_gamma   82.61164339
_symmetry_Int_Tables_number   1
_chemical_formula_structural   Sm4Fe31Co3
_chemical_formula_sum   'Sm4 Fe31 Co3'
_cell_volume   520.72567761
_cell_formula_units_Z   1
loop_
 _symmetry_equiv_pos_site_id
 _symmetry_equiv_pos_as_xyz
  1  'x, y, z'
loop_
 _atom_site_type_symbol
 _atom_site_label
 _atom_site_symmetry_multiplicity
 _atom_site_fract_x
 _atom_site_fract_y
 _atom_site_fract_z
 _atom_site_occupancy
  Sm  Sm0  1  0.65815038  0.65654426  0.32924798  1
  Sm  Sm1  1  0.65966235  0.65788946  0.82889854  1
  Sm  Sm2  1  0.34069925  0.34137789  0.17098614  1
  Sm  Sm3  1  0.34124872  0.34211332  0.67049243  1
  Fe  Fe4  1  0.29135177  0.70844556  0.00054889  1
  Fe  Fe5  1  0.29463882  0.70577791  0.50019218  1
  Fe  Fe6  1  0.70936958  -0.00031792  0.14533133  1
  Fe  Fe7  1  0.70859775  -0.00014368  0.64507839  1
  Fe  Fe8  1  0.99923777  0.29305981  0.35362573  1
  Fe  Fe9  1  0.99987832  0.29472309  0.85305365  1
  Fe  Fe10  1  0.28970177  0.00041498  0.35461004  1
  Fe  Fe11  1  0.29160510  0.00116421  0.85406026  1
  Fe  Fe12  1  0.00017041  0.70645932  0.14737698  1
  Fe  Fe13  1  0.00013722  0.70586380  0.64708884  1
  Fe  Fe14  1  0.70723905  0.29332289  0.49959807  1
  Fe  Fe15  1  0.70892415  0.29049463  0.99960155  1
  Fe  Fe16  1  0.99838091  0.00021360  0.25033585  1
  Fe  Fe17  1  0.99916229  0.00091514  0.75008473  1
  Fe  Fe18  1  0.99944953  0.49989194  0.00040972  1
  Fe  Fe19  1  0.00028596  0.49956498  0.50018643  1
  Fe  Fe20  1  0.50054942  0.00019430  0.49927015  1
  Fe  Fe21  1  0.50086903  0.99974254  0.99963563  1
  Fe  Fe22  1  0.90415079  0.90324742  0.45208546  1
  Fe  Fe23  1  0.90419799  0.90360583  0.95186256  1
  Fe  Fe24  1  0.09682055  0.09605556  0.04806101  1
  Fe  Fe25  1  0.09660074  0.09556302  0.54827428  1
  Fe  Fe26  1  0.34194585  0.34308671  0.92251299  1
  Fe  Fe27  1  0.34245329  0.84553528  0.17140275  1
  Fe  Fe28  1  0.34178516  0.84557764  0.67128665  1
  Fe  Fe29  1  0.15852653  0.65744574  0.32929636  1
  Fe  Fe30  1  0.15648945  0.65844409  0.82922851  1
  Fe  Fe31  1  0.65758608  0.65624853  0.07914869  1
  Fe  Fe32  1  0.65861087  0.65737535  0.57904568  1
  Fe  Fe33  1  0.65644554  0.16022898  0.32832969  1
  Fe  Fe34  1  0.65752729  0.15833911  0.82790302  1
  Co  Co35  1  0.84404082  0.34077318  0.17005511  1
  Co  Co36  1  0.84430639  0.34012152  0.66965275  1
  Co  Co37  1  0.33920311  0.34064001  0.42214098  1
