# generated using pymatgen
data_PuUC2
_symmetry_space_group_name_H-M   'P 1'
_cell_length_a   3.58340379
_cell_length_b   3.58340380
_cell_length_c   6.01378715
_cell_angle_alpha   72.66653214
_cell_angle_beta   90.00000000
_cell_angle_gamma   120.00000007
_symmetry_Int_Tables_number   1
_chemical_formula_structural   PuUC2
_chemical_formula_sum   'Pu1 U1 C2'
_cell_volume   62.79395902
_cell_formula_units_Z   1
loop_
 _symmetry_equiv_pos_site_id
 _symmetry_equiv_pos_as_xyz
  1  'x, y, z'
loop_
 _atom_site_type_symbol
 _atom_site_label
 _atom_site_symmetry_multiplicity
 _atom_site_fract_x
 _atom_site_fract_y
 _atom_site_fract_z
 _atom_site_occupancy
  Pu  Pu0  1  0.00000000  -0.00000000  0.00000000  1
  U  U1  1  0.50000000  -0.00000000  0.50000000  1
  C  C2  1  0.23865043  0.47730085  0.28404872  1
  C  C3  1  0.76134957  0.52269915  0.71595128  1
