# generated using pymatgen
data_Sm4Ti4S4O9
_symmetry_space_group_name_H-M   'P 1'
_cell_length_a   3.70453365
_cell_length_b   9.25769972
_cell_length_c   9.43707399
_cell_angle_alpha   90.91527842
_cell_angle_beta   78.68075621
_cell_angle_gamma   101.54154736
_symmetry_Int_Tables_number   1
_chemical_formula_structural   Sm4Ti4S4O9
_chemical_formula_sum   'Sm4 Ti4 S4 O9'
_cell_volume   310.84507849
_cell_formula_units_Z   1
loop_
 _symmetry_equiv_pos_site_id
 _symmetry_equiv_pos_as_xyz
  1  'x, y, z'
loop_
 _atom_site_type_symbol
 _atom_site_label
 _atom_site_symmetry_multiplicity
 _atom_site_fract_x
 _atom_site_fract_y
 _atom_site_fract_z
 _atom_site_occupancy
  Sm  Sm0  1  0.69040600  0.55713393  0.17632193  1
  Sm  Sm1  1  0.30170075  0.44275110  0.83934960  1
  Sm  Sm2  1  0.84586217  0.00220494  0.31048059  1
  Sm  Sm3  1  0.15473992  0.99749828  0.68801843  1
  Ti  Ti4  1  0.42238712  0.30281846  0.45804422  1
  Ti  Ti5  1  0.58159380  0.69798519  0.53479759  1
  Ti  Ti6  1  0.40192621  0.83728953  0.03343711  1
  Ti  Ti7  1  0.59666539  0.16126088  0.96793010  1
  S  S8  1  0.02576759  0.32122547  0.26969028  1
  S  S9  1  0.97346130  0.66267528  0.71575268  1
  S  S10  1  0.81050818  0.27140354  0.65038719  1
  S  S11  1  0.20298145  0.74740390  0.34144100  1
  O  O12  1  0.32735742  0.09541339  0.44069855  1
  O  O13  1  0.67273390  0.90570670  0.56023890  1
  O  O14  1  0.45472057  0.04466097  0.13521983  1
  O  O15  1  0.54556074  0.95471993  0.86359845  1
  O  O16  1  0.29834629  0.62101466  0.02432208  1
  O  O17  1  0.69747044  0.37699264  0.98205175  1
  O  O18  1  0.86632874  0.82726950  0.09461202  1
  O  O19  1  0.13588442  0.17321453  0.90144568  1
  O  O20  1  0.52469758  0.50895718  0.45956203  1
