# generated using pymatgen
data_ScTi(NiSn)2
_symmetry_space_group_name_H-M   'P 1'
_cell_length_a   4.25921100
_cell_length_b   4.25921100
_cell_length_c   7.44742504
_cell_angle_alpha   73.38423655
_cell_angle_beta   90.00000000
_cell_angle_gamma   120.00000000
_symmetry_Int_Tables_number   1
_chemical_formula_structural   ScTi(NiSn)2
_chemical_formula_sum   'Sc1 Ti1 Ni2 Sn2'
_cell_volume   110.44038347
_cell_formula_units_Z   1
loop_
 _symmetry_equiv_pos_site_id
 _symmetry_equiv_pos_as_xyz
  1  'x, y, z'
loop_
 _atom_site_type_symbol
 _atom_site_label
 _atom_site_symmetry_multiplicity
 _atom_site_fract_x
 _atom_site_fract_y
 _atom_site_fract_z
 _atom_site_occupancy
  Sc  Sc0  1  0.12379508  0.24759016  0.62861475  1
  Ti  Ti1  1  0.62606163  0.25212326  0.12181511  1
  Ni  Ni2  1  0.99732207  0.99464414  0.00803379  1
  Ni  Ni3  1  0.50323640  0.00647279  0.49029081  1
  Sn  Sn4  1  0.87714832  0.75429663  0.36855505  1
  Sn  Sn5  1  0.37243650  0.74487301  0.88269049  1
