# generated using pymatgen
data_Bi2O3
_symmetry_space_group_name_H-M   'P 1'
_cell_length_a   3.92730523
_cell_length_b   4.09726302
_cell_length_c   26.31519154
_cell_angle_alpha   55.29266474
_cell_angle_beta   56.84168250
_cell_angle_gamma   55.97317380
_symmetry_Int_Tables_number   1
_chemical_formula_structural   Bi2O3
_chemical_formula_sum   'Bi6 O9'
_cell_volume   271.81247025
_cell_formula_units_Z   3
loop_
 _symmetry_equiv_pos_site_id
 _symmetry_equiv_pos_as_xyz
  1  'x, y, z'
loop_
 _atom_site_type_symbol
 _atom_site_label
 _atom_site_symmetry_multiplicity
 _atom_site_fract_x
 _atom_site_fract_y
 _atom_site_fract_z
 _atom_site_occupancy
  Bi  Bi0  1  -0.01065678  0.08866455  -0.00401462  1
  Bi  Bi1  1  -0.02401745  0.07478985  0.50151258  1
  Bi  Bi2  1  -0.04712472  0.12852317  0.16433366  1
  Bi  Bi3  1  -0.09367212  0.01341594  0.32687722  1
  Bi  Bi4  1  -0.09269917  -0.05371000  0.66577169  1
  Bi  Bi5  1  0.14511828  0.03454279  0.84068312  1
  O  O6  1  0.71243690  0.84617346  0.10661118  1
  O  O7  1  0.15429403  0.27363941  0.21210256  1
  O  O8  1  0.61029679  0.69786967  0.31713262  1
  O  O9  1  0.72604046  0.78648387  0.44140876  1
  O  O10  1  0.16529608  0.21636951  0.54973507  1
  O  O11  1  0.60757824  0.62830858  0.65899098  1
  O  O12  1  0.66433307  0.62904871  0.78024372  1
  O  O13  1  0.73082651  0.65858111  0.89191888  1
  O  O14  1  0.66994989  0.72729938  0.00502658  1
