# generated using pymatgen
data_RuSeS
_symmetry_space_group_name_H-M   'P 1'
_cell_length_a   5.83632468
_cell_length_b   5.83632468
_cell_length_c   5.83632468
_cell_angle_alpha   90.00000000
_cell_angle_beta   90.00000000
_cell_angle_gamma   90.00000000
_symmetry_Int_Tables_number   1
_chemical_formula_structural   RuSeS
_chemical_formula_sum   'Ru4 Se4 S4'
_cell_volume   198.80089363
_cell_formula_units_Z   4
loop_
 _symmetry_equiv_pos_site_id
 _symmetry_equiv_pos_as_xyz
  1  'x, y, z'
loop_
 _atom_site_type_symbol
 _atom_site_label
 _atom_site_symmetry_multiplicity
 _atom_site_fract_x
 _atom_site_fract_y
 _atom_site_fract_z
 _atom_site_occupancy
  Ru  Ru0  1  0.49173738  0.99173738  0.50826262  1
  Ru  Ru1  1  0.99173738  0.50826262  0.49173738  1
  Ru  Ru2  1  0.50826262  0.49173738  0.99173738  1
  Ru  Ru3  1  0.00826262  0.00826262  0.00826262  1
  Se  Se4  1  0.11877037  0.61877037  0.88122963  1
  Se  Se5  1  0.61877037  0.88122963  0.11877037  1
  Se  Se6  1  0.88122963  0.11877037  0.61877037  1
  Se  Se7  1  0.38122963  0.38122963  0.38122963  1
  S  S8  1  0.88364844  0.38364844  0.11635156  1
  S  S9  1  0.38364844  0.11635156  0.88364844  1
  S  S10  1  0.11635156  0.88364844  0.38364844  1
  S  S11  1  0.61635156  0.61635156  0.61635156  1
