# generated using pymatgen
data_Sb3AsS6
_symmetry_space_group_name_H-M   'P 1'
_cell_length_a   3.79988845
_cell_length_b   12.03682414
_cell_length_c   11.15213866
_cell_angle_alpha   90.00000000
_cell_angle_beta   90.00000000
_cell_angle_gamma   90.00000000
_symmetry_Int_Tables_number   1
_chemical_formula_structural   Sb3AsS6
_chemical_formula_sum   'Sb6 As2 S12'
_cell_volume   510.08308691
_cell_formula_units_Z   2
loop_
 _symmetry_equiv_pos_site_id
 _symmetry_equiv_pos_as_xyz
  1  'x, y, z'
loop_
 _atom_site_type_symbol
 _atom_site_label
 _atom_site_symmetry_multiplicity
 _atom_site_fract_x
 _atom_site_fract_y
 _atom_site_fract_z
 _atom_site_occupancy
  Sb  Sb0  1  0.25000000  0.53687756  0.16536341  1
  Sb  Sb1  1  0.25000000  0.03687756  0.33463659  1
  Sb  Sb2  1  0.25000000  0.36038953  0.53549026  1
  Sb  Sb3  1  0.25000000  0.86038953  0.96450974  1
  Sb  Sb4  1  0.75000000  0.64274088  0.47200922  1
  Sb  Sb5  1  0.75000000  0.14274088  0.02799078  1
  As  As6  1  0.75000000  0.45156710  0.81889265  1
  As  As7  1  0.75000000  0.95156710  0.68110735  1
  S  S8  1  0.75000000  0.45448344  0.38084329  1
  S  S9  1  0.75000000  0.95448344  0.11915671  1
  S  S10  1  0.25000000  0.54546854  0.63331244  1
  S  S11  1  0.25000000  0.04546854  0.86668756  1
  S  S12  1  0.25000000  0.38325935  0.93383554  1
  S  S13  1  0.25000000  0.88325935  0.56616446  1
  S  S14  1  0.75000000  0.62682298  0.05045926  1
  S  S15  1  0.75000000  0.12682298  0.44954074  1
  S  S16  1  0.75000000  0.29849673  0.69607100  1
  S  S17  1  0.75000000  0.79849673  0.80392900  1
  S  S18  1  0.25000000  0.69989390  0.31314931  1
  S  S19  1  0.25000000  0.19989390  0.18685069  1
