# generated using pymatgen
data_Re3PbSe6
_symmetry_space_group_name_H-M   'P 1'
_cell_length_a   9.88561305
_cell_length_b   9.88561305
_cell_length_c   12.41676833
_cell_angle_alpha   90.31847051
_cell_angle_beta   90.31847051
_cell_angle_gamma   60.51558548
_symmetry_Int_Tables_number   1
_chemical_formula_structural   Re3PbSe6
_chemical_formula_sum   'Re12 Pb4 Se24'
_cell_volume   1056.25892821
_cell_formula_units_Z   4
loop_
 _symmetry_equiv_pos_site_id
 _symmetry_equiv_pos_as_xyz
  1  'x, y, z'
loop_
 _atom_site_type_symbol
 _atom_site_label
 _atom_site_symmetry_multiplicity
 _atom_site_fract_x
 _atom_site_fract_y
 _atom_site_fract_z
 _atom_site_occupancy
  Re  Re0  1  0.18983109  0.39996633  0.08142293  1
  Re  Re1  1  0.60159990  0.81309210  0.42425131  1
  Re  Re2  1  0.81309210  0.60159990  0.92425131  1
  Re  Re3  1  0.39996633  0.18983109  0.58142293  1
  Re  Re4  1  0.88975872  0.52213860  0.12979438  1
  Re  Re5  1  0.47781229  0.11318823  0.37361680  1
  Re  Re6  1  0.11318823  0.47781229  0.87361680  1
  Re  Re7  1  0.52213860  0.88975872  0.62979438  1
  Re  Re8  1  0.99093296  0.69146766  0.02998774  1
  Re  Re9  1  0.30847122  0.01411033  0.47449081  1
  Re  Re10  1  0.01411033  0.30847122  0.97449081  1
  Re  Re11  1  0.69146766  0.99093296  0.52998774  1
  Pb  Pb12  1  0.73851311  0.23698462  0.22614706  1
  Pb  Pb13  1  0.23698462  0.73851311  0.72614706  1
  Pb  Pb14  1  0.88555533  0.34614569  0.49589529  1
  Pb  Pb15  1  0.34614569  0.88555533  0.99589529  1
  Se  Se16  1  0.93620079  0.39443254  0.78040227  1
  Se  Se17  1  0.60713327  0.06404010  0.72509467  1
  Se  Se18  1  0.06404010  0.60713327  0.22509467  1
  Se  Se19  1  0.39443254  0.93620079  0.28040227  1
  Se  Se20  1  0.73412543  0.54559330  0.31117963  1
  Se  Se21  1  0.45247407  0.25478699  0.19094382  1
  Se  Se22  1  0.25478699  0.45247407  0.69094382  1
  Se  Se23  1  0.54559330  0.73412543  0.81117963  1
  Se  Se24  1  0.94278773  0.99143528  0.58687745  1
  Se  Se25  1  0.02416711  0.04954356  0.91914152  1
  Se  Se26  1  0.04954356  0.02416711  0.41914152  1
  Se  Se27  1  0.99143528  0.94278773  0.08687745  1
  Se  Se28  1  0.91827134  0.76149837  0.83444130  1
  Se  Se29  1  0.24003832  0.08546126  0.67118725  1
  Se  Se30  1  0.08546126  0.24003832  0.17118725  1
  Se  Se31  1  0.76149837  0.91827134  0.33444130  1
  Se  Se32  1  0.72594129  0.42835805  0.02271066  1
  Se  Se33  1  0.56888743  0.27851498  0.47985296  1
  Se  Se34  1  0.27851498  0.56888743  0.97985296  1
  Se  Se35  1  0.42835805  0.72594129  0.52271066  1
  Se  Se36  1  0.19905956  0.30710061  0.43177679  1
  Se  Se37  1  0.70436859  0.80221185  0.07678537  1
  Se  Se38  1  0.80221185  0.70436859  0.57678537  1
  Se  Se39  1  0.30710061  0.19905956  0.93177679  1
