# generated using pymatgen
data_Pr2Mn3Sb3O14
_symmetry_space_group_name_H-M   'P 1'
_cell_length_a   7.44596132
_cell_length_b   7.39327907
_cell_length_c   7.45232145
_cell_angle_alpha   90.00000000
_cell_angle_beta   59.97174023
_cell_angle_gamma   121.11621977
_symmetry_Int_Tables_number   1
_chemical_formula_structural   Pr2Mn3Sb3O14
_chemical_formula_sum   'Pr2 Mn3 Sb3 O14'
_cell_volume   284.97393182
_cell_formula_units_Z   1
loop_
 _symmetry_equiv_pos_site_id
 _symmetry_equiv_pos_as_xyz
  1  'x, y, z'
loop_
 _atom_site_type_symbol
 _atom_site_label
 _atom_site_symmetry_multiplicity
 _atom_site_fract_x
 _atom_site_fract_y
 _atom_site_fract_z
 _atom_site_occupancy
  Pr  Pr0  1  0.00000000  0.00000000  0.50000000  1
  Pr  Pr1  1  0.00000000  0.00000000  -0.00000000  1
  Mn  Mn2  1  0.50000000  0.00000000  0.50000000  1
  Mn  Mn3  1  0.50000000  0.50000000  -0.00000000  1
  Mn  Mn4  1  0.50000000  0.00000000  -0.00000000  1
  Sb  Sb5  1  0.50000000  0.50000000  0.50000000  1
  Sb  Sb6  1  0.00000000  0.50000000  0.00000000  1
  Sb  Sb7  1  -0.00000000  0.50000000  0.50000000  1
  O  O8  1  0.67485795  0.82574969  0.41257102  1
  O  O9  1  0.84931622  0.41926982  0.82534189  1
  O  O10  1  0.24763794  0.82833429  0.82461246  1
  O  O11  1  0.25203195  0.42898127  0.42140236  1
  O  O12  1  0.25203195  0.42898127  0.82656569  1
  O  O13  1  0.24763794  0.82833429  0.42774960  1
  O  O14  1  0.32514205  0.17425031  0.58742898  1
  O  O15  1  0.15068378  0.58073018  0.17465811  1
  O  O16  1  0.75236206  0.17166571  0.17538754  1
  O  O17  1  0.74796805  0.57101873  0.57859764  1
  O  O18  1  0.74796805  0.57101873  0.17343431  1
  O  O19  1  0.75236206  0.17166571  0.57225040  1
  O  O20  1  0.28740689  0.14611171  0.10629655  1
  O  O21  1  0.71259311  0.85388829  0.89370345  1
