# generated using pymatgen
data_Ni4Mo6CN
_symmetry_space_group_name_H-M   'P 1'
_cell_length_a   6.68561727
_cell_length_b   6.68197323
_cell_length_c   6.68561727
_cell_angle_alpha   90.00000000
_cell_angle_beta   89.82914607
_cell_angle_gamma   90.00000000
_symmetry_Int_Tables_number   1
_chemical_formula_structural   Ni4Mo6CN
_chemical_formula_sum   'Ni8 Mo12 C2 N2'
_cell_volume   298.66602553
_cell_formula_units_Z   2
loop_
 _symmetry_equiv_pos_site_id
 _symmetry_equiv_pos_as_xyz
  1  'x, y, z'
loop_
 _atom_site_type_symbol
 _atom_site_label
 _atom_site_symmetry_multiplicity
 _atom_site_fract_x
 _atom_site_fract_y
 _atom_site_fract_z
 _atom_site_occupancy
  Ni  Ni0  1  0.93176434  0.43202274  0.06754375  1
  Ni  Ni1  1  0.06823566  0.93202274  0.43245625  1
  Ni  Ni2  1  0.43225829  0.06779539  0.93183583  1
  Ni  Ni3  1  0.56774171  0.56779539  0.56816417  1
  Ni  Ni4  1  0.31754375  0.81797726  0.68176434  1
  Ni  Ni5  1  0.81816417  0.68220461  0.31774171  1
  Ni  Ni6  1  0.68245625  0.31797726  0.81823566  1
  Ni  Ni7  1  0.18183583  0.18220461  0.18225829  1
  Mo  Mo8  1  0.79863590  0.04926705  0.12440282  1
  Mo  Mo9  1  0.20136410  0.54926705  0.37559718  1
  Mo  Mo10  1  0.29990634  0.45067558  0.87441322  1
  Mo  Mo11  1  0.70009366  0.95067558  0.62558678  1
  Mo  Mo12  1  0.04796684  0.12500000  0.79796684  1
  Mo  Mo13  1  0.55024385  0.37500000  0.19975615  1
  Mo  Mo14  1  0.44975615  0.87500000  0.30024385  1
  Mo  Mo15  1  0.95203316  0.62500000  0.70203316  1
  Mo  Mo16  1  0.12441322  0.79932442  0.04990634  1
  Mo  Mo17  1  0.37440282  0.20073295  0.54863590  1
  Mo  Mo18  1  0.87558678  0.29932442  0.45009366  1
  Mo  Mo19  1  0.62559718  0.70073295  0.95136410  1
  C  C20  1  0.62646805  0.12500000  0.37646805  1
  C  C21  1  0.37353195  0.62500000  0.12353195  1
  N  N22  1  0.12357100  0.37500000  0.62642900  1
  N  N23  1  0.87642900  0.87500000  0.87357100  1
