# generated using pymatgen
data_Nd3Se2NO
_symmetry_space_group_name_H-M   'P 1'
_cell_length_a   4.06447968
_cell_length_b   9.69397858
_cell_length_c   12.47490140
_cell_angle_alpha   95.81917369
_cell_angle_beta   80.62437407
_cell_angle_gamma   90.00000000
_symmetry_Int_Tables_number   1
_chemical_formula_structural   Nd3Se2NO
_chemical_formula_sum   'Nd9 Se6 N3 O3'
_cell_volume   482.38996334
_cell_formula_units_Z   3
loop_
 _symmetry_equiv_pos_site_id
 _symmetry_equiv_pos_as_xyz
  1  'x, y, z'
loop_
 _atom_site_type_symbol
 _atom_site_label
 _atom_site_symmetry_multiplicity
 _atom_site_fract_x
 _atom_site_fract_y
 _atom_site_fract_z
 _atom_site_occupancy
  Nd  Nd0  1  0.18863053  0.01282622  0.62273895  1
  Nd  Nd1  1  0.81133032  0.98770398  0.37733936  1
  Nd  Nd2  1  0.46331181  0.67731831  0.07337638  1
  Nd  Nd3  1  0.53752107  0.32021116  0.92495787  1
  Nd  Nd4  1  0.00013460  0.99193559  0.99973079  1
  Nd  Nd5  1  0.28056154  0.66829891  0.43887693  1
  Nd  Nd6  1  0.71900810  0.33222335  0.56198381  1
  Nd  Nd7  1  0.08842746  0.64478270  0.82314509  1
  Nd  Nd8  1  0.90978312  0.35469666  0.18043377  1
  Se  Se9  1  0.13235372  0.33022838  0.73529256  1
  Se  Se10  1  0.86705978  0.66429052  0.26588045  1
  Se  Se11  1  0.30911174  0.33495827  0.38177652  1
  Se  Se12  1  0.69047768  0.66625099  0.61904465  1
  Se  Se13  1  0.41264524  0.04235164  0.17470952  1
  Se  Se14  1  0.58824839  0.97424747  0.82350322  1
  N  N15  1  0.00104999  0.75574680  0.99790002  1
  N  N16  1  0.27729087  0.89761352  0.44541826  1
  N  N17  1  0.72333622  0.10321790  0.55332755  1
  O  O18  1  0.44692036  0.43241950  0.10615928  1
  O  O19  1  0.55312200  0.55644826  0.89375600  1
  O  O20  1  0.99967549  0.25222989  0.00064902  1
