# generated using pymatgen
data_Pr2Ga3Cu
_symmetry_space_group_name_H-M   'P 1'
_cell_length_a   4.47621388
_cell_length_b   4.47621388
_cell_length_c   7.69897907
_cell_angle_alpha   90.00883494
_cell_angle_beta   89.99116506
_cell_angle_gamma   120.03584324
_symmetry_Int_Tables_number   1
_chemical_formula_structural   Pr2Ga3Cu
_chemical_formula_sum   'Pr2 Ga3 Cu1'
_cell_volume   133.54525159
_cell_formula_units_Z   1
loop_
 _symmetry_equiv_pos_site_id
 _symmetry_equiv_pos_as_xyz
  1  'x, y, z'
loop_
 _atom_site_type_symbol
 _atom_site_label
 _atom_site_symmetry_multiplicity
 _atom_site_fract_x
 _atom_site_fract_y
 _atom_site_fract_z
 _atom_site_occupancy
  Pr  Pr0  1  0.99991609  0.00008391  0.73210982  1
  Pr  Pr1  1  0.00011291  0.99988709  0.26184709  1
  Ga  Ga2  1  0.33329947  0.66670053  0.48294565  1
  Ga  Ga3  1  0.33327343  0.66672657  0.04122013  1
  Ga  Ga4  1  0.66670901  0.33329099  0.95573541  1
  Cu  Cu5  1  0.66668909  0.33331091  0.52614190  1
