# generated using pymatgen
data_Ni6SnSe2
_symmetry_space_group_name_H-M   'P 1'
_cell_length_a   3.69110512
_cell_length_b   3.69110512
_cell_length_c   9.75962965
_cell_angle_alpha   79.09969469
_cell_angle_beta   79.09969469
_cell_angle_gamma   90.00000000
_symmetry_Int_Tables_number   1
_chemical_formula_structural   Ni6SnSe2
_chemical_formula_sum   'Ni6 Sn1 Se2'
_cell_volume   128.12470517
_cell_formula_units_Z   1
loop_
 _symmetry_equiv_pos_site_id
 _symmetry_equiv_pos_as_xyz
  1  'x, y, z'
loop_
 _atom_site_type_symbol
 _atom_site_label
 _atom_site_symmetry_multiplicity
 _atom_site_fract_x
 _atom_site_fract_y
 _atom_site_fract_z
 _atom_site_occupancy
  Ni  Ni0  1  0.49912205  0.49912205  0.00175590  1
  Ni  Ni1  1  0.59982538  0.09982538  0.80034925  1
  Ni  Ni2  1  0.09982538  0.59982538  0.80034925  1
  Ni  Ni3  1  0.39780079  0.89780079  0.20439842  1
  Ni  Ni4  1  0.89780079  0.39780079  0.20439842  1
  Ni  Ni5  1  0.19911449  0.19911449  0.60177103  1
  Sn  Sn6  1  0.99966765  0.99966765  0.00066469  1
  Se  Se7  1  0.68353183  0.68353183  0.63293635  1
  Se  Se8  1  0.32181165  0.32181165  0.35637669  1
