# generated using pymatgen
data_Cu19Se11
_symmetry_space_group_name_H-M   'P 1'
_cell_length_a   4.11183589
_cell_length_b   3.97500795
_cell_length_c   45.94623037
_cell_angle_alpha   59.87983422
_cell_angle_beta   56.25613677
_cell_angle_gamma   62.40345427
_symmetry_Int_Tables_number   1
_chemical_formula_structural   Cu19Se11
_chemical_formula_sum   'Cu19 Se11'
_cell_volume   522.06598994
_cell_formula_units_Z   1
loop_
 _symmetry_equiv_pos_site_id
 _symmetry_equiv_pos_as_xyz
  1  'x, y, z'
loop_
 _atom_site_type_symbol
 _atom_site_label
 _atom_site_symmetry_multiplicity
 _atom_site_fract_x
 _atom_site_fract_y
 _atom_site_fract_z
 _atom_site_occupancy
  Cu  Cu0  1  0.69781194  0.69877416  0.08308563  1
  Cu  Cu1  1  0.70100141  0.77488717  0.15816015  1
  Cu  Cu2  1  0.64729153  0.44176137  0.22353294  1
  Cu  Cu3  1  0.82925919  0.69608539  0.25274786  1
  Cu  Cu4  1  0.74147980  0.73905149  0.34106338  1
  Cu  Cu5  1  0.54670320  0.53519753  0.40891169  1
  Cu  Cu6  1  0.79516842  0.78173061  0.43203090  1
  Cu  Cu7  1  0.76993428  0.76441156  0.52157942  1
  Cu  Cu8  1  0.28673995  0.29203969  0.64845657  1
  Cu  Cu9  1  0.28313753  0.29179406  0.73750231  1
  Cu  Cu10  1  0.79288047  0.79712827  0.60181551  1
  Cu  Cu11  1  0.28660755  0.28609296  0.83646684  1
  Cu  Cu12  1  0.79466668  0.79349195  0.69115693  1
  Cu  Cu13  1  0.23625495  0.24192577  0.94186051  1
  Cu  Cu14  1  0.79246481  0.78436443  0.78892825  1
  Cu  Cu15  1  0.52777362  0.53016216  0.86356349  1
  Cu  Cu16  1  0.76517343  0.77166159  0.88954979  1
  Cu  Cu17  1  0.46348143  0.47124540  0.96985270  1
  Cu  Cu18  1  0.72534776  0.72214445  0.99071686  1
  Se  Se19  1  0.98477860  0.97598381  0.01246692  1
  Se  Se20  1  0.00240172  0.99449758  0.09293257  1
  Se  Se21  1  0.96461735  0.01275143  0.18361857  1
  Se  Se22  1  0.05037806  0.97033582  0.27426183  1
  Se  Se23  1  0.00440216  -0.00191711  0.36263000  1
  Se  Se24  1  0.05218929  0.03687077  0.45266697  1
  Se  Se25  1  0.05253595  0.04309729  0.53660580  1
  Se  Se26  1  0.04802366  0.04770028  0.62439078  1
  Se  Se27  1  0.02138888  0.02876590  0.71858318  1
  Se  Se28  1  0.06390752  0.05110658  0.80628682  1
  Se  Se29  1  0.03419886  0.03285764  0.90857585  1
