# generated using pymatgen
data_Pr4B3O10F
_symmetry_space_group_name_H-M   'P 1'
_cell_length_a   6.65442219
_cell_length_b   8.88133164
_cell_length_c   8.84144602
_cell_angle_alpha   105.82845850
_cell_angle_beta   106.67854593
_cell_angle_gamma   106.38371806
_symmetry_Int_Tables_number   1
_chemical_formula_structural   Pr4B3O10F
_chemical_formula_sum   'Pr8 B6 O20 F2'
_cell_volume   443.23048406
_cell_formula_units_Z   2
loop_
 _symmetry_equiv_pos_site_id
 _symmetry_equiv_pos_as_xyz
  1  'x, y, z'
loop_
 _atom_site_type_symbol
 _atom_site_label
 _atom_site_symmetry_multiplicity
 _atom_site_fract_x
 _atom_site_fract_y
 _atom_site_fract_z
 _atom_site_occupancy
  Pr  Pr0  1  0.66790445  0.83308839  0.19115975  1
  Pr  Pr1  1  0.33209555  0.16691161  0.80884025  1
  Pr  Pr2  1  0.64599596  0.45773040  0.34262005  1
  Pr  Pr3  1  0.35400404  0.54226960  0.65737995  1
  Pr  Pr4  1  0.78549863  0.19702291  0.64090014  1
  Pr  Pr5  1  0.21450137  0.80297709  0.35909986  1
  Pr  Pr6  1  0.00203404  0.23597017  0.14679978  1
  Pr  Pr7  1  0.99796596  0.76402983  0.85320022  1
  B  B8  1  0.25157461  0.49616256  0.01508337  1
  B  B9  1  0.74842539  0.50383744  0.98491663  1
  B  B10  1  0.42719722  0.07173107  0.16622540  1
  B  B11  1  0.57280278  0.92826893  0.83377460  1
  B  B12  1  0.21913487  0.17282785  0.45506883  1
  B  B13  1  0.78086513  0.82717215  0.54493117  1
  O  O14  1  0.70788841  0.86400423  0.92644216  1
  O  O15  1  0.29211159  0.13599577  0.07355784  1
  O  O16  1  0.03623972  0.04297801  0.29393265  1
  O  O17  1  0.96376028  0.95702199  0.70606735  1
  O  O18  1  0.33065069  0.90297350  0.14412059  1
  O  O19  1  0.66934931  0.09702650  0.85587941  1
  O  O20  1  0.37220317  0.09652457  0.53386491  1
  O  O21  1  0.62779683  0.90347543  0.46613509  1
  O  O22  1  0.34403422  0.31961053  0.41818717  1
  O  O23  1  0.65596578  0.68038947  0.58181283  1
  O  O24  1  0.34632548  0.55411428  0.19310974  1
  O  O25  1  0.65367452  0.44588572  0.80689026  1
  O  O26  1  0.09404268  0.32980804  0.92322877  1
  O  O27  1  0.90595732  0.67019196  0.07677123  1
  O  O28  1  0.66000140  0.16422515  0.26531304  1
  O  O29  1  0.33999860  0.83577485  0.73468696  1
  O  O30  1  0.86698995  0.75346808  0.41229178  1
  O  O31  1  0.13301005  0.24653192  0.58770822  1
  O  O32  1  0.32108495  0.60010997  0.93375082  1
  O  O33  1  0.67891505  0.39989003  0.06624918  1
  F  F34  1  0.93213495  0.49361077  0.62542652  1
  F  F35  1  0.06786505  0.50638923  0.37457348  1
