# generated using pymatgen
data_Pr2FeSi2Ru
_symmetry_space_group_name_H-M   'P 1'
_cell_length_a   4.16093722
_cell_length_b   4.16093722
_cell_length_c   7.04771020
_cell_angle_alpha   90.00000000
_cell_angle_beta   90.00000000
_cell_angle_gamma   90.00000000
_symmetry_Int_Tables_number   1
_chemical_formula_structural   Pr2FeSi2Ru
_chemical_formula_sum   'Pr2 Fe1 Si2 Ru1'
_cell_volume   122.01981555
_cell_formula_units_Z   1
loop_
 _symmetry_equiv_pos_site_id
 _symmetry_equiv_pos_as_xyz
  1  'x, y, z'
loop_
 _atom_site_type_symbol
 _atom_site_label
 _atom_site_symmetry_multiplicity
 _atom_site_fract_x
 _atom_site_fract_y
 _atom_site_fract_z
 _atom_site_occupancy
  Pr  Pr0  1  0.75000000  0.75000000  0.31830965  1
  Pr  Pr1  1  0.25000000  0.25000000  0.68169035  1
  Fe  Fe2  1  0.25000000  0.75000000  0.00000000  1
  Si  Si3  1  0.75000000  0.75000000  0.83276267  1
  Si  Si4  1  0.25000000  0.25000000  0.16723733  1
  Ru  Ru5  1  0.75000000  0.25000000  0.00000000  1
