# generated using pymatgen
data_NaY9(Si3O13)2
_symmetry_space_group_name_H-M   'P 1'
_cell_length_a   6.83413988
_cell_length_b   9.45361342
_cell_length_c   9.45357723
_cell_angle_alpha   120.00030480
_cell_angle_beta   89.99997776
_cell_angle_gamma   90.00009775
_symmetry_Int_Tables_number   1
_chemical_formula_structural   NaY9(Si3O13)2
_chemical_formula_sum   'Na1 Y9 Si6 O26'
_cell_volume   528.94093281
_cell_formula_units_Z   1
loop_
 _symmetry_equiv_pos_site_id
 _symmetry_equiv_pos_as_xyz
  1  'x, y, z'
loop_
 _atom_site_type_symbol
 _atom_site_label
 _atom_site_symmetry_multiplicity
 _atom_site_fract_x
 _atom_site_fract_y
 _atom_site_fract_z
 _atom_site_occupancy
  Na  Na0  1  0.49625165  0.66667779  0.33335890  1
  Y  Y1  1  0.74891980  0.23484671  0.00113369  1
  Y  Y2  1  0.74892166  0.99886253  0.23370245  1
  Y  Y3  1  0.74892017  0.76629606  0.76516172  1
  Y  Y4  1  0.25044930  0.76578675  0.00418203  1
  Y  Y5  1  0.25045044  0.99581767  0.76161093  1
  Y  Y6  1  0.25044963  0.23839365  0.23420336  1
  Y  Y7  1  0.99796976  0.33332921  0.66665995  1
  Y  Y8  1  0.50104178  0.33332991  0.66666066  1
  Y  Y9  1  0.00194081  0.66666851  0.33333703  1
  Si  Si10  1  0.74947454  0.97156024  0.59873800  1
  Si  Si11  1  0.74947262  0.40126143  0.37282061  1
  Si  Si12  1  0.74947362  0.62717457  0.02843684  1
  Si  Si13  1  0.24717023  0.02654634  0.39737075  1
  Si  Si14  1  0.24717022  0.60263129  0.62917677  1
  Si  Si15  1  0.24716837  0.37082456  0.97345409  1
  O  O16  1  0.94023269  0.91164527  0.66250478  1
  O  O17  1  0.94022891  0.33749164  0.24913605  1
  O  O18  1  0.94022876  0.75086011  0.08834536  1
  O  O19  1  0.44064991  0.09296133  0.34334692  1
  O  O20  1  0.44064681  0.65665612  0.74961829  1
  O  O21  1  0.44064399  0.25038415  0.90704673  1
  O  O22  1  0.05818527  0.09908252  0.34401643  1
  O  O23  1  0.05818680  0.65598727  0.75506932  1
  O  O24  1  0.05818724  0.24492910  0.90092356  1
  O  O25  1  0.56396464  0.91944821  0.67342549  1
  O  O26  1  0.56396322  0.32657844  0.24601981  1
  O  O27  1  0.56396494  0.75397451  0.08054704  1
  O  O28  1  0.25007435  0.13080463  0.60028739  1
  O  O29  1  0.25007574  0.39971521  0.53051181  1
  O  O30  1  0.25007387  0.46947689  0.86919142  1
  O  O31  1  0.76380070  0.87800178  0.40023870  1
  O  O32  1  0.76379918  0.59975750  0.47776790  1
  O  O33  1  0.76380337  0.52223923  0.12199734  1
  O  O34  1  0.75383508  0.00000765  0.00000055  1
  O  O35  1  0.25061204  0.99999338  0.00000086  1
  O  O36  1  0.74861544  0.17136700  0.67816099  1
  O  O37  1  0.74861659  0.32183303  0.49320222  1
  O  O38  1  0.74861702  0.50678606  0.82862782  1
  O  O39  1  0.23791749  0.83126251  0.31295020  1
  O  O40  1  0.23791814  0.68705412  0.51831520  1
  O  O41  1  0.23791322  0.48169512  0.16874005  1
