# generated using pymatgen
data_Nd2MnRhO6
_symmetry_space_group_name_H-M   'P 1'
_cell_length_a   5.55976476
_cell_length_b   5.85898058
_cell_length_c   7.64082547
_cell_angle_alpha   90.00000000
_cell_angle_beta   91.50254589
_cell_angle_gamma   90.00000000
_symmetry_Int_Tables_number   1
_chemical_formula_structural   Nd2MnRhO6
_chemical_formula_sum   'Nd4 Mn2 Rh2 O12'
_cell_volume   248.81089942
_cell_formula_units_Z   2
loop_
 _symmetry_equiv_pos_site_id
 _symmetry_equiv_pos_as_xyz
  1  'x, y, z'
loop_
 _atom_site_type_symbol
 _atom_site_label
 _atom_site_symmetry_multiplicity
 _atom_site_fract_x
 _atom_site_fract_y
 _atom_site_fract_z
 _atom_site_occupancy
  Nd  Nd0  1  0.51955200  0.56800071  0.24959708  1
  Nd  Nd1  1  0.98044800  0.06800071  0.25040292  1
  Nd  Nd2  1  0.48044800  0.43199929  0.75040292  1
  Nd  Nd3  1  0.01955200  0.93199929  0.74959708  1
  Mn  Mn4  1  -0.00000000  0.50000000  -0.00000000  1
  Mn  Mn5  1  0.50000000  -0.00000000  0.50000000  1
  Rh  Rh6  1  -0.00000000  0.50000000  0.50000000  1
  Rh  Rh7  1  0.50000000  -0.00000000  -0.00000000  1
  O  O8  1  0.39697129  0.96670355  0.25614611  1
  O  O9  1  0.10302871  0.46670355  0.24385389  1
  O  O10  1  0.60302871  0.03329645  0.74385389  1
  O  O11  1  0.89697129  0.53329645  0.75614611  1
  O  O12  1  0.80479348  0.80037442  0.05239218  1
  O  O13  1  0.69520652  0.30037442  0.44760782  1
  O  O14  1  0.19289949  0.19979762  0.54968581  1
  O  O15  1  0.30710051  0.69979762  0.95031419  1
  O  O16  1  0.19520652  0.19962558  0.94760782  1
  O  O17  1  0.30479348  0.69962558  0.55239218  1
  O  O18  1  0.80710051  0.80020238  0.45031419  1
  O  O19  1  0.69289949  0.30020238  0.04968581  1
