# generated using pymatgen
data_Zr27O49
_symmetry_space_group_name_H-M   'P 1'
_cell_length_a   3.63211916
_cell_length_b   3.63211895
_cell_length_c   98.37292505
_cell_angle_alpha   60.10476584
_cell_angle_beta   60.10476808
_cell_angle_gamma   60.00280981
_symmetry_Int_Tables_number   1
_chemical_formula_structural   Zr27O49
_chemical_formula_sum   'Zr27 O49'
_cell_volume   919.12780559
_cell_formula_units_Z   1
loop_
 _symmetry_equiv_pos_site_id
 _symmetry_equiv_pos_as_xyz
  1  'x, y, z'
loop_
 _atom_site_type_symbol
 _atom_site_label
 _atom_site_symmetry_multiplicity
 _atom_site_fract_x
 _atom_site_fract_y
 _atom_site_fract_z
 _atom_site_occupancy
  Zr  Zr0  1  0.99792970  0.99792970  0.00023026  1
  Zr  Zr1  1  0.00716055  0.00716055  0.03623816  1
  Zr  Zr2  1  0.00392863  0.00392863  0.07363307  1
  Zr  Zr3  1  0.99952670  0.99952670  0.11116188  1
  Zr  Zr4  1  0.00924677  0.00924677  0.14711984  1
  Zr  Zr5  1  0.99831584  0.99831584  0.18537188  1
  Zr  Zr6  1  0.00810470  0.00810470  0.22131690  1
  Zr  Zr7  1  0.00312852  0.00312852  0.25890814  1
  Zr  Zr8  1  0.99941968  0.99941968  0.29637407  1
  Zr  Zr9  1  0.00650561  0.00650561  0.33260970  1
  Zr  Zr10  1  0.00186366  0.00186366  0.37016453  1
  Zr  Zr11  1  0.99801094  0.99801094  0.40762837  1
  Zr  Zr12  1  0.00520824  0.00520824  0.44386150  1
  Zr  Zr13  1  0.00035656  0.00035656  0.48144218  1
  Zr  Zr14  1  0.00136824  0.00136824  0.51836652  1
  Zr  Zr15  1  0.00134207  0.00134207  0.55540828  1
  Zr  Zr16  1  0.00118459  0.00118460  0.59245769  1
  Zr  Zr17  1  0.00084430  0.00084430  0.62953305  1
  Zr  Zr18  1  0.00056790  0.00056790  0.66660345  1
  Zr  Zr19  1  0.00073628  0.00073628  0.74066039  1
  Zr  Zr20  1  0.00045647  0.00045647  0.70365417  1
  Zr  Zr21  1  0.00111847  0.00111847  0.77765134  1
  Zr  Zr22  1  0.00123438  0.00123438  0.81467914  1
  Zr  Zr23  1  0.00107971  0.00107971  0.85173287  1
  Zr  Zr24  1  0.00104675  0.00104674  0.88877595  1
  Zr  Zr25  1  0.00033777  0.00033777  0.92588943  1
  Zr  Zr26  1  0.00110736  0.00110736  0.96284246  1
  O  O27  1  0.25127122  0.25127122  0.04615402  1
  O  O28  1  0.75754609  0.75754609  0.02693459  1
  O  O29  1  0.24697886  0.24697886  0.08366778  1
  O  O30  1  0.74760801  0.74760801  0.06507924  1
  O  O31  1  0.73244634  0.73244634  0.10380096  1
  O  O32  1  0.25357564  0.25357564  0.15701283  1
  O  O33  1  0.76076706  0.76076706  0.13769390  1
  O  O34  1  0.73018707  0.73018707  0.17812845  1
  O  O35  1  0.25322152  0.25322152  0.23112303  1
  O  O36  1  0.75959984  0.75959984  0.21189529  1
  O  O37  1  0.24775266  0.24775266  0.26876946  1
  O  O38  1  0.74867339  0.74867339  0.25014810  1
  O  O39  1  0.73304443  0.73304443  0.28892001  1
  O  O40  1  0.25382703  0.25382703  0.34216771  1
  O  O41  1  0.76021919  0.76021919  0.32293991  1
  O  O42  1  0.24806972  0.24806972  0.37984342  1
  O  O43  1  0.74927771  0.74927771  0.36118977  1
  O  O44  1  0.73321559  0.73321559  0.40001235  1
  O  O45  1  0.25532782  0.25532782  0.45311435  1
  O  O46  1  0.24866805  0.24866805  0.49089020  1
  O  O47  1  0.76040723  0.76040723  0.43403031  1
  O  O48  1  0.74938953  0.74938953  0.47229164  1
  O  O49  1  0.24940431  0.24940431  0.52784317  1
  O  O50  1  0.24937312  0.24937312  0.56488444  1
  O  O51  1  0.74989655  0.74989655  0.50926888  1
  O  O52  1  0.74971252  0.74971252  0.54632707  1
  O  O53  1  0.24942132  0.24942132  0.60191510  1
  O  O54  1  0.74987234  0.74987234  0.58334659  1
  O  O55  1  0.24945600  0.24945600  0.63894902  1
  O  O56  1  0.74982236  0.74982236  0.62038802  1
  O  O57  1  0.24945735  0.24945735  0.67598432  1
  O  O58  1  0.74979241  0.74979241  0.65742950  1
  O  O59  1  0.24973972  0.24973972  0.71299118  1
  O  O60  1  0.74983183  0.74983183  0.69446125  1
  O  O61  1  0.25009572  0.25009572  0.74999007  1
  O  O62  1  0.75018627  0.75018627  0.73146070  1
  O  O63  1  0.25014596  0.25014596  0.78702227  1
  O  O64  1  0.75061229  0.75061229  0.76845054  1
  O  O65  1  0.24971201  0.24971201  0.82410885  1
  O  O66  1  0.75057527  0.75057527  0.80549356  1
  O  O67  1  0.24912861  0.24912861  0.86120723  1
  O  O68  1  0.24861135  0.24861135  0.89830397  1
  O  O69  1  0.74991521  0.74991521  0.84260081  1
  O  O70  1  0.74952003  0.74952003  0.87968323  1
  O  O71  1  0.24660569  0.24660569  0.93556497  1
  O  O72  1  0.74874003  0.74874003  0.91680932  1
  O  O73  1  0.24692535  0.24692535  0.97256649  1
  O  O74  1  0.74842746  0.74842746  0.95388087  1
  O  O75  1  0.73281452  0.73281452  0.99265002  1
