# generated using pymatgen
data_Nb4V3FeSe20
_symmetry_space_group_name_H-M   'P 1'
_cell_length_a   3.49155721
_cell_length_b   9.47655991
_cell_length_c   18.77735310
_cell_angle_alpha   86.55993443
_cell_angle_beta   90.00000000
_cell_angle_gamma   90.00000000
_symmetry_Int_Tables_number   1
_chemical_formula_structural   Nb4V3FeSe20
_chemical_formula_sum   'Nb4 V3 Fe1 Se20'
_cell_volume   620.18462085
_cell_formula_units_Z   1
loop_
 _symmetry_equiv_pos_site_id
 _symmetry_equiv_pos_as_xyz
  1  'x, y, z'
loop_
 _atom_site_type_symbol
 _atom_site_label
 _atom_site_symmetry_multiplicity
 _atom_site_fract_x
 _atom_site_fract_y
 _atom_site_fract_z
 _atom_site_occupancy
  Nb  Nb0  1  0.75000000  0.40107243  0.32094416  1
  Nb  Nb1  1  0.75000000  0.90579425  0.81714554  1
  Nb  Nb2  1  0.25000000  0.09198484  0.18390946  1
  Nb  Nb3  1  0.25000000  0.59732686  0.68083518  1
  V  V4  1  0.25000000  0.60753003  0.95209316  1
  V  V5  1  0.75000000  0.39145909  0.04872682  1
  V  V6  1  0.75000000  0.91085305  0.54152122  1
  Fe  Fe7  1  0.25000000  0.09972397  0.45070487  1
  Se  Se8  1  0.25000000  0.57226826  0.38183612  1
  Se  Se9  1  0.25000000  0.07694438  0.87777485  1
  Se  Se10  1  0.75000000  0.92373299  0.12205886  1
  Se  Se11  1  0.75000000  0.42535190  0.62050771  1
  Se  Se12  1  0.25000000  0.19101689  0.32395982  1
  Se  Se13  1  0.25000000  0.69526849  0.81701515  1
  Se  Se14  1  0.75000000  0.30193560  0.18514535  1
  Se  Se15  1  0.75000000  0.80890052  0.67901815  1
  Se  Se16  1  0.25000000  0.57773706  0.25555095  1
  Se  Se17  1  0.25000000  0.08209938  0.75202367  1
  Se  Se18  1  0.75000000  0.91501018  0.24860183  1
  Se  Se19  1  0.75000000  0.41895977  0.74618987  1
  Se  Se20  1  0.75000000  0.27867887  0.45646710  1
  Se  Se21  1  0.75000000  0.80159448  0.95534999  1
  Se  Se22  1  0.25000000  0.19746689  0.04532920  1
  Se  Se23  1  0.25000000  0.70909105  0.54314713  1
  Se  Se24  1  0.75000000  0.94081420  0.41720306  1
  Se  Se25  1  0.75000000  0.42919685  0.91990573  1
  Se  Se26  1  0.25000000  0.57013770  0.08085698  1
  Se  Se27  1  0.25000000  0.07805002  0.57617808  1
