# generated using pymatgen
data_Nb3WS8
_symmetry_space_group_name_H-M   'P 1'
_cell_length_a   3.31735652
_cell_length_b   3.31735674
_cell_length_c   25.55152100
_cell_angle_alpha   90.00000002
_cell_angle_beta   86.27802523
_cell_angle_gamma   119.99999130
_symmetry_Int_Tables_number   1
_chemical_formula_structural   Nb3WS8
_chemical_formula_sum   'Nb3 W1 S8'
_cell_volume   242.83330173
_cell_formula_units_Z   1
loop_
 _symmetry_equiv_pos_site_id
 _symmetry_equiv_pos_as_xyz
  1  'x, y, z'
loop_
 _atom_site_type_symbol
 _atom_site_label
 _atom_site_symmetry_multiplicity
 _atom_site_fract_x
 _atom_site_fract_y
 _atom_site_fract_z
 _atom_site_occupancy
  Nb  Nb0  1  0.99996909  0.99998454  0.00004637  1
  Nb  Nb1  1  0.49997984  0.24998992  0.25003024  1
  Nb  Nb2  1  0.99997036  0.49998518  0.50004446  1
  W  W3  1  0.49993860  0.74996930  0.75009210  1
  S  S4  1  0.87334262  0.43667131  0.68998608  1
  S  S5  1  0.37478802  0.68739401  0.93781797  1
  S  S6  1  0.87480009  0.93740005  0.18779986  1
  S  S7  1  0.37472389  0.18736194  0.43791417  1
  S  S8  1  0.29183400  0.64591700  0.06224900  1
  S  S9  1  0.79174401  0.89587200  0.31238399  1
  S  S10  1  0.29174295  0.14587148  0.56238557  1
  S  S11  1  0.79316654  0.39658327  0.81025019  1
