# generated using pymatgen
data_Nb4Pb3O13
_symmetry_space_group_name_H-M   'P 1'
_cell_length_a   7.60125501
_cell_length_b   7.55657965
_cell_length_c   7.60125501
_cell_angle_alpha   90.00000000
_cell_angle_beta   60.00000000
_cell_angle_gamma   120.19576462
_symmetry_Int_Tables_number   1
_chemical_formula_structural   Nb4Pb3O13
_chemical_formula_sum   'Nb4 Pb3 O13'
_cell_volume   307.81476247
_cell_formula_units_Z   1
loop_
 _symmetry_equiv_pos_site_id
 _symmetry_equiv_pos_as_xyz
  1  'x, y, z'
loop_
 _atom_site_type_symbol
 _atom_site_label
 _atom_site_symmetry_multiplicity
 _atom_site_fract_x
 _atom_site_fract_y
 _atom_site_fract_z
 _atom_site_occupancy
  Nb  Nb0  1  0.49987429  -0.00018856  0.50006285  1
  Nb  Nb1  1  0.50062917  0.50022619  0.49968542  1
  Nb  Nb2  1  -0.00008839  0.50022619  0.00040298  1
  Nb  Nb3  1  -0.00008839  0.50022619  0.49968542  1
  Pb  Pb4  1  0.49520318  0.00389145  0.00239841  1
  Pb  Pb5  1  0.00628986  0.00389145  0.49131173  1
  Pb  Pb6  1  0.00628986  0.00389145  0.00239841  1
  O  O7  1  0.63570053  0.82074525  0.43214973  1
  O  O8  1  0.87760823  0.43244032  0.81119589  1
  O  O9  1  0.25289498  0.82074525  0.81495528  1
  O  O10  1  0.24363621  0.43244032  0.44516791  1
  O  O11  1  0.24363621  0.43244032  0.81119589  1
  O  O12  1  0.25289498  0.82074525  0.43214973  1
  O  O13  1  0.37086334  0.18403833  0.56456833  1
  O  O14  1  0.12334442  0.56837976  0.18832779  1
  O  O15  1  0.74860666  0.18403833  0.18682501  1
  O  O16  1  0.75670755  0.56837976  0.55496466  1
  O  O17  1  0.75670755  0.56837976  0.18832779  1
  O  O18  1  0.74860666  0.18403833  0.56456833  1
  O  O19  1  0.23068311  0.09602467  0.13465844  1
