# generated using pymatgen
data_PrErFe14B
_symmetry_space_group_name_H-M   'P 1'
_cell_length_a   8.75804588
_cell_length_b   8.75804588
_cell_length_c   12.02349619
_cell_angle_alpha   90.00000000
_cell_angle_beta   90.00000000
_cell_angle_gamma   90.00000000
_symmetry_Int_Tables_number   1
_chemical_formula_structural   PrErFe14B
_chemical_formula_sum   'Pr4 Er4 Fe56 B4'
_cell_volume   922.24264853
_cell_formula_units_Z   4
loop_
 _symmetry_equiv_pos_site_id
 _symmetry_equiv_pos_as_xyz
  1  'x, y, z'
loop_
 _atom_site_type_symbol
 _atom_site_label
 _atom_site_symmetry_multiplicity
 _atom_site_fract_x
 _atom_site_fract_y
 _atom_site_fract_z
 _atom_site_occupancy
  Pr  Pr0  1  0.23408353  0.76591647  0.50000000  1
  Pr  Pr1  1  0.76591647  0.23408353  0.50000000  1
  Pr  Pr2  1  0.26591647  0.26591647  0.00000000  1
  Pr  Pr3  1  0.73408353  0.73408353  0.00000000  1
  Er  Er4  1  0.64534295  0.64534295  0.50000000  1
  Er  Er5  1  0.35465705  0.35465705  0.50000000  1
  Er  Er6  1  0.85465705  0.14534295  0.00000000  1
  Er  Er7  1  0.14534295  0.85465705  0.00000000  1
  Fe  Fe8  1  0.93144966  0.72524385  0.37216502  1
  Fe  Fe9  1  0.06855034  0.27475615  0.37216502  1
  Fe  Fe10  1  0.56855034  0.22524385  0.87216502  1
  Fe  Fe11  1  0.43144966  0.77475615  0.87216502  1
  Fe  Fe12  1  0.06855034  0.27475615  0.62783498  1
  Fe  Fe13  1  0.93144966  0.72524385  0.62783498  1
  Fe  Fe14  1  0.43144966  0.77475615  0.12783498  1
  Fe  Fe15  1  0.56855034  0.22524385  0.12783498  1
  Fe  Fe16  1  0.72524385  0.93144966  0.37216502  1
  Fe  Fe17  1  0.27475615  0.06855034  0.37216502  1
  Fe  Fe18  1  0.22524385  0.56855034  0.87216502  1
  Fe  Fe19  1  0.77475615  0.43144966  0.87216502  1
  Fe  Fe20  1  0.27475615  0.06855034  0.62783498  1
  Fe  Fe21  1  0.72524385  0.93144966  0.62783498  1
  Fe  Fe22  1  0.77475615  0.43144966  0.12783498  1
  Fe  Fe23  1  0.22524385  0.56855034  0.12783498  1
  Fe  Fe24  1  0.14060200  0.53524288  0.32414871  1
  Fe  Fe25  1  0.85939800  0.46475712  0.32414871  1
  Fe  Fe26  1  0.35939800  0.03524288  0.82414871  1
  Fe  Fe27  1  0.64060200  0.96475712  0.82414871  1
  Fe  Fe28  1  0.85939800  0.46475712  0.67585129  1
  Fe  Fe29  1  0.14060200  0.53524288  0.67585129  1
  Fe  Fe30  1  0.64060200  0.96475712  0.17585129  1
  Fe  Fe31  1  0.35939800  0.03524288  0.17585129  1
  Fe  Fe32  1  0.53524288  0.14060200  0.32414871  1
  Fe  Fe33  1  0.46475712  0.85939800  0.32414871  1
  Fe  Fe34  1  0.03524288  0.35939800  0.82414871  1
  Fe  Fe35  1  0.96475712  0.64060200  0.82414871  1
  Fe  Fe36  1  0.46475712  0.85939800  0.67585129  1
  Fe  Fe37  1  0.53524288  0.14060200  0.67585129  1
  Fe  Fe38  1  0.96475712  0.64060200  0.17585129  1
  Fe  Fe39  1  0.03524288  0.35939800  0.17585129  1
  Fe  Fe40  1  0.18221459  0.81778541  0.25216124  1
  Fe  Fe41  1  0.81778541  0.18221459  0.25216124  1
  Fe  Fe42  1  0.31778541  0.31778541  0.75216124  1
  Fe  Fe43  1  0.68221459  0.68221459  0.75216124  1
  Fe  Fe44  1  0.81778541  0.18221459  0.74783876  1
  Fe  Fe45  1  0.18221459  0.81778541  0.74783876  1
  Fe  Fe46  1  0.68221459  0.68221459  0.24783876  1
  Fe  Fe47  1  0.31778541  0.31778541  0.24783876  1
  Fe  Fe48  1  0.40350555  0.59649445  0.30050538  1
  Fe  Fe49  1  0.59649445  0.40350555  0.30050538  1
  Fe  Fe50  1  0.09649445  0.09649445  0.80050538  1
  Fe  Fe51  1  0.90350555  0.90350555  0.80050538  1
  Fe  Fe52  1  0.59649445  0.40350555  0.69949462  1
  Fe  Fe53  1  0.40350555  0.59649445  0.69949462  1
  Fe  Fe54  1  0.90350555  0.90350555  0.19949462  1
  Fe  Fe55  1  0.09649445  0.09649445  0.19949462  1
  Fe  Fe56  1  0.50000000  0.50000000  0.11740471  1
  Fe  Fe57  1  0.00000000  -0.00000000  0.61740471  1
  Fe  Fe58  1  0.50000000  0.50000000  0.88259529  1
  Fe  Fe59  1  0.00000000  -0.00000000  0.38259529  1
  Fe  Fe60  1  0.00000000  0.50000000  0.50000000  1
  Fe  Fe61  1  0.50000000  -0.00000000  0.00000000  1
  Fe  Fe62  1  0.50000000  -0.00000000  0.50000000  1
  Fe  Fe63  1  0.00000000  0.50000000  0.00000000  1
  B  B64  1  0.87689430  0.87689430  0.50000000  1
  B  B65  1  0.12310570  0.12310570  0.50000000  1
  B  B66  1  0.62310570  0.37689430  0.00000000  1
  B  B67  1  0.37689430  0.62310570  0.00000000  1
