# generated using pymatgen
data_NaLaScSbO6
_symmetry_space_group_name_H-M   'P 1'
_cell_length_a   5.68707610
_cell_length_b   5.70402672
_cell_length_c   8.00404688
_cell_angle_alpha   90.00000000
_cell_angle_beta   89.82526046
_cell_angle_gamma   90.00000000
_symmetry_Int_Tables_number   1
_chemical_formula_structural   NaLaScSbO6
_chemical_formula_sum   'Na2 La2 Sc2 Sb2 O12'
_cell_volume   259.64394248
_cell_formula_units_Z   2
loop_
 _symmetry_equiv_pos_site_id
 _symmetry_equiv_pos_as_xyz
  1  'x, y, z'
loop_
 _atom_site_type_symbol
 _atom_site_label
 _atom_site_symmetry_multiplicity
 _atom_site_fract_x
 _atom_site_fract_y
 _atom_site_fract_z
 _atom_site_occupancy
  Na  Na0  1  0.00630182  0.00432626  0.25025089  1
  Na  Na1  1  0.50630182  0.49567374  0.75025089  1
  La  La2  1  0.98530231  0.98966733  0.74985573  1
  La  La3  1  0.48530231  0.51033267  0.24985573  1
  Sc  Sc4  1  0.49874004  0.00100985  0.49773738  1
  Sc  Sc5  1  0.99874004  0.49899015  0.99773738  1
  Sb  Sb6  1  0.99942895  0.49865304  0.50106816  1
  Sb  Sb7  1  0.49942895  0.00134696  0.00106816  1
  O  O8  1  0.90451331  0.49516478  0.25831010  1
  O  O9  1  0.40451331  0.00483522  0.75831010  1
  O  O10  1  0.08149306  0.50724504  0.74381581  1
  O  O11  1  0.58149306  0.99275496  0.24381581  1
  O  O12  1  0.25776565  0.26994270  0.45158186  1
  O  O13  1  0.75776565  0.23005730  0.95158186  1
  O  O14  1  0.75389578  0.74207964  0.54739781  1
  O  O15  1  0.25389578  0.75792036  0.04739781  1
  O  O16  1  0.23927326  0.74843280  0.45211381  1
  O  O17  1  0.73927326  0.75156720  0.95211381  1
  O  O18  1  0.77328581  0.23876475  0.54786845  1
  O  O19  1  0.27328581  0.26123525  0.04786845  1
