# generated using pymatgen
data_Nd5Ti4GaO17
_symmetry_space_group_name_H-M   'P 1'
_cell_length_a   5.50858057
_cell_length_b   7.73641371
_cell_length_c   32.04984737
_cell_angle_alpha   83.18546375
_cell_angle_beta   90.00000000
_cell_angle_gamma   90.00000000
_symmetry_Int_Tables_number   1
_chemical_formula_structural   Nd5Ti4GaO17
_chemical_formula_sum   'Nd20 Ti16 Ga4 O68'
_cell_volume   1356.20820568
_cell_formula_units_Z   4
loop_
 _symmetry_equiv_pos_site_id
 _symmetry_equiv_pos_as_xyz
  1  'x, y, z'
loop_
 _atom_site_type_symbol
 _atom_site_label
 _atom_site_symmetry_multiplicity
 _atom_site_fract_x
 _atom_site_fract_y
 _atom_site_fract_z
 _atom_site_occupancy
  Nd  Nd0  1  0.98627133  0.30186339  0.91795801  1
  Nd  Nd1  1  0.47993662  0.20531689  0.58098540  1
  Nd  Nd2  1  0.02006338  0.70531689  0.08098540  1
  Nd  Nd3  1  0.51372867  0.80186339  0.41795801  1
  Nd  Nd4  1  0.00175042  0.79373682  0.90299314  1
  Nd  Nd5  1  0.49644395  0.70340083  0.59599984  1
  Nd  Nd6  1  0.00355605  0.20340083  0.09599984  1
  Nd  Nd7  1  0.49824958  0.29373682  0.40299314  1
  Nd  Nd8  1  0.51071591  0.25132740  0.00602332  1
  Nd  Nd9  1  0.01028423  0.24701632  0.49133079  1
  Nd  Nd10  1  0.48971577  0.74701632  0.99133079  1
  Nd  Nd11  1  0.98928409  0.75132740  0.50602332  1
  Nd  Nd12  1  0.87351025  0.13568331  0.72154631  1
  Nd  Nd13  1  0.38030466  0.36641216  0.77982773  1
  Nd  Nd14  1  0.11969534  0.86641216  0.27982773  1
  Nd  Nd15  1  0.62648975  0.63568331  0.22154631  1
  Nd  Nd16  1  0.93536412  0.65482179  0.70335011  1
  Nd  Nd17  1  0.45161984  0.84022787  0.80174683  1
  Nd  Nd18  1  0.04838016  0.34022787  0.30174683  1
  Nd  Nd19  1  0.56463588  0.15482179  0.20335011  1
  Ti  Ti20  1  0.49016447  0.04731495  0.90623385  1
  Ti  Ti21  1  0.98076001  0.45476782  0.59284125  1
  Ti  Ti22  1  0.51923999  0.95476782  0.09284125  1
  Ti  Ti23  1  0.00983553  0.54731495  0.40623385  1
  Ti  Ti24  1  0.94905121  0.58258902  0.82213770  1
  Ti  Ti25  1  0.43333085  0.91465924  0.67917855  1
  Ti  Ti26  1  0.06666915  0.41465924  0.17917855  1
  Ti  Ti27  1  0.55094879  0.08258902  0.32213770  1
  Ti  Ti28  1  0.95125517  0.09459168  0.82320202  1
  Ti  Ti29  1  0.44128693  0.40224840  0.67664840  1
  Ti  Ti30  1  0.05871307  0.90224840  0.17664840  1
  Ti  Ti31  1  0.54874483  0.59459168  0.32320202  1
  Ti  Ti32  1  0.00336135  0.99855595  0.99892840  1
  Ti  Ti33  1  0.49663865  0.49855595  0.49892840  1
  Ti  Ti34  1  0.98286771  0.95045844  0.59368870  1
  Ti  Ti35  1  0.51713229  0.45045844  0.09368870  1
  Ga  Ga36  1  0.00203864  0.50042353  0.99958120  1
  Ga  Ga37  1  0.49796136  0.00042353  0.49958120  1
  Ga  Ga38  1  0.48483746  0.54778939  0.90543386  1
  Ga  Ga39  1  0.01516254  0.04778939  0.40543386  1
  O  O40  1  0.08216001  0.24640249  0.99704933  1
  O  O41  1  0.58718011  0.25062242  0.50460223  1
  O  O42  1  0.91281989  0.75062242  0.00460223  1
  O  O43  1  0.41783999  0.74640249  0.49704933  1
  O  O44  1  0.21459874  0.56790903  0.94852742  1
  O  O45  1  0.71778645  0.93130283  0.55186328  1
  O  O46  1  0.78221355  0.43130283  0.05186328  1
  O  O47  1  0.28540126  0.06790903  0.44852742  1
  O  O48  1  0.15207551  0.63424202  0.77333603  1
  O  O49  1  0.64289413  0.87018308  0.72634232  1
  O  O50  1  0.85710587  0.37018308  0.22634232  1
  O  O51  1  0.34792449  0.13424202  0.27333603  1
  O  O52  1  0.28076982  0.93363847  0.03585392  1
  O  O53  1  0.78310804  0.55959102  0.46482340  1
  O  O54  1  0.71689196  0.05959102  0.96482340  1
  O  O55  1  0.21923018  0.43363847  0.53585392  1
  O  O56  1  0.16851051  0.08738373  0.77917472  1
  O  O57  1  0.66237107  0.40834635  0.72057059  1
  O  O58  1  0.83762893  0.90834635  0.22057059  1
  O  O59  1  0.33148949  0.58738373  0.27917472  1
  O  O60  1  0.41974343  0.28864008  0.91292243  1
  O  O61  1  0.92000006  0.20524882  0.58986406  1
  O  O62  1  0.57999994  0.70524882  0.08986406  1
  O  O63  1  0.08025657  0.78864008  0.41292243  1
  O  O64  1  0.14397284  0.92640331  0.70283242  1
  O  O65  1  0.66326306  0.57355146  0.79530968  1
  O  O66  1  0.83673694  0.07355146  0.29530968  1
  O  O67  1  0.35602716  0.42640331  0.20283242  1
  O  O68  1  0.28188816  0.52790116  0.03589288  1
  O  O69  1  0.78111961  0.97319848  0.46470688  1
  O  O70  1  0.71888039  0.47319848  0.96470688  1
  O  O71  1  0.21811184  0.02790116  0.53589288  1
  O  O72  1  0.88301439  0.83895930  0.82903863  1
  O  O73  1  0.39703116  0.66513822  0.67117707  1
  O  O74  1  0.10296884  0.16513822  0.17117707  1
  O  O75  1  0.61698561  0.33895930  0.32903863  1
  O  O76  1  0.78697690  0.49149923  0.63695552  1
  O  O77  1  0.28710844  0.01256512  0.86270869  1
  O  O78  1  0.21289156  0.51256512  0.36270869  1
  O  O79  1  0.71302310  0.99149923  0.13695552  1
  O  O80  1  0.57317266  0.79643920  0.91828805  1
  O  O81  1  0.07330203  0.70846292  0.58051949  1
  O  O82  1  0.42669797  0.20846292  0.08051949  1
  O  O83  1  0.92682734  0.29643920  0.41828805  1
  O  O84  1  0.30010850  0.96040528  0.61878231  1
  O  O85  1  0.80041351  0.53815976  0.88056427  1
  O  O86  1  0.69958649  0.03815976  0.38056427  1
  O  O87  1  0.19989150  0.46040528  0.11878231  1
  O  O88  1  0.21008249  0.98010450  0.95028156  1
  O  O89  1  0.71535826  0.51779830  0.55074311  1
  O  O90  1  0.78464174  0.01779830  0.05074311  1
  O  O91  1  0.28991751  0.48010450  0.45028156  1
  O  O92  1  0.79089060  0.86970187  0.63794831  1
  O  O93  1  0.27315912  0.63360002  0.85930756  1
  O  O94  1  0.22684088  0.13360002  0.35930756  1
  O  O95  1  0.70910940  0.36970187  0.13794831  1
  O  O96  1  0.17415168  0.37227380  0.71117238  1
  O  O97  1  0.68054913  0.13252848  0.78939840  1
  O  O98  1  0.81945087  0.63252848  0.28939840  1
  O  O99  1  0.32584832  0.87227380  0.21117238  1
  O  O100  1  0.04351311  0.33554049  0.82945816  1
  O  O101  1  0.53400400  0.16393016  0.67017724  1
  O  O102  1  0.96599600  0.66393016  0.17017724  1
  O  O103  1  0.45648689  0.83554049  0.32945816  1
  O  O104  1  0.29784193  0.41854773  0.61884469  1
  O  O105  1  0.80163910  0.08657569  0.88132760  1
  O  O106  1  0.69836090  0.58657569  0.38132760  1
  O  O107  1  0.20215807  0.91854773  0.11884469  1
