# generated using pymatgen
data_Pr3Ni7P5
_symmetry_space_group_name_H-M   'P 1'
_cell_length_a   3.94739508
_cell_length_b   16.64456170
_cell_length_c   16.62491881
_cell_angle_alpha   59.78985345
_cell_angle_beta   90.00000000
_cell_angle_gamma   90.00000000
_symmetry_Int_Tables_number   1
_chemical_formula_structural   Pr3Ni7P5
_chemical_formula_sum   'Pr12 Ni28 P20'
_cell_volume   943.95126246
_cell_formula_units_Z   4
loop_
 _symmetry_equiv_pos_site_id
 _symmetry_equiv_pos_as_xyz
  1  'x, y, z'
loop_
 _atom_site_type_symbol
 _atom_site_label
 _atom_site_symmetry_multiplicity
 _atom_site_fract_x
 _atom_site_fract_y
 _atom_site_fract_z
 _atom_site_occupancy
  Pr  Pr0  1  0.75000000  0.88117095  0.76647578  1
  Pr  Pr1  1  0.75000000  0.35284218  0.88090484  1
  Pr  Pr2  1  0.75000000  0.76379108  0.35618240  1
  Pr  Pr3  1  0.25000000  0.12086860  0.23380598  1
  Pr  Pr4  1  0.25000000  0.64648678  0.11833981  1
  Pr  Pr5  1  0.25000000  0.23363712  0.64689918  1
  Pr  Pr6  1  0.75000000  0.61709962  0.82439985  1
  Pr  Pr7  1  0.75000000  0.55844059  0.61738977  1
  Pr  Pr8  1  0.75000000  0.82505973  0.55886709  1
  Pr  Pr9  1  0.25000000  0.38378894  0.17511228  1
  Pr  Pr10  1  0.25000000  0.44078383  0.38397959  1
  Pr  Pr11  1  0.25000000  0.17495917  0.44103019  1
  Ni  Ni12  1  0.75000000  0.06738787  0.76038967  1
  Ni  Ni13  1  0.75000000  0.17286897  0.06720837  1
  Ni  Ni14  1  0.75000000  0.75197746  0.17353612  1
  Ni  Ni15  1  0.25000000  0.92485700  0.24953320  1
  Ni  Ni16  1  0.25000000  0.82536841  0.92672897  1
  Ni  Ni17  1  0.25000000  0.24932703  0.82574627  1
  Ni  Ni18  1  0.75000000  0.70174546  0.95607096  1
  Ni  Ni19  1  0.75000000  0.34127842  0.70172682  1
  Ni  Ni20  1  0.75000000  0.95799930  0.34262070  1
  Ni  Ni21  1  0.25000000  0.30441465  0.04328985  1
  Ni  Ni22  1  0.25000000  0.65609206  0.30124139  1
  Ni  Ni23  1  0.25000000  0.04347527  0.65284255  1
  Ni  Ni24  1  0.75000000  0.28260406  0.49143649  1
  Ni  Ni25  1  0.75000000  0.22588606  0.28241661  1
  Ni  Ni26  1  0.75000000  0.49056361  0.22606649  1
  Ni  Ni27  1  0.25000000  0.71583511  0.50981080  1
  Ni  Ni28  1  0.25000000  0.77438948  0.71720757  1
  Ni  Ni29  1  0.25000000  0.50881646  0.77445685  1
  Ni  Ni30  1  0.75000000  0.01270485  0.55221297  1
  Ni  Ni31  1  0.75000000  0.43522594  0.01222049  1
  Ni  Ni32  1  0.75000000  0.55283250  0.43394719  1
  Ni  Ni33  1  0.25000000  0.98660609  0.44691385  1
  Ni  Ni34  1  0.25000000  0.56473451  0.98678121  1
  Ni  Ni35  1  0.25000000  0.44608626  0.56761014  1
  Ni  Ni36  1  0.75000000  0.91101744  0.14620841  1
  Ni  Ni37  1  0.25000000  0.05722464  0.09145758  1
  Ni  Ni38  1  0.25000000  0.85102462  0.05910917  1
  Ni  Ni39  1  0.25000000  0.09543018  0.84411298  1
  P  P40  1  0.75000000  0.33280183  0.33361038  1
  P  P41  1  0.25000000  0.66673280  0.66683651  1
  P  P42  1  0.75000000  0.18026556  0.80450517  1
  P  P43  1  0.75000000  0.02036605  0.18078122  1
  P  P44  1  0.75000000  0.80444656  0.01400690  1
  P  P45  1  0.25000000  0.81770522  0.20238752  1
  P  P46  1  0.25000000  0.98248863  0.81391981  1
  P  P47  1  0.25000000  0.20379288  0.98308215  1
  P  P48  1  0.75000000  0.39090668  0.53874475  1
  P  P49  1  0.75000000  0.07035242  0.39114240  1
  P  P50  1  0.75000000  0.53845802  0.07028022  1
  P  P51  1  0.25000000  0.60702624  0.46318537  1
  P  P52  1  0.25000000  0.92980511  0.60865655  1
  P  P53  1  0.25000000  0.46222526  0.92892953  1
  P  P54  1  0.75000000  0.12606289  0.59683242  1
  P  P55  1  0.75000000  0.27727512  0.12601932  1
  P  P56  1  0.75000000  0.59527545  0.27704774  1
  P  P57  1  0.25000000  0.87226849  0.40506896  1
  P  P58  1  0.25000000  0.72235763  0.87370210  1
  P  P59  1  0.25000000  0.40468487  0.72297055  1
