# generated using pymatgen
data_NaTi2BiO6
_symmetry_space_group_name_H-M   'P 1'
_cell_length_a   4.23080918
_cell_length_b   5.47688361
_cell_length_c   5.47688361
_cell_angle_alpha   89.35560614
_cell_angle_beta   90.00000000
_cell_angle_gamma   90.00000000
_symmetry_Int_Tables_number   1
_chemical_formula_structural   NaTi2BiO6
_chemical_formula_sum   'Na1 Ti2 Bi1 O6'
_cell_volume   126.90040069
_cell_formula_units_Z   1
loop_
 _symmetry_equiv_pos_site_id
 _symmetry_equiv_pos_as_xyz
  1  'x, y, z'
loop_
 _atom_site_type_symbol
 _atom_site_label
 _atom_site_symmetry_multiplicity
 _atom_site_fract_x
 _atom_site_fract_y
 _atom_site_fract_z
 _atom_site_occupancy
  Na  Na0  1  0.43498357  0.00000000  0.50000000  1
  Ti  Ti1  1  0.97720701  0.50000000  0.50000000  1
  Ti  Ti2  1  0.97720701  -0.00000000  -0.00000000  1
  Bi  Bi3  1  0.38863353  0.50000000  -0.00000000  1
  O  O4  1  0.55958510  0.50000000  0.50000000  1
  O  O5  1  0.55958510  0.00000000  0.00000000  1
  O  O6  1  0.06276728  0.26647807  0.23352193  1
  O  O7  1  0.06276728  0.73352193  0.76647807  1
  O  O8  1  0.07863205  0.24930591  0.74930591  1
  O  O9  1  0.07863205  0.75069409  0.25069409  1
