# generated using pymatgen
data_Na2MnFeF7
_symmetry_space_group_name_H-M   'P 1'
_cell_length_a   7.58634098
_cell_length_b   7.58634098
_cell_length_c   18.52389085
_cell_angle_alpha   90.00000000
_cell_angle_beta   90.00000000
_cell_angle_gamma   119.99999276
_symmetry_Int_Tables_number   1
_chemical_formula_structural   Na2MnFeF7
_chemical_formula_sum   'Na12 Mn6 Fe6 F42'
_cell_volume   923.26759804
_cell_formula_units_Z   6
loop_
 _symmetry_equiv_pos_site_id
 _symmetry_equiv_pos_as_xyz
  1  'x, y, z'
loop_
 _atom_site_type_symbol
 _atom_site_label
 _atom_site_symmetry_multiplicity
 _atom_site_fract_x
 _atom_site_fract_y
 _atom_site_fract_z
 _atom_site_occupancy
  Na  Na0  1  0.37087925  0.49745674  0.00174638  1
  Na  Na1  1  0.50254326  0.87342250  0.33508038  1
  Na  Na2  1  0.12657750  0.62912075  0.66841338  1
  Na  Na3  1  0.62692286  0.12617275  0.66643248  1
  Na  Na4  1  0.87382725  0.50075011  0.99976648  1
  Na  Na5  1  0.49924989  0.37307714  0.33309948  1
  Na  Na6  1  0.14419144  0.14219518  0.66807768  1
  Na  Na7  1  0.85780482  0.00199626  0.00141168  1
  Na  Na8  1  0.99800374  0.85580856  0.33474468  1
  Na  Na9  1  0.17759160  0.13535607  0.16975548  1
  Na  Na10  1  0.86464393  0.04223553  0.50308948  1
  Na  Na11  1  0.95776447  0.82240840  0.83642248  1
  Mn  Mn12  1  0.34320035  0.50607623  0.50334171  1
  Mn  Mn13  1  0.49392377  0.83712412  0.83667571  1
  Mn  Mn14  1  0.16287588  0.65679965  0.17000871  1
  Mn  Mn15  1  0.66200730  0.16273422  0.16318024  1
  Mn  Mn16  1  0.83726578  0.49927308  0.49651424  1
  Mn  Mn17  1  0.50072692  0.33799270  0.82984724  1
  Fe  Fe18  1  0.68365314  0.68389116  0.66625734  1
  Fe  Fe19  1  0.31610884  0.99976198  0.99959134  1
  Fe  Fe20  1  0.00023802  0.31634686  0.33292434  1
  Fe  Fe21  1  0.66423738  0.66354355  0.16659384  1
  Fe  Fe22  1  0.33645645  0.00069384  0.49992784  1
  Fe  Fe23  1  0.99930616  0.33576262  0.83326084  1
  F  F24  1  0.37515085  0.95223720  0.20741601  1
  F  F25  1  0.04776280  0.42291365  0.54075001  1
  F  F26  1  0.57708635  0.62484915  0.87408301  1
  F  F27  1  0.61914356  0.56634583  0.45687602  1
  F  F28  1  0.43365417  0.05279773  0.79021002  1
  F  F29  1  0.94720227  0.38085644  0.12354302  1
  F  F30  1  0.86354334  0.44100677  0.38555735  1
  F  F31  1  0.55899323  0.42253658  0.71889135  1
  F  F32  1  0.57746342  0.13645666  0.05222435  1
  F  F33  1  0.13735630  0.57919089  0.28132076  1
  F  F34  1  0.42080911  0.55816541  0.61465476  1
  F  F35  1  0.44183459  0.86264370  0.94798776  1
  F  F36  1  0.62274127  0.18941240  0.52400566  1
  F  F37  1  0.81058760  0.43332888  0.85733966  1
  F  F38  1  0.56667112  0.37725873  0.19067266  1
  F  F39  1  0.37976615  0.56899648  0.14224253  1
  F  F40  1  0.43100352  0.81076967  0.47557653  1
  F  F41  1  0.18923033  0.62023385  0.80890953  1
  F  F42  1  0.30346981  0.93348964  0.60418456  1
  F  F43  1  0.06651036  0.36998017  0.93751856  1
  F  F44  1  0.63001983  0.69653019  0.27085156  1
  F  F45  1  0.69691227  0.62978009  0.06236836  1
  F  F46  1  0.37021991  0.06713218  0.39570236  1
  F  F47  1  0.93286782  0.30308773  0.72903536  1
  F  F48  1  0.14007745  0.19744531  0.28122937  1
  F  F49  1  0.80255469  0.94263214  0.61456337  1
  F  F50  1  0.05736786  0.85992255  0.94789637  1
  F  F51  1  0.86058568  0.05865627  0.38574037  1
  F  F52  1  0.94134373  0.80192942  0.71907437  1
  F  F53  1  0.19807058  0.13941432  0.05240737  1
  F  F54  1  0.05205125  0.81111913  0.47453343  1
  F  F55  1  0.18888087  0.24093212  0.80786743  1
  F  F56  1  0.75906788  0.94794875  0.14120043  1
  F  F57  1  0.95005358  0.76049109  0.19194397  1
  F  F58  1  0.23950891  0.18956250  0.52527797  1
  F  F59  1  0.81043750  0.04994642  0.85861097  1
  F  F60  1  0.43511156  0.24017807  0.93858726  1
  F  F61  1  0.75982193  0.19493349  0.27192126  1
  F  F62  1  0.80506651  0.56488844  0.60525426  1
  F  F63  1  0.56646703  0.80413337  0.72853519  1
  F  F64  1  0.19586663  0.76233366  0.06186919  1
  F  F65  1  0.23766634  0.43353297  0.39520219  1
