# generated using pymatgen
data_NaCaAlSi2O7
_symmetry_space_group_name_H-M   'P 1'
_cell_length_a   5.10815871
_cell_length_b   7.70878839
_cell_length_c   7.70878839
_cell_angle_alpha   90.16341873
_cell_angle_beta   90.00000000
_cell_angle_gamma   90.00000000
_symmetry_Int_Tables_number   1
_chemical_formula_structural   NaCaAlSi2O7
_chemical_formula_sum   'Na2 Ca2 Al2 Si4 O14'
_cell_volume   303.55323401
_cell_formula_units_Z   2
loop_
 _symmetry_equiv_pos_site_id
 _symmetry_equiv_pos_as_xyz
  1  'x, y, z'
loop_
 _atom_site_type_symbol
 _atom_site_label
 _atom_site_symmetry_multiplicity
 _atom_site_fract_x
 _atom_site_fract_y
 _atom_site_fract_z
 _atom_site_occupancy
  Na  Na0  1  0.51490939  0.84136910  0.34136910  1
  Na  Na1  1  0.51490939  0.15863090  0.65863090  1
  Ca  Ca2  1  0.48733975  0.66445253  0.83554747  1
  Ca  Ca3  1  0.48733975  0.33554747  0.16445253  1
  Al  Al4  1  0.00075486  0.50000000  0.50000000  1
  Al  Al5  1  0.00075486  0.00000000  -0.00000000  1
  Si  Si6  1  0.95400558  0.64172518  0.14172518  1
  Si  Si7  1  0.04547339  0.85718677  0.64281323  1
  Si  Si8  1  0.95400558  0.35827482  0.85827482  1
  Si  Si9  1  0.04547339  0.14281323  0.35718677  1
  O  O10  1  0.26747667  0.63478353  0.13478353  1
  O  O11  1  0.73273000  0.84638518  0.65361482  1
  O  O12  1  0.26747667  0.36521647  0.86521647  1
  O  O13  1  0.73273000  0.15361482  0.34638518  1
  O  O14  1  0.15694458  0.00000000  0.50000000  1
  O  O15  1  0.81776051  0.50000000  -0.00000000  1
  O  O16  1  0.19105859  0.32828631  0.41070068  1
  O  O17  1  0.81392032  0.17504616  0.91795956  1
  O  O18  1  0.19105859  0.67171369  0.58929932  1
  O  O19  1  0.81392032  0.82495384  0.08204044  1
  O  O20  1  0.81392032  0.58204044  0.32495384  1
  O  O21  1  0.19105859  0.91070068  0.82828631  1
  O  O22  1  0.81392032  0.41795956  0.67504616  1
  O  O23  1  0.19105859  0.08929932  0.17171369  1
