# generated using pymatgen
data_BeF2
_symmetry_space_group_name_H-M   'P 1'
_cell_length_a   14.40842457
_cell_length_b   6.93018364
_cell_length_c   7.26715578
_cell_angle_alpha   119.42132923
_cell_angle_beta   103.73625917
_cell_angle_gamma   61.16198337
_symmetry_Int_Tables_number   1
_chemical_formula_structural   BeF2
_chemical_formula_sum   'Be16 F32'
_cell_volume   553.67740981
_cell_formula_units_Z   16
loop_
 _symmetry_equiv_pos_site_id
 _symmetry_equiv_pos_as_xyz
  1  'x, y, z'
loop_
 _atom_site_type_symbol
 _atom_site_label
 _atom_site_symmetry_multiplicity
 _atom_site_fract_x
 _atom_site_fract_y
 _atom_site_fract_z
 _atom_site_occupancy
  Be  Be0  1  0.10738053  0.05075949  0.10882909  1
  Be  Be1  1  0.16538968  0.17376007  0.84707342  1
  Be  Be2  1  0.10701648  0.40315272  0.56651654  1
  Be  Be3  1  0.10219652  0.79604437  0.48560766  1
  Be  Be4  1  0.39749209  0.20605763  0.51726228  1
  Be  Be5  1  0.39368590  0.59403360  0.43282913  1
  Be  Be6  1  0.33349806  0.83027187  0.15643287  1
  Be  Be7  1  0.39208854  0.95154750  0.89211981  1
  Be  Be8  1  0.60150946  -0.00206368  0.01514675  1
  Be  Be9  1  0.60748459  0.38294338  0.93545874  1
  Be  Be10  1  0.66680865  0.49347158  0.65382271  1
  Be  Be11  1  0.60682950  0.73800721  0.39441568  1
  Be  Be12  1  0.89271778  0.26186069  0.60395877  1
  Be  Be13  1  0.83228178  0.50283956  0.33912470  1
  Be  Be14  1  0.89284130  0.61870082  0.06476168  1
  Be  Be15  1  0.89914605  0.99925784  0.98344492  1
  F  F16  1  0.09548022  0.22715657  0.01632604  1
  F  F17  1  0.09941660  0.20425813  0.35937338  1
  F  F18  1  0.11080753  0.37836701  0.76264644  1
  F  F19  1  0.10943938  0.61801775  0.57906401  1
  F  F20  1  0.27674063  0.15571988  0.93697800  1
  F  F21  1  0.13941272  0.66287540  0.26822523  1
  F  F22  1  0.48122210  0.03426583  -0.02711325  1
  F  F23  1  0.17468162  0.92935742  0.64871391  1
  F  F24  1  0.32418615  0.07313702  0.35752961  1
  F  F25  1  0.01821630  0.96875334  0.02698751  1
  F  F26  1  0.35996730  0.34724670  0.73485577  1
  F  F27  1  0.22291360  0.84790351  0.06328072  1
  F  F28  1  0.39311345  0.37670979  0.41783729  1
  F  F29  1  0.38833375  0.62341017  0.23837757  1
  F  F30  1  0.40082261  0.79294435  0.64237137  1
  F  F31  1  0.60921066  0.16453135  0.92386933  1
  F  F32  1  0.40388823  0.77922894  -0.01105114  1
  F  F33  1  0.63752214  0.05784857  0.23355646  1
  F  F34  1  0.61155616  0.39886587  0.73832996  1
  F  F35  1  0.59649655  0.58336444  0.48657616  1
  F  F36  1  0.67593819  0.71904100  0.85414546  1
  F  F37  1  0.59858988  0.59869130  0.14358287  1
  F  F38  1  0.77717023  0.28989524  0.55962732  1
  F  F39  1  0.98249737  0.00175430  0.52482349  1
  F  F40  1  0.72265451  0.70725937  0.43849852  1
  F  F41  1  0.90224800  0.40549451  0.85525202  1
  F  F42  1  0.82323104  0.27740078  0.13906268  1
  F  F43  1  0.90238742  0.40861748  0.50364052  1
  F  F44  1  0.51704222  -0.00194966  0.47967019  1
  F  F45  1  0.88842544  0.59878382  0.25877629  1
  F  F46  1  0.86457619  0.93021579  0.76485185  1
  F  F47  1  0.89344492  0.84018940  0.08452969  1
