# generated using pymatgen
data_Na3EuTi2Nb2O12
_symmetry_space_group_name_H-M   'P 1'
_cell_length_a   5.50309573
_cell_length_b   5.58636029
_cell_length_c   7.83041539
_cell_angle_alpha   90.06109300
_cell_angle_beta   89.95550270
_cell_angle_gamma   90.23106131
_symmetry_Int_Tables_number   1
_chemical_formula_structural   Na3EuTi2Nb2O12
_chemical_formula_sum   'Na3 Eu1 Ti2 Nb2 O12'
_cell_volume   240.72262052
_cell_formula_units_Z   1
loop_
 _symmetry_equiv_pos_site_id
 _symmetry_equiv_pos_as_xyz
  1  'x, y, z'
loop_
 _atom_site_type_symbol
 _atom_site_label
 _atom_site_symmetry_multiplicity
 _atom_site_fract_x
 _atom_site_fract_y
 _atom_site_fract_z
 _atom_site_occupancy
  Na  Na0  1  0.50335470  0.51563096  0.25149536  1
  Na  Na1  1  0.99717368  0.01328196  0.25045907  1
  Na  Na2  1  0.49300037  0.46959617  0.74999881  1
  Eu  Eu3  1  0.00217827  0.95741734  0.74996964  1
  Ti  Ti4  1  0.50258425  0.98359087  0.99254260  1
  Ti  Ti5  1  0.99192016  0.48192504  0.50621100  1
  Nb  Nb6  1  0.49959277  0.99005081  0.48804091  1
  Nb  Nb7  1  0.99656579  0.48387182  0.01309893  1
  O  O8  1  0.79162012  0.80077107  0.01907339  1
  O  O9  1  0.71797315  0.29415186  0.46707197  1
  O  O10  1  0.20727629  0.21745132  0.54078324  1
  O  O11  1  0.28165582  0.73329925  0.95467826  1
  O  O12  1  0.21049323  0.21444381  0.95864825  1
  O  O13  1  0.27779740  0.73059140  0.54458821  1
  O  O14  1  0.79448564  0.79641450  0.47858652  1
  O  O15  1  0.71174518  0.29060543  0.03533889  1
  O  O16  1  0.43828736  0.98525143  0.24560101  1
  O  O17  1  0.07133733  0.49794819  0.25370939  1
  O  O18  1  0.57607247  0.02533592  0.75295768  1
  O  O19  1  0.93488604  0.51837086  0.74714687  1
