# generated using pymatgen
data_Mn9Al4V3
_symmetry_space_group_name_H-M   'P 1'
_cell_length_a   4.10888940
_cell_length_b   4.10888940
_cell_length_c   13.62111729
_cell_angle_alpha   90.00000000
_cell_angle_beta   81.32508859
_cell_angle_gamma   120.00000000
_symmetry_Int_Tables_number   1
_chemical_formula_structural   Mn9Al4V3
_chemical_formula_sum   'Mn9 Al4 V3'
_cell_volume   196.11182312
_cell_formula_units_Z   1
loop_
 _symmetry_equiv_pos_site_id
 _symmetry_equiv_pos_as_xyz
  1  'x, y, z'
loop_
 _atom_site_type_symbol
 _atom_site_label
 _atom_site_symmetry_multiplicity
 _atom_site_fract_x
 _atom_site_fract_y
 _atom_site_fract_z
 _atom_site_occupancy
  Mn  Mn0  1  0.99994063  0.49997031  0.50008906  1
  Mn  Mn1  1  0.49990214  0.74995107  0.75014679  1
  Mn  Mn2  1  0.99949980  0.99974990  0.00075030  1
  Mn  Mn3  1  0.50042405  0.25021202  0.24936393  1
  Mn  Mn4  1  0.25009786  0.12504893  0.62485321  1
  Mn  Mn5  1  0.75005937  0.37502969  0.87491094  1
  Mn  Mn6  1  0.24957595  0.62478798  0.12563607  1
  Mn  Mn7  1  0.75050020  0.87525010  0.37424970  1
  Mn  Mn8  1  0.87500000  0.93750000  0.18750000  1
  Al  Al9  1  0.62508661  0.81254330  0.56237009  1
  Al  Al10  1  0.12491339  0.06245670  0.81262991  1
  Al  Al11  1  0.62397717  0.31198858  0.06403425  1
  Al  Al12  1  0.12602283  0.56301142  0.31096575  1
  V  V13  1  0.37573604  0.18786802  0.43639594  1
  V  V14  1  0.87500000  0.43750000  0.68750000  1
  V  V15  1  0.37426396  0.68713198  0.93860406  1
