# generated using pymatgen
data_Na(Nb3Se4)2
_symmetry_space_group_name_H-M   'P 1'
_cell_length_a   3.52821405
_cell_length_b   10.10011312
_cell_length_c   10.09971608
_cell_angle_alpha   120.00062154
_cell_angle_beta   89.99922124
_cell_angle_gamma   90.00055894
_symmetry_Int_Tables_number   1
_chemical_formula_structural   Na(Nb3Se4)2
_chemical_formula_sum   'Na1 Nb6 Se8'
_cell_volume   311.68667777
_cell_formula_units_Z   1
loop_
 _symmetry_equiv_pos_site_id
 _symmetry_equiv_pos_as_xyz
  1  'x, y, z'
loop_
 _atom_site_type_symbol
 _atom_site_label
 _atom_site_symmetry_multiplicity
 _atom_site_fract_x
 _atom_site_fract_y
 _atom_site_fract_z
 _atom_site_occupancy
  Na  Na0  1  0.50000000  0.00000000  -0.00000000  1
  Nb  Nb1  1  0.74975973  0.38152979  0.89394520  1
  Nb  Nb2  1  0.74976996  0.10605300  0.48758556  1
  Nb  Nb3  1  0.74976353  0.51242560  0.61845802  1
  Nb  Nb4  1  0.25024027  0.61847021  0.10605480  1
  Nb  Nb5  1  0.25023004  0.89394700  0.51241444  1
  Nb  Nb6  1  0.25023647  0.48757440  0.38154198  1
  Se  Se7  1  0.75068562  0.05912027  0.72141390  1
  Se  Se8  1  0.75068049  0.27856952  0.33769288  1
  Se  Se9  1  0.75067932  0.66226900  0.94090066  1
  Se  Se10  1  0.24931438  0.94087973  0.27858610  1
  Se  Se11  1  0.24931951  0.72143048  0.66230712  1
  Se  Se12  1  0.24932068  0.33773100  0.05909934  1
  Se  Se13  1  0.74998246  0.66666137  0.33332165  1
  Se  Se14  1  0.25001754  0.33333863  0.66667835  1
