# generated using pymatgen
data_MnZnCdTe3
_symmetry_space_group_name_H-M   'P 1'
_cell_length_a   4.50817419
_cell_length_b   10.09097565
_cell_length_c   4.51983523
_cell_angle_alpha   77.05860382
_cell_angle_beta   90.00000000
_cell_angle_gamma   77.09256954
_symmetry_Int_Tables_number   1
_chemical_formula_structural   MnZnCdTe3
_chemical_formula_sum   'Mn1 Zn1 Cd1 Te3'
_cell_volume   195.05855827
_cell_formula_units_Z   1
loop_
 _symmetry_equiv_pos_site_id
 _symmetry_equiv_pos_as_xyz
  1  'x, y, z'
loop_
 _atom_site_type_symbol
 _atom_site_label
 _atom_site_symmetry_multiplicity
 _atom_site_fract_x
 _atom_site_fract_y
 _atom_site_fract_z
 _atom_site_occupancy
  Mn  Mn0  1  0.67036588  0.65926924  0.67036588  1
  Zn  Zn1  1  0.33082257  0.33835386  0.33082257  1
  Cd  Cd2  1  0.99866975  0.00266050  0.99866975  1
  Te  Te3  1  0.25206641  0.49586718  0.75206641  1
  Te  Te4  1  0.58973046  0.82053807  0.08973046  1
  Te  Te5  1  0.90834493  0.18331114  0.40834493  1
