# generated using pymatgen
data_LuGaAg
_symmetry_space_group_name_H-M   'P 1'
_cell_length_a   4.52976420
_cell_length_b   5.71627167
_cell_length_c   5.68743918
_cell_angle_alpha   94.07756568
_cell_angle_beta   113.46727939
_cell_angle_gamma   66.65812400
_symmetry_Int_Tables_number   1
_chemical_formula_structural   LuGaAg
_chemical_formula_sum   'Lu2 Ga2 Ag2'
_cell_volume   123.37169895
_cell_formula_units_Z   2
loop_
 _symmetry_equiv_pos_site_id
 _symmetry_equiv_pos_as_xyz
  1  'x, y, z'
loop_
 _atom_site_type_symbol
 _atom_site_label
 _atom_site_symmetry_multiplicity
 _atom_site_fract_x
 _atom_site_fract_y
 _atom_site_fract_z
 _atom_site_occupancy
  Lu  Lu0  1  0.75333647  0.70940710  0.21608003  1
  Lu  Lu1  1  0.24666353  0.29059290  0.78391997  1
  Ga  Ga2  1  0.04265107  0.11715278  0.20245491  1
  Ga  Ga3  1  0.95734893  0.88284722  0.79754509  1
  Ag  Ag4  1  0.54842361  0.27855295  0.37540016  1
  Ag  Ag5  1  0.45157639  0.72144705  0.62459984  1
