# generated using pymatgen
data_MnCd4S5
_symmetry_space_group_name_H-M   'P 1'
_cell_length_a   4.17281772
_cell_length_b   12.93421773
_cell_length_c   9.86549135
_cell_angle_alpha   104.80041409
_cell_angle_beta   89.97560065
_cell_angle_gamma   99.31980693
_symmetry_Int_Tables_number   1
_chemical_formula_structural   MnCd4S5
_chemical_formula_sum   'Mn2 Cd8 S10'
_cell_volume   507.53194365
_cell_formula_units_Z   2
loop_
 _symmetry_equiv_pos_site_id
 _symmetry_equiv_pos_as_xyz
  1  'x, y, z'
loop_
 _atom_site_type_symbol
 _atom_site_label
 _atom_site_symmetry_multiplicity
 _atom_site_fract_x
 _atom_site_fract_y
 _atom_site_fract_z
 _atom_site_occupancy
  Mn  Mn0  1  0.13058645  0.26132209  0.72283989  1
  Mn  Mn1  1  0.33043513  0.66079536  0.32382613  1
  Cd  Cd2  1  0.16424305  0.32866777  0.15472189  1
  Cd  Cd3  1  0.36271746  0.72558848  0.75341813  1
  Cd  Cd4  1  0.56379954  0.12779227  0.36128950  1
  Cd  Cd5  1  0.76157604  0.52323557  0.95666087  1
  Cd  Cd6  1  0.96255553  0.92524395  0.55249870  1
  Cd  Cd7  1  0.53189053  0.06376729  0.92284227  1
  Cd  Cd8  1  0.73054530  0.46091383  0.52697837  1
  Cd  Cd9  1  0.92857362  0.85704245  0.12746431  1
  S  S10  1  0.09097189  0.18133160  0.91978695  1
  S  S11  1  0.28927548  0.57777358  0.51922323  1
  S  S12  1  0.48822975  0.97582979  0.13107282  1
  S  S13  1  0.68287267  0.36562953  0.72939957  1
  S  S14  1  0.88215757  0.76407882  0.33016009  1
  S  S15  1  0.65418732  0.30873441  0.29582953  1
  S  S16  1  0.85303322  0.70642349  0.89504343  1
  S  S17  1  0.05738957  0.11528835  0.50817545  1
  S  S18  1  0.25840211  0.51704128  0.10696352  1
  S  S19  1  0.45455777  0.90950008  0.69580533  1
