# generated using pymatgen
data_Na26(Ge3Au8)5
_symmetry_space_group_name_H-M   'P 1'
_cell_length_a   12.83093294
_cell_length_b   12.83093294
_cell_length_c   12.83093294
_cell_angle_alpha   69.49014027
_cell_angle_beta   72.13667375
_cell_angle_gamma   110.05267922
_symmetry_Int_Tables_number   1
_chemical_formula_structural   Na26(Ge3Au8)5
_chemical_formula_sum   'Na26 Ge15 Au40'
_cell_volume   1625.13702031
_cell_formula_units_Z   1
loop_
 _symmetry_equiv_pos_site_id
 _symmetry_equiv_pos_as_xyz
  1  'x, y, z'
loop_
 _atom_site_type_symbol
 _atom_site_label
 _atom_site_symmetry_multiplicity
 _atom_site_fract_x
 _atom_site_fract_y
 _atom_site_fract_z
 _atom_site_occupancy
  Na  Na0  1  0.99982691  0.61858720  0.00125693  1
  Na  Na1  1  0.38066350  0.38087781  0.61932807  1
  Na  Na2  1  0.61984413  0.00108384  0.99874307  1
  Na  Na3  1  0.00020588  0.99999158  0.38067193  1
  Na  Na4  1  0.00020588  0.38087781  0.99978570  1
  Na  Na5  1  0.61984413  0.61858720  0.38123971  1
  Na  Na6  1  0.38066350  0.99999158  0.00021430  1
  Na  Na7  1  0.99982691  0.00108384  0.61876029  1
  Na  Na8  1  0.19778757  0.50090531  0.30311774  1
  Na  Na9  1  0.80402305  0.50090531  0.69688226  1
  Na  Na10  1  0.29978200  0.79978200  0.50000000  1
  Na  Na11  1  0.69763537  0.19763537  0.50000000  1
  Na  Na12  1  0.50007950  0.68992754  0.81015196  1
  Na  Na13  1  0.50007950  0.31023145  0.18984804  1
  Na  Na14  1  0.68906301  0.57592006  0.11314295  1
  Na  Na15  1  0.31132176  0.42375829  0.88756347  1
  Na  Na16  1  0.68906301  0.80220596  0.88685705  1
  Na  Na17  1  0.31132176  0.19888523  0.11243653  1
  Na  Na18  1  0.88534379  0.30891891  0.80753294  1
  Na  Na19  1  0.11645185  0.69287672  0.19246706  1
  Na  Na20  1  0.11645185  0.30891891  0.57642488  1
  Na  Na21  1  0.88534379  0.69287672  0.42357512  1
  Na  Na22  1  0.42328299  0.11750911  0.69422612  1
  Na  Na23  1  0.57648318  0.88274567  0.30626249  1
  Na  Na24  1  0.18900816  0.88274567  0.69373751  1
  Na  Na25  1  0.81173523  0.11750911  0.30577388  1
  Ge  Ge26  1  0.79629654  0.48841439  0.30788215  1
  Ge  Ge27  1  0.20363751  0.51436056  0.68927695  1
  Ge  Ge28  1  0.79629654  0.10417869  0.69211785  1
  Ge  Ge29  1  0.20363751  0.89291447  0.31072305  1
  Ge  Ge30  1  0.69777262  0.19787227  0.10454779  1
  Ge  Ge31  1  0.30242006  0.80232041  0.89545221  1
  Ge  Ge32  1  0.30242006  0.19787227  0.49990035  1
  Ge  Ge33  1  0.69777262  0.80232041  0.50009965  1
  Ge  Ge34  1  0.50769991  0.31023202  0.80253211  1
  Ge  Ge35  1  0.49333649  0.68630195  0.19296546  1
  Ge  Ge36  1  0.87926742  0.68630195  0.80703454  1
  Ge  Ge37  1  0.11276413  0.31023202  0.19746789  1
  Ge  Ge38  1  0.90816845  0.40816845  0.50000000  1
  Ge  Ge39  1  0.50211561  0.90968745  0.59242816  1
  Ge  Ge40  1  0.50211561  0.09454377  0.40757184  1
  Au  Au41  1  0.89691352  0.73112070  0.16579282  1
  Au  Au42  1  0.10529956  0.27193277  0.83336679  1
  Au  Au43  1  0.89691352  0.06270634  0.83420718  1
  Au  Au44  1  0.10529956  0.93866634  0.16663321  1
  Au  Au45  1  0.83628974  0.10133556  0.06158564  1
  Au  Au46  1  0.16292120  0.89787538  0.93841436  1
  Au  Au47  1  0.16292120  0.10133556  0.73495419  1
  Au  Au48  1  0.83628974  0.89787538  0.26504581  1
  Au  Au49  1  0.27068296  0.16488499  0.89420203  1
  Au  Au50  1  0.72906204  0.83425962  0.10519757  1
  Au  Au51  1  0.93945719  0.83425962  0.89480243  1
  Au  Au52  1  0.05908701  0.16488499  0.10579797  1
  Au  Au53  1  0.00066252  0.00066252  0.00000000  1
  Au  Au54  1  0.95717967  0.40907776  0.25887214  1
  Au  Au55  1  0.33530909  0.59300349  0.45078902  1
  Au  Au56  1  0.66794990  0.21605181  0.74112786  1
  Au  Au57  1  0.04379251  0.78609811  0.54921098  1
  Au  Au58  1  0.45460233  0.04280230  0.21916749  1
  Au  Au59  1  0.26196979  0.67376982  0.78083251  1
  Au  Au60  1  0.54563781  0.32712294  0.41378788  1
  Au  Au61  1  0.74091082  0.95942569  0.58621212  1
  Au  Au62  1  0.59320584  0.54980410  0.65910207  1
  Au  Au63  1  0.40339530  0.74911665  0.04399700  1
  Au  Au64  1  0.79311365  0.44739230  0.95600300  1
  Au  Au65  1  0.20890616  0.25230790  0.34089793  1
  Au  Au66  1  0.04379251  0.59300349  0.74230560  1
  Au  Au67  1  0.66794990  0.40907776  0.54810191  1
  Au  Au68  1  0.33530909  0.78609811  0.25769440  1
  Au  Au69  1  0.95717967  0.21605181  0.45189809  1
  Au  Au70  1  0.54563781  0.95942569  0.78148513  1
  Au  Au71  1  0.74091082  0.32712294  0.21851487  1
  Au  Au72  1  0.45460233  0.67376982  0.58819997  1
  Au  Au73  1  0.26196979  0.04280230  0.41180003  1
  Au  Au74  1  0.40339530  0.44739230  0.34572135  1
  Au  Au75  1  0.59320584  0.25230790  0.95659826  1
  Au  Au76  1  0.20890616  0.54980410  0.04340174  1
  Au  Au77  1  0.79311365  0.74911665  0.65427865  1
  Au  Au78  1  0.40801369  0.49900312  0.09098942  1
  Au  Au79  1  0.58999254  0.49900312  0.90901058  1
  Au  Au80  1  0.07718899  0.57718899  0.50000000  1
