# generated using pymatgen
data_Mn3Cu(Te2O5)4
_symmetry_space_group_name_H-M   'P 1'
_cell_length_a   8.93867688
_cell_length_b   8.93867688
_cell_length_c   13.03491098
_cell_angle_alpha   90.00000000
_cell_angle_beta   90.00000000
_cell_angle_gamma   90.00000000
_symmetry_Int_Tables_number   1
_chemical_formula_structural   Mn3Cu(Te2O5)4
_chemical_formula_sum   'Mn6 Cu2 Te16 O40'
_cell_volume   1041.48866211
_cell_formula_units_Z   2
loop_
 _symmetry_equiv_pos_site_id
 _symmetry_equiv_pos_as_xyz
  1  'x, y, z'
loop_
 _atom_site_type_symbol
 _atom_site_label
 _atom_site_symmetry_multiplicity
 _atom_site_fract_x
 _atom_site_fract_y
 _atom_site_fract_z
 _atom_site_occupancy
  Mn  Mn0  1  0.25000000  0.25000000  0.50148814  1
  Mn  Mn1  1  0.75000000  0.75000000  0.50148814  1
  Mn  Mn2  1  0.75000000  0.75000000  0.99851186  1
  Mn  Mn3  1  0.25000000  0.25000000  0.99851186  1
  Mn  Mn4  1  0.25000000  0.25000000  0.25000000  1
  Mn  Mn5  1  0.75000000  0.75000000  0.25000000  1
  Cu  Cu6  1  0.75000000  0.75000000  0.75000000  1
  Cu  Cu7  1  0.25000000  0.25000000  0.75000000  1
  Te  Te8  1  0.56380483  0.03735611  0.11538686  1
  Te  Te9  1  0.43619517  0.53735611  0.11538686  1
  Te  Te10  1  0.06380483  0.96264389  0.11538686  1
  Te  Te11  1  0.93619517  0.46264389  0.11538686  1
  Te  Te12  1  0.53414005  0.06923548  0.61863259  1
  Te  Te13  1  0.46585995  0.56923548  0.61863259  1
  Te  Te14  1  0.03414005  0.93076452  0.61863259  1
  Te  Te15  1  0.96585995  0.43076452  0.61863259  1
  Te  Te16  1  0.43076452  0.96585995  0.88136741  1
  Te  Te17  1  0.56923548  0.46585995  0.88136741  1
  Te  Te18  1  0.93076452  0.03414005  0.88136741  1
  Te  Te19  1  0.06923548  0.53414005  0.88136741  1
  Te  Te20  1  0.46264389  0.93619517  0.38461314  1
  Te  Te21  1  0.53735611  0.43619517  0.38461314  1
  Te  Te22  1  0.96264389  0.06380483  0.38461314  1
  Te  Te23  1  0.03735611  0.56380483  0.38461314  1
  O  O24  1  0.10249420  0.17128092  0.13209725  1
  O  O25  1  0.89750580  0.67128092  0.13209725  1
  O  O26  1  0.60249420  0.82871908  0.13209725  1
  O  O27  1  0.39750580  0.32871908  0.13209725  1
  O  O28  1  0.67403138  0.61558623  0.63847541  1
  O  O29  1  0.32596862  0.11558623  0.63847541  1
  O  O30  1  0.17403138  0.38441377  0.63847541  1
  O  O31  1  0.82596862  0.88441377  0.63847541  1
  O  O32  1  0.88441377  0.82596862  0.86152459  1
  O  O33  1  0.11558623  0.32596862  0.86152459  1
  O  O34  1  0.38441377  0.17403138  0.86152459  1
  O  O35  1  0.61558623  0.67403138  0.86152459  1
  O  O36  1  0.32871908  0.39750580  0.36790275  1
  O  O37  1  0.67128092  0.89750580  0.36790275  1
  O  O38  1  0.82871908  0.60249420  0.36790275  1
  O  O39  1  0.17128092  0.10249420  0.36790275  1
  O  O40  1  0.37323519  0.02544030  0.04642224  1
  O  O41  1  0.62676481  0.52544030  0.04642224  1
  O  O42  1  0.87323519  0.97455970  0.04642224  1
  O  O43  1  0.12676481  0.47455970  0.04642224  1
  O  O44  1  0.51615915  0.87942528  0.54939976  1
  O  O45  1  0.48384085  0.37942528  0.54939976  1
  O  O46  1  0.01615915  0.12057472  0.54939976  1
  O  O47  1  0.98384085  0.62057472  0.54939976  1
  O  O48  1  0.62057472  0.98384085  0.95060024  1
  O  O49  1  0.37942528  0.48384085  0.95060024  1
  O  O50  1  0.12057472  0.01615915  0.95060024  1
  O  O51  1  0.87942528  0.51615915  0.95060024  1
  O  O52  1  0.47455970  0.12676481  0.45357776  1
  O  O53  1  0.52544030  0.62676481  0.45357776  1
  O  O54  1  0.97455970  0.87323519  0.45357776  1
  O  O55  1  0.02544030  0.37323519  0.45357776  1
  O  O56  1  0.55364597  0.55364597  0.25000000  1
  O  O57  1  0.44635403  0.05364597  0.25000000  1
  O  O58  1  0.05364597  0.44635403  0.25000000  1
  O  O59  1  0.94635403  0.94635403  0.25000000  1
  O  O60  1  0.04654670  0.04654670  0.75000000  1
  O  O61  1  0.95345330  0.54654670  0.75000000  1
  O  O62  1  0.54654670  0.95345330  0.75000000  1
  O  O63  1  0.45345330  0.45345330  0.75000000  1
