# generated using pymatgen
data_Mg6SiSn2
_symmetry_space_group_name_H-M   'P 1'
_cell_length_a   4.72282625
_cell_length_b   6.66883526
_cell_length_c   8.15439578
_cell_angle_alpha   65.86359082
_cell_angle_beta   73.16672313
_cell_angle_gamma   90.00000000
_symmetry_Int_Tables_number   1
_chemical_formula_structural   Mg6SiSn2
_chemical_formula_sum   'Mg6 Si1 Sn2'
_cell_volume   222.26173524
_cell_formula_units_Z   1
loop_
 _symmetry_equiv_pos_site_id
 _symmetry_equiv_pos_as_xyz
  1  'x, y, z'
loop_
 _atom_site_type_symbol
 _atom_site_label
 _atom_site_symmetry_multiplicity
 _atom_site_fract_x
 _atom_site_fract_y
 _atom_site_fract_z
 _atom_site_occupancy
  Mg  Mg0  1  0.50000000  0.23593452  -0.00000000  1
  Mg  Mg1  1  0.83942686  0.59693373  0.32114527  1
  Mg  Mg2  1  0.16057314  0.91808000  0.67885473  1
  Mg  Mg3  1  0.50000000  0.76406548  -0.00000000  1
  Mg  Mg4  1  0.83942686  0.08192000  0.32114527  1
  Mg  Mg5  1  0.16057314  0.40306627  0.67885473  1
  Si  Si6  1  0.00000000  0.00000000  -0.00000000  1
  Sn  Sn7  1  0.33403070  0.33403070  0.33193760  1
  Sn  Sn8  1  0.66596930  0.66596930  0.66806240  1
