# generated using pymatgen
data_LuGaCoO4
_symmetry_space_group_name_H-M   'P 1'
_cell_length_a   3.42441731
_cell_length_b   3.42441654
_cell_length_c   8.66734959
_cell_angle_alpha   78.60645005
_cell_angle_beta   101.39355167
_cell_angle_gamma   120.00000259
_symmetry_Int_Tables_number   1
_chemical_formula_structural   LuGaCoO4
_chemical_formula_sum   'Lu1 Ga1 Co1 O4'
_cell_volume   85.70117828
_cell_formula_units_Z   1
loop_
 _symmetry_equiv_pos_site_id
 _symmetry_equiv_pos_as_xyz
  1  'x, y, z'
loop_
 _atom_site_type_symbol
 _atom_site_label
 _atom_site_symmetry_multiplicity
 _atom_site_fract_x
 _atom_site_fract_y
 _atom_site_fract_z
 _atom_site_occupancy
  Lu  Lu0  1  0.99851612  0.00148388  0.99554837  1
  Ga  Ga1  1  0.21371866  0.78628134  0.64115599  1
  Co  Co2  1  0.78423439  0.21576561  0.35270318  1
  O  O3  1  0.70523611  0.29476389  0.11570834  1
  O  O4  1  0.28998191  0.71001809  0.86994573  1
  O  O5  1  0.87825838  0.12174162  0.63477515  1
  O  O6  1  0.13645442  0.86354558  0.40936325  1
