# generated using pymatgen
data_Na4AsP(H15O11)2
_symmetry_space_group_name_H-M   'P 1'
_cell_length_a   9.40203972
_cell_length_b   10.53937916
_cell_length_c   11.10782653
_cell_angle_alpha   90.00000000
_cell_angle_beta   90.00000000
_cell_angle_gamma   95.71461269
_symmetry_Int_Tables_number   1
_chemical_formula_structural   Na4AsP(H15O11)2
_chemical_formula_sum   'Na8 As2 P2 H60 O44'
_cell_volume   1095.22277038
_cell_formula_units_Z   2
loop_
 _symmetry_equiv_pos_site_id
 _symmetry_equiv_pos_as_xyz
  1  'x, y, z'
loop_
 _atom_site_type_symbol
 _atom_site_label
 _atom_site_symmetry_multiplicity
 _atom_site_fract_x
 _atom_site_fract_y
 _atom_site_fract_z
 _atom_site_occupancy
  Na  Na0  1  0.64520823  0.47510093  0.39458717  1
  Na  Na1  1  0.14520823  0.97510093  0.10541283  1
  Na  Na2  1  0.35543111  0.52481430  0.60541549  1
  Na  Na3  1  0.85543111  0.02481430  0.89458451  1
  Na  Na4  1  0.63421043  0.47721202  0.10546795  1
  Na  Na5  1  0.13421043  0.97721202  0.39453205  1
  Na  Na6  1  0.36650262  0.52313011  0.89365108  1
  Na  Na7  1  0.86650262  0.02313011  0.60634892  1
  As  As8  1  0.60422689  0.89382416  0.23841653  1
  As  As9  1  0.10422689  0.39382416  0.26158347  1
  P  P10  1  0.39611941  0.10557973  0.76212826  1
  P  P11  1  0.89611941  0.60557973  0.73787174  1
  H  H12  1  0.40673197  0.08356399  0.25315632  1
  H  H13  1  0.90673197  0.58356399  0.24684368  1
  H  H14  1  0.59445652  0.91770419  0.74843986  1
  H  H15  1  0.09445652  0.41770419  0.75156014  1
  H  H16  1  0.39228032  0.49963257  0.25512812  1
  H  H17  1  0.89228032  0.99963257  0.24487188  1
  H  H18  1  0.61345127  0.49568881  0.74426019  1
  H  H19  1  0.11345127  0.99568881  0.75573981  1
  H  H20  1  0.65173176  0.64547958  0.89255997  1
  H  H21  1  0.15173176  0.14547958  0.60744003  1
  H  H22  1  0.35458142  0.35131958  0.10609399  1
  H  H23  1  0.85458142  0.85131958  0.39390601  1
  H  H24  1  0.83775763  0.39844708  0.59245451  1
  H  H25  1  0.33775763  0.89844708  0.90754549  1
  H  H26  1  0.15985482  0.60755162  0.40954850  1
  H  H27  1  0.65985482  0.10755162  0.09045150  1
  H  H28  1  0.46302298  0.86899945  0.05841661  1
  H  H29  1  0.96302298  0.36899945  0.44158339  1
  H  H30  1  0.53251791  0.12945996  0.93222941  1
  H  H31  1  0.03251791  0.62945996  0.56777059  1
  H  H32  1  0.76956982  0.28033257  0.51158633  1
  H  H33  1  0.26956982  0.78033257  0.98841367  1
  H  H34  1  0.22853525  0.72139762  0.49364028  1
  H  H35  1  0.72853525  0.22139762  0.00635972  1
  H  H36  1  0.36317163  0.33303638  0.40970132  1
  H  H37  1  0.86317163  0.83303638  0.09029868  1
  H  H38  1  0.64144426  0.66642493  0.58910672  1
  H  H39  1  0.14144426  0.16642493  0.91089328  1
  H  H40  1  0.46734179  0.64232579  0.27723798  1
  H  H41  1  0.96734179  0.14232579  0.22276202  1
  H  H42  1  0.53026523  0.35538994  0.72647599  1
  H  H43  1  0.03026523  0.85538994  0.77352401  1
  H  H44  1  0.29341977  0.18520554  0.24871551  1
  H  H45  1  0.79341977  0.68520554  0.25128449  1
  H  H46  1  0.70702118  0.81371905  0.75132727  1
  H  H47  1  0.20702118  0.31371905  0.74867273  1
  H  H48  1  0.29472232  0.80992302  0.26769271  1
  H  H49  1  0.79472232  0.30992302  0.23230729  1
  H  H50  1  0.70317950  0.18987442  0.73549347  1
  H  H51  1  0.20317950  0.68987442  0.76450653  1
  H  H52  1  0.58907878  0.71530674  0.00548915  1
  H  H53  1  0.08907878  0.21530674  0.49451085  1
  H  H54  1  0.41090332  0.28307829  0.98961216  1
  H  H55  1  0.91090332  0.78307829  0.51038784  1
  H  H56  1  0.43190420  0.28307231  0.53019298  1
  H  H57  1  0.93190420  0.78307231  0.96980702  1
  H  H58  1  0.56500496  0.71492341  0.47136389  1
  H  H59  1  0.06500496  0.21492341  0.02863611  1
  H  H60  1  0.85372033  0.41180545  0.91957974  1
  H  H61  1  0.35372033  0.91180545  0.58042026  1
  H  H62  1  0.14407096  0.59582937  0.07835469  1
  H  H63  1  0.64407096  0.09582937  0.42164531  1
  H  H64  1  0.89292608  0.37039335  0.05434202  1
  H  H65  1  0.39292608  0.87039335  0.44565798  1
  H  H66  1  0.10349228  0.62780659  0.94154647  1
  H  H67  1  0.60349228  0.12780659  0.55845353  1
  H  H68  1  0.15266585  0.72305910  0.24521798  1
  H  H69  1  0.65266585  0.22305910  0.25478202  1
  H  H70  1  0.84508341  0.27893091  0.75473699  1
  H  H71  1  0.34508341  0.77893091  0.74526301  1
  O  O72  1  0.48383382  0.80621915  0.32886323  1
  O  O73  1  0.98383382  0.30621915  0.17113677  1
  O  O74  1  0.50603284  0.18492228  0.68113927  1
  O  O75  1  0.00603284  0.68492228  0.81886073  1
  O  O76  1  0.81294951  0.38119870  0.99718035  1
  O  O77  1  0.31294951  0.88119870  0.50281965  1
  O  O78  1  0.18410198  0.62117300  0.99856796  1
  O  O79  1  0.68410198  0.12117300  0.50143204  1
  O  O80  1  0.81263196  0.37101387  0.50928805  1
  O  O81  1  0.31263196  0.87101387  0.99071195  1
  O  O82  1  0.18580500  0.63065122  0.49344504  1
  O  O83  1  0.68580500  0.13065122  0.00655496  1
  O  O84  1  0.30279024  0.09243308  0.25080983  1
  O  O85  1  0.80279024  0.59243308  0.24919017  1
  O  O86  1  0.69770083  0.90642998  0.74861531  1
  O  O87  1  0.19770083  0.40642998  0.75138469  1
  O  O88  1  0.77511879  0.85333012  0.25095795  1
  O  O89  1  0.27511879  0.35333012  0.24904205  1
  O  O90  1  0.24286209  0.14332222  0.74719447  1
  O  O91  1  0.74286209  0.64332222  0.75280553  1
  O  O92  1  0.19238530  0.81319025  0.24984642  1
  O  O93  1  0.69238530  0.31319025  0.25015358  1
  O  O94  1  0.80658970  0.18874138  0.75005774  1
  O  O95  1  0.30658970  0.68874138  0.74994226  1
  O  O96  1  0.58790405  0.63268547  0.96385620  1
  O  O97  1  0.08790405  0.13268547  0.53614380  1
  O  O98  1  0.41384989  0.36512860  0.03248223  1
  O  O99  1  0.91384989  0.86512860  0.46751777  1
  O  O100  1  0.59292337  0.05362968  0.25685616  1
  O  O101  1  0.09292337  0.55362968  0.24314384  1
  O  O102  1  0.40426489  0.96011933  0.74862737  1
  O  O103  1  0.90426489  0.46011933  0.75137263  1
  O  O104  1  0.48368530  0.55454661  0.25333113  1
  O  O105  1  0.98368530  0.05454661  0.24666887  1
  O  O106  1  0.51903313  0.44536094  0.74529634  1
  O  O107  1  0.01903313  0.94536094  0.75470366  1
  O  O108  1  0.56454266  0.85553017  0.08510525  1
  O  O109  1  0.06454266  0.35553017  0.41489475  1
  O  O110  1  0.43424498  0.14255959  0.90104233  1
  O  O111  1  0.93424498  0.64255959  0.59895767  1
  O  O112  1  0.42698110  0.35750440  0.47815554  1
  O  O113  1  0.92698110  0.85750440  0.02184446  1
  O  O114  1  0.57416232  0.64096708  0.52361578  1
  O  O115  1  0.07416232  0.14096708  0.97638422  1
