# generated using pymatgen
data_Nd(ZnAs)3
_symmetry_space_group_name_H-M   'P 1'
_cell_length_a   4.20050461
_cell_length_b   4.20677250
_cell_length_c   20.63238234
_cell_angle_alpha   90.00000000
_cell_angle_beta   90.00000000
_cell_angle_gamma   60.18726455
_symmetry_Int_Tables_number   1
_chemical_formula_structural   Nd(ZnAs)3
_chemical_formula_sum   'Nd2 Zn6 As6'
_cell_volume   316.33476717
_cell_formula_units_Z   2
loop_
 _symmetry_equiv_pos_site_id
 _symmetry_equiv_pos_as_xyz
  1  'x, y, z'
loop_
 _atom_site_type_symbol
 _atom_site_label
 _atom_site_symmetry_multiplicity
 _atom_site_fract_x
 _atom_site_fract_y
 _atom_site_fract_z
 _atom_site_occupancy
  Nd  Nd0  1  0.99749824  0.00054843  0.50005338  1
  Nd  Nd1  1  0.99749824  0.00054843  0.99994662  1
  Zn  Zn2  1  0.33239838  0.33488149  0.12825467  1
  Zn  Zn3  1  0.66696299  0.66706720  0.87165073  1
  Zn  Zn4  1  0.66696299  0.66706720  0.62834927  1
  Zn  Zn5  1  0.33239838  0.33488149  0.37174533  1
  Zn  Zn6  1  0.27099182  0.36171283  0.75000000  1
  Zn  Zn7  1  0.63807312  0.63685604  0.25000000  1
  As  As8  1  0.33272409  0.33395390  0.58621297  1
  As  As9  1  0.66504969  0.66801526  0.41391911  1
  As  As10  1  0.66504969  0.66801526  0.08608089  1
  As  As11  1  0.33272409  0.33395390  0.91378703  1
  As  As12  1  0.60105956  0.69909095  0.75000000  1
  As  As13  1  0.30140873  0.29850760  0.25000000  1
