# generated using pymatgen
data_Mg4Se3S
_symmetry_space_group_name_H-M   'P 1'
_cell_length_a   4.19223768
_cell_length_b   4.19223768
_cell_length_c   13.90495719
_cell_angle_alpha   81.32983020
_cell_angle_beta   98.67016980
_cell_angle_gamma   120.00000000
_symmetry_Int_Tables_number   1
_chemical_formula_structural   Mg4Se3S
_chemical_formula_sum   'Mg4 Se3 S1'
_cell_volume   208.40635472
_cell_formula_units_Z   1
loop_
 _symmetry_equiv_pos_site_id
 _symmetry_equiv_pos_as_xyz
  1  'x, y, z'
loop_
 _atom_site_type_symbol
 _atom_site_label
 _atom_site_symmetry_multiplicity
 _atom_site_fract_x
 _atom_site_fract_y
 _atom_site_fract_z
 _atom_site_occupancy
  Mg  Mg0  1  0.99800358  0.00199642  0.99401075  1
  Mg  Mg1  1  0.74974932  0.25025068  0.24924797  1
  Mg  Mg2  1  0.50024564  0.49975436  0.50073692  1
  Mg  Mg3  1  0.25212220  0.74787780  0.75636661  1
  Se  Se4  1  0.06143220  0.93856780  0.18429659  1
  Se  Se5  1  0.81246707  0.18753293  0.43740122  1
  Se  Se6  1  0.56329362  0.43670638  0.68988087  1
  S  S7  1  0.31268636  0.68731364  0.93805907  1
