# generated using pymatgen
data_Gd3NbO7
_symmetry_space_group_name_H-M   'P 1'
_cell_length_a   7.65351418
_cell_length_b   17.92457030
_cell_length_c   9.45530411
_cell_angle_alpha   25.92165653
_cell_angle_beta   35.86478444
_cell_angle_gamma   48.47410902
_symmetry_Int_Tables_number   1
_chemical_formula_structural   Gd3NbO7
_chemical_formula_sum   'Gd6 Nb2 O14'
_cell_volume   321.01965546
_cell_formula_units_Z   2
loop_
 _symmetry_equiv_pos_site_id
 _symmetry_equiv_pos_as_xyz
  1  'x, y, z'
loop_
 _atom_site_type_symbol
 _atom_site_label
 _atom_site_symmetry_multiplicity
 _atom_site_fract_x
 _atom_site_fract_y
 _atom_site_fract_z
 _atom_site_occupancy
  Gd  Gd0  1  0.00462366  0.00682980  0.98073270  1
  Gd  Gd1  1  0.49132370  0.00792064  0.99126105  1
  Gd  Gd2  1  0.44856107  0.24646878  0.96629517  1
  Gd  Gd3  1  0.86546640  0.24670574  0.04789668  1
  Gd  Gd4  1  0.12895346  0.76363493  0.93992924  1
  Gd  Gd5  1  0.56209816  0.76161454  0.01023548  1
  Nb  Nb6  1  0.25196031  0.50712019  0.99523963  1
  Nb  Nb7  1  0.76865652  0.50818930  0.97535431  1
  O  O8  1  0.53227058  0.00271274  0.21216020  1
  O  O9  1  0.33896556  0.29908994  0.21110420  1
  O  O10  1  0.17662374  0.50507472  0.24714855  1
  O  O11  1  0.46845727  0.00236032  0.77701222  1
  O  O12  1  0.97714842  0.13964945  0.38643620  1
  O  O13  1  0.15912570  0.82649866  0.03848688  1
  O  O14  1  0.45667135  0.29852940  0.59359812  1
  O  O15  1  0.84191685  0.48884324  0.22914896  1
  O  O16  1  0.18702636  0.50251923  0.73741754  1
  O  O17  1  0.55387189  0.71034769  0.38176843  1
  O  O18  1  0.04484482  0.82560748  0.65435753  1
  O  O19  1  0.81370519  0.14456978  0.04209620  1
  O  O20  1  0.75560262  0.48968802  0.81374525  1
  O  O21  1  0.66216439  0.71249338  0.77168545  1
