# generated using pymatgen
data_KNa4Cl5
_symmetry_space_group_name_H-M   'P 1'
_cell_length_a   4.12454094
_cell_length_b   9.26082381
_cell_length_c   7.17073229
_cell_angle_alpha   97.35250032
_cell_angle_beta   73.28593545
_cell_angle_gamma   77.13306304
_symmetry_Int_Tables_number   1
_chemical_formula_structural   KNa4Cl5
_chemical_formula_sum   'K1 Na4 Cl5'
_cell_volume   250.27286550
_cell_formula_units_Z   1
loop_
 _symmetry_equiv_pos_site_id
 _symmetry_equiv_pos_as_xyz
  1  'x, y, z'
loop_
 _atom_site_type_symbol
 _atom_site_label
 _atom_site_symmetry_multiplicity
 _atom_site_fract_x
 _atom_site_fract_y
 _atom_site_fract_z
 _atom_site_occupancy
  K  K0  1  0.00000000  0.00000000  0.00000000  1
  Na  Na1  1  0.19728752  0.40235074  0.20307421  1
  Na  Na2  1  0.40284729  0.79610649  0.39819893  1
  Na  Na3  1  0.59715271  0.20389351  0.60180107  1
  Na  Na4  1  0.80271248  0.59764926  0.79692579  1
  Cl  Cl5  1  0.89517474  0.31245930  0.89719121  1
  Cl  Cl6  1  0.10482526  0.68754070  0.10280879  1
  Cl  Cl7  1  0.28129255  0.10992473  0.32749016  1
  Cl  Cl8  1  0.50000000  0.50000000  0.50000000  1
  Cl  Cl9  1  0.71870745  0.89007527  0.67250984  1
