# generated using pymatgen
data_LaCuPbS3
_symmetry_space_group_name_H-M   'P 1'
_cell_length_a   4.15847593
_cell_length_b   8.11425197
_cell_length_c   16.04067762
_cell_angle_alpha   90.00000000
_cell_angle_beta   90.00000000
_cell_angle_gamma   90.00000000
_symmetry_Int_Tables_number   1
_chemical_formula_structural   LaCuPbS3
_chemical_formula_sum   'La4 Cu4 Pb4 S12'
_cell_volume   541.25932585
_cell_formula_units_Z   4
loop_
 _symmetry_equiv_pos_site_id
 _symmetry_equiv_pos_as_xyz
  1  'x, y, z'
loop_
 _atom_site_type_symbol
 _atom_site_label
 _atom_site_symmetry_multiplicity
 _atom_site_fract_x
 _atom_site_fract_y
 _atom_site_fract_z
 _atom_site_occupancy
  La  La0  1  0.75000000  0.25069548  0.53859362  1
  La  La1  1  0.75000000  0.75069548  0.96140638  1
  La  La2  1  0.25000000  0.74930452  0.46140638  1
  La  La3  1  0.25000000  0.24930452  0.03859362  1
  Cu  Cu4  1  0.75000000  0.37689210  0.86738351  1
  Cu  Cu5  1  0.75000000  0.87689210  0.63261649  1
  Cu  Cu6  1  0.25000000  0.62310790  0.13261649  1
  Cu  Cu7  1  0.25000000  0.12310790  0.36738351  1
  Pb  Pb8  1  0.75000000  0.41176368  0.27911761  1
  Pb  Pb9  1  0.75000000  0.91176368  0.22088239  1
  Pb  Pb10  1  0.25000000  0.58823632  0.72088239  1
  Pb  Pb11  1  0.25000000  0.08823632  0.77911761  1
  S  S12  1  0.75000000  0.31921531  0.72100064  1
  S  S13  1  0.75000000  0.81921531  0.77899936  1
  S  S14  1  0.25000000  0.68078469  0.27899936  1
  S  S15  1  0.25000000  0.18078469  0.22100064  1
  S  S16  1  0.75000000  0.12260418  0.93569823  1
  S  S17  1  0.75000000  0.62260418  0.56430177  1
  S  S18  1  0.25000000  0.87739582  0.06430177  1
  S  S19  1  0.25000000  0.37739582  0.43569823  1
  S  S20  1  0.75000000  0.48922302  0.09781989  1
  S  S21  1  0.75000000  0.98922302  0.40218011  1
  S  S22  1  0.25000000  0.51077698  0.90218011  1
  S  S23  1  0.25000000  0.01077698  0.59781989  1
