# generated using pymatgen
data_La3Tb(PO4)4
_symmetry_space_group_name_H-M   'P 1'
_cell_length_a   6.49038422
_cell_length_b   6.88267170
_cell_length_c   7.06558452
_cell_angle_alpha   90.05195670
_cell_angle_beta   90.53883165
_cell_angle_gamma   103.74200263
_symmetry_Int_Tables_number   1
_chemical_formula_structural   La3Tb(PO4)4
_chemical_formula_sum   'La3 Tb1 P4 O16'
_cell_volume   306.57808679
_cell_formula_units_Z   1
loop_
 _symmetry_equiv_pos_site_id
 _symmetry_equiv_pos_as_xyz
  1  'x, y, z'
loop_
 _atom_site_type_symbol
 _atom_site_label
 _atom_site_symmetry_multiplicity
 _atom_site_fract_x
 _atom_site_fract_y
 _atom_site_fract_z
 _atom_site_occupancy
  La  La0  1  0.89964214  0.71697084  0.84073689  1
  La  La1  1  0.59966884  0.78180366  0.34041220  1
  La  La2  1  0.10069225  0.28327158  0.15962332  1
  Tb  Tb3  1  0.40708016  0.20657564  0.65627678  1
  P  P4  1  0.88944603  0.19686930  0.66449283  1
  P  P5  1  0.38768472  0.69671973  0.83356466  1
  P  P6  1  0.11278310  0.80702886  0.33888808  1
  P  P7  1  0.60979458  0.30241525  0.16205679  1
  O  O8  1  0.78134346  0.36922813  0.71178128  1
  O  O9  1  0.29558388  0.87823466  0.78119485  1
  O  O10  1  0.21236115  0.63134948  0.28665733  1
  O  O11  1  0.71018719  0.12670233  0.21308818  1
  O  O12  1  0.69132440  0.02907529  0.60558247  1
  O  O13  1  0.19134058  0.53255889  0.89346214  1
  O  O14  1  0.30471198  0.97743770  0.40077821  1
  O  O15  1  0.80256819  0.47414577  0.10888066  1
  O  O16  1  0.00319470  0.11935317  0.83395270  1
  O  O17  1  0.49803748  0.61172889  0.66745383  1
  O  O18  1  0.99941049  0.88313063  0.16845889  1
  O  O19  1  0.49456953  0.37268879  0.33424081  1
  O  O20  1  0.06553880  0.25154892  0.51362003  1
  O  O21  1  0.55843427  0.75245176  0.99201916  1
  O  O22  1  0.94204062  0.74871663  0.49327264  1
  O  O23  1  0.44256146  0.24999409  0.99950528  1
