# generated using pymatgen
data_La2MnRhO6
_symmetry_space_group_name_H-M   'P 1'
_cell_length_a   5.69244303
_cell_length_b   5.76989979
_cell_length_c   7.76760168
_cell_angle_alpha   90.00000000
_cell_angle_beta   88.98854795
_cell_angle_gamma   90.00000000
_symmetry_Int_Tables_number   1
_chemical_formula_structural   La2MnRhO6
_chemical_formula_sum   'La4 Mn2 Rh2 O12'
_cell_volume   255.08577218
_cell_formula_units_Z   2
loop_
 _symmetry_equiv_pos_site_id
 _symmetry_equiv_pos_as_xyz
  1  'x, y, z'
loop_
 _atom_site_type_symbol
 _atom_site_label
 _atom_site_symmetry_multiplicity
 _atom_site_fract_x
 _atom_site_fract_y
 _atom_site_fract_z
 _atom_site_occupancy
  La  La0  1  0.98845575  0.54915176  0.24871589  1
  La  La1  1  0.51154425  0.04915176  0.25128411  1
  La  La2  1  0.01154425  0.45084824  0.75128411  1
  La  La3  1  0.48845575  0.95084824  0.74871589  1
  Mn  Mn4  1  0.50000000  0.50000000  -0.00000000  1
  Mn  Mn5  1  -0.00000000  -0.00000000  0.50000000  1
  Rh  Rh6  1  0.50000000  0.50000000  0.50000000  1
  Rh  Rh7  1  -0.00000000  -0.00000000  -0.00000000  1
  O  O8  1  0.20374293  0.70635006  0.95383470  1
  O  O9  1  0.29625707  0.20635006  0.54616530  1
  O  O10  1  0.79452563  0.29457496  0.45230670  1
  O  O11  1  0.70547437  0.79457496  0.04769330  1
  O  O12  1  0.79625707  0.29364994  0.04616530  1
  O  O13  1  0.70374293  0.79364994  0.45383470  1
  O  O14  1  0.20547437  0.70542504  0.54769330  1
  O  O15  1  0.29452563  0.20542504  0.95230670  1
  O  O16  1  0.09183372  0.97713780  0.25590414  1
  O  O17  1  0.40816628  0.47713780  0.24409586  1
  O  O18  1  0.90816628  0.02286220  0.74409586  1
  O  O19  1  0.59183372  0.52286220  0.75590414  1
