# generated using pymatgen
data_Li3ZnFe2(PO4)3
_symmetry_space_group_name_H-M   'P 1'
_cell_length_a   7.70499009
_cell_length_b   11.27990641
_cell_length_c   11.40388828
_cell_angle_alpha   110.64330987
_cell_angle_beta   104.95710718
_cell_angle_gamma   84.42689253
_symmetry_Int_Tables_number   1
_chemical_formula_structural   Li3ZnFe2(PO4)3
_chemical_formula_sum   'Li12 Zn4 Fe8 P12 O48'
_cell_volume   896.04799206
_cell_formula_units_Z   4
loop_
 _symmetry_equiv_pos_site_id
 _symmetry_equiv_pos_as_xyz
  1  'x, y, z'
loop_
 _atom_site_type_symbol
 _atom_site_label
 _atom_site_symmetry_multiplicity
 _atom_site_fract_x
 _atom_site_fract_y
 _atom_site_fract_z
 _atom_site_occupancy
  Li  Li0  1  0.66650204  0.66664571  0.49953698  1
  Li  Li1  1  0.33319976  0.33308544  0.49925103  1
  Li  Li2  1  0.00065180  0.99980943  0.49965163  1
  Li  Li3  1  0.99965410  0.50016749  0.00043413  1
  Li  Li4  1  0.66611904  0.16664551  0.00004906  1
  Li  Li5  1  0.33299189  0.83352783  0.00044791  1
  Li  Li6  1  0.99972605  0.50015644  0.49944542  1
  Li  Li7  1  0.66621403  0.16680654  0.49951522  1
  Li  Li8  1  0.33331126  0.83317284  0.49948903  1
  Li  Li9  1  0.66704739  0.66649758  0.00044177  1
  Li  Li10  1  0.33367714  0.33319489  0.00049025  1
  Li  Li11  1  0.00013573  0.99957096  0.99995664  1
  Zn  Zn12  1  0.41353534  0.66352978  0.21887491  1
  Zn  Zn13  1  0.74731402  0.99721079  0.21900299  1
  Zn  Zn14  1  0.08049806  0.33039444  0.21890171  1
  Zn  Zn15  1  0.73216545  0.98211820  0.71880182  1
  Fe  Fe16  1  0.06523353  0.31480561  0.72042845  1
  Fe  Fe17  1  0.39782373  0.64828237  0.72040101  1
  Fe  Fe18  1  0.25144346  0.00134239  0.77978113  1
  Fe  Fe19  1  0.58477182  0.33436132  0.77986955  1
  Fe  Fe20  1  0.91786921  0.66840404  0.77994056  1
  Fe  Fe21  1  0.93501293  0.68518348  0.27930487  1
  Fe  Fe22  1  0.26864278  0.01836775  0.27925802  1
  Fe  Fe23  1  0.60174383  0.35182380  0.27908920  1
  P  P24  1  0.99637713  0.24653791  0.40640562  1
  P  P25  1  0.66317289  0.91318572  0.40714054  1
  P  P26  1  0.32982933  0.57982903  0.40641675  1
  P  P27  1  0.27524289  0.52546465  0.90846150  1
  P  P28  1  0.94185127  0.19172417  0.90797229  1
  P  P29  1  0.60889092  0.85877590  0.90783423  1
  P  P30  1  0.00177696  0.75403215  0.59285164  1
  P  P31  1  0.66977967  0.41970306  0.59240936  1
  P  P32  1  0.33798380  0.08590764  0.59284588  1
  P  P33  1  0.72529454  0.47535493  0.09338049  1
  P  P34  1  0.39216157  0.14204033  0.09337459  1
  P  P35  1  0.05892869  0.80873574  0.09343927  1
  O  O36  1  0.15244027  0.19940756  0.33476491  1
  O  O37  1  0.81961780  0.86645437  0.33584481  1
  O  O38  1  0.48596692  0.53270524  0.33485845  1
  O  O39  1  0.07119519  0.52519365  0.83709566  1
  O  O40  1  0.73788299  0.19087441  0.83589437  1
  O  O41  1  0.40457590  0.85778451  0.83671023  1
  O  O42  1  0.11751196  0.66573714  0.66459381  1
  O  O43  1  0.78573837  0.33159629  0.66408531  1
  O  O44  1  0.45354755  0.99747657  0.66465577  1
  O  O45  1  0.65669335  0.61170314  0.16457218  1
  O  O46  1  0.32405801  0.27837085  0.16493995  1
  O  O47  1  0.99090611  0.94507396  0.16501358  1
  O  O48  1  0.84517963  0.80173349  0.66445755  1
  O  O49  1  0.51385456  0.46736858  0.66442348  1
  O  O50  1  0.18153825  0.13379826  0.66432464  1
  O  O51  1  0.92988595  0.47550862  0.16497526  1
  O  O52  1  0.59671167  0.14163263  0.16455287  1
  O  O53  1  0.26349971  0.80829005  0.16462583  1
  O  O54  1  0.88121518  0.33492918  0.33498323  1
  O  O55  1  0.54868750  0.00191047  0.33590515  1
  O  O56  1  0.21484584  0.66824215  0.33489519  1
  O  O57  1  0.34225924  0.38922903  0.83674822  1
  O  O58  1  0.00884502  0.05556138  0.83598144  1
  O  O59  1  0.67618637  0.72237390  0.83692618  1
  O  O60  1  0.22102347  0.47113006  0.40352503  1
  O  O61  1  0.88775995  0.13770328  0.40359791  1
  O  O62  1  0.55424102  0.80427372  0.40359114  1
  O  O63  1  0.38224207  0.63208942  0.90610336  1
  O  O64  1  0.04867193  0.29871304  0.90594639  1
  O  O65  1  0.71497246  0.96505254  0.90388905  1
  O  O66  1  0.77790470  0.52803785  0.59434329  1
  O  O67  1  0.44540919  0.19439540  0.59447831  1
  O  O68  1  0.11082595  0.86163963  0.59446215  1
  O  O69  1  0.61833524  0.36811430  0.09414360  1
  O  O70  1  0.28483248  0.03480503  0.09427551  1
  O  O71  1  0.95130688  0.70164555  0.09433880  1
  O  O72  1  0.94618541  0.19614401  0.04682539  1
  O  O73  1  0.61368501  0.86357093  0.04698410  1
  O  O74  1  0.27964112  0.52957512  0.04721406  1
  O  O75  1  0.08473250  0.33485756  0.54511155  1
  O  O76  1  0.75123859  0.00125590  0.54650709  1
  O  O77  1  0.41814376  0.66805177  0.54516147  1
  O  O78  1  0.05524780  0.80533588  0.95514955  1
  O  O79  1  0.72201528  0.47172695  0.95496275  1
  O  O80  1  0.38820734  0.13864076  0.95503415  1
  O  O81  1  0.91388993  0.66508543  0.45463955  1
  O  O82  1  0.58115763  0.33120317  0.45437840  1
  O  O83  1  0.24891289  0.99760143  0.45461389  1
