# generated using pymatgen
data_La2Al3Sn
_symmetry_space_group_name_H-M   'P 1'
_cell_length_a   4.44921528
_cell_length_b   4.51372312
_cell_length_c   7.81742885
_cell_angle_alpha   90.00033167
_cell_angle_beta   90.00000000
_cell_angle_gamma   90.00000000
_symmetry_Int_Tables_number   1
_chemical_formula_structural   La2Al3Sn
_chemical_formula_sum   'La2 Al3 Sn1'
_cell_volume   156.99371728
_cell_formula_units_Z   1
loop_
 _symmetry_equiv_pos_site_id
 _symmetry_equiv_pos_as_xyz
  1  'x, y, z'
loop_
 _atom_site_type_symbol
 _atom_site_label
 _atom_site_symmetry_multiplicity
 _atom_site_fract_x
 _atom_site_fract_y
 _atom_site_fract_z
 _atom_site_occupancy
  La  La0  1  -0.00000000  0.99994145  0.99701251  1
  La  La1  1  -0.00000000  0.49999953  0.50390743  1
  Al  Al2  1  0.50000000  0.49995814  0.83008857  1
  Al  Al3  1  0.50000000  0.49995939  0.15437034  1
  Al  Al4  1  0.50000000  0.99998759  0.67818734  1
  Sn  Sn5  1  0.50000000  0.99995391  0.33643381  1
