# generated using pymatgen
data_LaGePd
_symmetry_space_group_name_H-M   'P 1'
_cell_length_a   4.56885378
_cell_length_b   6.02783393
_cell_length_c   5.74694586
_cell_angle_alpha   98.64397482
_cell_angle_beta   113.42215701
_cell_angle_gamma   67.72950074
_symmetry_Int_Tables_number   1
_chemical_formula_structural   LaGePd
_chemical_formula_sum   'La2 Ge2 Pd2'
_cell_volume   134.39753444
_cell_formula_units_Z   2
loop_
 _symmetry_equiv_pos_site_id
 _symmetry_equiv_pos_as_xyz
  1  'x, y, z'
loop_
 _atom_site_type_symbol
 _atom_site_label
 _atom_site_symmetry_multiplicity
 _atom_site_fract_x
 _atom_site_fract_y
 _atom_site_fract_z
 _atom_site_occupancy
  La  La0  1  0.76047481  0.70600991  0.22695953  1
  La  La1  1  0.23952519  0.29399009  0.77304047  1
  Ge  Ge2  1  0.05001855  0.11073453  0.21077163  1
  Ge  Ge3  1  0.94998145  0.88926547  0.78922837  1
  Pd  Pd4  1  0.53626865  0.27811275  0.35065004  1
  Pd  Pd5  1  0.46373135  0.72188725  0.64934996  1
