# generated using pymatgen
data_La4PtO7
_symmetry_space_group_name_H-M   'P 1'
_cell_length_a   4.04810954
_cell_length_b   7.03039943
_cell_length_c   7.26548117
_cell_angle_alpha   92.79454920
_cell_angle_beta   73.74883212
_cell_angle_gamma   106.63390668
_symmetry_Int_Tables_number   1
_chemical_formula_structural   La4PtO7
_chemical_formula_sum   'La4 Pt1 O7'
_cell_volume   190.09488935
_cell_formula_units_Z   1
loop_
 _symmetry_equiv_pos_site_id
 _symmetry_equiv_pos_as_xyz
  1  'x, y, z'
loop_
 _atom_site_type_symbol
 _atom_site_label
 _atom_site_symmetry_multiplicity
 _atom_site_fract_x
 _atom_site_fract_y
 _atom_site_fract_z
 _atom_site_occupancy
  La  La0  1  0.80450293  0.21781089  0.60922536  1
  La  La1  1  0.19261028  0.77745846  0.39479694  1
  La  La2  1  0.58694097  0.34093549  0.15783397  1
  La  La3  1  0.40760976  0.66213911  0.83912311  1
  Pt  Pt4  1  0.98723795  0.00390266  0.99845251  1
  O  O5  1  0.35129105  0.14642805  0.44003216  1
  O  O6  1  0.64531198  0.84908362  0.55454844  1
  O  O7  1  0.05811300  0.43483044  0.30531392  1
  O  O8  1  0.93340596  0.56889493  0.69233913  1
  O  O9  1  0.52073953  0.02624354  0.95266733  1
  O  O10  1  0.18479167  0.29368060  0.89041322  1
  O  O11  1  0.77444492  0.71529221  0.10795392  1
