# generated using pymatgen
data_LiGa(GeSe3)2
_symmetry_space_group_name_H-M   'P 1'
_cell_length_a   7.25870826
_cell_length_b   7.33611585
_cell_length_c   12.70372187
_cell_angle_alpha   98.32286395
_cell_angle_beta   72.98695644
_cell_angle_gamma   119.65156619
_symmetry_Int_Tables_number   1
_chemical_formula_structural   LiGa(GeSe3)2
_chemical_formula_sum   'Li2 Ga2 Ge4 Se12'
_cell_volume   562.16959761
_cell_formula_units_Z   2
loop_
 _symmetry_equiv_pos_site_id
 _symmetry_equiv_pos_as_xyz
  1  'x, y, z'
loop_
 _atom_site_type_symbol
 _atom_site_label
 _atom_site_symmetry_multiplicity
 _atom_site_fract_x
 _atom_site_fract_y
 _atom_site_fract_z
 _atom_site_occupancy
  Li  Li0  1  0.89471565  0.33415075  0.09121702  1
  Li  Li1  1  0.81056490  0.16584925  0.59121702  1
  Ga  Ga2  1  0.24825913  0.99992569  0.99961737  1
  Ga  Ga3  1  0.49833344  0.50007431  0.49961737  1
  Ge  Ge4  1  0.73831494  0.74392520  0.22339929  1
  Ge  Ge5  1  0.21650352  0.24832871  0.77657103  1
  Ge  Ge6  1  0.24438974  0.75607480  0.72339929  1
  Ge  Ge7  1  0.21817481  0.25167129  0.27657103  1
  Se  Se8  1  0.84456586  0.11425761  0.26163825  1
  Se  Se9  1  0.98876854  0.88516255  0.74055447  1
  Se  Se10  1  0.98030825  0.38574239  0.76163825  1
  Se  Se11  1  0.35360599  0.61483745  0.24055447  1
  Se  Se12  1  0.18342350  0.17938121  0.46093200  1
  Se  Se13  1  0.46542553  0.82060525  0.53906977  1
  Se  Se14  1  0.25404229  0.32061879  0.96093200  1
  Se  Se15  1  0.89482028  0.67939475  0.03906977  1
  Se  Se16  1  0.41985502  0.09281239  0.15350204  1
  Se  Se17  1  0.47690673  0.90342748  0.84529876  1
  Se  Se18  1  0.57704263  0.40718761  0.65350204  1
  Se  Se19  1  0.82347925  0.59657252  0.34529876  1
