# generated using pymatgen
data_K8SrTe6
_symmetry_space_group_name_H-M   'P 1'
_cell_length_a   6.27175838
_cell_length_b   10.18217814
_cell_length_c   10.18217814
_cell_angle_alpha   95.44268372
_cell_angle_beta   107.93736911
_cell_angle_gamma   72.06263089
_symmetry_Int_Tables_number   1
_chemical_formula_structural   K8SrTe6
_chemical_formula_sum   'K8 Sr1 Te6'
_cell_volume   588.56072658
_cell_formula_units_Z   1
loop_
 _symmetry_equiv_pos_site_id
 _symmetry_equiv_pos_as_xyz
  1  'x, y, z'
loop_
 _atom_site_type_symbol
 _atom_site_label
 _atom_site_symmetry_multiplicity
 _atom_site_fract_x
 _atom_site_fract_y
 _atom_site_fract_z
 _atom_site_occupancy
  K  K0  1  0.27220149  0.13270969  0.69183107  1
  K  K1  1  0.71308011  0.86729031  0.30816893  1
  K  K2  1  0.78691989  0.30816893  0.86729031  1
  K  K3  1  0.22779851  0.69183107  0.13270969  1
  K  K4  1  0.59508883  0.69183107  0.86729031  1
  K  K5  1  0.41962958  0.30816893  0.13270969  1
  K  K6  1  0.90491117  0.86729031  0.69183107  1
  K  K7  1  0.08037042  0.13270969  0.30816893  1
  Sr  Sr8  1  0.25000000  0.50000000  0.50000000  1
  Te  Te9  1  0.25000000  -0.00000000  0.00000000  1
  Te  Te10  1  0.75000000  -0.00000000  0.00000000  1
  Te  Te11  1  0.33336683  0.80107637  0.50000000  1
  Te  Te12  1  0.63444321  0.19892363  0.50000000  1
  Te  Te13  1  0.86555679  0.50000000  0.19892363  1
  Te  Te14  1  0.16663317  0.50000000  0.80107637  1
