# generated using pymatgen
data_Sr2La14Mg4(Ga4O15)3
_symmetry_space_group_name_H-M   'P 1'
_cell_length_a   5.58209403
_cell_length_b   5.62825361
_cell_length_c   44.86544276
_cell_angle_alpha   59.74111031
_cell_angle_beta   59.59781958
_cell_angle_gamma   59.69246122
_symmetry_Int_Tables_number   1
_chemical_formula_structural   Sr2La14Mg4(Ga4O15)3
_chemical_formula_sum   'Sr2 La14 Mg4 Ga12 O45'
_cell_volume   989.39353134
_cell_formula_units_Z   1
loop_
 _symmetry_equiv_pos_site_id
 _symmetry_equiv_pos_as_xyz
  1  'x, y, z'
loop_
 _atom_site_type_symbol
 _atom_site_label
 _atom_site_symmetry_multiplicity
 _atom_site_fract_x
 _atom_site_fract_y
 _atom_site_fract_z
 _atom_site_occupancy
  Sr  Sr0  1  0.24049291  0.74572447  0.09656004  1
  Sr  Sr1  1  0.23467869  0.74839617  0.22294682  1
  La  La2  1  0.74030059  0.28199973  0.02906366  1
  La  La3  1  0.73512582  0.28283661  0.15444167  1
  La  La4  1  0.25699448  0.69473288  0.34818068  1
  La  La5  1  0.73705646  0.27953523  0.28034840  1
  La  La6  1  0.25217653  0.74038274  0.46927950  1
  La  La7  1  0.75706608  0.24729098  0.40475587  1
  La  La8  1  0.25047212  0.74115497  0.59470285  1
  La  La9  1  0.74952833  0.25861982  0.53039032  1
  La  La10  1  0.25078337  0.74147503  0.71956161  1
  La  La11  1  0.74988540  0.25943876  0.65514239  1
  La  La12  1  0.24958582  0.74007375  0.84500992  1
  La  La13  1  0.75025251  0.25967338  0.78005389  1
  La  La14  1  0.25805166  0.73922472  0.96876479  1
  La  La15  1  0.75475168  0.26194968  0.90375994  1
  Mg  Mg16  1  0.52723150  0.97928908  0.99580234  1
  Mg  Mg17  1  0.52255415  0.98417998  0.12089419  1
  Mg  Mg18  1  0.52083035  0.98603725  0.24622291  1
  Mg  Mg19  1  0.97338564  0.53714260  0.31451515  1
  Ga  Ga20  1  0.97252066  0.53227633  0.06549742  1
  Ga  Ga21  1  0.50543612  0.99321623  0.37487199  1
  Ga  Ga22  1  0.97013106  0.53551235  0.19083726  1
  Ga  Ga23  1  0.00051154  0.50029895  0.56232085  1
  Ga  Ga24  1  0.49999659  0.99967691  0.50003937  1
  Ga  Ga25  1  0.50020609  0.00031048  0.62493424  1
  Ga  Ga26  1  0.99905158  0.49565611  0.43827427  1
  Ga  Ga27  1  0.00096748  0.50104841  0.81204795  1
  Ga  Ga28  1  0.50005751  0.00015224  0.74999637  1
  Ga  Ga29  1  0.99772662  0.49843692  0.93850679  1
  Ga  Ga30  1  0.50128163  0.99812588  0.87489590  1
  Ga  Ga31  1  0.00004943  0.50032865  0.68742124  1
  O  O32  1  0.29414967  0.69158116  0.02435139  1
  O  O33  1  0.21151931  0.29729145  0.09696276  1
  O  O34  1  0.29599162  0.69124589  0.15087600  1
  O  O35  1  0.80763051  0.67042881  0.02736222  1
  O  O36  1  0.20620473  0.30105464  0.22271869  1
  O  O37  1  0.71537554  0.28115693  0.10199509  1
  O  O38  1  0.75612051  0.85613682  0.07958268  1
  O  O39  1  0.28755050  0.70844817  0.27705855  1
  O  O40  1  0.80656608  0.66213999  0.15327228  1
  O  O41  1  0.21909761  0.29534274  0.34846241  1
  O  O42  1  0.71234667  0.28345139  0.22821562  1
  O  O43  1  0.25323073  0.17230194  0.41533230  1
  O  O44  1  0.75042231  0.86220958  0.20436204  1
  O  O45  1  0.28364026  0.70561796  0.39993807  1
  O  O46  1  0.77607844  0.67564134  0.27936742  1
  O  O47  1  0.21606401  0.30638196  0.47335576  1
  O  O48  1  0.73369264  0.26311989  0.35093905  1
  O  O49  1  0.25015165  0.16708579  0.54157795  1
  O  O50  1  0.73373098  0.84791536  0.33493553  1
  O  O51  1  0.28257392  0.71633937  0.52385461  1
  O  O52  1  0.78341925  0.68026054  0.40312325  1
  O  O53  1  0.21798474  0.30796870  0.59782127  1
  O  O54  1  0.71889529  0.28019179  0.47634159  1
  O  O55  1  0.25004165  0.16802394  0.66647778  1
  O  O56  1  0.74953321  0.83113740  0.45867252  1
  O  O57  1  0.28234816  0.71687441  0.64908221  1
  O  O58  1  0.78314871  0.69163965  0.52703001  1
  O  O59  1  0.21802873  0.30772736  0.72283645  1
  O  O60  1  0.71769476  0.28315660  0.60091782  1
  O  O61  1  0.24998938  0.16747674  0.79158291  1
  O  O62  1  0.75006158  0.83126869  0.58361240  1
  O  O63  1  0.28359761  0.71628561  0.77393472  1
  O  O64  1  0.78223007  0.69211756  0.65215056  1
  O  O65  1  0.21866141  0.30655628  0.84784609  1
  O  O66  1  0.71759300  0.28310797  0.72588554  1
  O  O67  1  0.24356635  0.17495360  0.91705099  1
  O  O68  1  0.75005708  0.83189024  0.70852314  1
  O  O69  1  0.28966567  0.71301353  0.89875288  1
  O  O70  1  0.78283990  0.69205434  0.77699375  1
  O  O71  1  0.20117092  0.30933620  0.97602728  1
  O  O72  1  0.71696412  0.28251720  0.85060713  1
  O  O73  1  0.75223733  0.83111410  0.83313225  1
  O  O74  1  0.78155282  0.69121490  0.90190457  1
  O  O75  1  0.69562945  0.28925756  0.97867538  1
  O  O76  1  0.76181075  0.83176662  0.95520550  1
