# generated using pymatgen
data_KH4PbI3O2
_symmetry_space_group_name_H-M   'P 1'
_cell_length_a   4.62873331
_cell_length_b   10.39347764
_cell_length_c   22.90977903
_cell_angle_alpha   90.00000000
_cell_angle_beta   90.00000000
_cell_angle_gamma   90.00000000
_symmetry_Int_Tables_number   1
_chemical_formula_structural   KH4PbI3O2
_chemical_formula_sum   'K4 H16 Pb4 I12 O8'
_cell_volume   1102.15822384
_cell_formula_units_Z   4
loop_
 _symmetry_equiv_pos_site_id
 _symmetry_equiv_pos_as_xyz
  1  'x, y, z'
loop_
 _atom_site_type_symbol
 _atom_site_label
 _atom_site_symmetry_multiplicity
 _atom_site_fract_x
 _atom_site_fract_y
 _atom_site_fract_z
 _atom_site_occupancy
  K  K0  1  0.24972340  0.36119442  0.79932735  1
  K  K1  1  0.24972340  0.86119442  0.70067265  1
  K  K2  1  0.74972340  0.63880558  0.20067265  1
  K  K3  1  0.74972340  0.13880558  0.29932735  1
  H  H4  1  0.74962565  0.41773198  0.90674964  1
  H  H5  1  0.74962565  0.91773198  0.59325036  1
  H  H6  1  0.24962565  0.58226802  0.09325036  1
  H  H7  1  0.24962565  0.08226802  0.40674964  1
  H  H8  1  0.75062107  0.53000335  0.86216841  1
  H  H9  1  0.75062107  0.03000335  0.63783159  1
  H  H10  1  0.25062107  0.46999665  0.13783159  1
  H  H11  1  0.25062107  0.96999665  0.36216841  1
  H  H12  1  0.75332829  0.35488352  0.00747821  1
  H  H13  1  0.75332829  0.85488352  0.49252179  1
  H  H14  1  0.25332829  0.64511648  0.99252179  1
  H  H15  1  0.25332829  0.14511648  0.50747821  1
  H  H16  1  0.57231290  0.48111037  0.99631077  1
  H  H17  1  0.07231290  0.51888963  0.00368923  1
  H  H18  1  0.07231290  0.01888963  0.49631077  1
  H  H19  1  0.57231290  0.98111037  0.50368923  1
  Pb  Pb20  1  0.75001977  0.95787272  0.90510001  1
  Pb  Pb21  1  0.75001977  0.45787272  0.59489999  1
  Pb  Pb22  1  0.25001977  0.04212728  0.09489999  1
  Pb  Pb23  1  0.25001977  0.54212728  0.40510001  1
  I  I24  1  0.74855596  0.84314258  0.04853285  1
  I  I25  1  0.74855596  0.34314258  0.45146715  1
  I  I26  1  0.24855596  0.15685742  0.95146715  1
  I  I27  1  0.24855596  0.65685742  0.54853285  1
  I  I28  1  0.24893031  0.75169033  0.86942037  1
  I  I29  1  0.24893031  0.25169033  0.63057963  1
  I  I30  1  0.74893031  0.24830967  0.13057963  1
  I  I31  1  0.74893031  0.74830967  0.36942037  1
  I  I32  1  0.74992128  0.08332676  0.78383619  1
  I  I33  1  0.74992128  0.58332676  0.71616381  1
  I  I34  1  0.24992128  0.91667324  0.21616381  1
  I  I35  1  0.24992128  0.41667324  0.28383619  1
  O  O36  1  0.74913572  0.43586588  0.86418524  1
  O  O37  1  0.74913572  0.93586588  0.63581476  1
  O  O38  1  0.24913572  0.56413412  0.13581476  1
  O  O39  1  0.24913572  0.06413412  0.36418524  1
  O  O40  1  0.75652566  0.43597153  0.98577951  1
  O  O41  1  0.75652566  0.93597153  0.51422049  1
  O  O42  1  0.25652566  0.56402847  0.01422049  1
  O  O43  1  0.25652566  0.06402847  0.48577951  1
