# generated using pymatgen
data_HoCoNi
_symmetry_space_group_name_H-M   'P 1'
_cell_length_a   5.08395352
_cell_length_b   5.08395352
_cell_length_c   5.08395352
_cell_angle_alpha   91.87562700
_cell_angle_beta   57.98143598
_cell_angle_gamma   120.16792360
_symmetry_Int_Tables_number   1
_chemical_formula_structural   HoCoNi
_chemical_formula_sum   'Ho2 Co2 Ni2'
_cell_volume   91.29630731
_cell_formula_units_Z   2
loop_
 _symmetry_equiv_pos_site_id
 _symmetry_equiv_pos_as_xyz
  1  'x, y, z'
loop_
 _atom_site_type_symbol
 _atom_site_label
 _atom_site_symmetry_multiplicity
 _atom_site_fract_x
 _atom_site_fract_y
 _atom_site_fract_z
 _atom_site_occupancy
  Ho  Ho0  1  0.50000000  0.74724123  0.75275877  1
  Ho  Ho1  1  0.00000000  0.00275877  0.99724123  1
  Co  Co2  1  0.75000000  0.37500000  0.87500000  1
  Co  Co3  1  0.25000000  0.37500000  0.37500000  1
  Ni  Ni4  1  0.25000000  0.87500000  0.37500000  1
  Ni  Ni5  1  0.75000000  0.37500000  0.37500000  1
