# generated using pymatgen
data_K3PO3F2
_symmetry_space_group_name_H-M   'P 1'
_cell_length_a   7.41571591
_cell_length_b   7.41571591
_cell_length_c   7.69987222
_cell_angle_alpha   60.49219295
_cell_angle_beta   60.49219295
_cell_angle_gamma   88.69177322
_symmetry_Int_Tables_number   1
_chemical_formula_structural   K3PO3F2
_chemical_formula_sum   'K6 P2 O6 F4'
_cell_volume   306.91524303
_cell_formula_units_Z   2
loop_
 _symmetry_equiv_pos_site_id
 _symmetry_equiv_pos_as_xyz
  1  'x, y, z'
loop_
 _atom_site_type_symbol
 _atom_site_label
 _atom_site_symmetry_multiplicity
 _atom_site_fract_x
 _atom_site_fract_y
 _atom_site_fract_z
 _atom_site_occupancy
  K  K0  1  0.80604620  0.69395380  0.00000000  1
  K  K1  1  0.18727627  0.31272373  -0.00000000  1
  K  K2  1  0.70328611  0.19481985  0.00000000  1
  K  K3  1  0.30518015  0.79671389  0.00000000  1
  K  K4  1  0.24765833  0.25234167  0.50000000  1
  K  K5  1  0.74765833  0.75234167  0.50000000  1
  P  P6  1  0.76848786  0.24628141  0.48523073  1
  P  P7  1  0.25371859  0.73151214  0.51476927  1
  O  O8  1  0.45359583  0.71741923  0.32898494  1
  O  O9  1  0.94673271  0.45439109  0.33929857  1
  O  O10  1  0.70631034  0.21396872  0.33929857  1
  O  O11  1  0.78258077  0.04640417  0.67101506  1
  O  O12  1  0.04560891  0.55326729  0.66070143  1
  O  O13  1  0.28603128  0.79368966  0.66070143  1
  F  F14  1  0.49475723  0.49168694  0.00000000  1
  F  F15  1  0.00831306  0.00524277  -0.00000000  1
  F  F16  1  0.20941879  0.95266074  0.33792047  1
  F  F17  1  0.54733926  0.29058121  0.66207953  1
