# generated using pymatgen
data_HgH2SO5
_symmetry_space_group_name_H-M   'P 1'
_cell_length_a   5.55313947
_cell_length_b   8.05345562
_cell_length_c   9.13503527
_cell_angle_alpha   90.00000000
_cell_angle_beta   90.00000000
_cell_angle_gamma   90.00000000
_symmetry_Int_Tables_number   1
_chemical_formula_structural   HgH2SO5
_chemical_formula_sum   'Hg4 H8 S4 O20'
_cell_volume   408.53670271
_cell_formula_units_Z   4
loop_
 _symmetry_equiv_pos_site_id
 _symmetry_equiv_pos_as_xyz
  1  'x, y, z'
loop_
 _atom_site_type_symbol
 _atom_site_label
 _atom_site_symmetry_multiplicity
 _atom_site_fract_x
 _atom_site_fract_y
 _atom_site_fract_z
 _atom_site_occupancy
  Hg  Hg0  1  0.75118955  0.36744669  0.70741475  1
  Hg  Hg1  1  0.75118955  0.86744669  0.79258525  1
  Hg  Hg2  1  0.25118955  0.63255331  0.29258525  1
  Hg  Hg3  1  0.25118955  0.13255331  0.20741475  1
  H  H4  1  0.75151627  0.30023022  0.00632959  1
  H  H5  1  0.75151627  0.80023022  0.49367041  1
  H  H6  1  0.25151627  0.69976978  0.99367041  1
  H  H7  1  0.25151627  0.19976978  0.50632959  1
  H  H8  1  0.88706606  0.47067838  0.98695666  1
  H  H9  1  0.38706606  0.52932162  0.01304334  1
  H  H10  1  0.38706606  0.02932162  0.48695666  1
  H  H11  1  0.88706606  0.97067838  0.51304334  1
  S  S12  1  0.74999657  0.40749924  0.35856921  1
  S  S13  1  0.74999657  0.90749924  0.14143079  1
  S  S14  1  0.24999657  0.59250076  0.64143079  1
  S  S15  1  0.24999657  0.09250076  0.85856921  1
  O  O16  1  0.52936845  0.38092088  0.26667292  1
  O  O17  1  0.97023936  0.88063967  0.23360873  1
  O  O18  1  0.02936845  0.61907912  0.73332708  1
  O  O19  1  0.47023936  0.11936033  0.76639127  1
  O  O20  1  0.47023936  0.61936033  0.73360873  1
  O  O21  1  0.02936845  0.11907912  0.76667292  1
  O  O22  1  0.97023936  0.38063967  0.26639127  1
  O  O23  1  0.52936845  0.88092088  0.23332708  1
  O  O24  1  0.75011947  0.27757379  0.47997019  1
  O  O25  1  0.75011947  0.77757379  0.02002981  1
  O  O26  1  0.25011947  0.72242621  0.52002981  1
  O  O27  1  0.25011947  0.22242621  0.97997019  1
  O  O28  1  0.74437854  0.40752054  0.95437327  1
  O  O29  1  0.74437854  0.90752054  0.54562673  1
  O  O30  1  0.24437854  0.59247946  0.04562673  1
  O  O31  1  0.24437854  0.09247946  0.45437327  1
  O  O32  1  0.75012573  0.57547536  0.42017178  1
  O  O33  1  0.75012573  0.07547536  0.07982822  1
  O  O34  1  0.25012573  0.42452464  0.57982822  1
  O  O35  1  0.25012573  0.92452464  0.92017178  1
