# generated using pymatgen
data_La12Ga23WO56
_symmetry_space_group_name_H-M   'P 1'
_cell_length_a   9.77614964
_cell_length_b   9.78199612
_cell_length_c   13.25586089
_cell_angle_alpha   81.59504757
_cell_angle_beta   98.36617107
_cell_angle_gamma   85.33737946
_symmetry_Int_Tables_number   1
_chemical_formula_structural   La12Ga23WO56
_chemical_formula_sum   'La12 Ga23 W1 O56'
_cell_volume   1233.87121347
_cell_formula_units_Z   1
loop_
 _symmetry_equiv_pos_site_id
 _symmetry_equiv_pos_as_xyz
  1  'x, y, z'
loop_
 _atom_site_type_symbol
 _atom_site_label
 _atom_site_symmetry_multiplicity
 _atom_site_fract_x
 _atom_site_fract_y
 _atom_site_fract_z
 _atom_site_occupancy
  La  La0  1  0.39522510  0.18576864  0.60392312  1
  La  La1  1  0.64440165  0.93555976  0.35250926  1
  La  La2  1  0.14098968  0.42388410  0.86001856  1
  La  La3  1  0.89583558  0.68396354  0.10706126  1
  La  La4  1  0.03108655  0.96889299  0.53057851  1
  La  La5  1  0.29014506  0.71028676  0.29035980  1
  La  La6  1  0.79028424  0.20946687  0.79010908  1
  La  La7  1  0.54103303  0.45898144  0.04177949  1
  La  La8  1  0.31652255  0.10390385  0.10686002  1
  La  La9  1  0.57618268  0.85902152  0.86051518  1
  La  La10  1  0.06435961  0.35584379  0.35299894  1
  La  La11  1  0.81446482  0.60494438  0.60365137  1
  Ga  Ga12  1  0.69758009  0.96708109  0.63086086  1
  Ga  Ga13  1  0.95077889  0.71553380  0.38363031  1
  Ga  Ga14  1  0.45329999  0.21834009  0.88326319  1
  Ga  Ga15  1  0.20047661  0.46352862  0.13345151  1
  Ga  Ga16  1  0.29775308  0.03574282  0.36594864  1
  Ga  Ga17  1  0.54863535  0.78317078  0.11673386  1
  Ga  Ga18  1  0.04926963  0.28070551  0.61866798  1
  Ga  Ga19  1  0.80224105  0.53558201  0.86780557  1
  Ga  Ga20  1  0.43867446  0.80371014  0.55980675  1
  Ga  Ga21  1  0.68428456  0.55358170  0.31564225  1
  Ga  Ga22  1  0.18263335  0.05958194  0.81810554  1
  Ga  Ga23  1  0.93456933  0.30241513  0.06695213  1
  Ga  Ga24  1  0.74147189  0.25682926  0.49375303  1
  Ga  Ga25  1  0.99394387  0.00622507  0.24262636  1
  Ga  Ga26  1  0.50115484  0.50048503  0.74290230  1
  Ga  Ga27  1  0.24296220  0.75687469  0.00061562  1
  Ga  Ga28  1  0.44696428  0.31604693  0.31568651  1
  Ga  Ga29  1  0.69725606  0.06703789  0.06578988  1
  Ga  Ga30  1  0.19598298  0.55957099  0.56066366  1
  Ga  Ga31  1  0.94010844  0.81774770  0.81768808  1
  Ga  Ga32  1  0.99957879  -0.00009138  0.00042177  1
  Ga  Ga33  1  0.74964792  0.25002159  0.25001916  1
  Ga  Ga34  1  0.50008436  0.49998353  0.49950428  1
  W  W35  1  0.25003870  0.74989103  0.74982318  1
  O  O36  1  0.46623824  0.31352834  0.45736909  1
  O  O37  1  0.71611119  0.06319170  0.20680205  1
  O  O38  1  0.21062284  0.57295677  0.70616692  1
  O  O39  1  0.97108518  0.81064404  0.95808352  1
  O  O40  1  0.26046840  0.82274495  0.60631827  1
  O  O41  1  0.50716177  0.57033493  0.34974151  1
  O  O42  1  0.00462056  0.06569515  0.84699866  1
  O  O43  1  0.75701176  0.32004765  0.09906136  1
  O  O44  1  0.95602369  0.18738470  0.26526332  1
  O  O45  1  0.20699689  0.94144257  0.00951704  1
  O  O46  1  0.70599905  0.43788887  0.51528749  1
  O  O47  1  0.44778806  0.68539427  0.76871780  1
  O  O48  1  0.06476219  0.85254063  0.71895496  1
  O  O49  1  0.31268635  0.61793310  0.47055606  1
  O  O50  1  0.81034639  0.11127700  0.96740998  1
  O  O51  1  0.56062297  0.36172000  0.21884533  1
  O  O52  1  0.56687766  0.65051278  0.58127233  1
  O  O53  1  0.81741397  0.40350899  0.32592818  1
  O  O54  1  0.31458961  0.90190307  0.81889030  1
  O  O55  1  0.06811240  0.15353167  0.07542120  1
  O  O56  1  0.69438034  0.16245504  0.38440833  1
  O  O57  1  0.94286185  0.91309234  0.13366630  1
  O  O58  1  0.43687177  0.41562420  0.63334802  1
  O  O59  1  0.20165948  0.66536125  0.88121288  1
  O  O60  1  0.79148334  0.87882869  0.54604703  1
  O  O61  1  0.03873658  0.62772261  0.29542994  1
  O  O62  1  0.53785091  0.12532126  0.79591532  1
  O  O63  1  0.28575956  0.38017697  0.04158172  1
  O  O64  1  0.20965163  0.11849610  0.45674865  1
  O  O65  1  0.46055566  0.87165786  0.20455391  1
  O  O66  1  0.96560273  0.37160864  0.70741322  1
  O  O67  1  0.70959925  0.62578723  0.95223535  1
  O  O68  1  0.15424547  0.38456837  0.53513285  1
  O  O69  1  0.90755201  0.64010078  0.78471535  1
  O  O70  1  0.65301587  0.88960559  0.03350206  1
  O  O71  1  0.40430085  0.13887932  0.28434386  1
  O  O72  1  0.17926132  0.12876703  0.67656660  1
  O  O73  1  0.93043492  0.38234252  0.92556971  1
  O  O74  1  0.67853540  0.63206199  0.17436872  1
  O  O75  1  0.42828260  0.88381587  0.42303112  1
  O  O76  1  0.93810201  0.20539239  0.51866801  1
  O  O77  1  0.69299992  0.45729809  0.76834547  1
  O  O78  1  0.43732661  0.70839064  0.01543268  1
  O  O79  1  0.18911330  0.95585213  0.26780287  1
  O  O80  1  0.51882471  0.16988719  0.02361536  1
  O  O81  1  0.26898545  0.41858174  0.27368049  1
  O  O82  1  0.02235171  0.66979802  0.52473860  1
  O  O83  1  0.76711176  0.92013195  0.77253401  1
  O  O84  1  0.26442132  0.19628163  0.88266712  1
  O  O85  1  0.01234711  0.44454982  0.13257813  1
  O  O86  1  0.76320933  0.69463877  0.38366894  1
  O  O87  1  0.51115848  0.94104040  0.63360496  1
  O  O88  1  0.44349300  0.41188529  0.86422653  1
  O  O89  1  0.19396650  0.65707782  0.11756287  1
  O  O90  1  0.94606635  0.90936755  0.36665468  1
  O  O91  1  0.69442048  0.15925819  0.61709596  1
