# generated using pymatgen
data_Dy4MgS7
_symmetry_space_group_name_H-M   'P 1'
_cell_length_a   3.81377628
_cell_length_b   6.59088228
_cell_length_c   11.51824865
_cell_angle_alpha   104.59529236
_cell_angle_beta   90.00000000
_cell_angle_gamma   73.18262234
_symmetry_Int_Tables_number   1
_chemical_formula_structural   Dy4MgS7
_chemical_formula_sum   'Dy4 Mg1 S7'
_cell_volume   267.36665300
_cell_formula_units_Z   1
loop_
 _symmetry_equiv_pos_site_id
 _symmetry_equiv_pos_as_xyz
  1  'x, y, z'
loop_
 _atom_site_type_symbol
 _atom_site_label
 _atom_site_symmetry_multiplicity
 _atom_site_fract_x
 _atom_site_fract_y
 _atom_site_fract_z
 _atom_site_occupancy
  Dy  Dy0  1  0.69273553  0.61452895  0.20422718  1
  Dy  Dy1  1  0.30685247  0.38629506  0.80125895  1
  Dy  Dy2  1  0.99963125  0.00073750  0.00570125  1
  Dy  Dy3  1  0.11362689  0.77274621  0.56792642  1
  Mg  Mg4  1  0.88519449  0.22961103  0.42187686  1
  S  S5  1  0.74304069  0.51391862  0.64043546  1
  S  S6  1  0.26730322  0.46539356  0.35282585  1
  S  S7  1  0.33861194  0.32277611  0.05072963  1
  S  S8  1  0.65974917  0.68050165  0.94870367  1
  S  S9  1  0.03630591  0.92738819  0.22389607  1
  S  S10  1  0.96176986  0.07646028  0.78503506  1
  S  S11  1  0.49517859  0.00964283  0.49738360  1
