# generated using pymatgen
data_La12Ga23MoO56
_symmetry_space_group_name_H-M   'P 1'
_cell_length_a   9.79194372
_cell_length_b   9.79479196
_cell_length_c   13.27799279
_cell_angle_alpha   81.55445108
_cell_angle_beta   98.41057242
_cell_angle_gamma   85.37009620
_symmetry_Int_Tables_number   1
_chemical_formula_structural   La12Ga23MoO56
_chemical_formula_sum   'La12 Ga23 Mo1 O56'
_cell_volume   1239.32012900
_cell_formula_units_Z   1
loop_
 _symmetry_equiv_pos_site_id
 _symmetry_equiv_pos_as_xyz
  1  'x, y, z'
loop_
 _atom_site_type_symbol
 _atom_site_label
 _atom_site_symmetry_multiplicity
 _atom_site_fract_x
 _atom_site_fract_y
 _atom_site_fract_z
 _atom_site_occupancy
  La  La0  1  0.64431244  0.93617118  0.35172460  1
  La  La1  1  0.89643890  0.68455423  0.10733168  1
  La  La2  1  0.39479243  0.18551318  0.60395340  1
  La  La3  1  0.14161549  0.42564744  0.85958209  1
  La  La4  1  0.03169462  0.96801755  0.53160780  1
  La  La5  1  0.29051188  0.71008389  0.29081017  1
  La  La6  1  0.79046370  0.20893338  0.79013737  1
  La  La7  1  0.54138392  0.45903978  0.04169377  1
  La  La8  1  0.06340918  0.35638496  0.35286036  1
  La  La9  1  0.31633909  0.10343055  0.10664297  1
  La  La10  1  0.81473190  0.60466075  0.60387954  1
  La  La11  1  0.57442520  0.85876081  0.86004467  1
  Ga  Ga12  1  0.69766734  0.96699770  0.63081469  1
  Ga  Ga13  1  0.95082759  0.71560111  0.38363609  1
  Ga  Ga14  1  0.45317495  0.21832621  0.88320951  1
  Ga  Ga15  1  0.20032651  0.46361081  0.13346193  1
  Ga  Ga16  1  0.29750374  0.03567836  0.36583349  1
  Ga  Ga17  1  0.54860133  0.78322592  0.11671977  1
  Ga  Ga18  1  0.04934002  0.28062353  0.61876996  1
  Ga  Ga19  1  0.80226622  0.53573077  0.86777728  1
  Ga  Ga20  1  0.43804849  0.80363612  0.55956241  1
  Ga  Ga21  1  0.68454235  0.55400709  0.31555689  1
  Ga  Ga22  1  0.18310110  0.05910558  0.81851394  1
  Ga  Ga23  1  0.93478402  0.30256914  0.06688979  1
  Ga  Ga24  1  0.99409324  0.00606935  0.24259240  1
  Ga  Ga25  1  0.24248543  0.75669517  0.00038833  1
  Ga  Ga26  1  0.74117962  0.25665209  0.49390676  1
  Ga  Ga27  1  0.50160995  0.50108349  0.74263008  1
  Ga  Ga28  1  0.44643934  0.31588250  0.31583539  1
  Ga  Ga29  1  0.69707978  0.06735988  0.06558776  1
  Ga  Ga30  1  0.19651560  0.55886251  0.56112591  1
  Ga  Ga31  1  0.94031287  0.81831639  0.81744536  1
  Ga  Ga32  1  0.99958326  0.99979042  0.00033476  1
  Ga  Ga33  1  0.74957434  0.24996628  0.25007340  1
  Ga  Ga34  1  0.50033266  0.49993102  0.49981784  1
  Mo  Mo35  1  0.25001611  0.74985894  0.74957200  1
  O  O36  1  0.79149375  0.87893508  0.54599654  1
  O  O37  1  0.03877094  0.62775683  0.29560649  1
  O  O38  1  0.53779783  0.12533188  0.79606645  1
  O  O39  1  0.28562004  0.38030268  0.04173194  1
  O  O40  1  0.20943887  0.11800005  0.45668823  1
  O  O41  1  0.46021687  0.87153328  0.20427994  1
  O  O42  1  0.96617163  0.37135041  0.70769948  1
  O  O43  1  0.70973405  0.62606944  0.95211756  1
  O  O44  1  0.40391564  0.13898564  0.28389892  1
  O  O45  1  0.65272113  0.88992018  0.03347440  1
  O  O46  1  0.15409207  0.38441131  0.53455774  1
  O  O47  1  0.90780522  0.64035531  0.78434416  1
  O  O48  1  0.42891808  0.88371529  0.42273690  1
  O  O49  1  0.67897020  0.63220754  0.17424584  1
  O  O50  1  0.17986852  0.12852000  0.67666304  1
  O  O51  1  0.93079879  0.38274681  0.92562027  1
  O  O52  1  0.18936815  0.95514248  0.26752045  1
  O  O53  1  0.43709339  0.70781801  0.01559067  1
  O  O54  1  0.93784408  0.20501547  0.51918206  1
  O  O55  1  0.69340583  0.45661749  0.76829563  1
  O  O56  1  0.76676577  0.91993090  0.77276395  1
  O  O57  1  0.02244455  0.66894298  0.52497949  1
  O  O58  1  0.51841621  0.17007388  0.02386018  1
  O  O59  1  0.26840526  0.41832923  0.27401932  1
  O  O60  1  0.51059602  0.94157218  0.63291262  1
  O  O61  1  0.76293433  0.69513667  0.38353341  1
  O  O62  1  0.26402429  0.19677919  0.88251835  1
  O  O63  1  0.01205271  0.44504097  0.13279451  1
  O  O64  1  0.69397355  0.15936919  0.61745316  1
  O  O65  1  0.94636411  0.90933236  0.36670510  1
  O  O66  1  0.44455181  0.41218482  0.86445803  1
  O  O67  1  0.19424548  0.65745292  0.11808966  1
  O  O68  1  0.21051207  0.57317085  0.70639014  1
  O  O69  1  0.97234639  0.80999262  0.95804381  1
  O  O70  1  0.71602654  0.06376605  0.20673222  1
  O  O71  1  0.46656359  0.31373880  0.45721416  1
  O  O72  1  0.00483065  0.06424559  0.84658066  1
  O  O73  1  0.75699101  0.31967179  0.09911824  1
  O  O74  1  0.50739146  0.57036545  0.35001595  1
  O  O75  1  0.26008515  0.82294300  0.60643072  1
  O  O76  1  0.70566963  0.43804399  0.51567820  1
  O  O77  1  0.44753328  0.68572324  0.76883332  1
  O  O78  1  0.20720421  0.94146750  0.00847125  1
  O  O79  1  0.95611307  0.18696126  0.26501394  1
  O  O80  1  0.81032928  0.11057928  0.96744521  1
  O  O81  1  0.56065080  0.36192593  0.21890931  1
  O  O82  1  0.31297810  0.61886138  0.47120941  1
  O  O83  1  0.06509628  0.85261085  0.71868788  1
  O  O84  1  0.31490424  0.90153698  0.81879757  1
  O  O85  1  0.06778902  0.15337293  0.07541463  1
  O  O86  1  0.81702996  0.40389628  0.32575564  1
  O  O87  1  0.56635729  0.65030569  0.58228879  1
  O  O88  1  0.43551943  0.41632221  0.63342857  1
  O  O89  1  0.20160822  0.66537874  0.88098629  1
  O  O90  1  0.94327729  0.91295539  0.13331687  1
  O  O91  1  0.69484924  0.16250566  0.38450855  1
