# generated using pymatgen
data_HfTaB2
_symmetry_space_group_name_H-M   'P 1'
_cell_length_a   4.63694269
_cell_length_b   4.84333960
_cell_length_c   4.63694269
_cell_angle_alpha   104.83992078
_cell_angle_beta   86.16034559
_cell_angle_gamma   104.83992078
_symmetry_Int_Tables_number   1
_chemical_formula_structural   HfTaB2
_chemical_formula_sum   'Hf2 Ta2 B4'
_cell_volume   97.30655237
_cell_formula_units_Z   2
loop_
 _symmetry_equiv_pos_site_id
 _symmetry_equiv_pos_as_xyz
  1  'x, y, z'
loop_
 _atom_site_type_symbol
 _atom_site_label
 _atom_site_symmetry_multiplicity
 _atom_site_fract_x
 _atom_site_fract_y
 _atom_site_fract_z
 _atom_site_occupancy
  Hf  Hf0  1  0.19936070  0.29510999  0.94936070  1
  Hf  Hf1  1  0.69936070  0.29510999  0.44936070  1
  Ta  Ta2  1  0.30447062  0.72016216  0.55447062  1
  Ta  Ta3  1  0.80447062  0.72016216  0.05447062  1
  B  B4  1  0.84603315  0.88384137  0.59603315  1
  B  B5  1  0.34603315  0.88384137  0.09603315  1
  B  B6  1  0.65013552  0.10088648  0.90013552  1
  B  B7  1  0.15013552  0.10088648  0.40013552  1
