# generated using pymatgen
data_Sr2La14Mg2Ga14O45
_symmetry_space_group_name_H-M   'P 1'
_cell_length_a   5.53838783
_cell_length_b   5.60051920
_cell_length_c   44.87651480
_cell_angle_alpha   59.99177457
_cell_angle_beta   59.49143234
_cell_angle_gamma   59.99445725
_symmetry_Int_Tables_number   1
_chemical_formula_structural   Sr2La14Mg2Ga14O45
_chemical_formula_sum   'Sr2 La14 Mg2 Ga14 O45'
_cell_volume   980.33355514
_cell_formula_units_Z   1
loop_
 _symmetry_equiv_pos_site_id
 _symmetry_equiv_pos_as_xyz
  1  'x, y, z'
loop_
 _atom_site_type_symbol
 _atom_site_label
 _atom_site_symmetry_multiplicity
 _atom_site_fract_x
 _atom_site_fract_y
 _atom_site_fract_z
 _atom_site_occupancy
  Sr  Sr0  1  0.24958936  0.75594392  0.09276635  1
  Sr  Sr1  1  0.25476125  0.75383645  0.21788135  1
  La  La2  1  0.75003374  0.24384844  0.03297662  1
  La  La3  1  0.77070151  0.25522881  0.15508205  1
  La  La4  1  0.25492729  0.74617885  0.34378107  1
  La  La5  1  0.77266431  0.25253682  0.27919266  1
  La  La6  1  0.25194872  0.74549447  0.46914132  1
  La  La7  1  0.75018491  0.25407240  0.40659200  1
  La  La8  1  0.25111033  0.74471187  0.59430890  1
  La  La9  1  0.74969903  0.25554557  0.53052260  1
  La  La10  1  0.25094417  0.74489690  0.71929874  1
  La  La11  1  0.74959189  0.25522776  0.65559883  1
  La  La12  1  0.24945402  0.74399543  0.84450141  1
  La  La13  1  0.74909325  0.25534454  0.78061509  1
  La  La14  1  0.24791091  0.73204205  0.96885185  1
  La  La15  1  0.74521346  0.25087884  0.90599060  1
  Mg  Mg16  1  0.99178236  0.48978865  0.06439005  1
  Mg  Mg17  1  0.97582797  0.47695376  0.19073532  1
  Ga  Ga18  1  0.51148662  0.01133920  0.99919892  1
  Ga  Ga19  1  0.52121282  0.02935253  0.12287370  1
  Ga  Ga20  1  0.51655479  0.01406804  0.24687048  1
  Ga  Ga21  1  0.50319060  0.00014862  0.37488534  1
  Ga  Ga22  1  0.49985811  0.99973202  0.50015869  1
  Ga  Ga23  1  0.99087562  0.48803828  0.31410475  1
  Ga  Ga24  1  0.50017682  0.00005490  0.62496623  1
  Ga  Ga25  1  0.00135047  0.50064759  0.43725776  1
  Ga  Ga26  1  -0.00000100  0.50022942  0.56245770  1
  Ga  Ga27  1  0.49988397  0.99987776  0.75004180  1
  Ga  Ga28  1  0.49952880  -0.00007308  0.87478515  1
  Ga  Ga29  1  0.00005653  0.50007196  0.68748608  1
  Ga  Ga30  1  0.99975918  0.49996534  0.81252172  1
  Ga  Ga31  1  0.99822681  0.49542068  0.93718717  1
  O  O32  1  0.25372933  0.20115557  0.03569641  1
  O  O33  1  0.25440353  0.27593835  0.09520650  1
  O  O34  1  0.22989231  0.19243483  0.16266456  1
  O  O35  1  0.78526537  0.70671241  0.02552496  1
  O  O36  1  0.24234148  0.28911480  0.22075608  1
  O  O37  1  0.73423921  0.27093200  0.10302891  1
  O  O38  1  0.22467998  0.17623533  0.29127030  1
  O  O39  1  0.76161575  0.82823871  0.08430962  1
  O  O40  1  0.73308516  0.69185391  0.15514937  1
  O  O41  1  0.24476900  0.31506260  0.34452503  1
  O  O42  1  0.71972706  0.26106291  0.23075197  1
  O  O43  1  0.24541235  0.17257961  0.41613677  1
  O  O44  1  0.77515507  0.82661927  0.20794175  1
  O  O45  1  0.27041519  0.73305142  0.39785604  1
  O  O46  1  0.73316598  0.68808105  0.28247994  1
  O  O47  1  0.23354677  0.31392255  0.47086108  1
  O  O48  1  0.72905389  0.26571852  0.35389921  1
  O  O49  1  0.24920528  0.17188959  0.54107650  1
  O  O50  1  0.76875902  0.82687450  0.33338918  1
  O  O51  1  0.26861005  0.73095532  0.52316353  1
  O  O52  1  0.76489371  0.68536983  0.40460675  1
  O  O53  1  0.23179896  0.31414724  0.59605301  1
  O  O54  1  0.73075778  0.26852313  0.47696111  1
  O  O55  1  0.24969856  0.17209378  0.66599636  1
  O  O56  1  0.75096080  0.82565193  0.45936149  1
  O  O57  1  0.26887664  0.73075933  0.64815843  1
  O  O58  1  0.76722291  0.68526203  0.52916925  1
  O  O59  1  0.23180272  0.31418891  0.72105127  1
  O  O60  1  0.73091006  0.26909637  0.60189616  1
  O  O61  1  0.24928753  0.17102506  0.79109109  1
  O  O62  1  0.75006838  0.82795300  0.58404346  1
  O  O63  1  0.26853357  0.73091402  0.77316382  1
  O  O64  1  0.76750406  0.68576978  0.65404833  1
  O  O65  1  0.23181358  0.31437040  0.84584335  1
  O  O66  1  0.73079951  0.26932737  0.72685649  1
  O  O67  1  0.24866118  0.16619947  0.91568865  1
  O  O68  1  0.75000277  0.82799532  0.70902523  1
  O  O69  1  0.26480188  0.73004528  0.89901076  1
  O  O70  1  0.76801971  0.68560514  0.77897095  1
  O  O71  1  0.23544481  0.30542580  0.96971730  1
  O  O72  1  0.72986743  0.27059530  0.85188245  1
  O  O73  1  0.74757247  0.82857578  0.83400025  1
  O  O74  1  0.77113293  0.68510372  0.90309497  1
  O  O75  1  0.73121892  0.27976935  0.97535394  1
  O  O76  1  0.73217873  0.82190063  0.96018214  1
