# generated using pymatgen
data_HfTiN2
_symmetry_space_group_name_H-M   'P 1'
_cell_length_a   3.12520048
_cell_length_b   3.12520048
_cell_length_c   5.37487630
_cell_angle_alpha   73.09874418
_cell_angle_beta   90.00000000
_cell_angle_gamma   120.00000000
_symmetry_Int_Tables_number   1
_chemical_formula_structural   HfTiN2
_chemical_formula_sum   'Hf1 Ti1 N2'
_cell_volume   42.82444618
_cell_formula_units_Z   1
loop_
 _symmetry_equiv_pos_site_id
 _symmetry_equiv_pos_as_xyz
  1  'x, y, z'
loop_
 _atom_site_type_symbol
 _atom_site_label
 _atom_site_symmetry_multiplicity
 _atom_site_fract_x
 _atom_site_fract_y
 _atom_site_fract_z
 _atom_site_occupancy
  Hf  Hf0  1  0.00000000  0.00000000  0.00000000  1
  Ti  Ti1  1  0.50000000  0.00000000  0.50000000  1
  N  N2  1  0.24762955  0.49525910  0.25711136  1
  N  N3  1  0.75237045  0.50474090  0.74288864  1
