# generated using pymatgen
data_Gd2Fe5Si8
_symmetry_space_group_name_H-M   'P 1'
_cell_length_a   3.88148497
_cell_length_b   3.88148497
_cell_length_c   16.52683769
_cell_angle_alpha   89.99953128
_cell_angle_beta   90.00046872
_cell_angle_gamma   120.01630024
_symmetry_Int_Tables_number   1
_chemical_formula_structural   Gd2Fe5Si8
_chemical_formula_sum   'Gd2 Fe5 Si8'
_cell_volume   215.59806290
_cell_formula_units_Z   1
loop_
 _symmetry_equiv_pos_site_id
 _symmetry_equiv_pos_as_xyz
  1  'x, y, z'
loop_
 _atom_site_type_symbol
 _atom_site_label
 _atom_site_symmetry_multiplicity
 _atom_site_fract_x
 _atom_site_fract_y
 _atom_site_fract_z
 _atom_site_occupancy
  Gd  Gd0  1  0.66686114  0.33313886  0.75370810  1
  Gd  Gd1  1  0.33313886  0.66686114  0.24629190  1
  Fe  Fe2  1  0.66664840  0.33335160  0.40500815  1
  Fe  Fe3  1  0.33335160  0.66664840  0.59499185  1
  Fe  Fe4  1  0.33323654  0.66676346  0.90123643  1
  Fe  Fe5  1  0.66676346  0.33323654  0.09876357  1
  Fe  Fe6  1  0.00000000  -0.00000000  0.50000000  1
  Si  Si7  1  0.66667933  0.33332067  0.55146875  1
  Si  Si8  1  0.33332067  0.66667933  0.44853125  1
  Si  Si9  1  0.33348274  0.66651726  0.04208708  1
  Si  Si10  1  0.66651726  0.33348274  0.95791292  1
  Si  Si11  1  0.99988738  0.00011262  0.35832061  1
  Si  Si12  1  0.00011262  0.99988738  0.64167939  1
  Si  Si13  1  0.00001973  -0.00001973  0.87173709  1
  Si  Si14  1  -0.00001973  0.00001973  0.12826291  1
