# generated using pymatgen
data_K8Nd3(Si4O11)3
_symmetry_space_group_name_H-M   'P 1'
_cell_length_a   7.02274540
_cell_length_b   11.61122575
_cell_length_c   11.83567855
_cell_angle_alpha   87.52918421
_cell_angle_beta   87.95407668
_cell_angle_gamma   79.25092023
_symmetry_Int_Tables_number   1
_chemical_formula_structural   K8Nd3(Si4O11)3
_chemical_formula_sum   'K8 Nd3 Si12 O33'
_cell_volume   946.92079424
_cell_formula_units_Z   1
loop_
 _symmetry_equiv_pos_site_id
 _symmetry_equiv_pos_as_xyz
  1  'x, y, z'
loop_
 _atom_site_type_symbol
 _atom_site_label
 _atom_site_symmetry_multiplicity
 _atom_site_fract_x
 _atom_site_fract_y
 _atom_site_fract_z
 _atom_site_occupancy
  K  K0  1  0.98829428  0.66454405  0.99398559  1
  K  K1  1  0.99876332  0.33146077  0.00301855  1
  K  K2  1  0.83203870  0.18554525  0.72648395  1
  K  K3  1  0.15555399  0.80476791  0.25660109  1
  K  K4  1  0.26417719  0.58698188  0.52075172  1
  K  K5  1  0.74625034  0.37013075  0.47666123  1
  K  K6  1  0.19844774  0.86188984  0.73029459  1
  K  K7  1  0.79101350  0.12524789  0.29067746  1
  Nd  Nd8  1  0.47798508  0.48431042  0.83133115  1
  Nd  Nd9  1  0.51384281  0.51039494  0.16757249  1
  Nd  Nd10  1  0.99336682  0.00066504  0.00088193  1
  Si  Si11  1  0.29604558  0.32098186  0.61701031  1
  Si  Si12  1  0.69436050  0.67394578  0.38203776  1
  Si  Si13  1  0.97754038  0.48028835  0.74652350  1
  Si  Si14  1  0.01282328  0.51726045  0.25166736  1
  Si  Si15  1  0.34316101  0.13499933  0.81339073  1
  Si  Si16  1  0.64804369  0.86112071  0.18516698  1
  Si  Si17  1  0.66671145  0.90248036  0.80697137  1
  Si  Si18  1  0.32525178  0.09310833  0.19282894  1
  Si  Si19  1  0.53690562  0.23349536  0.01049520  1
  Si  Si20  1  0.45123428  0.76291907  0.98901812  1
  Si  Si21  1  0.67899857  0.69574744  0.65324080  1
  Si  Si22  1  0.30896694  0.30095999  0.34434492  1
  O  O23  1  0.46983095  0.00311943  0.79080887  1
  O  O24  1  0.52389915  0.99318701  0.20849499  1
  O  O25  1  0.48905091  0.65156601  0.70667338  1
  O  O26  1  0.49540618  0.34665274  0.28868012  1
  O  O27  1  0.45922581  0.39167347  0.65341042  1
  O  O28  1  0.52564751  0.60760880  0.34594964  1
  O  O29  1  0.80929106  0.41873839  0.80500259  1
  O  O30  1  0.18161448  0.58020690  0.19507262  1
  O  O31  1  0.69299246  0.82900209  0.68988920  1
  O  O32  1  0.29718207  0.16672570  0.30965389  1
  O  O33  1  0.88755738  0.61142001  0.68661147  1
  O  O34  1  0.10099242  0.38534190  0.30880643  1
  O  O35  1  0.48063398  0.21388085  0.87588446  1
  O  O36  1  0.50718795  0.78368736  0.12342188  1
  O  O37  1  0.23660554  0.83335435  0.96156592  1
  O  O38  1  0.75111783  0.16329163  0.03835328  1
  O  O39  1  0.30019434  0.19519226  0.68633363  1
  O  O40  1  0.69240205  0.79984442  0.31186622  1
  O  O41  1  0.85594444  0.95516723  0.83109411  1
  O  O42  1  0.13969425  0.03536054  0.17138408  1
  O  O43  1  0.62285052  0.80955576  0.90981370  1
  O  O44  1  0.36416866  0.18615664  0.08891422  1
  O  O45  1  0.07555925  0.40248430  0.63535282  1
  O  O46  1  0.91599802  0.59421833  0.36450315  1
  O  O47  1  0.47454987  0.62102599  0.98247045  1
  O  O48  1  0.51387914  0.37559715  0.01639648  1
  O  O49  1  0.14375146  0.12629994  0.88027941  1
  O  O50  1  0.84805045  0.86753168  0.11793208  1
  O  O51  1  0.67171714  0.70572262  0.51516065  1
  O  O52  1  0.31388491  0.29612020  0.48246720  1
  O  O53  1  0.14143471  0.49716652  0.83419182  1
  O  O54  1  0.84820077  0.50474303  0.16291118  1
  O  O55  1  0.81470750  0.14461097  0.50919389  1
