# generated using pymatgen
data_Hf(Ti2Se5)2
_symmetry_space_group_name_H-M   'P 1'
_cell_length_a   3.60675861
_cell_length_b   3.60675854
_cell_length_c   34.02445665
_cell_angle_alpha   89.99423029
_cell_angle_beta   89.99423028
_cell_angle_gamma   60.02751524
_symmetry_Int_Tables_number   1
_chemical_formula_structural   Hf(Ti2Se5)2
_chemical_formula_sum   'Hf1 Ti4 Se10'
_cell_volume   383.42137409
_cell_formula_units_Z   1
loop_
 _symmetry_equiv_pos_site_id
 _symmetry_equiv_pos_as_xyz
  1  'x, y, z'
loop_
 _atom_site_type_symbol
 _atom_site_label
 _atom_site_symmetry_multiplicity
 _atom_site_fract_x
 _atom_site_fract_y
 _atom_site_fract_z
 _atom_site_occupancy
  Hf  Hf0  1  0.00000000  -0.00000000  0.80000000  1
  Ti  Ti1  1  0.00339699  0.00339699  0.00096013  1
  Ti  Ti2  1  0.99502448  0.99502448  0.19992733  1
  Ti  Ti3  1  0.00497552  0.00497552  0.40007267  1
  Ti  Ti4  1  0.99660301  0.99660301  0.59903987  1
  Se  Se5  1  0.66499882  0.66499882  0.04573402  1
  Se  Se6  1  0.66950479  0.66950479  0.24474305  1
  Se  Se7  1  0.66374752  0.66374752  0.44488702  1
  Se  Se8  1  0.66829216  0.66829216  0.64387878  1
  Se  Se9  1  0.66680369  0.66680369  0.84835633  1
  Se  Se10  1  0.33625248  0.33625248  0.15511298  1
  Se  Se11  1  0.33049521  0.33049521  0.35525695  1
  Se  Se12  1  0.33500118  0.33500118  0.55426598  1
  Se  Se13  1  0.33319631  0.33319631  0.75164367  1
  Se  Se14  1  0.33170784  0.33170784  0.95612122  1
