# generated using pymatgen
data_Ho8Fe68C3
_symmetry_space_group_name_H-M   'P 1'
_cell_length_a   8.27499469
_cell_length_b   8.54454227
_cell_length_c   14.68028658
_cell_angle_alpha   89.72896591
_cell_angle_beta   90.00000000
_cell_angle_gamma   90.00000000
_symmetry_Int_Tables_number   1
_chemical_formula_structural   Ho8Fe68C3
_chemical_formula_sum   'Ho8 Fe68 C3'
_cell_volume   1037.97334462
_cell_formula_units_Z   1
loop_
 _symmetry_equiv_pos_site_id
 _symmetry_equiv_pos_as_xyz
  1  'x, y, z'
loop_
 _atom_site_type_symbol
 _atom_site_label
 _atom_site_symmetry_multiplicity
 _atom_site_fract_x
 _atom_site_fract_y
 _atom_site_fract_z
 _atom_site_occupancy
  Ho  Ho0  1  0.25000000  0.50001646  0.16668029  1
  Ho  Ho1  1  0.25000000  0.99994832  0.66672116  1
  Ho  Ho2  1  0.75000000  0.00145302  0.33387562  1
  Ho  Ho3  1  0.75000000  0.49989686  0.83494761  1
  Ho  Ho4  1  0.75000000  0.00014557  0.99435641  1
  Ho  Ho5  1  0.75000000  0.49051156  0.49672704  1
  Ho  Ho6  1  0.25000000  0.00000800  -0.00000910  1
  Ho  Ho7  1  0.25000000  0.50054731  0.50009834  1
  Fe  Fe8  1  0.48208362  0.49850648  0.33270060  1
  Fe  Fe9  1  0.48395074  0.99999459  0.83407061  1
  Fe  Fe10  1  0.48250567  0.74834465  0.08287472  1
  Fe  Fe11  1  0.48285761  0.24816165  0.58299871  1
  Fe  Fe12  1  0.48280236  0.25104273  0.08288349  1
  Fe  Fe13  1  0.48149431  0.75179388  0.58386630  1
  Fe  Fe14  1  0.51816689  0.99984155  0.16590340  1
  Fe  Fe15  1  0.51790591  0.50041450  0.66612133  1
  Fe  Fe16  1  0.51851332  0.74955060  0.41681013  1
  Fe  Fe17  1  0.51550160  0.24939217  0.91684584  1
  Fe  Fe18  1  0.51557602  0.25002132  0.41671898  1
  Fe  Fe19  1  0.51523015  0.75047209  0.91676394  1
  Fe  Fe20  1  0.98183311  0.99984155  0.16590340  1
  Fe  Fe21  1  0.98209409  0.50041450  0.66612133  1
  Fe  Fe22  1  0.98148668  0.74955060  0.41681013  1
  Fe  Fe23  1  0.98449840  0.24939217  0.91684584  1
  Fe  Fe24  1  0.98442398  0.25002132  0.41671898  1
  Fe  Fe25  1  0.98476985  0.75047209  0.91676394  1
  Fe  Fe26  1  0.01791638  0.49850648  0.33270060  1
  Fe  Fe27  1  0.01604926  0.99999459  0.83407061  1
  Fe  Fe28  1  0.01749433  0.74834465  0.08287472  1
  Fe  Fe29  1  0.01714239  0.24816165  0.58299871  1
  Fe  Fe30  1  0.01719764  0.25104273  0.08288349  1
  Fe  Fe31  1  0.01850569  0.75179388  0.58386630  1
  Fe  Fe32  1  0.75000000  0.65146200  0.02034294  1
  Fe  Fe33  1  0.75000000  0.14850372  0.52120004  1
  Fe  Fe34  1  0.75000000  0.21453992  0.16365615  1
  Fe  Fe35  1  0.75000000  0.71491718  0.66364259  1
  Fe  Fe36  1  0.75000000  0.63754881  0.30996305  1
  Fe  Fe37  1  0.75000000  0.14421829  0.81439561  1
  Fe  Fe38  1  0.75000000  0.34923844  0.02033964  1
  Fe  Fe39  1  0.75000000  0.85364587  0.52618217  1
  Fe  Fe40  1  0.75000000  0.78523644  0.16341280  1
  Fe  Fe41  1  0.75000000  0.28530059  0.66358725  1
  Fe  Fe42  1  0.75000000  0.35575699  0.31396259  1
  Fe  Fe43  1  0.75000000  0.85490903  0.81442301  1
  Fe  Fe44  1  0.25000000  0.84940873  0.47867896  1
  Fe  Fe45  1  0.25000000  0.34928824  0.97966837  1
  Fe  Fe46  1  0.25000000  0.29434956  0.33577426  1
  Fe  Fe47  1  0.25000000  0.79485923  0.83565478  1
  Fe  Fe48  1  0.25000000  0.85628541  0.18403252  1
  Fe  Fe49  1  0.25000000  0.35634868  0.68429529  1
  Fe  Fe50  1  0.25000000  0.15088993  0.47998818  1
  Fe  Fe51  1  0.25000000  0.65087585  0.97944147  1
  Fe  Fe52  1  0.25000000  0.70684475  0.33617559  1
  Fe  Fe53  1  0.25000000  0.20492783  0.83557870  1
  Fe  Fe54  1  0.25000000  0.14325939  0.18457222  1
  Fe  Fe55  1  0.25000000  0.64301585  0.68490109  1
  Fe  Fe56  1  0.60534220  0.49916752  0.16562962  1
  Fe  Fe57  1  0.60518722  0.00039148  0.66761600  1
  Fe  Fe58  1  0.39368235  0.99980990  0.33308844  1
  Fe  Fe59  1  0.39380840  0.50005521  0.83286611  1
  Fe  Fe60  1  0.10631765  0.99980990  0.33308844  1
  Fe  Fe61  1  0.10619160  0.50005521  0.83286611  1
  Fe  Fe62  1  0.89465780  0.49916752  0.16562962  1
  Fe  Fe63  1  0.89481278  0.00039148  0.66761600  1
  Fe  Fe64  1  0.49799054  0.00020138  0.50089951  1
  Fe  Fe65  1  0.49994302  0.50003934  0.99989188  1
  Fe  Fe66  1  0.49834437  0.25091425  0.24947462  1
  Fe  Fe67  1  0.49815475  0.75174548  0.75005495  1
  Fe  Fe68  1  0.49651684  0.74754209  0.24925608  1
  Fe  Fe69  1  0.49787697  0.24903248  0.74958858  1
  Fe  Fe70  1  0.00200946  0.00020138  0.50089951  1
  Fe  Fe71  1  0.00005698  0.50003934  0.99989188  1
  Fe  Fe72  1  0.00165563  0.25091425  0.24947462  1
  Fe  Fe73  1  0.00184525  0.75174548  0.75005495  1
  Fe  Fe74  1  0.00348316  0.74754209  0.24925608  1
  Fe  Fe75  1  0.00212303  0.24903248  0.74958858  1
  C  C76  1  0.75000000  0.99979122  0.16328512  1
  C  C77  1  0.75000000  0.50003371  0.66403722  1
  C  C78  1  0.75000000  0.74564662  0.41806336  1
