# generated using pymatgen
data_EuZnIn
_symmetry_space_group_name_H-M   'P 1'
_cell_length_a   4.83493003
_cell_length_b   6.18997221
_cell_length_c   6.14233709
_cell_angle_alpha   95.51625401
_cell_angle_beta   113.17708044
_cell_angle_gamma   67.01155739
_symmetry_Int_Tables_number   1
_chemical_formula_structural   EuZnIn
_chemical_formula_sum   'Eu2 Zn2 In2'
_cell_volume   155.21085937
_cell_formula_units_Z   2
loop_
 _symmetry_equiv_pos_site_id
 _symmetry_equiv_pos_as_xyz
  1  'x, y, z'
loop_
 _atom_site_type_symbol
 _atom_site_label
 _atom_site_symmetry_multiplicity
 _atom_site_fract_x
 _atom_site_fract_y
 _atom_site_fract_z
 _atom_site_occupancy
  Eu  Eu0  1  0.75440071  0.70899539  0.21779680  1
  Eu  Eu1  1  0.24559929  0.29100461  0.78220320  1
  Zn  Zn2  1  0.54742691  0.29302416  0.38787797  1
  Zn  Zn3  1  0.45257309  0.70697584  0.61212203  1
  In  In4  1  0.05232195  0.11864472  0.22328861  1
  In  In5  1  0.94767805  0.88135528  0.77671139  1
