# generated using pymatgen
data_CoRuS4
_symmetry_space_group_name_H-M   'P 1'
_cell_length_a   5.60227740
_cell_length_b   5.61403392
_cell_length_c   5.56852629
_cell_angle_alpha   90.52124398
_cell_angle_beta   90.00000000
_cell_angle_gamma   90.00000000
_symmetry_Int_Tables_number   1
_chemical_formula_structural   CoRuS4
_chemical_formula_sum   'Co2 Ru2 S8'
_cell_volume   175.13056296
_cell_formula_units_Z   2
loop_
 _symmetry_equiv_pos_site_id
 _symmetry_equiv_pos_as_xyz
  1  'x, y, z'
loop_
 _atom_site_type_symbol
 _atom_site_label
 _atom_site_symmetry_multiplicity
 _atom_site_fract_x
 _atom_site_fract_y
 _atom_site_fract_z
 _atom_site_occupancy
  Co  Co0  1  0.50000000  0.00000000  0.50000000  1
  Co  Co1  1  0.00000000  0.50000000  0.50000000  1
  Ru  Ru2  1  0.50000000  0.50000000  0.00000000  1
  Ru  Ru3  1  0.00000000  0.00000000  0.00000000  1
  S  S4  1  0.88937754  0.38899884  0.11662153  1
  S  S5  1  0.38937754  0.11100116  0.88337847  1
  S  S6  1  0.11414350  0.88839732  0.39198709  1
  S  S7  1  0.61414350  0.61160268  0.60801291  1
  S  S8  1  0.11062246  0.61100116  0.88337847  1
  S  S9  1  0.61062246  0.88899884  0.11662153  1
  S  S10  1  0.88585650  0.11160268  0.60801291  1
  S  S11  1  0.38585650  0.38839732  0.39198709  1
