# generated using pymatgen
data_Dy4Co3
_symmetry_space_group_name_H-M   'P 1'
_cell_length_a   3.96585605
_cell_length_b   11.38548143
_cell_length_c   11.38541421
_cell_angle_alpha   59.99920565
_cell_angle_beta   90.00039773
_cell_angle_gamma   90.00099188
_symmetry_Int_Tables_number   1
_chemical_formula_structural   Dy4Co3
_chemical_formula_sum   'Dy12 Co9'
_cell_volume   445.20941127
_cell_formula_units_Z   3
loop_
 _symmetry_equiv_pos_site_id
 _symmetry_equiv_pos_as_xyz
  1  'x, y, z'
loop_
 _atom_site_type_symbol
 _atom_site_label
 _atom_site_symmetry_multiplicity
 _atom_site_fract_x
 _atom_site_fract_y
 _atom_site_fract_z
 _atom_site_occupancy
  Dy  Dy0  1  0.74993868  0.62097817  0.86398015  1
  Dy  Dy1  1  0.74993275  0.51504140  0.62097726  1
  Dy  Dy2  1  0.74993505  0.86398012  0.51504289  1
  Dy  Dy3  1  0.25006132  0.37902183  0.13601985  1
  Dy  Dy4  1  0.25006725  0.48495860  0.37902274  1
  Dy  Dy5  1  0.25006495  0.13601988  0.48495711  1
  Dy  Dy6  1  0.74996308  0.77503596  0.24613760  1
  Dy  Dy7  1  0.74996306  0.97882979  0.77503416  1
  Dy  Dy8  1  0.74996541  0.24613373  0.97882814  1
  Dy  Dy9  1  0.25003692  0.22496404  0.75386240  1
  Dy  Dy10  1  0.25003694  0.02117021  0.22496584  1
  Dy  Dy11  1  0.25003459  0.75386627  0.02117186  1
  Co  Co12  1  0.74995019  0.33339959  0.33330347  1
  Co  Co13  1  0.25004981  0.66660041  0.66669653  1
  Co  Co14  1  0.74991639  0.28389501  0.55916246  1
  Co  Co15  1  0.74992624  0.15693995  0.28389298  1
  Co  Co16  1  0.74991908  0.55916202  0.15694509  1
  Co  Co17  1  0.25008361  0.71610499  0.44083754  1
  Co  Co18  1  0.25007376  0.84306005  0.71610702  1
  Co  Co19  1  0.25008092  0.44083798  0.84305491  1
  Co  Co20  1  0.50000000  0.00000000  -0.00000000  1
