# generated using pymatgen
data_Fe5Bi4O13F
_symmetry_space_group_name_H-M   'P 1'
_cell_length_a   8.43702399
_cell_length_b   8.43702399
_cell_length_c   18.43685002
_cell_angle_alpha   90.00000000
_cell_angle_beta   90.00000000
_cell_angle_gamma   90.00000000
_symmetry_Int_Tables_number   1
_chemical_formula_structural   Fe5Bi4O13F
_chemical_formula_sum   'Fe20 Bi16 O52 F4'
_cell_volume   1312.39718681
_cell_formula_units_Z   4
loop_
 _symmetry_equiv_pos_site_id
 _symmetry_equiv_pos_as_xyz
  1  'x, y, z'
loop_
 _atom_site_type_symbol
 _atom_site_label
 _atom_site_symmetry_multiplicity
 _atom_site_fract_x
 _atom_site_fract_y
 _atom_site_fract_z
 _atom_site_occupancy
  Fe  Fe0  1  0.66381419  0.64966072  0.49989038  1
  Fe  Fe1  1  0.64966072  0.33618581  0.99989038  1
  Fe  Fe2  1  0.83618581  0.14966072  0.50010962  1
  Fe  Fe3  1  0.14966072  0.16381419  0.00010962  1
  Fe  Fe4  1  0.33618581  0.35033928  0.49989038  1
  Fe  Fe5  1  0.35033928  0.66381419  0.99989038  1
  Fe  Fe6  1  0.16381419  0.85033928  0.50010962  1
  Fe  Fe7  1  0.85033928  0.83618581  0.00010962  1
  Fe  Fe8  1  0.50000000  0.00000000  0.75000000  1
  Fe  Fe9  1  0.00000000  0.50000000  0.25000000  1
  Fe  Fe10  1  0.00000000  0.50000000  0.75000000  1
  Fe  Fe11  1  0.50000000  0.00000000  0.25000000  1
  Fe  Fe12  1  0.50000000  -0.00000000  0.58074158  1
  Fe  Fe13  1  0.00000000  0.50000000  0.08074158  1
  Fe  Fe14  1  0.00000000  0.50000000  0.58047023  1
  Fe  Fe15  1  0.50000000  0.00000000  0.08047023  1
  Fe  Fe16  1  0.50000000  -0.00000000  0.41952977  1
  Fe  Fe17  1  0.00000000  0.50000000  0.91952977  1
  Fe  Fe18  1  0.00000000  0.50000000  0.41925842  1
  Fe  Fe19  1  0.50000000  0.00000000  0.91925842  1
  Bi  Bi20  1  0.84049081  0.82705492  0.65688991  1
  Bi  Bi21  1  0.82705492  0.15950919  0.15688991  1
  Bi  Bi22  1  0.65908570  0.32801697  0.65757824  1
  Bi  Bi23  1  0.32801697  0.34091430  0.15757824  1
  Bi  Bi24  1  0.84091430  0.82801697  0.34242176  1
  Bi  Bi25  1  0.82801697  0.15908570  0.84242176  1
  Bi  Bi26  1  0.65950919  0.32705492  0.34311009  1
  Bi  Bi27  1  0.32705492  0.34049081  0.84311009  1
  Bi  Bi28  1  0.15908570  0.17198303  0.34242176  1
  Bi  Bi29  1  0.17198303  0.84091430  0.84242176  1
  Bi  Bi30  1  0.34049081  0.67294508  0.34311009  1
  Bi  Bi31  1  0.67294508  0.65950919  0.84311009  1
  Bi  Bi32  1  0.15950919  0.17294508  0.65688991  1
  Bi  Bi33  1  0.17294508  0.84049081  0.15688991  1
  Bi  Bi34  1  0.34091430  0.67198303  0.65757824  1
  Bi  Bi35  1  0.67198303  0.65908570  0.15757824  1
  O  O36  1  0.62352906  0.20972864  0.08625823  1
  O  O37  1  0.20972864  0.37647094  0.58625823  1
  O  O38  1  0.87380037  0.70906434  0.08657332  1
  O  O39  1  0.70906434  0.12619963  0.58657332  1
  O  O40  1  0.62619963  0.20906434  0.91342668  1
  O  O41  1  0.20906434  0.37380037  0.41342668  1
  O  O42  1  0.87647094  0.70972864  0.91374177  1
  O  O43  1  0.70972864  0.12352906  0.41374177  1
  O  O44  1  0.37380037  0.79093566  0.91342668  1
  O  O45  1  0.79093566  0.62619963  0.41342668  1
  O  O46  1  0.12352906  0.29027136  0.91374177  1
  O  O47  1  0.29027136  0.87647094  0.41374177  1
  O  O48  1  0.37647094  0.79027136  0.08625823  1
  O  O49  1  0.79027136  0.62352906  0.58625823  1
  O  O50  1  0.12619963  0.29093566  0.08657332  1
  O  O51  1  0.29093566  0.87380037  0.58657332  1
  O  O52  1  0.63978002  0.91991737  0.83387970  1
  O  O53  1  0.91991737  0.36021998  0.33387970  1
  O  O54  1  0.86044787  0.41952487  0.83390713  1
  O  O55  1  0.41952487  0.13955213  0.33390713  1
  O  O56  1  0.63955213  0.91952487  0.16609287  1
  O  O57  1  0.91952487  0.36044787  0.66609287  1
  O  O58  1  0.86021998  0.41991737  0.16612030  1
  O  O59  1  0.41991737  0.13978002  0.66612030  1
  O  O60  1  0.36044787  0.08047513  0.16609287  1
  O  O61  1  0.08047513  0.63955213  0.66609287  1
  O  O62  1  0.13978002  0.58008263  0.16612030  1
  O  O63  1  0.58008263  0.86021998  0.66612030  1
  O  O64  1  0.36021998  0.08008263  0.83387970  1
  O  O65  1  0.08008263  0.63978002  0.33387970  1
  O  O66  1  0.13955213  0.58047513  0.83390713  1
  O  O67  1  0.58047513  0.86044787  0.33390713  1
  O  O68  1  0.90903072  0.36475948  0.49971943  1
  O  O69  1  0.36475948  0.09096928  0.99971943  1
  O  O70  1  0.59096928  0.86475948  0.50028057  1
  O  O71  1  0.86475948  0.40903072  0.00028057  1
  O  O72  1  0.09096928  0.63524052  0.49971943  1
  O  O73  1  0.63524052  0.90903072  0.99971943  1
  O  O74  1  0.40903072  0.13524052  0.50028057  1
  O  O75  1  0.13524052  0.59096928  0.00028057  1
  O  O76  1  0.67195487  0.17195487  0.25000000  1
  O  O77  1  0.17195487  0.32804513  0.75000000  1
  O  O78  1  0.82830439  0.67169561  0.25000000  1
  O  O79  1  0.67169561  0.17169561  0.75000000  1
  O  O80  1  0.17169561  0.32830439  0.25000000  1
  O  O81  1  0.82804513  0.67195487  0.75000000  1
  O  O82  1  0.32830439  0.82830439  0.75000000  1
  O  O83  1  0.32804513  0.82804513  0.25000000  1
  O  O84  1  0.50000000  0.50000000  0.49981422  1
  O  O85  1  0.50000000  0.50000000  0.99981422  1
  O  O86  1  0.00000000  0.00000000  0.50018578  1
  O  O87  1  0.00000000  -0.00000000  0.00018578  1
  F  F88  1  0.50000000  0.50000000  0.75387771  1
  F  F89  1  0.50000000  0.50000000  0.25387771  1
  F  F90  1  0.00000000  -0.00000000  0.24612229  1
  F  F91  1  0.00000000  0.00000000  0.74612229  1
