# generated using pymatgen
data_Er6Al2Ge7
_symmetry_space_group_name_H-M   'P 1'
_cell_length_a   4.09304152
_cell_length_b   5.61493296
_cell_length_c   14.99199465
_cell_angle_alpha   90.77514821
_cell_angle_beta   89.99999997
_cell_angle_gamma   111.37548099
_symmetry_Int_Tables_number   1
_chemical_formula_structural   Er6Al2Ge7
_chemical_formula_sum   'Er6 Al2 Ge7'
_cell_volume   320.81363244
_cell_formula_units_Z   1
loop_
 _symmetry_equiv_pos_site_id
 _symmetry_equiv_pos_as_xyz
  1  'x, y, z'
loop_
 _atom_site_type_symbol
 _atom_site_label
 _atom_site_symmetry_multiplicity
 _atom_site_fract_x
 _atom_site_fract_y
 _atom_site_fract_z
 _atom_site_occupancy
  Er  Er0  1  0.31296342  0.62592684  0.90662572  1
  Er  Er1  1  0.97358752  0.94717404  0.23904747  1
  Er  Er2  1  0.64116375  0.28232850  0.57191480  1
  Er  Er3  1  0.02641248  0.05282596  0.76095253  1
  Er  Er4  1  0.68703658  0.37407316  0.09337428  1
  Er  Er5  1  0.35883625  0.71767150  0.42808520  1
  Al  Al6  1  0.66616758  0.33233417  0.33374175  1
  Al  Al7  1  0.33383242  0.66766583  0.66625825  1
  Ge  Ge8  1  0.60022443  0.20044786  0.90026490  1
  Ge  Ge9  1  0.25952092  0.51904285  0.23913108  1
  Ge  Ge10  1  0.92873459  0.85746918  0.57068199  1
  Ge  Ge11  1  0.74047908  0.48095715  0.76086892  1
  Ge  Ge12  1  0.39977557  0.79955214  0.09973510  1
  Ge  Ge13  1  0.07126541  0.14253082  0.42931801  1
  Ge  Ge14  1  0.00000000  0.00000000  0.00000000  1
