# generated using pymatgen
data_Ca4Al11Si13(AgO16)3
_symmetry_space_group_name_H-M   'P 1'
_cell_length_a   12.85027269
_cell_length_b   12.20683818
_cell_length_c   12.22660319
_cell_angle_alpha   89.66944331
_cell_angle_beta   89.44972757
_cell_angle_gamma   89.69447279
_symmetry_Int_Tables_number   1
_chemical_formula_structural   Ca4Al11Si13(AgO16)3
_chemical_formula_sum   'Ca4 Al11 Si13 Ag3 O48'
_cell_volume   1917.73256784
_cell_formula_units_Z   1
loop_
 _symmetry_equiv_pos_site_id
 _symmetry_equiv_pos_as_xyz
  1  'x, y, z'
loop_
 _atom_site_type_symbol
 _atom_site_label
 _atom_site_symmetry_multiplicity
 _atom_site_fract_x
 _atom_site_fract_y
 _atom_site_fract_z
 _atom_site_occupancy
  Ca  Ca0  1  0.78039280  0.18362815  0.81731078  1
  Ca  Ca1  1  0.78379437  0.82099698  0.82328546  1
  Ca  Ca2  1  0.78849494  0.80869257  0.18664121  1
  Ca  Ca3  1  0.77453559  0.18512912  0.19210402  1
  Al  Al4  1  0.00367475  0.81419208  0.36667860  1
  Al  Al5  1  0.37399178  0.99918273  0.80530157  1
  Al  Al6  1  0.37203053  0.80798767  0.00473608  1
  Al  Al7  1  0.61026564  0.00316849  0.19645577  1
  Al  Al8  1  0.60790829  0.19561020  0.99791437  1
  Al  Al9  1  0.61159350  0.00278980  0.80573543  1
  Al  Al10  1  0.61500013  0.81021580  0.00771152  1
  Al  Al11  1  0.83019094  0.00144101  0.36524056  1
  Al  Al12  1  0.83831594  0.00056573  0.63962345  1
  Al  Al13  1  0.83347984  0.36080464  0.99917681  1
  Al  Al14  1  0.83491835  0.63353827  0.99898396  1
  Si  Si15  1  0.00458078  0.18677827  0.36831487  1
  Si  Si16  1  0.00254874  0.36303663  0.18309311  1
  Si  Si17  1  0.00831863  0.81476809  0.63286390  1
  Si  Si18  1  0.18115826  0.00323924  0.36661086  1
  Si  Si19  1  0.18030351  0.00199148  0.62249105  1
  Si  Si20  1  0.17986231  0.36511461  0.99942632  1
  Si  Si21  1  0.18247993  0.62099220  0.00073636  1
  Si  Si22  1  0.36665255  0.00325327  0.18866626  1
  Si  Si23  1  0.36926559  0.18801197  0.00171125  1
  Si  Si24  1  0.00355702  0.19008440  0.62610563  1
  Si  Si25  1  0.00904590  0.36737576  0.81231710  1
  Si  Si26  1  0.00323213  0.62298084  0.18654433  1
  Si  Si27  1  0.01043259  0.62930262  0.81429997  1
  Ag  Ag28  1  0.20964357  0.80692584  0.80645311  1
  Ag  Ag29  1  0.21130109  0.19098353  0.79573628  1
  Ag  Ag30  1  0.19964864  0.79725982  0.19612254  1
  O  O31  1  0.99097541  0.49242380  0.21123483  1
  O  O32  1  0.02345445  0.30190793  0.69684601  1
  O  O33  1  0.02139730  0.69097640  0.29611062  1
  O  O34  1  0.99732793  0.78765991  0.50640565  1
  O  O35  1  0.02878117  0.70082004  0.70302505  1
  O  O36  1  0.10781795  0.11189091  0.35099759  1
  O  O37  1  0.10246218  0.34207301  0.10224780  1
  O  O38  1  0.10616496  0.11178123  0.64487291  1
  O  O39  1  0.10542324  0.64154038  0.10634976  1
  O  O40  1  0.11495388  0.33986014  0.88421441  1
  O  O41  1  0.11593484  0.89374333  0.33553281  1
  O  O42  1  0.11436926  0.65027104  0.88903201  1
  O  O43  1  0.11252733  0.89134135  0.65620540  1
  O  O44  1  0.21550890  0.99747868  0.49527767  1
  O  O45  1  0.21591322  0.49217654  0.99564109  1
  O  O46  1  0.28317529  0.01440475  0.29137196  1
  O  O47  1  0.27871309  0.28584726  0.00295657  1
  O  O48  1  0.27785843  0.70071990  0.01048434  1
  O  O49  1  0.27438235  0.01311115  0.70488248  1
  O  O50  1  0.34809388  0.11129588  0.10978901  1
  O  O51  1  0.34783967  0.11908756  0.88910140  1
  O  O52  1  0.33695923  0.89130201  0.12183405  1
  O  O53  1  0.34116556  0.88464734  0.88642147  1
  O  O54  1  0.48141759  0.99973401  0.24007444  1
  O  O55  1  0.48099658  0.24731316  0.00308295  1
  O  O56  1  0.49460523  0.75263906  0.01217391  1
  O  O57  1  0.49388216  0.99688080  0.74260986  1
  O  O58  1  0.63263848  0.12089898  0.11681569  1
  O  O59  1  0.62907074  0.12753685  0.87456967  1
  O  O60  1  0.64572155  0.88270364  0.12800918  1
  O  O61  1  0.64076034  0.88988309  0.89029209  1
  O  O62  1  0.72134241  0.02094723  0.28201303  1
  O  O63  1  0.73039726  0.26910517  0.99518718  1
  O  O64  1  0.73787925  0.73393719  -0.00008153  1
  O  O65  1  0.73939252  0.00306703  0.73837747  1
  O  O66  1  0.81385065  0.49733318  0.99671675  1
  O  O67  1  0.81998328  0.99784734  0.50359837  1
  O  O68  1  0.90136845  0.12888761  0.67709857  1
  O  O69  1  0.90128370  0.67165518  0.12208728  1
  O  O70  1  0.90631389  0.67532375  0.87649253  1
  O  O71  1  0.90760196  0.87880123  0.68770654  1
  O  O72  1  0.89980898  0.12651834  0.32435128  1
  O  O73  1  0.89818657  0.31573641  0.12306076  1
  O  O74  1  0.90592026  0.32059385  0.87586877  1
  O  O75  1  0.89247325  0.88097415  0.31356687  1
  O  O76  1  0.99364885  0.22212000  0.49755734  1
  O  O77  1  0.01895601  0.29955680  0.29842912  1
  O  O78  1  0.00368191  0.49860364  0.78611447  1
