# generated using pymatgen
data_Cr3FeAs4
_symmetry_space_group_name_H-M   'P 1'
_cell_length_a   3.39147238
_cell_length_b   5.60946146
_cell_length_c   6.17302322
_cell_angle_alpha   90.17562373
_cell_angle_beta   90.00000000
_cell_angle_gamma   90.00000000
_symmetry_Int_Tables_number   1
_chemical_formula_structural   Cr3FeAs4
_chemical_formula_sum   'Cr3 Fe1 As4'
_cell_volume   117.43710153
_cell_formula_units_Z   1
loop_
 _symmetry_equiv_pos_site_id
 _symmetry_equiv_pos_as_xyz
  1  'x, y, z'
loop_
 _atom_site_type_symbol
 _atom_site_label
 _atom_site_symmetry_multiplicity
 _atom_site_fract_x
 _atom_site_fract_y
 _atom_site_fract_z
 _atom_site_occupancy
  Cr  Cr0  1  0.75000000  0.99525803  0.80089294  1
  Cr  Cr1  1  0.25000000  0.50368838  0.30198467  1
  Cr  Cr2  1  0.25000000  0.00257251  0.19759032  1
  Fe  Fe3  1  0.75000000  0.49722370  0.69711781  1
  As  As4  1  0.75000000  0.29975288  0.07437001  1
  As  As5  1  0.75000000  0.79861154  0.42615724  1
  As  As6  1  0.25000000  0.69758332  0.92274976  1
  As  As7  1  0.25000000  0.20530964  0.57913725  1
