# generated using pymatgen
data_CoP2O7
_symmetry_space_group_name_H-M   'P 1'
_cell_length_a   6.96333598
_cell_length_b   8.70486518
_cell_length_c   9.36471135
_cell_angle_alpha   90.00000000
_cell_angle_beta   71.97803437
_cell_angle_gamma   90.00000000
_symmetry_Int_Tables_number   1
_chemical_formula_structural   CoP2O7
_chemical_formula_sum   'Co4 P8 O28'
_cell_volume   539.79143254
_cell_formula_units_Z   4
loop_
 _symmetry_equiv_pos_site_id
 _symmetry_equiv_pos_as_xyz
  1  'x, y, z'
loop_
 _atom_site_type_symbol
 _atom_site_label
 _atom_site_symmetry_multiplicity
 _atom_site_fract_x
 _atom_site_fract_y
 _atom_site_fract_z
 _atom_site_occupancy
  Co  Co0  1  0.67718164  0.07374929  0.20498896  1
  Co  Co1  1  0.67718164  0.42625071  0.70498896  1
  Co  Co2  1  0.32281836  0.57374929  0.29501104  1
  Co  Co3  1  0.32281836  0.92625071  0.79501104  1
  P  P4  1  0.52249066  0.71127730  0.53120429  1
  P  P5  1  0.09011149  0.25029171  0.24417873  1
  P  P6  1  0.90988851  0.75029171  0.25582127  1
  P  P7  1  0.09011149  0.24970829  0.74417873  1
  P  P8  1  0.52249066  0.78872270  0.03120429  1
  P  P9  1  0.90988851  0.74970829  0.75582127  1
  P  P10  1  0.47750934  0.21127730  0.96879571  1
  P  P11  1  0.47750934  0.28872270  0.46879571  1
  O  O12  1  0.49611923  0.12984136  0.38602792  1
  O  O13  1  0.25664113  0.20979916  0.08670768  1
  O  O14  1  0.88620220  0.27017231  0.71626523  1
  O  O15  1  0.12941068  0.08777757  0.79045539  1
  O  O16  1  0.50388077  0.87015864  0.61397208  1
  O  O17  1  0.74335887  0.79020084  0.91329232  1
  O  O18  1  0.63721499  0.20590035  0.05013551  1
  O  O19  1  0.51535168  0.91920876  0.14015587  1
  O  O20  1  0.87058932  0.58777757  0.70954461  1
  O  O21  1  0.36278501  0.70590035  0.44986449  1
  O  O22  1  0.49611923  0.37015864  0.88602792  1
  O  O23  1  0.90294229  0.87296634  0.64043061  1
  O  O24  1  0.50388077  0.62984136  0.11397208  1
  O  O25  1  0.11379780  0.72982769  0.28373477  1
  O  O26  1  0.48464832  0.41920876  0.35984413  1
  O  O27  1  0.36278501  0.79409965  0.94986449  1
  O  O28  1  0.87058932  0.91222243  0.20954461  1
  O  O29  1  0.88620220  0.22982769  0.21626523  1
  O  O30  1  0.09705771  0.12703366  0.35956939  1
  O  O31  1  0.51535168  0.58079124  0.64015587  1
  O  O32  1  0.25664113  0.29020084  0.58670768  1
  O  O33  1  0.63721499  0.29409965  0.55013551  1
  O  O34  1  0.48464832  0.08079124  0.85984413  1
  O  O35  1  0.12941068  0.41222243  0.29045539  1
  O  O36  1  0.74335887  0.70979916  0.41329232  1
  O  O37  1  0.90294229  0.62703366  0.14043061  1
  O  O38  1  0.11379780  0.77017231  0.78373477  1
  O  O39  1  0.09705771  0.37296634  0.85956939  1
