# generated using pymatgen
data_CrAgSn(SeS)2
_symmetry_space_group_name_H-M   'P 1'
_cell_length_a   7.67461001
_cell_length_b   7.67461001
_cell_length_c   7.67461001
_cell_angle_alpha   89.76487134
_cell_angle_beta   59.36694174
_cell_angle_gamma   119.10150187
_symmetry_Int_Tables_number   1
_chemical_formula_structural   CrAgSn(SeS)2
_chemical_formula_sum   'Cr2 Ag2 Sn2 Se4 S4'
_cell_volume   320.20184994
_cell_formula_units_Z   2
loop_
 _symmetry_equiv_pos_site_id
 _symmetry_equiv_pos_as_xyz
  1  'x, y, z'
loop_
 _atom_site_type_symbol
 _atom_site_label
 _atom_site_symmetry_multiplicity
 _atom_site_fract_x
 _atom_site_fract_y
 _atom_site_fract_z
 _atom_site_occupancy
  Cr  Cr0  1  0.74077728  0.37048834  0.88873438  1
  Cr  Cr1  1  0.25922272  0.37048834  0.37028894  1
  Ag  Ag2  1  0.50000000  0.75823875  0.74176125  1
  Ag  Ag3  1  -0.00000000  0.99386623  0.00613377  1
  Sn  Sn4  1  0.25737309  0.88713581  0.37023728  1
  Sn  Sn5  1  0.74262691  0.37238963  0.37023728  1
  Se  Se6  1  0.24227185  0.60542873  0.15229942  1
  Se  Se7  1  0.75772815  0.60542873  0.63684312  1
  Se  Se8  1  0.78522352  0.16336439  0.62185912  1
  Se  Se9  1  0.21477648  0.59291736  0.62185912  1
  S  S10  1  0.26211869  0.14562149  0.59225982  1
  S  S11  1  0.73788131  0.14562149  0.11649720  1
  S  S12  1  0.71152749  0.58103285  0.13049464  1
  S  S13  1  0.28847251  0.15797787  0.13049464  1
