# generated using pymatgen
data_CaMg3(SiO3)4
_symmetry_space_group_name_H-M   'P 1'
_cell_length_a   5.31684747
_cell_length_b   6.68029023
_cell_length_c   6.68029023
_cell_angle_alpha   84.63977953
_cell_angle_beta   76.98940364
_cell_angle_gamma   76.98940364
_symmetry_Int_Tables_number   1
_chemical_formula_structural   CaMg3(SiO3)4
_chemical_formula_sum   'Ca1 Mg3 Si4 O12'
_cell_volume   225.01691936
_cell_formula_units_Z   1
loop_
 _symmetry_equiv_pos_site_id
 _symmetry_equiv_pos_as_xyz
  1  'x, y, z'
loop_
 _atom_site_type_symbol
 _atom_site_label
 _atom_site_symmetry_multiplicity
 _atom_site_fract_x
 _atom_site_fract_y
 _atom_site_fract_z
 _atom_site_occupancy
  Ca  Ca0  1  0.75000000  0.70029675  0.29970325  1
  Mg  Mg1  1  0.75000000  0.09339446  0.90660554  1
  Mg  Mg2  1  0.25000000  0.90464839  0.09535161  1
  Mg  Mg3  1  0.25000000  0.25437858  0.74562142  1
  Si  Si4  1  0.75031835  0.61685511  0.79959312  1
  Si  Si5  1  0.74968165  0.20040688  0.38314489  1
  Si  Si6  1  0.25734796  0.38329981  0.19555970  1
  Si  Si7  1  0.24265204  0.80444030  0.61670019  1
  O  O8  1  0.64806098  0.79056474  0.97139452  1
  O  O9  1  0.85193902  0.02860548  0.20943526  1
  O  O10  1  0.35542057  0.20819064  0.02389808  1
  O  O11  1  0.14457943  0.97610192  0.79180936  1
  O  O12  1  0.86029495  0.38022728  0.86766900  1
  O  O13  1  0.63970505  0.13233100  0.61977272  1
  O  O14  1  0.17332457  0.61597152  0.11067997  1
  O  O15  1  0.32667543  0.88932003  0.38402848  1
  O  O16  1  0.51419347  0.63512470  0.66365570  1
  O  O17  1  0.98580653  0.33634430  0.36487530  1
  O  O18  1  0.49216235  0.37496612  0.32546801  1
  O  O19  1  0.00783765  0.67453199  0.62503388  1
