# generated using pymatgen
data_Ca8Zn3Co(Si2O7)4
_symmetry_space_group_name_H-M   'P 1'
_cell_length_a   5.04397437
_cell_length_b   11.20088551
_cell_length_c   11.20088551
_cell_angle_alpha   90.00000000
_cell_angle_beta   90.00000000
_cell_angle_gamma   90.00000000
_symmetry_Int_Tables_number   1
_chemical_formula_structural   Ca8Zn3Co(Si2O7)4
_chemical_formula_sum   'Ca8 Zn3 Co1 Si8 O28'
_cell_volume   632.81619839
_cell_formula_units_Z   1
loop_
 _symmetry_equiv_pos_site_id
 _symmetry_equiv_pos_as_xyz
  1  'x, y, z'
loop_
 _atom_site_type_symbol
 _atom_site_label
 _atom_site_symmetry_multiplicity
 _atom_site_fract_x
 _atom_site_fract_y
 _atom_site_fract_z
 _atom_site_occupancy
  Ca  Ca0  1  0.50641998  0.24993965  0.91846007  1
  Ca  Ca1  1  0.50652900  0.74993363  0.41839713  1
  Ca  Ca2  1  0.49347100  0.41839713  0.25006637  1
  Ca  Ca3  1  0.49358002  0.91846007  0.75006035  1
  Ca  Ca4  1  0.50641998  0.75006035  0.08153993  1
  Ca  Ca5  1  0.50652900  0.25006637  0.58160287  1
  Ca  Ca6  1  0.49347100  0.58160287  0.74993363  1
  Ca  Ca7  1  0.49358002  0.08153993  0.24993965  1
  Zn  Zn8  1  0.99980256  0.50000000  0.00000000  1
  Zn  Zn9  1  0.00019744  0.00000000  0.50000000  1
  Zn  Zn10  1  0.00000000  0.00000000  0.00000000  1
  Co  Co11  1  0.00000000  0.50000000  0.50000000  1
  Si  Si12  1  0.93737527  0.24997839  0.10954746  1
  Si  Si13  1  0.93681401  0.75014271  0.60963851  1
  Si  Si14  1  0.06318599  0.60963851  0.24985729  1
  Si  Si15  1  0.06262473  0.10954746  0.75002161  1
  Si  Si16  1  0.93737527  0.75002161  0.89045254  1
  Si  Si17  1  0.93681401  0.24985729  0.39036149  1
  Si  Si18  1  0.06318599  0.39036149  0.75014271  1
  Si  Si19  1  0.06262473  0.89045254  0.24997839  1
  O  O20  1  0.18186416  0.24991359  0.75013971  1
  O  O21  1  0.18186416  0.75008641  0.24986029  1
  O  O22  1  0.81813584  0.24986029  0.24991359  1
  O  O23  1  0.81813584  0.75013971  0.75008641  1
  O  O24  1  0.78175203  0.36518149  0.05121625  1
  O  O25  1  0.78154600  0.86544199  0.55136368  1
  O  O26  1  0.21881103  0.55131768  0.36500609  1
  O  O27  1  0.21825148  0.05119764  0.86522394  1
  O  O28  1  0.78175203  0.63481851  0.94878375  1
  O  O29  1  0.78154600  0.13455801  0.44863632  1
  O  O30  1  0.21881103  0.44868232  0.63499391  1
  O  O31  1  0.21825148  0.94880236  0.13477606  1
  O  O32  1  0.21845400  0.44863632  0.86544199  1
  O  O33  1  0.21824797  0.94878375  0.36518149  1
  O  O34  1  0.78174852  0.86522394  0.94880236  1
  O  O35  1  0.78118897  0.36500609  0.44868232  1
  O  O36  1  0.21845400  0.55136368  0.13455801  1
  O  O37  1  0.21824797  0.05121625  0.63481851  1
  O  O38  1  0.78174852  0.13477606  0.05119764  1
  O  O39  1  0.78118897  0.63499391  0.55131768  1
  O  O40  1  0.25690204  0.24997308  0.10930058  1
  O  O41  1  0.25645116  0.74971774  0.60914045  1
  O  O42  1  0.74354884  0.60914045  0.25028226  1
  O  O43  1  0.74309796  0.10930058  0.75002692  1
  O  O44  1  0.25690204  0.75002692  0.89069942  1
  O  O45  1  0.25645116  0.25028226  0.39085955  1
  O  O46  1  0.74354884  0.39085955  0.74971774  1
  O  O47  1  0.74309796  0.89069942  0.24997308  1
