# generated using pymatgen
data_Cs2CuBr3
_symmetry_space_group_name_H-M   'P 1'
_cell_length_a   7.60923123
_cell_length_b   10.58888128
_cell_length_c   13.47241832
_cell_angle_alpha   90.00000000
_cell_angle_beta   90.00000000
_cell_angle_gamma   90.00000000
_symmetry_Int_Tables_number   1
_chemical_formula_structural   Cs2CuBr3
_chemical_formula_sum   'Cs8 Cu4 Br12'
_cell_volume   1085.51647722
_cell_formula_units_Z   4
loop_
 _symmetry_equiv_pos_site_id
 _symmetry_equiv_pos_as_xyz
  1  'x, y, z'
loop_
 _atom_site_type_symbol
 _atom_site_label
 _atom_site_symmetry_multiplicity
 _atom_site_fract_x
 _atom_site_fract_y
 _atom_site_fract_z
 _atom_site_occupancy
  Cs  Cs0  1  0.76747261  0.37445529  0.60376966  1
  Cs  Cs1  1  0.73252739  0.87445529  0.89623034  1
  Cs  Cs2  1  0.26747261  0.62554471  0.39623034  1
  Cs  Cs3  1  0.23252739  0.12554471  0.10376966  1
  Cs  Cs4  1  0.74445516  0.49872664  0.15959767  1
  Cs  Cs5  1  0.75554484  0.99872664  0.34040233  1
  Cs  Cs6  1  0.24445516  0.50127336  0.84040233  1
  Cs  Cs7  1  0.25554484  0.00127336  0.65959767  1
  Cu  Cu8  1  0.80162581  0.28975544  0.93748800  1
  Cu  Cu9  1  0.69837419  0.78975544  0.56251200  1
  Cu  Cu10  1  0.30162581  0.71024456  0.06251200  1
  Cu  Cu11  1  0.19837419  0.21024456  0.43748800  1
  Br  Br12  1  0.70805076  0.16243621  0.07267665  1
  Br  Br13  1  0.79194924  0.66243621  0.42732335  1
  Br  Br14  1  0.20805076  0.83756379  0.92732335  1
  Br  Br15  1  0.29194924  0.33756379  0.57267665  1
  Br  Br16  1  0.72657823  0.49466408  0.88132421  1
  Br  Br17  1  0.77342177  0.99466408  0.61867579  1
  Br  Br18  1  0.22657823  0.50533592  0.11867579  1
  Br  Br19  1  0.27342177  0.00533592  0.38132421  1
  Br  Br20  1  0.03832154  0.19239359  0.84454956  1
  Br  Br21  1  0.46167846  0.69239359  0.65545044  1
  Br  Br22  1  0.53832154  0.80760641  0.15545044  1
  Br  Br23  1  0.96167846  0.30760641  0.34454956  1
