# generated using pymatgen
data_CoMo
_symmetry_space_group_name_H-M   'P 1'
_cell_length_a   4.77747449
_cell_length_b   4.77747437
_cell_length_c   17.36135620
_cell_angle_alpha   89.99999997
_cell_angle_beta   97.90837373
_cell_angle_gamma   120.00000604
_symmetry_Int_Tables_number   1
_chemical_formula_structural   CoMo
_chemical_formula_sum   'Co13 Mo13'
_cell_volume   338.81263794
_cell_formula_units_Z   13
loop_
 _symmetry_equiv_pos_site_id
 _symmetry_equiv_pos_as_xyz
  1  'x, y, z'
loop_
 _atom_site_type_symbol
 _atom_site_label
 _atom_site_symmetry_multiplicity
 _atom_site_fract_x
 _atom_site_fract_y
 _atom_site_fract_z
 _atom_site_occupancy
  Co  Co0  1  0.90925073  0.70934851  0.61859924  1
  Co  Co1  1  0.90941239  0.20542083  0.11483321  1
  Co  Co2  1  0.41869702  0.70934851  0.61859924  1
  Co  Co3  1  0.41084165  0.20542083  0.11483321  1
  Co  Co4  1  0.90925073  0.19990222  0.61859924  1
  Co  Co5  1  0.90941239  0.70399156  0.11483321  1
  Co  Co6  1  0.09058761  0.79457917  0.88516679  1
  Co  Co7  1  0.09074927  0.29065149  0.38140076  1
  Co  Co8  1  0.58915835  0.79457917  0.88516679  1
  Co  Co9  1  0.58130298  0.29065149  0.38140076  1
  Co  Co10  1  0.09058761  0.29600844  0.88516679  1
  Co  Co11  1  0.09074927  0.80009778  0.38140076  1
  Co  Co12  1  -0.00000000  -0.00000000  -0.00000000  1
  Mo  Mo13  1  0.65290858  0.32645429  0.97936286  1
  Mo  Mo14  1  0.65240124  0.82620062  0.47860186  1
  Mo  Mo15  1  0.34759876  0.17379938  0.52139814  1
  Mo  Mo16  1  0.34709142  0.67354571  0.02063714  1
  Mo  Mo17  1  0.54992971  0.27496486  0.82489457  1
  Mo  Mo18  1  0.54790635  0.77395317  0.32185952  1
  Mo  Mo19  1  0.45209365  0.22604683  0.67814048  1
  Mo  Mo20  1  0.45007029  0.72503514  0.17510543  1
  Mo  Mo21  1  0.83630421  0.91815210  0.75445631  1
  Mo  Mo22  1  0.83333376  0.41666688  0.25000065  1
  Mo  Mo23  1  0.16666624  0.58333312  0.74999935  1
  Mo  Mo24  1  0.16369579  0.08184790  0.24554369  1
  Mo  Mo25  1  -0.00000000  0.50000000  0.50000000  1
