# generated using pymatgen
data_Ce(CoP3)16
_symmetry_space_group_name_H-M   'P 1'
_cell_length_a   6.68481357
_cell_length_b   6.68481357
_cell_length_c   21.70241233
_cell_angle_alpha   89.99391623
_cell_angle_beta   90.00608377
_cell_angle_gamma   109.44347498
_symmetry_Int_Tables_number   1
_chemical_formula_structural   Ce(CoP3)16
_chemical_formula_sum   'Ce1 Co16 P48'
_cell_volume   914.50196650
_cell_formula_units_Z   1
loop_
 _symmetry_equiv_pos_site_id
 _symmetry_equiv_pos_as_xyz
  1  'x, y, z'
loop_
 _atom_site_type_symbol
 _atom_site_label
 _atom_site_symmetry_multiplicity
 _atom_site_fract_x
 _atom_site_fract_y
 _atom_site_fract_z
 _atom_site_occupancy
  Ce  Ce0  1  0.00000000  -0.00000000  -0.00000000  1
  Co  Co1  1  0.75107676  0.75125900  0.12453418  1
  Co  Co2  1  0.24988002  0.25005906  0.37499002  1
  Co  Co3  1  0.75011998  0.74994094  0.62500998  1
  Co  Co4  1  0.24892324  0.24874100  0.87546582  1
  Co  Co5  1  0.50000000  -0.00000000  -0.00000000  1
  Co  Co6  1  0.00003591  0.49952327  0.25004324  1
  Co  Co7  1  0.50000000  -0.00000000  0.50000000  1
  Co  Co8  1  0.99996409  0.50047673  0.74995676  1
  Co  Co9  1  0.00000000  0.50000000  -0.00000000  1
  Co  Co10  1  0.50047673  0.99996409  0.25004324  1
  Co  Co11  1  0.00000000  0.50000000  0.50000000  1
  Co  Co12  1  0.49952327  0.00003591  0.74995676  1
  Co  Co13  1  0.24874100  0.24892324  0.12453418  1
  Co  Co14  1  0.74994094  0.75011998  0.37499002  1
  Co  Co15  1  0.25005906  0.24988002  0.62500998  1
  Co  Co16  1  0.75125900  0.75107676  0.87546582  1
  P  P17  1  0.81972141  0.47371578  0.16352116  1
  P  P18  1  0.32040228  0.97193433  0.41278799  1
  P  P19  1  0.82017730  0.47156354  0.66273876  1
  P  P20  1  0.32809875  0.97033549  0.91046742  1
  P  P21  1  0.67190125  0.02966451  0.08953258  1
  P  P22  1  0.17982270  0.52843646  0.33726124  1
  P  P23  1  0.67959772  0.02806567  0.58721201  1
  P  P24  1  0.18027859  0.52628422  0.83647884  1
  P  P25  1  0.52628422  0.18027859  0.16352116  1
  P  P26  1  0.02806567  0.67959772  0.41278799  1
  P  P27  1  0.52843646  0.17982270  0.66273876  1
  P  P28  1  0.02966451  0.67190125  0.91046742  1
  P  P29  1  0.97033549  0.32809875  0.08953258  1
  P  P30  1  0.47156354  0.82017730  0.33726124  1
  P  P31  1  0.97193433  0.32040228  0.58721201  1
  P  P32  1  0.47371578  0.81972141  0.83647884  1
  P  P33  1  0.72134996  0.57030450  0.03766454  1
  P  P34  1  0.22444499  0.07792243  0.28653018  1
  P  P35  1  0.72432121  0.57808083  0.53655813  1
  P  P36  1  0.22307998  0.07706537  0.78649191  1
  P  P37  1  0.77692002  0.92293463  0.21350809  1
  P  P38  1  0.27567879  0.42191917  0.46344187  1
  P  P39  1  0.77555501  0.92207757  0.71346982  1
  P  P40  1  0.27865004  0.42969550  0.96233546  1
  P  P41  1  0.07706537  0.22307998  0.21350809  1
  P  P42  1  0.57808083  0.72432121  0.46344187  1
  P  P43  1  0.07792243  0.22444499  0.71346982  1
  P  P44  1  0.57030450  0.72134996  0.96233546  1
  P  P45  1  0.42969550  0.27865004  0.03766454  1
  P  P46  1  0.92207757  0.77555501  0.28653018  1
  P  P47  1  0.42191917  0.27567879  0.53655813  1
  P  P48  1  0.92293463  0.77692002  0.78649191  1
  P  P49  1  0.25381697  0.74618303  0.20055996  1
  P  P50  1  0.75261784  0.24738216  0.44934362  1
  P  P51  1  0.25228279  0.74771721  0.69918946  1
  P  P52  1  0.74771212  0.25228788  0.94772369  1
  P  P53  1  0.25228788  0.74771212  0.05227631  1
  P  P54  1  0.74771721  0.25228279  0.30081054  1
  P  P55  1  0.24738216  0.75261784  0.55065638  1
  P  P56  1  0.74618303  0.25381697  0.79944004  1
  P  P57  1  0.39980496  0.60019504  0.12667713  1
  P  P58  1  0.89871961  0.10128039  0.37621859  1
  P  P59  1  0.39863468  0.60136532  0.62626510  1
  P  P60  1  0.89615407  0.10384593  0.87292856  1
  P  P61  1  0.10384593  0.89615407  0.12707144  1
  P  P62  1  0.60136532  0.39863468  0.37373590  1
  P  P63  1  0.10128039  0.89871961  0.62378041  1
  P  P64  1  0.60019504  0.39980496  0.87332187  1
