# generated using pymatgen
data_BaSrSm4O8
_symmetry_space_group_name_H-M   'P 1'
_cell_length_a   3.55582088
_cell_length_b   10.45936943
_cell_length_c   12.36493196
_cell_angle_alpha   90.00000000
_cell_angle_beta   90.00000000
_cell_angle_gamma   90.00000000
_symmetry_Int_Tables_number   1
_chemical_formula_structural   BaSrSm4O8
_chemical_formula_sum   'Ba2 Sr2 Sm8 O16'
_cell_volume   459.87215015
_cell_formula_units_Z   2
loop_
 _symmetry_equiv_pos_site_id
 _symmetry_equiv_pos_as_xyz
  1  'x, y, z'
loop_
 _atom_site_type_symbol
 _atom_site_label
 _atom_site_symmetry_multiplicity
 _atom_site_fract_x
 _atom_site_fract_y
 _atom_site_fract_z
 _atom_site_occupancy
  Ba  Ba0  1  0.75000000  0.74989865  0.14720754  1
  Ba  Ba1  1  0.75000000  0.24989865  0.35279246  1
  Sr  Sr2  1  0.25000000  0.25117335  0.85339501  1
  Sr  Sr3  1  0.25000000  0.75117335  0.64660499  1
  Sm  Sm4  1  0.75000000  0.08305879  0.10843082  1
  Sm  Sm5  1  0.75000000  0.58305879  0.39156918  1
  Sm  Sm6  1  0.25000000  0.91978755  0.88657441  1
  Sm  Sm7  1  0.25000000  0.41978755  0.61342559  1
  Sm  Sm8  1  0.75000000  0.07299082  0.61533814  1
  Sm  Sm9  1  0.75000000  0.57299082  0.88466186  1
  Sm  Sm10  1  0.25000000  0.92458008  0.38930313  1
  Sm  Sm11  1  0.25000000  0.42458008  0.11069687  1
  O  O12  1  0.75000000  0.98793611  0.28374939  1
  O  O13  1  0.75000000  0.48793611  0.21625061  1
  O  O14  1  0.25000000  0.00895340  0.71683442  1
  O  O15  1  0.25000000  0.50895340  0.78316558  1
  O  O16  1  0.75000000  0.37095882  0.97871735  1
  O  O17  1  0.75000000  0.87095882  0.52128265  1
  O  O18  1  0.25000000  0.62220357  0.01497573  1
  O  O19  1  0.25000000  0.12220357  0.48502427  1
  O  O20  1  0.75000000  0.28637681  0.67756939  1
  O  O21  1  0.75000000  0.78637681  0.82243061  1
  O  O22  1  0.25000000  0.71350278  0.32910154  1
  O  O23  1  0.25000000  0.21350278  0.17089846  1
  O  O24  1  0.75000000  0.07569491  0.91947416  1
  O  O25  1  0.75000000  0.57569491  0.58052584  1
  O  O26  1  0.25000000  0.93288436  0.07487641  1
  O  O27  1  0.25000000  0.43288436  0.42512359  1
