# generated using pymatgen
data_CaZrNbFeO7
_symmetry_space_group_name_H-M   'P 1'
_cell_length_a   7.47489882
_cell_length_b   7.47489882
_cell_length_c   11.59826177
_cell_angle_alpha   80.66859970
_cell_angle_beta   80.66859970
_cell_angle_gamma   59.86317001
_symmetry_Int_Tables_number   1
_chemical_formula_structural   CaZrNbFeO7
_chemical_formula_sum   'Ca4 Zr4 Nb4 Fe4 O28'
_cell_volume   550.54898368
_cell_formula_units_Z   4
loop_
 _symmetry_equiv_pos_site_id
 _symmetry_equiv_pos_as_xyz
  1  'x, y, z'
loop_
 _atom_site_type_symbol
 _atom_site_label
 _atom_site_symmetry_multiplicity
 _atom_site_fract_x
 _atom_site_fract_y
 _atom_site_fract_z
 _atom_site_occupancy
  Ca  Ca0  1  0.24907932  0.49477397  0.00290771  1
  Ca  Ca1  1  0.49933331  0.74504985  0.48847930  1
  Ca  Ca2  1  0.74504985  0.49933331  0.98847930  1
  Ca  Ca3  1  0.49477397  0.24907932  0.50290771  1
  Zr  Zr4  1  0.99822930  0.25637697  0.52819896  1
  Zr  Zr5  1  0.73052090  0.01936989  0.97799056  1
  Zr  Zr6  1  0.01936989  0.73052090  0.47799056  1
  Zr  Zr7  1  0.25637697  0.99822930  0.02819896  1
  Nb  Nb8  1  0.87415730  0.12384917  0.25427960  1
  Nb  Nb9  1  0.12384917  0.87415730  0.75427960  1
  Nb  Nb10  1  0.63223376  0.85430141  0.74068600  1
  Nb  Nb11  1  0.85430141  0.63223376  0.24068600  1
  Fe  Fe12  1  0.38389079  0.53477544  0.24476983  1
  Fe  Fe13  1  0.53477544  0.38389079  0.74476983  1
  Fe  Fe14  1  0.13408396  0.36443609  0.76026996  1
  Fe  Fe15  1  0.36443609  0.13408396  0.26026996  1
  O  O16  1  0.17979270  0.44873558  0.21865246  1
  O  O17  1  0.58223193  0.83993463  0.28363288  1
  O  O18  1  0.83993463  0.58223193  0.78363288  1
  O  O19  1  0.44873558  0.17979270  0.71865246  1
  O  O20  1  0.11917754  0.28617715  0.93522870  1
  O  O21  1  0.71476782  0.87556042  0.56865255  1
  O  O22  1  0.87556042  0.71476782  0.06865255  1
  O  O23  1  0.28617715  0.11917754  0.43522870  1
  O  O24  1  0.53590431  0.88163231  0.91660077  1
  O  O25  1  0.11958053  0.45544731  0.58089743  1
  O  O26  1  0.45544731  0.11958053  0.08089743  1
  O  O27  1  0.88163231  0.53590431  0.41660077  1
  O  O28  1  0.23186009  0.56335507  0.78633962  1
  O  O29  1  0.43689145  0.77401452  0.71260016  1
  O  O30  1  0.77401452  0.43689145  0.21260016  1
  O  O31  1  0.56335507  0.23186009  0.28633962  1
  O  O32  1  0.86735181  0.11395981  0.08275297  1
  O  O33  1  0.88690402  0.13201746  0.41785041  1
  O  O34  1  0.13201746  0.88690402  0.91785041  1
  O  O35  1  0.11395981  0.86735181  0.58275297  1
  O  O36  1  0.06801537  0.16287976  0.70729199  1
  O  O37  1  0.83050069  0.94817015  0.79571561  1
  O  O38  1  0.94817015  0.83050069  0.29571561  1
  O  O39  1  0.16287976  0.06801537  0.20729199  1
  O  O40  1  0.33132201  0.60268459  0.40138724  1
  O  O41  1  0.39307339  0.66533617  0.09330528  1
  O  O42  1  0.66533617  0.39307339  0.59330528  1
  O  O43  1  0.60268459  0.33132201  0.90138724  1
