# generated using pymatgen
data_Ca2AlZn16
_symmetry_space_group_name_H-M   'P 1'
_cell_length_a   6.88850166
_cell_length_b   6.88850166
_cell_length_c   6.88850234
_cell_angle_alpha   82.93859807
_cell_angle_beta   82.93859807
_cell_angle_gamma   82.93859550
_symmetry_Int_Tables_number   1
_chemical_formula_structural   Ca2AlZn16
_chemical_formula_sum   'Ca2 Al1 Zn16'
_cell_volume   319.99470196
_cell_formula_units_Z   1
loop_
 _symmetry_equiv_pos_site_id
 _symmetry_equiv_pos_as_xyz
  1  'x, y, z'
loop_
 _atom_site_type_symbol
 _atom_site_label
 _atom_site_symmetry_multiplicity
 _atom_site_fract_x
 _atom_site_fract_y
 _atom_site_fract_z
 _atom_site_occupancy
  Ca  Ca0  1  0.66320242  0.66320242  0.66320242  1
  Ca  Ca1  1  0.33709484  0.33709484  0.33709484  1
  Al  Al2  1  0.09975809  0.09975809  0.09975809  1
  Zn  Zn3  1  0.84011169  0.34839261  0.34839261  1
  Zn  Zn4  1  0.34839261  0.34839261  0.84011169  1
  Zn  Zn5  1  0.34839261  0.84011169  0.34839261  1
  Zn  Zn6  1  0.16036041  0.65177529  0.65177529  1
  Zn  Zn7  1  0.65177529  0.65177529  0.16036041  1
  Zn  Zn8  1  0.65177529  0.16036041  0.65177529  1
  Zn  Zn9  1  0.70210848  0.29764583  0.00008260  1
  Zn  Zn10  1  0.29764583  0.00008260  0.70210848  1
  Zn  Zn11  1  0.00008260  0.70210848  0.29764583  1
  Zn  Zn12  1  0.70210848  0.00008260  0.29764583  1
  Zn  Zn13  1  0.00008260  0.29764583  0.70210848  1
  Zn  Zn14  1  0.29764583  0.70210848  0.00008260  1
  Zn  Zn15  1  -0.00005614  -0.00005614  0.50082164  1
  Zn  Zn16  1  -0.00005614  0.50082164  -0.00005614  1
  Zn  Zn17  1  0.50082164  -0.00005614  -0.00005614  1
  Zn  Zn18  1  0.89875357  0.89875357  0.89875357  1
