# generated using pymatgen
data_BaSr2In6O12
_symmetry_space_group_name_H-M   'P 1'
_cell_length_a   3.35459189
_cell_length_b   10.12459472
_cell_length_c   10.12442716
_cell_angle_alpha   119.99811691
_cell_angle_beta   90.00163766
_cell_angle_gamma   90.00030619
_symmetry_Int_Tables_number   1
_chemical_formula_structural   BaSr2In6O12
_chemical_formula_sum   'Ba1 Sr2 In6 O12'
_cell_volume   297.80135718
_cell_formula_units_Z   1
loop_
 _symmetry_equiv_pos_site_id
 _symmetry_equiv_pos_as_xyz
  1  'x, y, z'
loop_
 _atom_site_type_symbol
 _atom_site_label
 _atom_site_symmetry_multiplicity
 _atom_site_fract_x
 _atom_site_fract_y
 _atom_site_fract_z
 _atom_site_occupancy
  Ba  Ba0  1  0.66246024  0.00001162  -0.00000146  1
  Sr  Sr1  1  0.74951364  0.66666038  0.33333332  1
  Sr  Sr2  1  0.25000559  0.33334923  0.66667636  1
  In  In3  1  0.75102870  0.35141568  0.00190568  1
  In  In4  1  0.75096129  0.99810805  0.34950858  1
  In  In5  1  0.75094199  0.65049441  0.64860606  1
  In  In6  1  0.24779857  0.65070070  0.99892939  1
  In  In7  1  0.24785921  0.00106632  0.65177870  1
  In  In8  1  0.24787336  0.34823293  0.34928308  1
  O  O9  1  0.74938682  0.12540353  0.60302250  1
  O  O10  1  0.74937763  0.39695978  0.52236661  1
  O  O11  1  0.74939043  0.47761883  0.87458544  1
  O  O12  1  0.25006658  0.87656245  0.39850991  1
  O  O13  1  0.25005253  0.60148862  0.47805758  1
  O  O14  1  0.25008354  0.52195264  0.12344553  1
  O  O15  1  0.74817116  0.88768073  0.69378408  1
  O  O16  1  0.74818061  0.30621119  0.19389625  1
  O  O17  1  0.74816517  0.80611422  0.11232062  1
  O  O18  1  0.24889961  0.10559932  0.29225655  1
  O  O19  1  0.24886567  0.70772448  0.81333932  1
  O  O20  1  0.24891766  0.18664490  0.89439591  1
