# generated using pymatgen
data_Ca2GdTaO6
_symmetry_space_group_name_H-M   'P 1'
_cell_length_a   5.64723562
_cell_length_b   5.90989500
_cell_length_c   8.17384153
_cell_angle_alpha   90.00000000
_cell_angle_beta   89.95127896
_cell_angle_gamma   90.00000000
_symmetry_Int_Tables_number   1
_chemical_formula_structural   Ca2GdTaO6
_chemical_formula_sum   'Ca4 Gd2 Ta2 O12'
_cell_volume   272.79834419
_cell_formula_units_Z   2
loop_
 _symmetry_equiv_pos_site_id
 _symmetry_equiv_pos_as_xyz
  1  'x, y, z'
loop_
 _atom_site_type_symbol
 _atom_site_label
 _atom_site_symmetry_multiplicity
 _atom_site_fract_x
 _atom_site_fract_y
 _atom_site_fract_z
 _atom_site_occupancy
  Ca  Ca0  1  0.51480959  0.94597168  0.24365758  1
  Ca  Ca1  1  0.01480959  0.55402832  0.74365758  1
  Ca  Ca2  1  0.48519041  0.05402832  0.75634242  1
  Ca  Ca3  1  0.98519041  0.44597168  0.25634242  1
  Gd  Gd4  1  -0.00000000  0.00000000  0.50000000  1
  Gd  Gd5  1  0.50000000  0.50000000  0.00000000  1
  Ta  Ta6  1  0.50000000  0.50000000  0.50000000  1
  Ta  Ta7  1  -0.00000000  0.00000000  0.00000000  1
  O  O8  1  0.79062798  0.67933780  0.44667467  1
  O  O9  1  0.29062798  0.82066220  0.94667467  1
  O  O10  1  0.20937202  0.32066220  0.55332533  1
  O  O11  1  0.70937202  0.17933780  0.05332533  1
  O  O12  1  0.38358929  0.55511779  0.26928773  1
  O  O13  1  0.88358929  0.94488221  0.76928773  1
  O  O14  1  0.61641071  0.44488221  0.73071227  1
  O  O15  1  0.11641071  0.05511779  0.23071227  1
  O  O16  1  0.82547389  0.71629761  0.07079652  1
  O  O17  1  0.32547389  0.78370239  0.57079652  1
  O  O18  1  0.17452611  0.28370239  0.92920348  1
  O  O19  1  0.67452611  0.21629761  0.42920348  1
