# generated using pymatgen
data_BaSn2Bi
_symmetry_space_group_name_H-M   'P 1'
_cell_length_a   7.31469818
_cell_length_b   7.31469820
_cell_length_c   12.23085187
_cell_angle_alpha   72.58459325
_cell_angle_beta   107.41540514
_cell_angle_gamma   120.03585811
_symmetry_Int_Tables_number   1
_chemical_formula_structural   BaSn2Bi
_chemical_formula_sum   'Ba4 Sn8 Bi4'
_cell_volume   531.63503688
_cell_formula_units_Z   4
loop_
 _symmetry_equiv_pos_site_id
 _symmetry_equiv_pos_as_xyz
  1  'x, y, z'
loop_
 _atom_site_type_symbol
 _atom_site_label
 _atom_site_symmetry_multiplicity
 _atom_site_fract_x
 _atom_site_fract_y
 _atom_site_fract_z
 _atom_site_occupancy
  Ba  Ba0  1  0.21354300  0.78645700  0.64036336  1
  Ba  Ba1  1  0.78558479  0.21441521  0.35929947  1
  Ba  Ba2  1  0.62890634  0.37109366  0.88806565  1
  Ba  Ba3  1  0.37092523  0.62907477  0.11306809  1
  Sn  Sn4  1  0.90241240  0.09758760  0.12329728  1
  Sn  Sn5  1  0.31699546  0.09611167  0.12340611  1
  Sn  Sn6  1  0.90388833  0.68300454  0.12340611  1
  Sn  Sn7  1  0.09544707  0.90455293  0.87224337  1
  Sn  Sn8  1  0.68337061  0.90278568  0.87519949  1
  Sn  Sn9  1  0.09721432  0.31662939  0.87519949  1
  Sn  Sn10  1  0.21361202  0.29643277  0.62566889  1
  Sn  Sn11  1  0.70356723  0.78638798  0.62566889  1
  Bi  Bi12  1  0.70308018  0.29691982  0.62345056  1
  Bi  Bi13  1  0.78988735  0.70669963  0.37566787  1
  Bi  Bi14  1  0.29330037  0.21011265  0.37566787  1
  Bi  Bi15  1  0.29826530  0.70173470  0.38032749  1
