# generated using pymatgen
data_Ca4Be3AlSi9(HO14)2
_symmetry_space_group_name_H-M   'P 1'
_cell_length_a   5.02585405
_cell_length_b   12.00457206
_cell_length_c   19.65536307
_cell_angle_alpha   89.86070278
_cell_angle_beta   89.33454527
_cell_angle_gamma   77.91685994
_symmetry_Int_Tables_number   1
_chemical_formula_structural   Ca4Be3AlSi9(HO14)2
_chemical_formula_sum   'Ca8 Be6 Al2 Si18 H4 O56'
_cell_volume   1159.52014611
_cell_formula_units_Z   2
loop_
 _symmetry_equiv_pos_site_id
 _symmetry_equiv_pos_as_xyz
  1  'x, y, z'
loop_
 _atom_site_type_symbol
 _atom_site_label
 _atom_site_symmetry_multiplicity
 _atom_site_fract_x
 _atom_site_fract_y
 _atom_site_fract_z
 _atom_site_occupancy
  Ca  Ca0  1  0.67248914  0.16711802  0.65248318  1
  Ca  Ca1  1  0.16039283  0.16711802  0.34751682  1
  Ca  Ca2  1  0.65516468  0.16400768  0.84550896  1
  Ca  Ca3  1  0.18082763  0.16400768  0.15449104  1
  Ca  Ca4  1  0.32751086  0.83288198  0.34751682  1
  Ca  Ca5  1  0.83960717  0.83288198  0.65248318  1
  Ca  Ca6  1  0.34483532  0.83599232  0.15449104  1
  Ca  Ca7  1  0.81917237  0.83599232  0.84550896  1
  Be  Be8  1  0.05283359  0.24770074  0.75017071  1
  Be  Be9  1  0.69946567  0.24770074  0.24982929  1
  Be  Be10  1  0.94716641  0.75229926  0.24982929  1
  Be  Be11  1  0.30053433  0.75229926  0.75017071  1
  Be  Be12  1  0.30146255  0.00000000  0.89990707  1
  Be  Be13  1  0.69853745  0.00000000  0.10009293  1
  Al  Al14  1  0.40487448  0.19025104  0.50000000  1
  Al  Al15  1  0.59512552  0.80974896  0.50000000  1
  Si  Si16  1  0.82972143  0.34055714  0.50000000  1
  Si  Si17  1  0.83140026  0.33719948  0.00000000  1
  Si  Si18  1  0.17027857  0.65944286  0.50000000  1
  Si  Si19  1  0.16859974  0.66280052  0.00000000  1
  Si  Si20  1  0.22321719  0.00000000  0.75403650  1
  Si  Si21  1  0.77678281  0.00000000  0.24596350  1
  Si  Si22  1  0.92341619  0.42753543  0.64351211  1
  Si  Si23  1  0.64904838  0.42753543  0.35648789  1
  Si  Si24  1  0.92129429  0.42688504  0.85572359  1
  Si  Si25  1  0.65182068  0.42688504  0.14427641  1
  Si  Si26  1  0.07658381  0.57246457  0.35648789  1
  Si  Si27  1  0.35095162  0.57246457  0.64351211  1
  Si  Si28  1  0.07870571  0.57311496  0.14427641  1
  Si  Si29  1  0.34817932  0.57311496  0.85572359  1
  Si  Si30  1  0.40931425  0.18137151  0.00000000  1
  Si  Si31  1  0.59068575  0.81862849  0.00000000  1
  Si  Si32  1  0.27585534  0.00000000  0.60626490  1
  Si  Si33  1  0.72414466  0.00000000  0.39373510  1
  H  H34  1  0.39752926  0.32277544  0.74940017  1
  H  H35  1  0.27969529  0.32277544  0.25059983  1
  H  H36  1  0.60247074  0.67722456  0.25059983  1
  H  H37  1  0.72030471  0.67722456  0.74940017  1
  O  O38  1  0.92383010  0.41688984  0.56020219  1
  O  O39  1  0.65928006  0.41688984  0.43979781  1
  O  O40  1  0.91210826  0.41405935  0.93871805  1
  O  O41  1  0.67383239  0.41405935  0.06128195  1
  O  O42  1  0.07616990  0.58311016  0.43979781  1
  O  O43  1  0.34071994  0.58311016  0.56020219  1
  O  O44  1  0.08789174  0.58594065  0.06128195  1
  O  O45  1  0.32616761  0.58594065  0.93871805  1
  O  O46  1  0.38220062  0.24306267  0.74995501  1
  O  O47  1  0.37473670  0.24306267  0.25004499  1
  O  O48  1  0.61779938  0.75693733  0.25004499  1
  O  O49  1  0.62526330  0.75693733  0.74995501  1
  O  O50  1  0.95883197  0.00000000  0.61370847  1
  O  O51  1  0.04116803  0.00000000  0.38629153  1
  O  O52  1  0.98542882  0.00000000  0.88231031  1
  O  O53  1  0.01457118  0.00000000  0.11768969  1
  O  O54  1  0.42163045  0.00000000  0.68427291  1
  O  O55  1  0.57836955  0.00000000  0.31572709  1
  O  O56  1  0.42498331  0.00000000  0.81917560  1
  O  O57  1  0.57501669  0.00000000  0.18082440  1
  O  O58  1  0.34357375  0.11526845  0.57287125  1
  O  O59  1  0.54115780  0.11526845  0.42712875  1
  O  O60  1  0.35557095  0.11490682  0.93258129  1
  O  O61  1  0.52952222  0.11490682  0.06741871  1
  O  O62  1  0.65642625  0.88473155  0.42712875  1
  O  O63  1  0.45884220  0.88473155  0.57287125  1
  O  O64  1  0.64442905  0.88509318  0.06741871  1
  O  O65  1  0.47047778  0.88509318  0.93258129  1
  O  O66  1  0.90906057  0.30861862  0.68069081  1
  O  O67  1  0.78232081  0.30861862  0.31930919  1
  O  O68  1  0.90488411  0.30799187  0.81992144  1
  O  O69  1  0.78712402  0.30799187  0.18007856  1
  O  O70  1  0.09093943  0.69138138  0.31930919  1
  O  O71  1  0.21767919  0.69138138  0.68069081  1
  O  O72  1  0.09511589  0.69200813  0.18007856  1
  O  O73  1  0.21287598  0.69200813  0.81992144  1
  O  O74  1  0.20374787  0.46710420  0.66567025  1
  O  O75  1  0.32914793  0.46710420  0.33432975  1
  O  O76  1  0.20557213  0.46621234  0.83526264  1
  O  O77  1  0.32821553  0.46621234  0.16473736  1
  O  O78  1  0.79625213  0.53289580  0.33432975  1
  O  O79  1  0.67085207  0.53289580  0.66567025  1
  O  O80  1  0.79442787  0.53378766  0.16473736  1
  O  O81  1  0.67178447  0.53378766  0.83526264  1
  O  O82  1  0.98392700  0.11651892  0.75105619  1
  O  O83  1  0.89955408  0.11651892  0.24894381  1
  O  O84  1  0.01607300  0.88348108  0.24894381  1
  O  O85  1  0.10044592  0.88348108  0.75105619  1
  O  O86  1  0.63788229  0.26276909  0.53712510  1
  O  O87  1  0.09934862  0.26276909  0.46287490  1
  O  O88  1  0.62431099  0.25971799  0.96939782  1
  O  O89  1  0.11597102  0.25971799  0.03060218  1
  O  O90  1  0.36211771  0.73723091  0.46287490  1
  O  O91  1  0.90065138  0.73723091  0.53712510  1
  O  O92  1  0.37568901  0.74028201  0.03060218  1
  O  O93  1  0.88402898  0.74028201  0.96939782  1
