# generated using pymatgen
data_Ba2SrCa3Mg2(SiO4)4
_symmetry_space_group_name_H-M   'P 1'
_cell_length_a   5.50842403
_cell_length_b   9.53835327
_cell_length_c   6.94513807
_cell_angle_alpha   89.99851362
_cell_angle_beta   89.99822643
_cell_angle_gamma   90.01749273
_symmetry_Int_Tables_number   1
_chemical_formula_structural   Ba2SrCa3Mg2(SiO4)4
_chemical_formula_sum   'Ba2 Sr1 Ca3 Mg2 Si4 O16'
_cell_volume   364.90652647
_cell_formula_units_Z   1
loop_
 _symmetry_equiv_pos_site_id
 _symmetry_equiv_pos_as_xyz
  1  'x, y, z'
loop_
 _atom_site_type_symbol
 _atom_site_label
 _atom_site_symmetry_multiplicity
 _atom_site_fract_x
 _atom_site_fract_y
 _atom_site_fract_z
 _atom_site_occupancy
  Ba  Ba0  1  -0.00000461  0.99940686  0.49988453  1
  Ba  Ba1  1  0.50006100  0.50060999  0.49978657  1
  Sr  Sr2  1  0.99786328  0.33284547  0.84161050  1
  Ca  Ca3  1  0.50340854  0.83384797  0.83470147  1
  Ca  Ca4  1  0.50024815  0.16538104  0.16605103  1
  Ca  Ca5  1  0.99970834  0.66789089  0.16539700  1
  Mg  Mg6  1  0.99977331  0.99798762  0.00014110  1
  Mg  Mg7  1  0.50028683  0.50210253  0.00038508  1
  Si  Si8  1  0.00028128  0.33345401  0.27081242  1
  Si  Si9  1  0.49972916  0.83321739  0.27370571  1
  Si  Si10  1  0.50141402  0.16376964  0.72669971  1
  Si  Si11  1  0.99839135  0.66954129  0.72682878  1
  O  O12  1  0.00081793  0.33338437  0.50291658  1
  O  O13  1  0.49934949  0.83328097  0.50747218  1
  O  O14  1  0.49950176  0.16579304  0.49280115  1
  O  O15  1  0.00040869  0.66750274  0.49297045  1
  O  O16  1  0.20660563  0.44046466  0.17603485  1
  O  O17  1  0.70619349  0.93985059  0.17893025  1
  O  O18  1  0.73657051  0.38365287  0.17740379  1
  O  O19  1  0.23671744  0.88261517  0.17771116  1
  O  O20  1  0.05674775  0.17656158  0.17633464  1
  O  O21  1  0.55735150  0.67686527  0.17880986  1
  O  O22  1  0.28737530  0.06277123  0.82207132  1
  O  O23  1  0.78228138  0.57034674  0.82212889  1
  O  O24  1  0.75645317  0.10323471  0.82117928  1
  O  O25  1  0.25833568  0.61534765  0.82311661  1
  O  O26  1  0.46613740  0.32224474  0.82241079  1
  O  O27  1  0.94799226  0.82602895  0.82170431  1
