# generated using pymatgen
data_Ba3NiSbRuO9
_symmetry_space_group_name_H-M   'P 1'
_cell_length_a   5.88579659
_cell_length_b   5.92155638
_cell_length_c   14.54260324
_cell_angle_alpha   90.00000000
_cell_angle_beta   90.64026017
_cell_angle_gamma   59.79881621
_symmetry_Int_Tables_number   1
_chemical_formula_structural   Ba3NiSbRuO9
_chemical_formula_sum   'Ba6 Ni2 Sb2 Ru2 O18'
_cell_volume   438.01965523
_cell_formula_units_Z   2
loop_
 _symmetry_equiv_pos_site_id
 _symmetry_equiv_pos_as_xyz
  1  'x, y, z'
loop_
 _atom_site_type_symbol
 _atom_site_label
 _atom_site_symmetry_multiplicity
 _atom_site_fract_x
 _atom_site_fract_y
 _atom_site_fract_z
 _atom_site_occupancy
  Ba  Ba0  1  0.33380125  0.33309937  0.40949388  1
  Ba  Ba1  1  0.66619875  0.66690063  0.59050612  1
  Ba  Ba2  1  0.66773521  0.66613240  0.91436021  1
  Ba  Ba3  1  0.33226479  0.33386760  0.08563979  1
  Ba  Ba4  1  0.00025172  0.99987414  0.75072710  1
  Ba  Ba5  1  0.99974828  0.00012586  0.24927290  1
  Ni  Ni6  1  0.00000000  -0.00000000  0.50000000  1
  Ni  Ni7  1  0.00000000  -0.00000000  0.00000000  1
  Sb  Sb8  1  0.66279374  0.66860313  0.15642201  1
  Sb  Sb9  1  0.33720626  0.33139687  0.84357799  1
  Ru  Ru10  1  0.33334219  0.33332890  0.64930604  1
  Ru  Ru11  1  0.66665781  0.66667110  0.35069396  1
  O  O12  1  0.17186114  0.65873403  0.91331952  1
  O  O13  1  0.66982321  0.16508839  0.91488695  1
  O  O14  1  0.17186114  0.16940484  0.91331952  1
  O  O15  1  0.82813886  0.34126597  0.08668048  1
  O  O16  1  0.33017679  0.83491161  0.08511305  1
  O  O17  1  0.82813886  0.83059516  0.08668048  1
  O  O18  1  0.82910908  0.34199237  0.41929789  1
  O  O19  1  0.34256149  0.82871926  0.41882380  1
  O  O20  1  0.82910908  0.82889855  0.41929789  1
  O  O21  1  0.17089092  0.65800763  0.58070211  1
  O  O22  1  0.65743851  0.17128074  0.58117620  1
  O  O23  1  0.17089092  0.17110145  0.58070211  1
  O  O24  1  0.48455506  0.03470336  0.74688452  1
  O  O25  1  0.03527971  0.48236014  0.74501671  1
  O  O26  1  0.48455506  0.48074158  0.74688452  1
  O  O27  1  0.51544494  0.96529664  0.25311548  1
  O  O28  1  0.96472029  0.51763986  0.25498329  1
  O  O29  1  0.51544494  0.51925842  0.25311548  1
