# generated using pymatgen
data_Ba4Fe12Si8ClO35
_symmetry_space_group_name_H-M   'P 1'
_cell_length_a   8.90543978
_cell_length_b   10.83090883
_cell_length_c   8.89488674
_cell_angle_alpha   101.52808054
_cell_angle_beta   75.49520090
_cell_angle_gamma   108.09748450
_symmetry_Int_Tables_number   1
_chemical_formula_structural   Ba4Fe12Si8ClO35
_chemical_formula_sum   'Ba4 Fe12 Si8 Cl1 O35'
_cell_volume   782.53705943
_cell_formula_units_Z   1
loop_
 _symmetry_equiv_pos_site_id
 _symmetry_equiv_pos_as_xyz
  1  'x, y, z'
loop_
 _atom_site_type_symbol
 _atom_site_label
 _atom_site_symmetry_multiplicity
 _atom_site_fract_x
 _atom_site_fract_y
 _atom_site_fract_z
 _atom_site_occupancy
  Ba  Ba0  1  0.72979152  0.43741276  0.48892988  1
  Ba  Ba1  1  0.23114997  0.44459817  0.99097848  1
  Ba  Ba2  1  0.77056411  0.56264303  0.01101782  1
  Ba  Ba3  1  0.27014149  0.56125641  0.51032302  1
  Fe  Fe4  1  0.62586642  0.00347196  0.61538096  1
  Fe  Fe5  1  0.11099540  0.98566630  0.13676097  1
  Fe  Fe6  1  0.85997781  0.98996463  0.87940099  1
  Fe  Fe7  1  0.39313420  0.00307942  0.38032744  1
  Fe  Fe8  1  0.42714440  0.27955157  0.21320494  1
  Fe  Fe9  1  0.92688585  0.27939019  0.71376120  1
  Fe  Fe10  1  0.07268105  0.71879894  0.28938386  1
  Fe  Fe11  1  0.57207556  0.71902594  0.78634835  1
  Fe  Fe12  1  0.75417690  0.00073142  0.24581359  1
  Fe  Fe13  1  0.25944463  0.98699154  0.73293075  1
  Fe  Fe14  1  0.49987027  0.00230403  0.00009819  1
  Fe  Fe15  1  0.99998398  0.99982088  0.50285522  1
  Si  Si16  1  0.53477464  0.26868164  0.82401613  1
  Si  Si17  1  0.03433677  0.26999161  0.32717877  1
  Si  Si18  1  0.80881750  0.27081095  0.09970064  1
  Si  Si19  1  0.31238301  0.27037415  0.59869971  1
  Si  Si20  1  0.96481358  0.72967178  0.67577803  1
  Si  Si21  1  0.46287785  0.72855131  0.17577060  1
  Si  Si22  1  0.69061217  0.73039212  0.40028289  1
  Si  Si23  1  0.18991302  0.73012563  0.89891806  1
  Cl  Cl24  1  0.13424346  0.13509281  0.93188320  1
  O  O25  1  0.48300059  0.10697235  0.80245877  1
  O  O26  1  0.98150806  0.10947490  0.31501894  1
  O  O27  1  0.74116917  0.11036889  0.07060006  1
  O  O28  1  0.25826015  0.10828953  0.56306568  1
  O  O29  1  0.02049331  0.89112355  0.69712212  1
  O  O30  1  0.50737133  0.88931722  0.19576719  1
  O  O31  1  0.75489237  0.89082155  0.42871986  1
  O  O32  1  0.24973146  0.89153025  0.92358998  1
  O  O33  1  0.72439816  0.33476003  0.75337035  1
  O  O34  1  0.22412836  0.33571385  0.25443723  1
  O  O35  1  0.91488575  0.33865421  0.94411803  1
  O  O36  1  0.41599679  0.33719300  0.44236503  1
  O  O37  1  0.77508170  0.66441723  0.74696601  1
  O  O38  1  0.27375289  0.66029668  0.24674555  1
  O  O39  1  0.58508061  0.66317551  0.55636144  1
  O  O40  1  0.08677478  0.66682809  0.05775823  1
  O  O41  1  0.93753253  0.31659209  0.22050536  1
  O  O42  1  0.44201447  0.31980425  0.71826863  1
  O  O43  1  0.56072436  0.68212168  0.28067079  1
  O  O44  1  0.05986125  0.67929779  0.77976200  1
  O  O45  1  0.37035804  0.09288017  0.19021019  1
  O  O46  1  0.86868441  0.09427248  0.68186408  1
  O  O47  1  0.13958940  0.90363388  0.32864764  1
  O  O48  1  0.62551652  0.90277918  0.82066057  1
  O  O49  1  0.47721109  0.33667444  0.00157534  1
  O  O50  1  0.97778109  0.34114412  0.50362997  1
  O  O51  1  0.66705032  0.34069211  0.19199959  1
  O  O52  1  0.16766898  0.33651207  0.68980493  1
  O  O53  1  0.02144434  0.66076708  0.49890957  1
  O  O54  1  0.52179327  0.66118355  0.99837080  1
  O  O55  1  0.83323404  0.66133260  0.30800370  1
  O  O56  1  0.33190183  0.66017903  0.80789044  1
  O  O57  1  0.61415046  0.08901217  0.41398336  1
  O  O58  1  0.37167678  0.90138677  0.55909795  1
  O  O59  1  0.87862576  0.91239854  0.07793695  1
