# generated using pymatgen
data_Ba4Sr2Y3(SbO6)3
_symmetry_space_group_name_H-M   'P 1'
_cell_length_a   5.99971860
_cell_length_b   5.99300750
_cell_length_c   13.40934368
_cell_angle_alpha   102.93730047
_cell_angle_beta   102.85662031
_cell_angle_gamma   89.93636819
_symmetry_Int_Tables_number   1
_chemical_formula_structural   Ba4Sr2Y3(SbO6)3
_chemical_formula_sum   'Ba4 Sr2 Y3 Sb3 O18'
_cell_volume   457.52906256
_cell_formula_units_Z   1
loop_
 _symmetry_equiv_pos_site_id
 _symmetry_equiv_pos_as_xyz
  1  'x, y, z'
loop_
 _atom_site_type_symbol
 _atom_site_label
 _atom_site_symmetry_multiplicity
 _atom_site_fract_x
 _atom_site_fract_y
 _atom_site_fract_z
 _atom_site_occupancy
  Ba  Ba0  1  0.24981334  0.74962219  0.00041032  1
  Ba  Ba1  1  0.91718006  0.41721558  0.33436752  1
  Ba  Ba2  1  0.58241341  0.08227076  0.66487898  1
  Ba  Ba3  1  0.75120973  0.25147785  0.00083813  1
  Sr  Sr4  1  0.42082832  0.92484903  0.33573723  1
  Sr  Sr5  1  0.08812909  0.59244274  0.67055993  1
  Y  Y6  1  0.66655319  0.66574792  0.83234234  1
  Y  Y7  1  0.33389595  0.33486078  0.16795139  1
  Y  Y8  1  0.00021737  0.00044879  0.50014057  1
  Sb  Sb9  1  0.49999217  0.49968666  0.50012179  1
  Sb  Sb10  1  0.16576708  0.16593202  0.83194291  1
  Sb  Sb11  1  0.83410893  0.83379499  0.16778433  1
  O  O12  1  0.92103196  0.93630592  0.83126183  1
  O  O13  1  0.58650106  0.60927381  0.16914011  1
  O  O14  1  0.25293348  0.27380086  0.50063836  1
  O  O15  1  0.59063787  0.56826626  0.65729604  1
  O  O16  1  0.25456484  0.23534636  0.99026550  1
  O  O17  1  0.92422937  0.90308500  0.32529437  1
  O  O18  1  0.74805082  0.72522162  0.50080631  1
  O  O19  1  0.41065983  0.39376725  0.83149720  1
  O  O20  1  0.08266161  0.05961349  0.16887044  1
  O  O21  1  0.07788015  0.09774782  0.67458050  1
  O  O22  1  0.74571603  0.76440706  0.00940709  1
  O  O23  1  0.41166551  0.43188110  0.34231128  1
  O  O24  1  0.05699437  0.58360192  0.16063112  1
  O  O25  1  0.71581337  0.24255649  0.48981628  1
  O  O26  1  0.38379679  0.91033891  0.82279102  1
  O  O27  1  0.94291539  0.41616193  0.83724618  1
  O  O28  1  0.60788362  0.08135326  0.17477631  1
  O  O29  1  0.27595530  0.74892166  0.50629464  1
