# generated using pymatgen
data_Ba5Ce4YO15
_symmetry_space_group_name_H-M   'P 1'
_cell_length_a   6.29796826
_cell_length_b   14.02481152
_cell_length_c   10.87841679
_cell_angle_alpha   82.29894552
_cell_angle_beta   106.22084377
_cell_angle_gamma   76.82883600
_symmetry_Int_Tables_number   1
_chemical_formula_structural   Ba5Ce4YO15
_chemical_formula_sum   'Ba10 Ce8 Y2 O30'
_cell_volume   878.04102326
_cell_formula_units_Z   2
loop_
 _symmetry_equiv_pos_site_id
 _symmetry_equiv_pos_as_xyz
  1  'x, y, z'
loop_
 _atom_site_type_symbol
 _atom_site_label
 _atom_site_symmetry_multiplicity
 _atom_site_fract_x
 _atom_site_fract_y
 _atom_site_fract_z
 _atom_site_occupancy
  Ba  Ba0  1  0.15415102  0.55276424  0.35600870  1
  Ba  Ba1  1  0.75465587  0.75013334  0.75101840  1
  Ba  Ba2  1  0.35237179  0.95513080  0.15357810  1
  Ba  Ba3  1  0.95216618  0.15189042  0.55059502  1
  Ba  Ba4  1  0.55266074  0.35240876  0.95285805  1
  Ba  Ba5  1  0.24762821  0.24486920  0.24642190  1
  Ba  Ba6  1  0.84534413  0.44986666  0.64898160  1
  Ba  Ba7  1  0.44584898  0.64723576  0.04399130  1
  Ba  Ba8  1  0.04733926  0.84759124  0.44714195  1
  Ba  Ba9  1  0.64783382  0.04810958  0.84940498  1
  Ce  Ce10  1  0.39864692  0.30203100  0.59969577  1
  Ce  Ce11  1  0.99811490  0.50061213  0.99836110  1
  Ce  Ce12  1  0.60188510  0.69938787  0.40163890  1
  Ce  Ce13  1  0.20135308  0.89796900  0.80030423  1
  Ce  Ce14  1  0.70098545  0.39832458  0.29981456  1
  Ce  Ce15  1  0.89901455  0.80167542  0.10018544  1
  Ce  Ce16  1  0.49828087  0.00058126  0.49829952  1
  Ce  Ce17  1  0.10171913  0.19941874  0.90170048  1
  Y  Y18  1  0.80000000  0.10000000  0.20000000  1
  Y  Y19  1  0.30000000  0.60000000  0.70000000  1
  O  O20  1  0.36953408  0.45705408  0.12966319  1
  O  O21  1  0.96572860  0.65648935  0.52931437  1
  O  O22  1  0.57001441  0.85637037  0.93034029  1
  O  O23  1  0.17213761  0.05605230  0.33262832  1
  O  O24  1  0.76988611  0.25607483  0.73095868  1
  O  O25  1  0.02998559  0.34362963  0.46965971  1
  O  O26  1  0.63427140  0.54351065  0.87068563  1
  O  O27  1  0.23046592  0.74294592  0.27033681  1
  O  O28  1  0.83011389  0.94392517  0.66904132  1
  O  O29  1  0.42786239  0.14394770  0.06737168  1
  O  O30  1  0.01851599  0.33994702  0.98109900  1
  O  O31  1  0.61993263  0.53835679  0.38074523  1
  O  O32  1  0.21824010  0.74237847  0.77998823  1
  O  O33  1  0.82102381  0.93784136  0.17947736  1
  O  O34  1  0.41886484  0.14086502  0.58100698  1
  O  O35  1  0.77897619  0.26215864  0.22052264  1
  O  O36  1  0.38175990  0.45762153  0.62001177  1
  O  O37  1  0.98006737  0.66164321  0.01925477  1
  O  O38  1  0.58148401  0.86005298  0.41890100  1
  O  O39  1  0.18113516  0.05913498  0.81899302  1
  O  O40  1  0.52162349  0.32575443  0.42332029  1
  O  O41  1  0.11997565  0.52752966  0.82735119  1
  O  O42  1  0.72227965  0.72560099  0.22456454  1
  O  O43  1  0.32159636  0.92733863  0.62347207  1
  O  O44  1  0.92338102  0.12854199  0.02323101  1
  O  O45  1  0.87772035  0.47439901  0.17543546  1
  O  O46  1  0.48002435  0.67247034  0.57264881  1
  O  O47  1  0.07837651  0.87424557  0.97667971  1
  O  O48  1  0.67661898  0.07145801  0.37676899  1
  O  O49  1  0.27840364  0.27266137  0.77652793  1
