# generated using pymatgen
data_Ba3CaTiWO9
_symmetry_space_group_name_H-M   'P 1'
_cell_length_a   5.99900140
_cell_length_b   5.99900140
_cell_length_c   14.99863895
_cell_angle_alpha   90.00000000
_cell_angle_beta   90.00000000
_cell_angle_gamma   120.00004895
_symmetry_Int_Tables_number   1
_chemical_formula_structural   Ba3CaTiWO9
_chemical_formula_sum   'Ba6 Ca2 Ti2 W2 O18'
_cell_volume   467.45541467
_cell_formula_units_Z   2
loop_
 _symmetry_equiv_pos_site_id
 _symmetry_equiv_pos_as_xyz
  1  'x, y, z'
loop_
 _atom_site_type_symbol
 _atom_site_label
 _atom_site_symmetry_multiplicity
 _atom_site_fract_x
 _atom_site_fract_y
 _atom_site_fract_z
 _atom_site_occupancy
  Ba  Ba0  1  0.99999762  0.00000238  0.74618412  1
  Ba  Ba1  1  0.00000238  0.99999762  0.24618412  1
  Ba  Ba2  1  0.66667846  0.33332154  0.39852923  1
  Ba  Ba3  1  0.33331974  0.66668026  0.60483270  1
  Ba  Ba4  1  0.33332154  0.66667846  0.89852923  1
  Ba  Ba5  1  0.66668026  0.33331974  0.10483270  1
  Ca  Ca6  1  0.00000098  0.99999902  0.50163569  1
  Ca  Ca7  1  0.99999902  0.00000098  0.00163569  1
  Ti  Ti8  1  0.66666767  0.33333233  0.64620998  1
  Ti  Ti9  1  0.33333233  0.66666767  0.14620998  1
  W  W10  1  0.33333153  0.66666847  0.33898996  1
  W  W11  1  0.66666847  0.33333153  0.83898996  1
  O  O12  1  0.51753984  0.03506877  0.75437890  1
  O  O13  1  0.51754061  0.48245939  0.75437825  1
  O  O14  1  0.96493123  0.48246016  0.75437890  1
  O  O15  1  0.48246016  0.96493123  0.25437890  1
  O  O16  1  0.48245939  0.51754061  0.25437825  1
  O  O17  1  0.03506877  0.51753984  0.25437890  1
  O  O18  1  0.82269815  0.64538098  0.90734230  1
  O  O19  1  0.82269291  0.17730709  0.90734122  1
  O  O20  1  0.35461902  0.17730185  0.90734230  1
  O  O21  1  0.17481587  0.34964966  0.09281883  1
  O  O22  1  0.17482362  0.82517638  0.09281880  1
  O  O23  1  0.65035034  0.82518413  0.09281883  1
  O  O24  1  0.17730185  0.35461902  0.40734230  1
  O  O25  1  0.17730709  0.82269291  0.40734122  1
  O  O26  1  0.64538098  0.82269815  0.40734230  1
  O  O27  1  0.82518413  0.65035034  0.59281883  1
  O  O28  1  0.82517638  0.17482362  0.59281880  1
  O  O29  1  0.34964966  0.17481587  0.59281883  1
