# generated using pymatgen
data_Na7Al12Si12H6ClO48
_symmetry_space_group_name_H-M   'P 1'
_cell_length_a   9.38294999
_cell_length_b   9.22842897
_cell_length_c   18.50251218
_cell_angle_alpha   92.72557856
_cell_angle_beta   90.13889951
_cell_angle_gamma   89.97630508
_symmetry_Int_Tables_number   1
_chemical_formula_structural   Na7Al12Si12H6ClO48
_chemical_formula_sum   'Na7 Al12 Si12 H6 Cl1 O48'
_cell_volume   1600.31325698
_cell_formula_units_Z   1
loop_
 _symmetry_equiv_pos_site_id
 _symmetry_equiv_pos_as_xyz
  1  'x, y, z'
loop_
 _atom_site_type_symbol
 _atom_site_label
 _atom_site_symmetry_multiplicity
 _atom_site_fract_x
 _atom_site_fract_y
 _atom_site_fract_z
 _atom_site_occupancy
  Na  Na0  1  0.29923808  0.72963782  0.13669365  1
  Na  Na1  1  0.29779830  0.26463186  0.86610524  1
  Na  Na2  1  0.26908184  0.73238271  0.63766255  1
  Na  Na3  1  0.75448530  0.19012385  0.90788938  1
  Na  Na4  1  0.78896992  0.10141467  0.41906857  1
  Na  Na5  1  0.75862363  0.81130295  0.08967738  1
  Na  Na6  1  0.79000045  0.89194056  0.58955003  1
  Al  Al7  1  0.01203006  0.76768160  0.26223418  1
  Al  Al8  1  0.00713145  0.76176166  0.76837865  1
  Al  Al9  1  0.00641127  0.23635011  0.23799124  1
  Al  Al10  1  0.01300805  0.23066763  0.73704290  1
  Al  Al11  1  0.26563958  0.49848104  0.00125102  1
  Al  Al12  1  0.26010375  0.50600088  0.50635527  1
  Al  Al13  1  0.50070250  0.96894442  0.36757192  1
  Al  Al14  1  0.50677753  0.97912157  0.87643450  1
  Al  Al15  1  0.50503079  0.01728890  0.12413588  1
  Al  Al16  1  0.50888071  0.00573838  0.62795295  1
  Al  Al17  1  0.75442400  0.49727539  0.00062226  1
  Al  Al18  1  0.74376471  0.49069548  0.50927955  1
  Si  Si19  1  0.26217375  0.99890123  0.24610814  1
  Si  Si20  1  0.26632276  0.99272525  0.75075359  1
  Si  Si21  1  0.50770166  0.74813523  0.99600452  1
  Si  Si22  1  0.50158483  0.74810832  0.50036920  1
  Si  Si23  1  0.50599188  0.24814581  0.00536762  1
  Si  Si24  1  0.50704532  0.25304253  0.50720963  1
  Si  Si25  1  0.75622542  0.00063854  0.24887229  1
  Si  Si26  1  0.75852858  0.00192679  0.75444625  1
  Si  Si27  1  0.00760755  0.51613658  0.38020779  1
  Si  Si28  1  0.00739565  0.48902612  0.11995991  1
  Si  Si29  1  0.01011215  0.48464353  0.62309807  1
  Si  Si30  1  0.00852415  0.50757370  0.88305912  1
  H  H31  1  0.44698131  0.20406909  0.39168385  1
  H  H32  1  0.77688352  0.57904447  0.39893489  1
  H  H33  1  0.90251754  0.31021349  0.33616057  1
  H  H34  1  0.92715165  0.69492535  0.16052253  1
  H  H35  1  0.93210965  0.70205797  0.66051649  1
  H  H36  1  0.92739989  0.30490665  0.83636181  1
  Cl  Cl37  1  0.96999651  0.98749325  0.50216705  1
  O  O38  1  0.99423276  0.35809560  0.32696931  1
  O  O39  1  0.01202089  0.64585166  0.17796127  1
  O  O40  1  0.01415975  0.35594655  0.82182490  1
  O  O41  1  0.00323603  0.63993087  0.68227034  1
  O  O42  1  0.15773392  0.49376720  0.07927726  1
  O  O43  1  0.16668824  0.49788550  0.58892407  1
  O  O44  1  0.13261370  0.50121630  0.43585842  1
  O  O45  1  0.16029872  0.50284714  0.92242635  1
  O  O46  1  0.15828804  0.13715802  0.23697219  1
  O  O47  1  0.17425890  0.84711816  0.25467947  1
  O  O48  1  0.17076536  0.13957835  0.74296119  1
  O  O49  1  0.16937949  0.84619311  0.75867474  1
  O  O50  1  0.36102547  0.02754104  0.31716597  1
  O  O51  1  0.35639238  0.96560873  0.17345034  1
  O  O52  1  0.36209479  0.02865161  0.82261184  1
  O  O53  1  0.35931216  0.95841358  0.67759749  1
  O  O54  1  0.38245531  0.36643485  0.49232261  1
  O  O55  1  0.37108329  0.65115188  0.02062323  1
  O  O56  1  0.36930261  0.34541034  0.98142578  1
  O  O57  1  0.34967238  0.67174559  0.51936355  1
  O  O58  1  0.47760732  0.17737192  0.08182951  1
  O  O59  1  0.48477477  0.15306218  0.57370046  1
  O  O60  1  0.49009058  0.83247080  0.42575754  1
  O  O61  1  0.47911009  0.81959157  0.91953169  1
  O  O62  1  0.50554547  0.14869840  0.42464144  1
  O  O63  1  0.52830758  0.12955192  0.93749441  1
  O  O64  1  0.53426578  0.86708532  0.06356528  1
  O  O65  1  0.54904949  0.85548402  0.56899462  1
  O  O66  1  0.65665728  0.33925379  0.00716856  1
  O  O67  1  0.66928102  0.31853731  0.50473153  1
  O  O68  1  0.63070380  0.62931731  0.49048334  1
  O  O69  1  0.65818685  0.65630876  0.99327448  1
  O  O70  1  0.66445739  0.01531860  0.17564626  1
  O  O71  1  0.66569933  0.97393620  0.32291945  1
  O  O72  1  0.66440266  0.02151755  0.68164705  1
  O  O73  1  0.66948041  0.98565303  0.82852891  1
  O  O74  1  0.85355090  0.14698905  0.26862701  1
  O  O75  1  0.86171592  0.14585892  0.77119865  1
  O  O76  1  0.86199789  0.85901375  0.23138927  1
  O  O77  1  0.86289143  0.86044945  0.73647529  1
  O  O78  1  0.86778094  0.53958155  0.07579775  1
  O  O79  1  0.84123595  0.50760567  0.41946125  1
  O  O80  1  0.87116838  0.45260782  0.92731666  1
  O  O81  1  0.87641251  0.52363552  0.57248743  1
  O  O82  1  0.98583906  0.35226138  0.16866535  1
  O  O83  1  0.98718635  0.34400629  0.66791972  1
  O  O84  1  0.99337124  0.65320909  0.33251480  1
  O  O85  1  0.98435977  0.65212138  0.83987151  1
