# generated using pymatgen
data_Al9Co2Ni
_symmetry_space_group_name_H-M   'P 1'
_cell_length_a   7.53518950
_cell_length_b   10.48095864
_cell_length_c   10.48095864
_cell_angle_alpha   85.24597615
_cell_angle_beta   111.06767464
_cell_angle_gamma   68.93232536
_symmetry_Int_Tables_number   1
_chemical_formula_structural   Al9Co2Ni
_chemical_formula_sum   'Al36 Co8 Ni4'
_cell_volume   699.07619519
_cell_formula_units_Z   4
loop_
 _symmetry_equiv_pos_site_id
 _symmetry_equiv_pos_as_xyz
  1  'x, y, z'
loop_
 _atom_site_type_symbol
 _atom_site_label
 _atom_site_symmetry_multiplicity
 _atom_site_fract_x
 _atom_site_fract_y
 _atom_site_fract_z
 _atom_site_occupancy
  Al  Al0  1  0.83181802  0.16818198  0.83181802  1
  Al  Al1  1  0.16818198  0.83181802  0.16818198  1
  Al  Al2  1  0.33336678  0.10860392  0.40043679  1
  Al  Al3  1  0.95846609  0.59956321  0.89139608  1
  Al  Al4  1  0.04153391  0.89139608  0.59956321  1
  Al  Al5  1  0.66663322  0.40043679  0.10860392  1
  Al  Al6  1  0.66663322  0.89139608  0.59956321  1
  Al  Al7  1  0.04153391  0.40043679  0.10860392  1
  Al  Al8  1  0.95846609  0.10860392  0.40043679  1
  Al  Al9  1  0.33336678  0.59956321  0.89139608  1
  Al  Al10  1  0.50000000  0.75643438  0.75643438  1
  Al  Al11  1  0.50000000  0.24356562  0.24356562  1
  Al  Al12  1  0.83744906  0.57586607  0.25076420  1
  Al  Al13  1  0.83744906  0.74923580  0.42413393  1
  Al  Al14  1  0.16255094  0.42413393  0.74923580  1
  Al  Al15  1  0.16255094  0.25076420  0.57586607  1
  Al  Al16  1  0.67337378  0.45507946  0.80182702  1
  Al  Al17  1  0.67337378  0.19817298  0.54492054  1
  Al  Al18  1  0.32662622  0.54492054  0.19817298  1
  Al  Al19  1  0.32662622  0.80182702  0.45507946  1
  Al  Al20  1  0.50000000  0.00000000  -0.00000000  1
  Al  Al21  1  0.54536262  0.06542525  0.75586393  1
  Al  Al22  1  0.14507607  0.24413607  0.93457475  1
  Al  Al23  1  0.85492393  0.93457475  0.24413607  1
  Al  Al24  1  0.45463738  0.75586393  0.06542525  1
  Al  Al25  1  0.45463738  0.93457475  0.24413607  1
  Al  Al26  1  0.85492393  0.75586393  0.06542525  1
  Al  Al27  1  0.14507607  0.06542525  0.75586393  1
  Al  Al28  1  0.54536262  0.24413607  0.93457475  1
  Al  Al29  1  -0.00000000  0.13581644  0.13581644  1
  Al  Al30  1  -0.00000000  0.86418356  0.86418356  1
  Al  Al31  1  0.50000000  0.50000000  0.50000000  1
  Al  Al32  1  0.23487733  0.40210606  0.40210606  1
  Al  Al33  1  0.76512267  0.59789394  0.59789394  1
  Al  Al34  1  0.23487733  0.59789394  0.59789394  1
  Al  Al35  1  0.76512267  0.40210606  0.40210606  1
  Co  Co36  1  0.18534867  0.00000000  1.00000000  1
  Co  Co37  1  0.81465133  1.00000000  0.00000000  1
  Co  Co38  1  -0.00000000  0.30145912  0.30145912  1
  Co  Co39  1  -0.00000000  0.69854088  0.69854088  1
  Co  Co40  1  0.87426276  0.33119036  0.66880964  1
  Co  Co41  1  0.46335651  0.33119036  0.66880964  1
  Co  Co42  1  0.53664349  0.66880964  0.33119036  1
  Co  Co43  1  0.12573724  0.66880964  0.33119036  1
  Ni  Ni44  1  0.68854852  0.59998318  0.97708021  1
  Ni  Ni45  1  0.68854852  0.02291979  0.40001682  1
  Ni  Ni46  1  0.31145148  0.40001682  0.02291979  1
  Ni  Ni47  1  0.31145148  0.97708021  0.59998318  1
