# generated using pymatgen
data_Ba2AlCuF9
_symmetry_space_group_name_H-M   'P 1'
_cell_length_a   5.49368792
_cell_length_b   7.44554417
_cell_length_c   9.41768657
_cell_angle_alpha   90.00000000
_cell_angle_beta   90.90996340
_cell_angle_gamma   90.00000000
_symmetry_Int_Tables_number   1
_chemical_formula_structural   Ba2AlCuF9
_chemical_formula_sum   'Ba4 Al2 Cu2 F18'
_cell_volume   385.16772429
_cell_formula_units_Z   2
loop_
 _symmetry_equiv_pos_site_id
 _symmetry_equiv_pos_as_xyz
  1  'x, y, z'
loop_
 _atom_site_type_symbol
 _atom_site_label
 _atom_site_symmetry_multiplicity
 _atom_site_fract_x
 _atom_site_fract_y
 _atom_site_fract_z
 _atom_site_occupancy
  Ba  Ba0  1  0.76179879  0.33894277  0.19504072  1
  Ba  Ba1  1  0.23820121  0.83894277  0.30495928  1
  Ba  Ba2  1  0.24802646  0.61066597  0.83843057  1
  Ba  Ba3  1  0.75197354  0.11066597  0.66156943  1
  Al  Al4  1  0.73073640  0.63504615  0.57335431  1
  Al  Al5  1  0.26926360  0.13504615  0.92664569  1
  Cu  Cu6  1  0.24704956  0.33007233  0.48202453  1
  Cu  Cu7  1  0.75295044  0.83007233  0.01797547  1
  F  F8  1  0.01558740  0.15640638  0.42303052  1
  F  F9  1  0.98441260  0.65640638  0.07696948  1
  F  F10  1  0.96533526  0.80148355  0.55599270  1
  F  F11  1  0.03466474  0.30148355  0.94400730  1
  F  F12  1  0.50468605  0.17495699  0.42212027  1
  F  F13  1  0.49531395  0.67495699  0.07787973  1
  F  F14  1  0.49306904  0.80458197  0.58002261  1
  F  F15  1  0.50693096  0.30458197  0.91997739  1
  F  F16  1  0.19284266  0.48297174  0.30212325  1
  F  F17  1  0.80715734  0.98297174  0.19787675  1
  F  F18  1  0.75761725  0.65028171  0.76819682  1
  F  F19  1  0.24238275  0.15028171  0.73180318  1
  F  F20  1  0.96814938  0.45271941  0.59098139  1
  F  F21  1  0.03185062  0.95271941  0.90901861  1
  F  F22  1  0.69025479  0.60444364  0.38817596  1
  F  F23  1  0.30974521  0.10444364  0.11182404  1
  F  F24  1  0.49148511  0.45742738  0.60704058  1
  F  F25  1  0.50851489  0.95742738  0.89295942  1
