# generated using pymatgen
data_UH2Se2O9
_symmetry_space_group_name_H-M   'P 1'
_cell_length_a   5.95034004
_cell_length_b   8.41769532
_cell_length_c   8.41769532
_cell_angle_alpha   100.78832914
_cell_angle_beta   87.99858130
_cell_angle_gamma   87.99858130
_symmetry_Int_Tables_number   1
_chemical_formula_structural   UH2Se2O9
_chemical_formula_sum   'U2 H4 Se4 O18'
_cell_volume   413.55272590
_cell_formula_units_Z   2
loop_
 _symmetry_equiv_pos_site_id
 _symmetry_equiv_pos_as_xyz
  1  'x, y, z'
loop_
 _atom_site_type_symbol
 _atom_site_label
 _atom_site_symmetry_multiplicity
 _atom_site_fract_x
 _atom_site_fract_y
 _atom_site_fract_z
 _atom_site_occupancy
  U  U0  1  0.25000000  0.30691434  0.69308566  1
  U  U1  1  0.75000000  0.69308566  0.30691434  1
  H  H2  1  0.16238555  0.60070268  0.51913236  1
  H  H3  1  0.66238555  0.51913236  0.60070268  1
  H  H4  1  0.83761445  0.39929732  0.48086764  1
  H  H5  1  0.33761445  0.48086764  0.39929732  1
  Se  Se6  1  0.04918773  0.10303813  0.26667990  1
  Se  Se7  1  0.54918773  0.26667990  0.10303813  1
  Se  Se8  1  0.95081227  0.89696187  0.73332010  1
  Se  Se9  1  0.45081227  0.73332010  0.89696187  1
  O  O10  1  0.25000000  0.49603710  0.50396290  1
  O  O11  1  0.75000000  0.50396290  0.49603710  1
  O  O12  1  0.09433539  0.06613029  0.72794182  1
  O  O13  1  0.59433539  0.72794182  0.06613029  1
  O  O14  1  0.90566461  0.93386971  0.27205818  1
  O  O15  1  0.40566461  0.27205818  0.93386971  1
  O  O16  1  0.49927000  0.20938727  0.58538920  1
  O  O17  1  0.99927000  0.58538920  0.20938727  1
  O  O18  1  0.50073000  0.79061273  0.41461080  1
  O  O19  1  0.00073000  0.41461080  0.79061273  1
  O  O20  1  0.92542024  0.19790616  0.12960041  1
  O  O21  1  0.42542024  0.12960041  0.19790616  1
  O  O22  1  0.07457976  0.80209384  0.87039959  1
  O  O23  1  0.57457976  0.87039959  0.80209384  1
  O  O24  1  0.01569118  0.21555232  0.45631710  1
  O  O25  1  0.51569118  0.45631710  0.21555232  1
  O  O26  1  0.98430882  0.78444768  0.54368290  1
  O  O27  1  0.48430882  0.54368290  0.78444768  1
