# generated using pymatgen
data_Ba10Ru3W(Cl2O9)2
_symmetry_space_group_name_H-M   'P 1'
_cell_length_a   5.96283255
_cell_length_b   5.96273669
_cell_length_c   25.11016042
_cell_angle_alpha   90.00022468
_cell_angle_beta   89.99957606
_cell_angle_gamma   59.99893283
_symmetry_Int_Tables_number   1
_chemical_formula_structural   Ba10Ru3W(Cl2O9)2
_chemical_formula_sum   'Ba10 Ru3 W1 Cl4 O18'
_cell_volume   773.16768430
_cell_formula_units_Z   1
loop_
 _symmetry_equiv_pos_site_id
 _symmetry_equiv_pos_as_xyz
  1  'x, y, z'
loop_
 _atom_site_type_symbol
 _atom_site_label
 _atom_site_symmetry_multiplicity
 _atom_site_fract_x
 _atom_site_fract_y
 _atom_site_fract_z
 _atom_site_occupancy
  Ba  Ba0  1  0.66666615  0.66666750  0.67017197  1
  Ba  Ba1  1  0.33332052  0.33334988  0.32849749  1
  Ba  Ba2  1  0.33332672  0.33334009  0.17110951  1
  Ba  Ba3  1  0.66666521  0.66666362  0.83088826  1
  Ba  Ba4  1  0.33333576  0.33333304  0.75599458  1
  Ba  Ba5  1  0.66666423  0.66666379  0.24968104  1
  Ba  Ba6  1  0.33335563  0.33332379  0.58216585  1
  Ba  Ba7  1  0.66663201  0.66669206  0.41700383  1
  Ba  Ba8  1  0.66663789  0.66668459  0.08169824  1
  Ba  Ba9  1  0.33333966  0.33332961  0.91722464  1
  Ru  Ru10  1  0.00000017  -0.00000260  0.30665571  1
  Ru  Ru11  1  -0.00000351  -0.00000156  0.19314058  1
  Ru  Ru12  1  0.99998722  0.00001103  0.80403425  1
  W  W13  1  0.00000496  0.00000095  0.69608759  1
  Cl  Cl14  1  0.66662006  0.66668796  0.54656623  1
  Cl  Cl15  1  0.33338065  0.33331091  0.45496855  1
  Cl  Cl16  1  0.33339494  0.33330210  0.04631542  1
  Cl  Cl17  1  0.66660875  0.66669645  0.95465136  1
  O  O18  1  0.15713271  0.68573371  0.65629194  1
  O  O19  1  0.68574197  0.15712789  0.65629094  1
  O  O20  1  0.15713366  0.15713808  0.65629134  1
  O  O21  1  0.84075730  0.31844873  0.34514822  1
  O  O22  1  0.31853481  0.84073872  0.34514290  1
  O  O23  1  0.84073632  0.84078584  0.34514866  1
  O  O24  1  0.84053210  0.31890996  0.15511788  1
  O  O25  1  0.31897957  0.84051436  0.15512328  1
  O  O26  1  0.84052351  0.84054631  0.15511755  1
  O  O27  1  0.15962988  0.68074239  0.84372071  1
  O  O28  1  0.68075882  0.15962355  0.84371994  1
  O  O29  1  0.15962865  0.15962736  0.84371934  1
  O  O30  1  0.84328646  0.84327977  0.74729585  1
  O  O31  1  0.84327772  0.31343471  0.74729624  1
  O  O32  1  0.31342329  0.84328399  0.74729500  1
  O  O33  1  0.15036721  0.15039665  0.25014201  1
  O  O34  1  0.15038094  0.69922982  0.25014165  1
  O  O35  1  0.69923809  0.15038495  0.25014146  1
