# generated using pymatgen
data_Ba5CaU8(AsO10)4
_symmetry_space_group_name_H-M   'P 1'
_cell_length_a   12.20290082
_cell_length_b   13.05138607
_cell_length_c   13.53695245
_cell_angle_alpha   90.00000000
_cell_angle_beta   116.67910229
_cell_angle_gamma   90.00000000
_symmetry_Int_Tables_number   1
_chemical_formula_structural   Ba5CaU8(AsO10)4
_chemical_formula_sum   'Ba10 Ca2 U16 As8 O80'
_cell_volume   1926.42582910
_cell_formula_units_Z   2
loop_
 _symmetry_equiv_pos_site_id
 _symmetry_equiv_pos_as_xyz
  1  'x, y, z'
loop_
 _atom_site_type_symbol
 _atom_site_label
 _atom_site_symmetry_multiplicity
 _atom_site_fract_x
 _atom_site_fract_y
 _atom_site_fract_z
 _atom_site_occupancy
  Ba  Ba0  1  0.70731703  0.05880634  0.11488944  1
  Ba  Ba1  1  0.79268297  0.55880634  0.38511056  1
  Ba  Ba2  1  0.29012171  0.94157418  0.88206753  1
  Ba  Ba3  1  0.20987829  0.44157418  0.61793247  1
  Ba  Ba4  1  0.46388529  0.99279453  0.27776835  1
  Ba  Ba5  1  0.03611471  0.49279453  0.22223165  1
  Ba  Ba6  1  0.54567967  0.00684708  0.72738183  1
  Ba  Ba7  1  0.95432033  0.50684708  0.77261817  1
  Ba  Ba8  1  0.16716433  0.96020076  0.42440843  1
  Ba  Ba9  1  0.33283567  0.46020076  0.07559157  1
  Ca  Ca10  1  0.50174115  0.49863526  0.50035043  1
  Ca  Ca11  1  0.99825885  0.99863526  0.99964957  1
  U  U12  1  0.69875316  0.27464719  0.68685469  1
  U  U13  1  0.80124684  0.77464719  0.81314531  1
  U  U14  1  0.30604958  0.72494005  0.31317183  1
  U  U15  1  0.19395042  0.22494005  0.18682817  1
  U  U16  1  0.37370629  0.21912548  0.49512680  1
  U  U17  1  0.12629371  0.71912548  0.00487320  1
  U  U18  1  0.62895092  0.78023114  0.50608932  1
  U  U19  1  0.87104908  0.28023114  0.99391068  1
  U  U20  1  0.00593993  0.22303456  0.34584701  1
  U  U21  1  0.49406007  0.72303456  0.15415299  1
  U  U22  1  0.99111855  0.78377043  0.65303668  1
  U  U23  1  0.50888145  0.28377043  0.84696332  1
  U  U24  1  0.55255562  0.28748698  0.33951684  1
  U  U25  1  0.94744438  0.78748698  0.16048316  1
  U  U26  1  0.45073320  0.71047175  0.66349503  1
  U  U27  1  0.04926680  0.21047175  0.83650497  1
  As  As28  1  0.71788567  0.34716610  0.16999075  1
  As  As29  1  0.78211433  0.84716610  0.33000925  1
  As  As30  1  0.28086712  0.65170616  0.82951585  1
  As  As31  1  0.21913288  0.15170616  0.67048415  1
  As  As32  1  0.88350003  0.30935168  0.53440029  1
  As  As33  1  0.61649997  0.80935168  0.96559971  1
  As  As34  1  0.11942015  0.69146304  0.46951913  1
  As  As35  1  0.38057985  0.19146304  0.03048087  1
  O  O36  1  0.97045353  0.08391715  0.31176266  1
  O  O37  1  0.52954647  0.58391715  0.18823734  1
  O  O38  1  0.03777696  0.91659432  0.69519439  1
  O  O39  1  0.46222304  0.41659432  0.80480561  1
  O  O40  1  0.59002799  0.35126485  0.19355121  1
  O  O41  1  0.90997201  0.85126485  0.30644879  1
  O  O42  1  0.40367370  0.65326494  0.80053280  1
  O  O43  1  0.09632630  0.15326494  0.69946720  1
  O  O44  1  0.80715675  0.45220800  0.22132513  1
  O  O45  1  0.69284325  0.95220800  0.27867487  1
  O  O46  1  0.19678805  0.54238951  0.78596363  1
  O  O47  1  0.30321195  0.04238951  0.71403637  1
  O  O48  1  0.69103966  0.41659993  0.65535165  1
  O  O49  1  0.80896034  0.91659993  0.84464835  1
  O  O50  1  0.31216399  0.58173670  0.33965889  1
  O  O51  1  0.18783601  0.08173670  0.16034111  1
  O  O52  1  0.97511175  0.41443935  0.58461545  1
  O  O53  1  0.52488825  0.91443935  0.91538455  1
  O  O54  1  0.02234596  0.59134207  0.41350725  1
  O  O55  1  0.47765404  0.09134207  0.08649275  1
  O  O56  1  0.05175695  0.35915655  0.38893414  1
  O  O57  1  0.44824305  0.85915655  0.11106586  1
  O  O58  1  0.95399343  0.64656286  0.61157199  1
  O  O59  1  0.54600657  0.14656286  0.88842801  1
  O  O60  1  0.38531024  0.20746497  0.32963207  1
  O  O61  1  0.11468976  0.70746497  0.17036793  1
  O  O62  1  0.61250925  0.79396965  0.66767551  1
  O  O63  1  0.88749075  0.29396965  0.83232449  1
  O  O64  1  0.56200850  0.26730435  0.50823902  1
  O  O65  1  0.93799150  0.76730435  0.99176098  1
  O  O66  1  0.43581448  0.73126079  0.48848877  1
  O  O67  1  0.06418552  0.23126079  0.01151123  1
  O  O68  1  0.49303955  0.23066097  0.66988452  1
  O  O69  1  0.00696045  0.73066097  0.83011548  1
  O  O70  1  0.50199470  0.76838295  0.32394937  1
  O  O71  1  0.99800530  0.26838295  0.17605063  1
  O  O72  1  0.68694194  0.32151048  0.03413598  1
  O  O73  1  0.81305806  0.82151048  0.46586402  1
  O  O74  1  0.31631425  0.66584089  0.96906694  1
  O  O75  1  0.18368575  0.16584089  0.53093306  1
  O  O76  1  0.71103959  0.13433923  0.70873771  1
  O  O77  1  0.78896041  0.63433923  0.79126229  1
  O  O78  1  0.28913567  0.86965695  0.30299969  1
  O  O79  1  0.21086433  0.36965695  0.19700031  1
  O  O80  1  0.86325153  0.25118008  0.63917715  1
  O  O81  1  0.63674847  0.75118008  0.86082285  1
  O  O82  1  0.14517467  0.75465796  0.36853081  1
  O  O83  1  0.35482533  0.25465796  0.13146919  1
  O  O84  1  0.79884156  0.23656172  0.23385309  1
  O  O85  1  0.70115844  0.73656172  0.26614691  1
  O  O86  1  0.19876662  0.76224663  0.77108217  1
  O  O87  1  0.30123338  0.26224663  0.72891783  1
  O  O88  1  0.48969896  0.41947371  0.33750231  1
  O  O89  1  0.01030104  0.91947371  0.16249769  1
  O  O90  1  0.50587133  0.57956647  0.65443879  1
  O  O91  1  0.99412867  0.07956647  0.84556121  1
  O  O92  1  0.68728754  0.30131349  0.84605583  1
  O  O93  1  0.81271246  0.80131349  0.65394417  1
  O  O94  1  0.31298749  0.69160516  0.15175566  1
  O  O95  1  0.18701251  0.19160516  0.34824434  1
  O  O96  1  0.39491510  0.07414476  0.50796601  1
  O  O97  1  0.10508490  0.57414476  0.99203399  1
  O  O98  1  0.59196880  0.91937924  0.48886467  1
  O  O99  1  0.90803120  0.41937924  0.01113533  1
  O  O100  1  0.61729087  0.16050225  0.33979094  1
  O  O101  1  0.88270913  0.66050225  0.16020906  1
  O  O102  1  0.38001297  0.83890578  0.65264351  1
  O  O103  1  0.11998703  0.33890578  0.84735649  1
  O  O104  1  0.93166684  0.22051485  0.47006510  1
  O  O105  1  0.56833316  0.72051485  0.02993490  1
  O  O106  1  0.07930325  0.79009869  0.53067570  1
  O  O107  1  0.42069675  0.29009869  0.96932430  1
  O  O108  1  0.74239437  0.35925616  0.43921169  1
  O  O109  1  0.75760563  0.85925616  0.06078831  1
  O  O110  1  0.25700756  0.63700274  0.56199332  1
  O  O111  1  0.24299244  0.13700274  0.93800668  1
  O  O112  1  0.34564609  0.36373608  0.49324884  1
  O  O113  1  0.15435391  0.86373608  0.00675116  1
  O  O114  1  0.65444161  0.63565404  0.50421571  1
  O  O115  1  0.84555839  0.13565404  0.99578429  1
