# generated using pymatgen
data_Ag3AuSeS
_symmetry_space_group_name_H-M   'P 1'
_cell_length_a   8.66340253
_cell_length_b   8.66340253
_cell_length_c   8.66340253
_cell_angle_alpha   70.52877937
_cell_angle_beta   70.52877937
_cell_angle_gamma   109.47122063
_symmetry_Int_Tables_number   1
_chemical_formula_structural   Ag3AuSeS
_chemical_formula_sum   'Ag12 Au4 Se4 S4'
_cell_volume   500.54553228
_cell_formula_units_Z   4
loop_
 _symmetry_equiv_pos_site_id
 _symmetry_equiv_pos_as_xyz
  1  'x, y, z'
loop_
 _atom_site_type_symbol
 _atom_site_label
 _atom_site_symmetry_multiplicity
 _atom_site_fract_x
 _atom_site_fract_y
 _atom_site_fract_z
 _atom_site_occupancy
  Ag  Ag0  1  0.63063512  0.75000000  0.61936488  1
  Ag  Ag1  1  0.86936488  0.25000000  0.88063512  1
  Ag  Ag2  1  0.12344924  0.75000000  0.12655076  1
  Ag  Ag3  1  0.37655076  0.25000000  0.37344924  1
  Ag  Ag4  1  0.11936488  0.36936488  0.25000000  1
  Ag  Ag5  1  0.38063512  0.13063512  0.75000000  1
  Ag  Ag6  1  0.62655076  0.87655076  0.25000000  1
  Ag  Ag7  1  0.87344924  0.62344924  0.75000000  1
  Ag  Ag8  1  0.25000000  0.88063512  0.36936488  1
  Ag  Ag9  1  0.75000000  0.61936488  0.13063512  1
  Ag  Ag10  1  0.25000000  0.37344924  0.87655076  1
  Ag  Ag11  1  0.75000000  0.12655076  0.62344924  1
  Au  Au12  1  0.24522715  0.74522715  0.75477285  1
  Au  Au13  1  0.50000000  0.75477285  0.00000000  1
  Au  Au14  1  0.25477285  0.50000000  0.50000000  1
  Au  Au15  1  -0.00000000  -0.00000000  0.74522715  1
  Se  Se16  1  0.53336186  0.03336186  0.46663814  1
  Se  Se17  1  0.50000000  0.46663814  0.00000000  1
  Se  Se18  1  0.96663814  0.50000000  0.50000000  1
  Se  Se19  1  -0.00000000  -0.00000000  0.03336186  1
  S  S20  1  0.50000000  0.02837548  0.00000000  1
  S  S21  1  0.97162452  0.47162452  0.02837548  1
  S  S22  1  0.52837548  0.50000000  0.50000000  1
  S  S23  1  -0.00000000  -0.00000000  0.47162452  1
