# generated using pymatgen
data_AgMoAsO6
_symmetry_space_group_name_H-M   'P 1'
_cell_length_a   6.64904702
_cell_length_b   7.33854610
_cell_length_c   10.33176730
_cell_angle_alpha   90.00000000
_cell_angle_beta   90.00000000
_cell_angle_gamma   90.00000000
_symmetry_Int_Tables_number   1
_chemical_formula_structural   AgMoAsO6
_chemical_formula_sum   'Ag4 Mo4 As4 O24'
_cell_volume   504.13174657
_cell_formula_units_Z   4
loop_
 _symmetry_equiv_pos_site_id
 _symmetry_equiv_pos_as_xyz
  1  'x, y, z'
loop_
 _atom_site_type_symbol
 _atom_site_label
 _atom_site_symmetry_multiplicity
 _atom_site_fract_x
 _atom_site_fract_y
 _atom_site_fract_z
 _atom_site_occupancy
  Ag  Ag0  1  0.51964020  0.05561898  0.50563610  1
  Ag  Ag1  1  0.98035980  0.44438102  0.00563610  1
  Ag  Ag2  1  0.01964020  0.94438102  0.49436390  1
  Ag  Ag3  1  0.48035980  0.55561898  0.99436390  1
  Mo  Mo4  1  0.25172950  0.05131878  0.82972040  1
  Mo  Mo5  1  0.24827050  0.44868122  0.32972040  1
  Mo  Mo6  1  0.75172950  0.94868122  0.17027960  1
  Mo  Mo7  1  0.74827050  0.55131878  0.67027960  1
  As  As8  1  0.24987690  0.46286813  0.65906233  1
  As  As9  1  0.25012310  0.03713187  0.15906233  1
  As  As10  1  0.74987690  0.53713187  0.34093767  1
  As  As11  1  0.75012310  0.96286813  0.84093767  1
  O  O12  1  0.54490450  0.10834085  0.84153129  1
  O  O13  1  0.95509550  0.39165915  0.34153129  1
  O  O14  1  0.04490450  0.89165915  0.15846871  1
  O  O15  1  0.45509550  0.60834085  0.65846871  1
  O  O16  1  0.45550567  0.89216445  0.15672695  1
  O  O17  1  0.04449433  0.60783555  0.65672695  1
  O  O18  1  0.95550567  0.10783555  0.84327305  1
  O  O19  1  0.54449433  0.39216445  0.34327305  1
  O  O20  1  0.25093498  0.00170144  0.66158804  1
  O  O21  1  0.24906502  0.49829856  0.16158804  1
  O  O22  1  0.75093498  0.99829856  0.33841196  1
  O  O23  1  0.74906502  0.50170144  0.83841196  1
  O  O24  1  0.25517285  0.83422158  0.89829429  1
  O  O25  1  0.24482715  0.66577842  0.39829429  1
  O  O26  1  0.75517285  0.16577842  0.10170571  1
  O  O27  1  0.74482715  0.33422158  0.60170571  1
  O  O28  1  0.24979813  0.34985278  0.80415511  1
  O  O29  1  0.25020187  0.15014722  0.30415511  1
  O  O30  1  0.74979813  0.65014722  0.19584489  1
  O  O31  1  0.75020187  0.84985278  0.69584489  1
  O  O32  1  0.25432127  0.32546512  0.52507266  1
  O  O33  1  0.24567873  0.17453488  0.02507266  1
  O  O34  1  0.75432127  0.67453488  0.47492734  1
  O  O35  1  0.74567873  0.82546512  0.97492734  1
