# generated using pymatgen
data_Ba8Gd4(Cu4O9)3
_symmetry_space_group_name_H-M   'P 1'
_cell_length_a   7.86570620
_cell_length_b   12.49754093
_cell_length_c   8.67565359
_cell_angle_alpha   105.99873450
_cell_angle_beta   63.04306485
_cell_angle_gamma   90.00000000
_symmetry_Int_Tables_number   1
_chemical_formula_structural   Ba8Gd4(Cu4O9)3
_chemical_formula_sum   'Ba8 Gd4 Cu12 O27'
_cell_volume   722.91759314
_cell_formula_units_Z   1
loop_
 _symmetry_equiv_pos_site_id
 _symmetry_equiv_pos_as_xyz
  1  'x, y, z'
loop_
 _atom_site_type_symbol
 _atom_site_label
 _atom_site_symmetry_multiplicity
 _atom_site_fract_x
 _atom_site_fract_y
 _atom_site_fract_z
 _atom_site_occupancy
  Ba  Ba0  1  0.82343733  0.18850142  0.85312533  1
  Ba  Ba1  1  0.57978222  0.18237056  0.34043555  1
  Ba  Ba2  1  0.32914572  0.18170691  0.84170855  1
  Ba  Ba3  1  0.08250764  0.18778410  0.33498472  1
  Ba  Ba4  1  0.67085428  0.81829309  0.15829145  1
  Ba  Ba5  1  0.42021778  0.81762944  0.65956445  1
  Ba  Ba6  1  0.17656267  0.81149858  0.14687467  1
  Ba  Ba7  1  0.91749236  0.81221590  0.66501528  1
  Gd  Gd8  1  0.50000000  0.50000000  0.50000000  1
  Gd  Gd9  1  -0.00000000  0.50000000  0.50000000  1
  Gd  Gd10  1  0.25022817  0.49888428  0.99954366  1
  Gd  Gd11  1  0.74977183  0.50111572  0.00045634  1
  Cu  Cu12  1  0.66164312  0.35564556  0.67779466  1
  Cu  Cu13  1  0.16056222  0.35564556  0.67779466  1
  Cu  Cu14  1  0.41135111  0.35491370  0.17754168  1
  Cu  Cu15  1  0.91110721  0.35491370  0.17754168  1
  Cu  Cu16  1  0.58864889  0.64508630  0.82245832  1
  Cu  Cu17  1  0.08889279  0.64508630  0.82245832  1
  Cu  Cu18  1  0.33835688  0.64435444  0.32220534  1
  Cu  Cu19  1  0.83943778  0.64435444  0.32220534  1
  Cu  Cu20  1  0.73878122  -0.00000000  0.50000000  1
  Cu  Cu21  1  0.26121878  0.00000000  0.50000000  1
  Cu  Cu22  1  0.50000000  0.00000000  0.00000000  1
  Cu  Cu23  1  -0.00000000  0.00000000  0.00000000  1
  O  O24  1  0.78062541  0.37647340  0.43840805  1
  O  O25  1  0.28096654  0.37647340  0.43840805  1
  O  O26  1  0.53082878  0.37645900  0.93810846  1
  O  O27  1  0.03106276  0.37645900  0.93810846  1
  O  O28  1  0.71903346  0.62352660  0.56159195  1
  O  O29  1  0.21937459  0.62352660  0.56159195  1
  O  O30  1  0.46917122  0.62354100  0.06189154  1
  O  O31  1  0.96893724  0.62354100  0.06189154  1
  O  O32  1  0.40606420  0.37588335  0.68787160  1
  O  O33  1  0.90530423  0.37826169  0.68939154  1
  O  O34  1  0.15580309  0.37596477  0.18839381  1
  O  O35  1  0.65595166  0.37671036  0.18809668  1
  O  O36  1  0.34404834  0.62328964  0.81190332  1
  O  O37  1  0.84419691  0.62403523  0.81160619  1
  O  O38  1  0.09469577  0.62173831  0.31060846  1
  O  O39  1  0.59393580  0.62411665  0.31212840  1
  O  O40  1  0.72985702  0.15203436  0.57614354  1
  O  O41  1  0.19399943  0.15203436  0.57614354  1
  O  O42  1  0.46048168  0.15840078  0.07925637  1
  O  O43  1  0.96026195  0.15840078  0.07925637  1
  O  O44  1  0.53951832  0.84159922  0.92074363  1
  O  O45  1  0.03973805  0.84159922  0.92074363  1
  O  O46  1  0.27014298  0.84796564  0.42385646  1
  O  O47  1  0.80600057  0.84796564  0.42385646  1
  O  O48  1  0.75148119  0.99990547  0.99703763  1
  O  O49  1  0.50000000  0.00000000  0.50000000  1
  O  O50  1  0.24851881  0.00009453  0.00296237  1
