# generated using pymatgen
data_Ba10Sm5(Cu5O11)3
_symmetry_space_group_name_H-M   'P 1'
_cell_length_a   5.55319696
_cell_length_b   14.09945477
_cell_length_c   13.17299746
_cell_angle_alpha   114.40701050
_cell_angle_beta   89.50465901
_cell_angle_gamma   79.81200560
_symmetry_Int_Tables_number   1
_chemical_formula_structural   Ba10Sm5(Cu5O11)3
_chemical_formula_sum   'Ba10 Sm5 Cu15 O33'
_cell_volume   920.57215310
_cell_formula_units_Z   1
loop_
 _symmetry_equiv_pos_site_id
 _symmetry_equiv_pos_as_xyz
  1  'x, y, z'
loop_
 _atom_site_type_symbol
 _atom_site_label
 _atom_site_symmetry_multiplicity
 _atom_site_fract_x
 _atom_site_fract_y
 _atom_site_fract_z
 _atom_site_occupancy
  Ba  Ba0  1  0.85488252  0.27206994  0.18899139  1
  Ba  Ba1  1  0.65681229  0.67334183  0.18987501  1
  Ba  Ba2  1  0.46359270  0.07281620  0.18205046  1
  Ba  Ba3  1  0.26722068  0.47848215  0.18958088  1
  Ba  Ba4  1  0.06961751  0.87909651  0.18907517  1
  Ba  Ba5  1  0.73277932  0.52151785  0.81041912  1
  Ba  Ba6  1  0.53640730  0.92718380  0.81794954  1
  Ba  Ba7  1  0.34318771  0.32665817  0.81012499  1
  Ba  Ba8  1  0.14511748  0.72793006  0.81100861  1
  Ba  Ba9  1  0.93038249  0.12090349  0.81092483  1
  Sm  Sm10  1  0.80028829  0.39995864  0.49983968  1
  Sm  Sm11  1  0.19971171  0.60004136  0.50016032  1
  Sm  Sm12  1  0.59963767  0.80074463  0.50146287  1
  Sm  Sm13  1  0.00000000  0.00000000  0.50000000  1
  Sm  Sm14  1  0.40036233  0.19925537  0.49853713  1
  Cu  Cu15  1  0.92936801  0.14145102  0.35362238  1
  Cu  Cu16  1  0.32713314  0.34238048  0.35558472  1
  Cu  Cu17  1  0.73027653  0.54193111  0.35618542  1
  Cu  Cu18  1  0.12708909  0.74310261  0.35609514  1
  Cu  Cu19  1  0.53073544  0.94185935  0.35546549  1
  Cu  Cu20  1  0.87291091  0.25689739  0.64390486  1
  Cu  Cu21  1  0.26972347  0.45806889  0.64381458  1
  Cu  Cu22  1  0.67286686  0.65761952  0.64441528  1
  Cu  Cu23  1  0.07063199  0.85854898  0.64637762  1
  Cu  Cu24  1  0.46926456  0.05814065  0.64453451  1
  Cu  Cu25  1  0.00000000  0.00000000  0.00000000  1
  Cu  Cu26  1  0.42145087  0.19389433  0.00002603  1
  Cu  Cu27  1  0.78733990  0.40453554  0.00002928  1
  Cu  Cu28  1  0.21266010  0.59546446  0.99997072  1
  Cu  Cu29  1  0.57854913  0.80610567  0.99997397  1
  O  O30  1  0.62385977  0.25023731  0.37382416  1
  O  O31  1  0.02466514  0.45012445  0.37503764  1
  O  O32  1  0.42569739  0.64900199  0.37257731  1
  O  O33  1  0.82444803  0.85001878  0.37534847  1
  O  O34  1  0.22717599  0.04866647  0.37341353  1
  O  O35  1  0.57430261  0.35099801  0.62742269  1
  O  O36  1  0.97533486  0.54987555  0.62496236  1
  O  O37  1  0.37614023  0.74976269  0.62617584  1
  O  O38  1  0.77282401  0.95133353  0.62658647  1
  O  O39  1  0.17555197  0.14998122  0.62465153  1
  O  O40  1  0.12454875  0.25046825  0.37625829  1
  O  O41  1  0.52442428  0.45038147  0.37569695  1
  O  O42  1  0.92462229  0.65012471  0.37567257  1
  O  O43  1  0.32539514  0.85031287  0.37564036  1
  O  O44  1  0.72499174  0.05043065  0.37624861  1
  O  O45  1  0.07537771  0.34987529  0.62432743  1
  O  O46  1  0.47557572  0.54961853  0.62430305  1
  O  O47  1  0.87545125  0.74953175  0.62374171  1
  O  O48  1  0.27500826  0.94956935  0.62375139  1
  O  O49  1  0.67460486  0.14968713  0.62435964  1
  O  O50  1  0.96826214  0.06335538  0.15834733  1
  O  O51  1  0.34834810  0.26743383  0.15167132  1
  O  O52  1  0.79301272  0.45347501  0.15181274  1
  O  O53  1  0.14637876  0.66793173  0.15179228  1
  O  O54  1  0.59119170  0.85385013  0.15158680  1
  O  O55  1  0.85362124  0.33206827  0.84820772  1
  O  O56  1  0.20698728  0.54652499  0.84818726  1
  O  O57  1  0.65165190  0.73256617  0.84832868  1
  O  O58  1  0.03173786  0.93664462  0.84165267  1
  O  O59  1  0.40880830  0.14614987  0.84841320  1
  O  O60  1  0.71151592  0.09859648  0.99996277  1
  O  O61  1  0.50000000  0.50000000  0.00000000  1
  O  O62  1  0.28848408  0.90140352  0.00003723  1
