# generated using pymatgen
data_Ba2Cu4As5H3O20
_symmetry_space_group_name_H-M   'P 1'
_cell_length_a   7.93318952
_cell_length_b   7.93538825
_cell_length_c   13.92392470
_cell_angle_alpha   89.40717354
_cell_angle_beta   89.75641548
_cell_angle_gamma   90.00405040
_symmetry_Int_Tables_number   1
_chemical_formula_structural   Ba2Cu4As5H3O20
_chemical_formula_sum   'Ba4 Cu8 As10 H6 O40'
_cell_volume   876.49713472
_cell_formula_units_Z   2
loop_
 _symmetry_equiv_pos_site_id
 _symmetry_equiv_pos_as_xyz
  1  'x, y, z'
loop_
 _atom_site_type_symbol
 _atom_site_label
 _atom_site_symmetry_multiplicity
 _atom_site_fract_x
 _atom_site_fract_y
 _atom_site_fract_z
 _atom_site_occupancy
  Ba  Ba0  1  0.23993650  0.75313208  0.32230399  1
  Ba  Ba1  1  0.25126994  0.75830922  0.82261904  1
  Ba  Ba2  1  0.74321320  0.24281244  0.67256892  1
  Ba  Ba3  1  0.75513481  0.24427166  0.17245023  1
  Cu  Cu4  1  0.42609075  0.18008588  0.44600288  1
  Cu  Cu5  1  0.07602759  0.31409900  0.44695408  1
  Cu  Cu6  1  0.68632196  0.57459827  0.94736356  1
  Cu  Cu7  1  0.82039495  0.92485908  0.94564795  1
  Cu  Cu8  1  0.56864234  0.82275064  0.55484854  1
  Cu  Cu9  1  0.92634647  0.68029736  0.55385162  1
  Cu  Cu10  1  0.32038632  0.42680590  0.05317557  1
  Cu  Cu11  1  0.17842437  0.06973576  0.05545802  1
  As  As12  1  0.25147484  0.25190128  0.25024933  1
  As  As13  1  0.75178752  0.74689577  0.75017905  1
  As  As14  1  0.98858839  0.67833652  0.10148706  1
  As  As15  1  0.50794627  0.82730327  0.09095781  1
  As  As16  1  0.17843447  0.01132280  0.60217767  1
  As  As17  1  0.32765907  0.49208481  0.59027062  1
  As  As18  1  0.01201877  0.32495384  0.90671082  1
  As  As19  1  0.49447887  0.17521584  0.90869465  1
  As  As20  1  0.82388403  0.99229700  0.40835786  1
  As  As21  1  0.67421312  0.50973717  0.40707224  1
  H  H22  1  0.63875353  0.64454043  0.20426947  1
  H  H23  1  0.14441602  0.36112385  0.70380840  1
  H  H24  1  0.13976333  0.14156659  0.78157111  1
  H  H25  1  0.36442512  0.34907212  0.79062405  1
  H  H26  1  0.65228998  0.86420291  0.29077221  1
  H  H27  1  0.85881465  0.63998809  0.28079884  1
  O  O28  1  0.95529019  0.76884936  0.21092587  1
  O  O29  1  0.54196105  0.72356266  0.20435083  1
  O  O30  1  0.26843798  0.04436274  0.71179870  1
  O  O31  1  0.22348425  0.45775666  0.70353440  1
  O  O32  1  0.03893626  0.21994098  0.79501937  1
  O  O33  1  0.47415711  0.29311088  0.80075295  1
  O  O34  1  0.70574871  0.97476179  0.30130645  1
  O  O35  1  0.77909575  0.53975358  0.29455581  1
  O  O36  1  0.81619058  0.55127801  0.07180198  1
  O  O37  1  0.67753436  0.95516627  0.06652504  1
  O  O38  1  0.05074267  0.18371996  0.57175578  1
  O  O39  1  0.45492606  0.32268261  0.56644232  1
  O  O40  1  0.18827595  0.44617571  0.92671041  1
  O  O41  1  0.31885247  0.05186025  0.93052025  1
  O  O42  1  0.94344604  0.81446434  0.42804683  1
  O  O43  1  0.54934012  0.68349160  0.42926022  1
  O  O44  1  0.16909927  0.56385362  0.12454326  1
  O  O45  1  0.33170852  0.93083766  0.12863964  1
  O  O46  1  0.06490731  0.82955480  0.62515251  1
  O  O47  1  0.43198598  0.66700447  0.62794666  1
  O  O48  1  0.83520028  0.43219588  0.87350876  1
  O  O49  1  0.66903945  0.06711436  0.87207773  1
  O  O50  1  0.93286858  0.16749094  0.37326654  1
  O  O51  1  0.56751419  0.33361415  0.37235846  1
  O  O52  1  0.01960741  0.82315021  0.00806109  1
  O  O53  1  0.48002255  0.67727279  0.00476538  1
  O  O54  1  0.32278564  0.98127917  0.50915038  1
  O  O55  1  0.17675436  0.52074064  0.50383073  1
  O  O56  1  0.97915169  0.17721904  0.99619698  1
  O  O57  1  0.52476473  0.31842131  0.99872541  1
  O  O58  1  0.67929973  0.02376691  0.49895870  1
  O  O59  1  0.82096948  0.47807696  0.49577862  1
  O  O60  1  0.16637143  0.40526091  0.32382237  1
  O  O61  1  0.33165519  0.09425939  0.32425451  1
  O  O62  1  0.90653197  0.83161585  0.82318273  1
  O  O63  1  0.59557464  0.66610855  0.82480956  1
  O  O64  1  0.83331647  0.59105374  0.67722071  1
  O  O65  1  0.66714388  0.90266998  0.67695358  1
  O  O66  1  0.09672870  0.16850860  0.17708581  1
  O  O67  1  0.40844182  0.33469309  0.17715707  1
