# generated using pymatgen
data_AlGa2Bi(BO3)4
_symmetry_space_group_name_H-M   'P 1'
_cell_length_a   6.06103245
_cell_length_b   6.04214964
_cell_length_c   6.04213831
_cell_angle_alpha   103.95345284
_cell_angle_beta   103.93680254
_cell_angle_gamma   103.93671473
_symmetry_Int_Tables_number   1
_chemical_formula_structural   AlGa2Bi(BO3)4
_chemical_formula_sum   'Al1 Ga2 Bi1 B4 O12'
_cell_volume   197.64791902
_cell_formula_units_Z   1
loop_
 _symmetry_equiv_pos_site_id
 _symmetry_equiv_pos_as_xyz
  1  'x, y, z'
loop_
 _atom_site_type_symbol
 _atom_site_label
 _atom_site_symmetry_multiplicity
 _atom_site_fract_x
 _atom_site_fract_y
 _atom_site_fract_z
 _atom_site_occupancy
  Al  Al0  1  0.00000019  0.55502167  0.44498618  1
  Ga  Ga1  1  0.44428532  0.99771293  0.55298398  1
  Ga  Ga2  1  0.55571911  0.44702073  0.00228927  1
  Bi  Bi3  1  0.00000446  0.00056979  0.99943951  1
  B  B4  1  0.05571291  0.50048733  0.94298003  1
  B  B5  1  0.94429196  0.05702834  0.49952113  1
  B  B6  1  0.50000395  0.94401353  0.05599349  1
  B  B7  1  0.50000665  0.50041338  0.49960224  1
  O  O8  1  0.91712913  0.50497980  0.09679124  1
  O  O9  1  0.08288068  0.90322044  0.49502215  1
  O  O10  1  0.50000038  0.08957880  0.91043095  1
  O  O11  1  0.65442691  0.50525954  0.36139209  1
  O  O12  1  0.34557953  0.63861702  0.49476991  1
  O  O13  1  0.50001416  0.35433724  0.64567063  1
  O  O14  1  0.97086120  0.22430465  0.38000100  1
  O  O15  1  0.37193878  0.96753470  0.21429286  1
  O  O16  1  0.21543698  0.37247201  0.96826018  1
  O  O17  1  0.02913704  0.62000727  0.77570468  1
  O  O18  1  0.62806911  0.78571468  0.03246571  1
  O  O19  1  0.78456854  0.03174016  0.62753677  1
