# generated using pymatgen
data_B11Rh18
_symmetry_space_group_name_H-M   'P 1'
_cell_length_a   5.53540815
_cell_length_b   6.91950324
_cell_length_c   9.19488459
_cell_angle_alpha   110.85992199
_cell_angle_beta   94.54050067
_cell_angle_gamma   90.42887126
_symmetry_Int_Tables_number   1
_chemical_formula_structural   B11Rh18
_chemical_formula_sum   'B11 Rh18'
_cell_volume   327.82709311
_cell_formula_units_Z   1
loop_
 _symmetry_equiv_pos_site_id
 _symmetry_equiv_pos_as_xyz
  1  'x, y, z'
loop_
 _atom_site_type_symbol
 _atom_site_label
 _atom_site_symmetry_multiplicity
 _atom_site_fract_x
 _atom_site_fract_y
 _atom_site_fract_z
 _atom_site_occupancy
  B  B0  1  0.64957674  0.95717981  0.45616638  1
  B  B1  1  0.35362247  0.04334984  0.54598027  1
  B  B2  1  0.98356535  0.62202774  0.18596365  1
  B  B3  1  0.01899710  0.37670600  0.80863799  1
  B  B4  1  0.90899854  0.90353557  0.77952406  1
  B  B5  1  0.09393657  0.09788140  0.22241225  1
  B  B6  1  0.53775384  0.23160846  0.94118762  1
  B  B7  1  0.46226017  0.76798716  0.05828906  1
  B  B8  1  0.79000787  0.23330236  0.26945588  1
  B  B9  1  0.21110739  0.76001242  0.72619946  1
  B  B10  1  0.84617298  0.47353133  0.45450850  1
  Rh  Rh11  1  0.74031338  0.52571488  0.97354853  1
  Rh  Rh12  1  0.25800162  0.47383327  0.02341172  1
  Rh  Rh13  1  0.57424583  0.85493420  0.87005445  1
  Rh  Rh14  1  0.42481278  0.14497620  0.12975685  1
  Rh  Rh15  1  0.84934876  0.56051349  0.69108055  1
  Rh  Rh16  1  0.15071278  0.44502484  0.31236950  1
  Rh  Rh17  1  0.45927168  0.74249793  0.54390345  1
  Rh  Rh18  1  0.53636780  0.25791339  0.45450825  1
  Rh  Rh19  1  0.33899204  0.47862803  0.72933614  1
  Rh  Rh20  1  0.65413253  0.52587306  0.26834654  1
  Rh  Rh21  1  0.89665072  0.18477343  0.03460355  1
  Rh  Rh22  1  0.10418502  0.81679274  0.96562341  1
  Rh  Rh23  1  0.72406670  0.14543997  0.72095760  1
  Rh  Rh24  1  0.27686818  0.85398551  0.28036830  1
  Rh  Rh25  1  0.23173596  0.09758772  0.76966733  1
  Rh  Rh26  1  0.76902546  0.90018249  0.22913598  1
  Rh  Rh27  1  0.95580826  0.80052599  0.51840298  1
  Rh  Rh28  1  0.04146149  0.19668076  0.48459976  1
