# generated using pymatgen
data_NdAs2
_symmetry_space_group_name_H-M   'P 1'
_cell_length_a   4.14422590
_cell_length_b   6.91185174
_cell_length_c   10.22046978
_cell_angle_alpha   90.00000000
_cell_angle_beta   96.03614210
_cell_angle_gamma   90.00000000
_symmetry_Int_Tables_number   1
_chemical_formula_structural   NdAs2
_chemical_formula_sum   'Nd4 As8'
_cell_volume   291.13482668
_cell_formula_units_Z   4
loop_
 _symmetry_equiv_pos_site_id
 _symmetry_equiv_pos_as_xyz
  1  'x, y, z'
loop_
 _atom_site_type_symbol
 _atom_site_label
 _atom_site_symmetry_multiplicity
 _atom_site_fract_x
 _atom_site_fract_y
 _atom_site_fract_z
 _atom_site_occupancy
  As  As0  1  0.32039445  0.87699733  0.04970245  1
  As  As1  1  0.17960555  0.37699733  0.45029755  1
  As  As2  1  0.67960555  0.12300267  0.95029755  1
  As  As3  1  0.82039445  0.62300267  0.54970245  1
  As  As4  1  0.29038074  0.35595302  0.82882343  1
  As  As5  1  0.20961926  0.85595302  0.67117657  1
  As  As6  1  0.70961926  0.64404698  0.17117657  1
  As  As7  1  0.79038074  0.14404698  0.32882343  1
  Nd  Nd8  1  0.26994725  0.81257628  0.35967331  1
  Nd  Nd9  1  0.23005275  0.31257628  0.14032669  1
  Nd  Nd10  1  0.73005275  0.18742372  0.64032669  1
  Nd  Nd11  1  0.76994725  0.68742372  0.85967331  1
