# generated using pymatgen
data_ZnAg2GeO4
_symmetry_space_group_name_H-M   'P 1'
_cell_length_a   5.63768386
_cell_length_b   5.68643561
_cell_length_c   7.20325937
_cell_angle_alpha   90.00000000
_cell_angle_beta   90.57140074
_cell_angle_gamma   90.00000000
_symmetry_Int_Tables_number   1
_chemical_formula_structural   ZnAg2GeO4
_chemical_formula_sum   'Zn2 Ag4 Ge2 O8'
_cell_volume   230.91295568
_cell_formula_units_Z   2
loop_
 _symmetry_equiv_pos_site_id
 _symmetry_equiv_pos_as_xyz
  1  'x, y, z'
loop_
 _atom_site_type_symbol
 _atom_site_label
 _atom_site_symmetry_multiplicity
 _atom_site_fract_x
 _atom_site_fract_y
 _atom_site_fract_z
 _atom_site_occupancy
  O  O0  1  0.18704150  0.29327315  0.78326554  1
  O  O1  1  0.68704150  0.70672685  0.28326554  1
  O  O2  1  0.15292933  0.79712035  0.44857883  1
  O  O3  1  0.65292933  0.20287965  0.94857883  1
  O  O4  1  0.58083262  0.61421777  0.71796351  1
  O  O5  1  0.57545156  0.14883829  0.54672229  1
  O  O6  1  0.08083262  0.38578223  0.21796351  1
  O  O7  1  0.07545156  0.85116171  0.04672229  1
  Zn  Zn8  1  0.50055021  0.81115087  0.49885192  1
  Zn  Zn9  1  0.00055021  0.18884913  0.99885192  1
  Ge  Ge10  1  0.99901738  0.68663424  0.24950349  1
  Ge  Ge11  1  0.49901738  0.31336576  0.74950349  1
  Ag  Ag12  1  0.99379430  0.19494059  0.50392672  1
  Ag  Ag13  1  0.49379430  0.80505941  0.00392672  1
  Ag  Ag14  1  0.50438310  0.30492775  0.24318771  1
  Ag  Ag15  1  0.00438310  0.69507225  0.74318771  1
