# generated using pymatgen
data_K2Pd(NO2)4
_symmetry_space_group_name_H-M   'P 1'
_cell_length_a   7.91632905
_cell_length_b   9.71498047
_cell_length_c   12.93821754
_cell_angle_alpha   90.00000000
_cell_angle_beta   90.00000000
_cell_angle_gamma   97.43144455
_symmetry_Int_Tables_number   1
_chemical_formula_structural   K2Pd(NO2)4
_chemical_formula_sum   'K8 Pd4 N16 O32'
_cell_volume   986.68126290
_cell_formula_units_Z   4
loop_
 _symmetry_equiv_pos_site_id
 _symmetry_equiv_pos_as_xyz
  1  'x, y, z'
loop_
 _atom_site_type_symbol
 _atom_site_label
 _atom_site_symmetry_multiplicity
 _atom_site_fract_x
 _atom_site_fract_y
 _atom_site_fract_z
 _atom_site_occupancy
  N  N0  1  0.75443089  0.58062674  0.47855446  1
  N  N1  1  0.51237103  0.39465658  0.36324194  1
  N  N2  1  0.98762897  0.60534342  0.86324194  1
  N  N3  1  0.48762897  0.60534342  0.63675806  1
  N  N4  1  0.01237103  0.39465658  0.13675806  1
  N  N5  1  0.74556911  0.41937326  0.97855446  1
  N  N6  1  0.24556911  0.41937326  0.52144554  1
  N  N7  1  0.25443089  0.58062674  0.02144554  1
  N  N8  1  0.76468467  0.00737556  0.06672644  1
  N  N9  1  0.73531533  0.99262444  0.56672644  1
  N  N10  1  0.23531533  0.99262444  0.93327356  1
  N  N11  1  0.26468467  0.00737556  0.43327356  1
  N  N12  1  0.43086749  0.10801379  0.62719173  1
  N  N13  1  0.06913251  0.89198621  0.12719173  1
  N  N14  1  0.56913251  0.89198621  0.37280827  1
  N  N15  1  0.93086749  0.10801379  0.87280827  1
  O  O16  1  0.30278010  0.62771796  0.10796423  1
  O  O17  1  0.19721990  0.37228204  0.60796423  1
  O  O18  1  0.69721990  0.37228204  0.89203577  1
  O  O19  1  0.80278010  0.62771796  0.39203577  1
  O  O20  1  0.93325006  0.43264869  0.21353224  1
  O  O21  1  0.56674994  0.56735131  0.71353224  1
  O  O22  1  0.06674994  0.56735131  0.78646776  1
  O  O23  1  0.59943533  0.29678687  0.35518693  1
  O  O24  1  0.43325006  0.43264869  0.28646776  1
  O  O25  1  0.09943533  0.29678687  0.14481307  1
  O  O26  1  0.40056467  0.70321313  0.64481307  1
  O  O27  1  0.90056467  0.70321313  0.85518693  1
  O  O28  1  0.29815482  0.06628217  0.67620282  1
  O  O29  1  0.20184518  0.93371783  0.17620282  1
  O  O30  1  0.70184518  0.93371783  0.32379718  1
  O  O31  1  0.79815482  0.06628217  0.82379718  1
  O  O32  1  0.52288404  0.21629516  0.65531312  1
  O  O33  1  0.97711596  0.78370484  0.15531312  1
  O  O34  1  0.47711596  0.78370484  0.34468688  1
  O  O35  1  0.02288404  0.21629516  0.84468688  1
  O  O36  1  0.14759524  0.91034746  0.45007973  1
  O  O37  1  0.35240476  0.08965254  0.95007973  1
  O  O38  1  0.85240476  0.08965254  0.54992027  1
  O  O39  1  0.64759524  0.91034746  0.04992027  1
  O  O40  1  0.23988269  0.10677122  0.37654194  1
  O  O41  1  0.26011731  0.89322878  0.87654194  1
  O  O42  1  0.76011731  0.89322878  0.62345806  1
  O  O43  1  0.73988269  0.10677122  0.12345806  1
  O  O44  1  0.35842986  0.58062505  0.94861172  1
  O  O45  1  0.14157014  0.41937495  0.44861172  1
  O  O46  1  0.64157014  0.41937495  0.05138828  1
  O  O47  1  0.85842986  0.58062505  0.55138828  1
  K  K48  1  0.64967690  0.65840770  0.18304336  1
  K  K49  1  0.85032310  0.34159230  0.68304336  1
  K  K50  1  0.35032310  0.34159230  0.81695664  1
  K  K51  1  0.14967690  0.65840770  0.31695664  1
  K  K52  1  0.91567437  0.18908116  0.34307441  1
  K  K53  1  0.58432563  0.81091884  0.84307441  1
  K  K54  1  0.08432563  0.81091884  0.65692559  1
  K  K55  1  0.41567437  0.18908116  0.15692559  1
  Pd  Pd56  1  0.50000000  0.50000000  0.50000000  1
  Pd  Pd57  1  0.00000000  0.50000000  0.00000000  1
  Pd  Pd58  1  0.00000000  0.00000000  0.00000000  1
  Pd  Pd59  1  0.50000000  0.00000000  0.50000000  1
