# generated using pymatgen
data_Hf9V4S
_symmetry_space_group_name_H-M   'P 1'
_cell_length_a   8.57941802
_cell_length_b   8.57941802
_cell_length_c   8.41254275
_cell_angle_alpha   90.00000000
_cell_angle_beta   90.00000000
_cell_angle_gamma   120.00000002
_symmetry_Int_Tables_number   1
_chemical_formula_structural   Hf9V4S
_chemical_formula_sum   'Hf18 V8 S2'
_cell_volume   536.25773936
_cell_formula_units_Z   2
loop_
 _symmetry_equiv_pos_site_id
 _symmetry_equiv_pos_as_xyz
  1  'x, y, z'
loop_
 _atom_site_type_symbol
 _atom_site_label
 _atom_site_symmetry_multiplicity
 _atom_site_fract_x
 _atom_site_fract_y
 _atom_site_fract_z
 _atom_site_occupancy
  S  S0  1  0.66666667  0.33333333  0.25000000  1
  S  S1  1  0.33333333  0.66666667  0.75000000  1
  V  V2  1  0.00000000  0.00000000  0.50000000  1
  V  V3  1  0.00000000  0.00000000  0.00000000  1
  V  V4  1  0.89301533  0.78603065  0.75000000  1
  V  V5  1  0.10698467  0.89301533  0.25000000  1
  V  V6  1  0.78603065  0.89301533  0.25000000  1
  V  V7  1  0.21396935  0.10698467  0.75000000  1
  V  V8  1  0.89301533  0.10698467  0.75000000  1
  V  V9  1  0.10698467  0.21396935  0.25000000  1
  Hf  Hf10  1  0.19563353  0.39126707  0.94886568  1
  Hf  Hf11  1  0.19563353  0.80436647  0.94886568  1
  Hf  Hf12  1  0.45606187  0.91212374  0.25000000  1
  Hf  Hf13  1  0.54393813  0.45606187  0.75000000  1
  Hf  Hf14  1  0.91212374  0.45606187  0.75000000  1
  Hf  Hf15  1  0.08787626  0.54393813  0.25000000  1
  Hf  Hf16  1  0.45606187  0.54393813  0.25000000  1
  Hf  Hf17  1  0.54393813  0.08787626  0.75000000  1
  Hf  Hf18  1  0.60873293  0.80436647  0.94886568  1
  Hf  Hf19  1  0.39126707  0.19563353  0.44886568  1
  Hf  Hf20  1  0.80436647  0.60873293  0.05113432  1
  Hf  Hf21  1  0.80436647  0.19563353  0.44886568  1
  Hf  Hf22  1  0.80436647  0.60873293  0.44886568  1
  Hf  Hf23  1  0.19563353  0.80436647  0.55113432  1
  Hf  Hf24  1  0.60873293  0.80436647  0.55113432  1
  Hf  Hf25  1  0.39126707  0.19563353  0.05113432  1
  Hf  Hf26  1  0.80436647  0.19563353  0.05113432  1
  Hf  Hf27  1  0.19563353  0.39126707  0.55113432  1
