# generated using pymatgen
data_K2Na5Al7Si5O24
_symmetry_space_group_name_H-M   'P 1'
_cell_length_a   12.19603377
_cell_length_b   12.70633293
_cell_length_c   12.70265515
_cell_angle_alpha   90.22722825
_cell_angle_beta   90.23411225
_cell_angle_gamma   89.69772636
_symmetry_Int_Tables_number   1
_chemical_formula_structural   K2Na5Al7Si5O24
_chemical_formula_sum   'K4 Na10 Al14 Si10 O48'
_cell_volume   1968.43151312
_cell_formula_units_Z   2
loop_
 _symmetry_equiv_pos_site_id
 _symmetry_equiv_pos_as_xyz
  1  'x, y, z'
loop_
 _atom_site_type_symbol
 _atom_site_label
 _atom_site_symmetry_multiplicity
 _atom_site_fract_x
 _atom_site_fract_y
 _atom_site_fract_z
 _atom_site_occupancy
  K  K0  1  0.50892508  0.01663917  0.38619516  1
  K  K1  1  0.50678002  0.39426152  0.01484887  1
  K  K2  1  0.50090136  0.01719012  0.61965910  1
  K  K3  1  0.50322876  0.62799299  0.01888422  1
  Na  Na4  1  0.19659333  0.19860399  0.20596931  1
  Na  Na5  1  0.18615955  0.19195933  0.78595211  1
  Na  Na6  1  0.19710424  0.78899442  0.18928433  1
  Na  Na7  1  0.18176630  0.79289233  0.80209904  1
  Na  Na8  1  0.81039291  0.49407447  0.80787627  1
  Na  Na9  1  0.81006132  0.81079964  0.49605758  1
  Na  Na10  1  0.80112834  0.20199142  0.19540489  1
  Na  Na11  1  0.81128246  0.18174408  0.79683061  1
  Na  Na12  1  0.81385241  0.79860071  0.18295406  1
  Na  Na13  1  0.82831834  0.81421024  0.81309215  1
  Al  Al14  1  0.01049616  0.81425583  0.62650177  1
  Al  Al15  1  0.18475627  0.99735204  0.36793341  1
  Al  Al16  1  0.19093853  0.61797199  0.00690507  1
  Al  Al17  1  0.35415512  0.00153046  0.82763320  1
  Al  Al18  1  0.35728292  0.82788032  0.99600479  1
  Al  Al19  1  0.63619031  0.99945948  0.17330199  1
  Al  Al20  1  0.63199245  0.17891197  0.00325146  1
  Al  Al21  1  0.63636478  0.00657914  0.82500098  1
  Al  Al22  1  0.64060750  0.83055010  0.99436545  1
  Al  Al23  1  0.81548250  0.00173344  0.36642503  1
  Al  Al24  1  0.81493749  0.00155283  0.62629945  1
  Al  Al25  1  0.81235400  0.36684773  0.99889312  1
  Al  Al26  1  0.81736952  0.62627483  0.99874484  1
  Al  Al27  1  0.00698835  0.36296834  0.81614836  1
  Si  Si28  1  0.00041491  0.37097318  0.18690820  1
  Si  Si29  1  0.00602974  0.81199775  0.36427429  1
  Si  Si30  1  0.01078497  0.62391117  0.81554667  1
  Si  Si31  1  0.19065264  -0.00016554  0.62075997  1
  Si  Si32  1  0.18400269  0.36406934  0.00752887  1
  Si  Si33  1  0.36054756  0.99876365  0.17403930  1
  Si  Si34  1  0.35708237  0.17376659  0.00266736  1
  Si  Si35  1  0.00099809  0.18561967  0.36903278  1
  Si  Si36  1  0.00452247  0.18440912  0.61711697  1
  Si  Si37  1  0.00244059  0.61983076  0.18793997  1
  O  O38  1  0.00465005  0.29171927  0.29060849  1
  O  O39  1  0.00485452  0.22532080  0.49282356  1
  O  O40  1  0.02210680  0.28054280  0.70195760  1
  O  O41  1  0.00174197  0.70179885  0.29096950  1
  O  O42  1  0.00243161  0.49860640  0.78059166  1
  O  O43  1  0.02196671  0.70515200  0.71499260  1
  O  O44  1  0.11012913  0.11553868  0.34095083  1
  O  O45  1  0.11285268  0.34052551  0.11832599  1
  O  O46  1  0.11949108  0.32917273  0.90057926  1
  O  O47  1  0.11586602  0.87860771  0.33126286  1
  O  O48  1  0.11244932  0.10707999  0.63627716  1
  O  O49  1  0.11394013  0.64402583  0.12334223  1
  O  O50  1  0.11686084  0.64697267  0.89098712  1
  O  O51  1  0.12613686  0.89309865  0.65576628  1
  O  O52  1  0.23017324  0.99361113  0.49857209  1
  O  O53  1  0.22730268  0.48372407  0.00778007  1
  O  O54  1  0.30238288  0.01068191  0.29026693  1
  O  O55  1  0.29362646  0.28878789  0.02206386  1
  O  O56  1  0.29454894  0.02102475  0.69851675  1
  O  O57  1  0.30403710  0.69936500  0.01523934  1
  O  O58  1  0.32140557  0.10767113  0.10972372  1
  O  O59  1  0.30915126  0.11893625  0.89702450  1
  O  O60  1  0.31279328  0.89690172  0.11298521  1
  O  O61  1  0.29881992  0.89045106  0.88641352  1
  O  O62  1  0.49061448  0.99800005  0.19380084  1
  O  O63  1  0.48506051  0.20099609  0.00196718  1
  O  O64  1  0.49779193  0.81452320  0.99304302  1
  O  O65  1  0.49317977  0.00393332  0.80685464  1
  O  O66  1  0.66965758  0.11852682  0.11870781  1
  O  O67  1  0.67531830  0.12313988  0.88764331  1
  O  O68  1  0.68387714  0.88790890  0.11224677  1
  O  O69  1  0.68923168  0.89281207  0.88233203  1
  O  O70  1  0.69257686  0.00249306  0.30019041  1
  O  O71  1  0.69650604  0.01856067  0.69865783  1
  O  O72  1  0.68797994  0.30506480  0.01626161  1
  O  O73  1  0.70160028  0.70381948  0.00019991  1
  O  O74  1  0.77684718  0.98457546  0.49560744  1
  O  O75  1  0.77559599  0.49778718  0.98238804  1
  O  O76  1  0.89046845  0.12032883  0.33984723  1
  O  O77  1  0.89323561  0.34325755  0.11709210  1
  O  O78  1  0.88209255  0.33348981  0.87826624  1
  O  O79  1  0.89320145  0.87929178  0.33550059  1
  O  O80  1  0.89383607  0.12028163  0.64403520  1
  O  O81  1  0.89338673  0.64568898  0.11898312  1
  O  O82  1  0.89495001  0.65301845  0.87776068  1
  O  O83  1  0.88672036  0.88021633  0.65497938  1
  O  O84  1  0.00467801  0.49432138  0.22680022  1
  O  O85  1  0.00258773  0.78014885  0.48898225  1
