# generated using pymatgen
data_CaZn(GeO3)2
_symmetry_space_group_name_H-M   'P 1'
_cell_length_a   5.51303450
_cell_length_b   6.88258180
_cell_length_c   6.88258180
_cell_angle_alpha   82.89266212
_cell_angle_beta   78.43994662
_cell_angle_gamma   78.43994655
_symmetry_Int_Tables_number   1
_chemical_formula_structural   CaZn(GeO3)2
_chemical_formula_sum   'Ca2 Zn2 Ge4 O12'
_cell_volume   249.71278654
_cell_formula_units_Z   2
loop_
 _symmetry_equiv_pos_site_id
 _symmetry_equiv_pos_as_xyz
  1  'x, y, z'
loop_
 _atom_site_type_symbol
 _atom_site_label
 _atom_site_symmetry_multiplicity
 _atom_site_fract_x
 _atom_site_fract_y
 _atom_site_fract_z
 _atom_site_occupancy
  O  O0  1  0.51633945  0.32862342  0.38839351  1
  O  O1  1  0.98366055  0.61160649  0.67137658  1
  O  O2  1  0.48366055  0.67137658  0.61160649  1
  O  O3  1  0.01633945  0.38839351  0.32862342  1
  O  O4  1  0.15481797  0.10318425  0.62431886  1
  O  O5  1  0.34518203  0.37568114  0.89681575  1
  O  O6  1  0.84518203  0.89681575  0.37568114  1
  O  O7  1  0.65481797  0.62431886  0.10318425  1
  O  O8  1  0.86576058  0.20113695  0.01579807  1
  O  O9  1  0.63423942  0.98420193  0.79886305  1
  O  O10  1  0.13423942  0.79886305  0.98420193  1
  O  O11  1  0.36576058  0.01579807  0.20113695  1
  Ca  Ca12  1  0.75000000  0.30312672  0.69687328  1
  Ca  Ca13  1  0.25000000  0.69687328  0.30312672  1
  Zn  Zn14  1  0.75000000  0.90658918  0.09341082  1
  Zn  Zn15  1  0.25000000  0.09341082  0.90658918  1
  Ge  Ge16  1  0.77445451  0.38241851  0.18618089  1
  Ge  Ge17  1  0.72554549  0.81381911  0.61758149  1
  Ge  Ge18  1  0.22554549  0.61758149  0.81381911  1
  Ge  Ge19  1  0.27445451  0.18618089  0.38241851  1
