# generated using pymatgen
data_H6S(NO2)2
_symmetry_space_group_name_H-M   'P 1'
_cell_length_a   5.54446049
_cell_length_b   8.19895542
_cell_length_c   9.21762347
_cell_angle_alpha   90.00000000
_cell_angle_beta   90.00000000
_cell_angle_gamma   90.00000000
_symmetry_Int_Tables_number   1
_chemical_formula_structural   H6S(NO2)2
_chemical_formula_sum   'H24 S4 N8 O16'
_cell_volume   419.02195787
_cell_formula_units_Z   4
loop_
 _symmetry_equiv_pos_site_id
 _symmetry_equiv_pos_as_xyz
  1  'x, y, z'
loop_
 _atom_site_type_symbol
 _atom_site_label
 _atom_site_symmetry_multiplicity
 _atom_site_fract_x
 _atom_site_fract_y
 _atom_site_fract_z
 _atom_site_occupancy
  H  H0  1  0.26758135  0.96479771  0.43365789  1
  H  H1  1  0.23241865  0.03520229  0.93365789  1
  H  H2  1  0.76758135  0.53520229  0.56634211  1
  H  H3  1  0.73241865  0.46479771  0.06634211  1
  H  H4  1  0.04253564  0.98871155  0.31140688  1
  H  H5  1  0.45746436  0.01128845  0.81140688  1
  H  H6  1  0.54253564  0.51128845  0.68859312  1
  H  H7  1  0.95746436  0.48871155  0.18859312  1
  H  H8  1  0.31962480  0.92745348  0.25097280  1
  H  H9  1  0.18037520  0.07254652  0.75097280  1
  H  H10  1  0.81962480  0.57254652  0.74902720  1
  H  H11  1  0.68037520  0.42745348  0.24902720  1
  H  H12  1  0.26672931  0.19962431  0.19893257  1
  H  H13  1  0.23327069  0.80037569  0.69893257  1
  H  H14  1  0.76672931  0.30037569  0.80106743  1
  H  H15  1  0.73327069  0.69962431  0.30106743  1
  H  H16  1  0.20525560  0.24535954  0.37534314  1
  H  H17  1  0.29474440  0.75464046  0.87534314  1
  H  H18  1  0.70525560  0.25464046  0.62465686  1
  H  H19  1  0.79474440  0.74535954  0.12465686  1
  H  H20  1  0.48703941  0.17042271  0.32274761  1
  H  H21  1  0.01296059  0.82957729  0.82274761  1
  H  H22  1  0.98703941  0.32957729  0.67725239  1
  H  H23  1  0.51296059  0.67042271  0.17725239  1
  S  S24  1  0.24773984  0.54938998  0.42651119  1
  S  S25  1  0.25226016  0.45061002  0.92651119  1
  S  S26  1  0.74773984  0.95061002  0.57348881  1
  S  S27  1  0.75226016  0.04938998  0.07348881  1
  N  N28  1  0.22744508  0.99753805  0.32755747  1
  N  N29  1  0.27255492  0.00246195  0.82755747  1
  N  N30  1  0.72744508  0.50246195  0.67244253  1
  N  N31  1  0.77255492  0.49753805  0.17244253  1
  N  N32  1  0.30146338  0.16334162  0.30626551  1
  N  N33  1  0.19853662  0.83665838  0.80626551  1
  N  N34  1  0.80146338  0.33665838  0.69373449  1
  N  N35  1  0.69853662  0.66334162  0.19373449  1
  O  O36  1  0.49010621  0.47019153  0.41077128  1
  O  O37  1  0.00989379  0.52980847  0.91077128  1
  O  O38  1  0.99010621  0.02980847  0.58922872  1
  O  O39  1  0.50989379  0.97019153  0.08922872  1
  O  O40  1  0.23701253  0.64417790  0.56321142  1
  O  O41  1  0.26298747  0.35582210  0.06321142  1
  O  O42  1  0.73701253  0.85582210  0.43678858  1
  O  O43  1  0.76298747  0.14417790  0.93678858  1
  O  O44  1  0.19895424  0.65432990  0.29754258  1
  O  O45  1  0.30104576  0.34567010  0.79754258  1
  O  O46  1  0.69895424  0.84567010  0.70245742  1
  O  O47  1  0.80104576  0.15432990  0.20245742  1
  O  O48  1  0.06052277  0.41538528  0.43229050  1
  O  O49  1  0.43947723  0.58461472  0.93229050  1
  O  O50  1  0.56052277  0.08461472  0.56770950  1
  O  O51  1  0.93947723  0.91538528  0.06770950  1
