# generated using pymatgen
data_Na6MnO4
_symmetry_space_group_name_H-M   'P 1'
_cell_length_a   7.77295714
_cell_length_b   7.77295714
_cell_length_c   5.96988108
_cell_angle_alpha   90.00000000
_cell_angle_beta   90.00000000
_cell_angle_gamma   120.00000002
_symmetry_Int_Tables_number   1
_chemical_formula_structural   Na6MnO4
_chemical_formula_sum   'Na12 Mn2 O8'
_cell_volume   312.36966903
_cell_formula_units_Z   2
loop_
 _symmetry_equiv_pos_site_id
 _symmetry_equiv_pos_as_xyz
  1  'x, y, z'
loop_
 _atom_site_type_symbol
 _atom_site_label
 _atom_site_symmetry_multiplicity
 _atom_site_fract_x
 _atom_site_fract_y
 _atom_site_fract_z
 _atom_site_occupancy
  O  O0  1  0.18705394  0.81294606  0.36430537  1
  O  O1  1  0.37410787  0.18705394  0.86430537  1
  O  O2  1  0.81294606  0.62589213  0.86430537  1
  O  O3  1  0.18705394  0.37410787  0.36430537  1
  O  O4  1  0.62589213  0.81294606  0.36430537  1
  O  O5  1  0.81294606  0.18705394  0.86430537  1
  O  O6  1  0.66666667  0.33333333  0.40351891  1
  O  O7  1  0.33333333  0.66666667  0.90351891  1
  Na  Na8  1  0.53925660  0.07851319  0.14252714  1
  Na  Na9  1  0.46074340  0.53925660  0.64252714  1
  Na  Na10  1  0.92148681  0.46074340  0.14252714  1
  Na  Na11  1  0.53925660  0.46074340  0.14252714  1
  Na  Na12  1  0.13957539  0.86042461  0.97469216  1
  Na  Na13  1  0.27915078  0.13957539  0.47469216  1
  Na  Na14  1  0.07851319  0.53925660  0.64252714  1
  Na  Na15  1  0.86042461  0.72084922  0.47469216  1
  Na  Na16  1  0.86042461  0.13957539  0.47469216  1
  Na  Na17  1  0.72084922  0.86042461  0.97469216  1
  Na  Na18  1  0.13957539  0.27915078  0.97469216  1
  Na  Na19  1  0.46074340  0.92148681  0.64252714  1
  Mn  Mn20  1  0.66666667  0.33333333  0.74618710  1
  Mn  Mn21  1  0.33333333  0.66666667  0.24618710  1
