# generated using pymatgen
data_Ho2Cu(B2O5)2
_symmetry_space_group_name_H-M   'P 1'
_cell_length_a   4.60484345
_cell_length_b   7.29021853
_cell_length_c   9.35995921
_cell_angle_alpha   90.00000000
_cell_angle_beta   90.46462851
_cell_angle_gamma   90.00000000
_symmetry_Int_Tables_number   1
_chemical_formula_structural   Ho2Cu(B2O5)2
_chemical_formula_sum   'Ho4 Cu2 B8 O20'
_cell_volume   314.20644796
_cell_formula_units_Z   2
loop_
 _symmetry_equiv_pos_site_id
 _symmetry_equiv_pos_as_xyz
  1  'x, y, z'
loop_
 _atom_site_type_symbol
 _atom_site_label
 _atom_site_symmetry_multiplicity
 _atom_site_fract_x
 _atom_site_fract_y
 _atom_site_fract_z
 _atom_site_occupancy
  B  B0  1  0.46016594  0.73239300  0.08086710  1
  B  B1  1  0.53983406  0.23239300  0.41913290  1
  B  B2  1  0.53983406  0.26760700  0.91913290  1
  B  B3  1  0.46016594  0.76760700  0.58086710  1
  B  B4  1  0.47218642  0.40142957  0.66176451  1
  B  B5  1  0.52781358  0.90142957  0.83823549  1
  B  B6  1  0.52781358  0.59857043  0.33823549  1
  B  B7  1  0.47218642  0.09857043  0.16176451  1
  O  O8  1  0.21468235  0.58925383  0.33423116  1
  O  O9  1  0.78531765  0.41074617  0.66576884  1
  O  O10  1  0.32291054  0.91282274  0.13800564  1
  O  O11  1  0.67708946  0.41282274  0.36199436  1
  O  O12  1  0.67708946  0.08717726  0.86199436  1
  O  O13  1  0.21468235  0.91074617  0.83423116  1
  O  O14  1  0.35922935  0.22222790  0.04699803  1
  O  O15  1  0.64077065  0.72222790  0.45300197  1
  O  O16  1  0.64077065  0.77777210  0.95300197  1
  O  O17  1  0.35922935  0.27777210  0.54699803  1
  O  O18  1  0.34339656  0.16560033  0.29999559  1
  O  O19  1  0.65660344  0.66560033  0.20000441  1
  O  O20  1  0.65660344  0.83439967  0.70000441  1
  O  O21  1  0.34339656  0.33439967  0.79999559  1
  O  O22  1  0.22894395  0.88828777  0.54241688  1
  O  O23  1  0.77105605  0.38828777  0.95758312  1
  O  O24  1  0.77105605  0.11171223  0.45758312  1
  O  O25  1  0.22894395  0.61171223  0.04241688  1
  O  O26  1  0.32291054  0.58717726  0.63800564  1
  O  O27  1  0.78531765  0.08925383  0.16576884  1
  Cu  Cu28  1  0.00000000  0.00000000  0.00000000  1
  Cu  Cu29  1  0.00000000  0.50000000  0.50000000  1
  Ho  Ho30  1  0.99571855  0.60450390  0.83473011  1
  Ho  Ho31  1  0.00428145  0.10450390  0.66526989  1
  Ho  Ho32  1  0.99571855  0.89549610  0.33473011  1
  Ho  Ho33  1  0.00428145  0.39549610  0.16526989  1
