# generated using pymatgen
data_Ca2UO5
_symmetry_space_group_name_H-M   'P 1'
_cell_length_a   5.50585750
_cell_length_b   7.97661333
_cell_length_c   11.49088575
_cell_angle_alpha   108.18827199
_cell_angle_beta   90.00000000
_cell_angle_gamma   90.00000000
_symmetry_Int_Tables_number   1
_chemical_formula_structural   Ca2UO5
_chemical_formula_sum   'Ca8 U4 O20'
_cell_volume   479.44308547
_cell_formula_units_Z   4
loop_
 _symmetry_equiv_pos_site_id
 _symmetry_equiv_pos_as_xyz
  1  'x, y, z'
loop_
 _atom_site_type_symbol
 _atom_site_label
 _atom_site_symmetry_multiplicity
 _atom_site_fract_x
 _atom_site_fract_y
 _atom_site_fract_z
 _atom_site_occupancy
  O  O0  1  0.68163018  0.74983421  0.50324815  1
  O  O1  1  0.18163018  0.25016579  0.99675185  1
  O  O2  1  0.31836982  0.25016579  0.49675185  1
  O  O3  1  0.81836982  0.74983421  0.00324815  1
  O  O4  1  0.75070462  0.98342413  0.36630189  1
  O  O5  1  0.25070462  0.01657587  0.13369811  1
  O  O6  1  0.24929538  0.01657587  0.63369811  1
  O  O7  1  0.74929538  0.98342413  0.86630189  1
  O  O8  1  0.80780887  0.38408468  0.42794593  1
  O  O9  1  0.30780887  0.61591532  0.07205407  1
  O  O10  1  0.19219113  0.61591532  0.57205407  1
  O  O11  1  0.69219113  0.38408468  0.92794593  1
  O  O12  1  0.66825940  0.55029456  0.67222080  1
  O  O13  1  0.16825940  0.44970544  0.82777920  1
  O  O14  1  0.33174060  0.44970544  0.32777920  1
  O  O15  1  0.83174060  0.55029456  0.17222080  1
  O  O16  1  0.72212759  0.12187526  0.64173395  1
  O  O17  1  0.22212759  0.87812474  0.85826605  1
  O  O18  1  0.27787241  0.87812474  0.35826605  1
  O  O19  1  0.77787241  0.12187526  0.14173395  1
  Ca  Ca20  1  0.94459906  0.84777466  0.68134458  1
  Ca  Ca21  1  0.44459906  0.15222534  0.81865542  1
  Ca  Ca22  1  0.05540094  0.15222534  0.31865542  1
  Ca  Ca23  1  0.55540094  0.84777466  0.18134458  1
  Ca  Ca24  1  0.49363202  0.65028136  0.86142732  1
  Ca  Ca25  1  0.99363202  0.34971864  0.63857268  1
  Ca  Ca26  1  0.50636798  0.34971864  0.13857268  1
  Ca  Ca27  1  0.00636798  0.65028136  0.36142732  1
  U  U28  1  0.00000000  0.00000000  0.00000000  1
  U  U29  1  0.50000000  0.00000000  0.50000000  1
  U  U30  1  0.00000000  0.50000000  0.00000000  1
  U  U31  1  0.50000000  0.50000000  0.50000000  1
