# generated using pymatgen
data_LaAl4
_symmetry_space_group_name_H-M   'P 1'
_cell_length_a   4.39165983
_cell_length_b   8.85397819
_cell_length_c   8.85397821
_cell_angle_alpha   78.79857455
_cell_angle_beta   75.64051912
_cell_angle_gamma   75.64051998
_symmetry_Int_Tables_number   1
_chemical_formula_structural   LaAl4
_chemical_formula_sum   'La3 Al12'
_cell_volume   319.85120013
_cell_formula_units_Z   3
loop_
 _symmetry_equiv_pos_site_id
 _symmetry_equiv_pos_as_xyz
  1  'x, y, z'
loop_
 _atom_site_type_symbol
 _atom_site_label
 _atom_site_symmetry_multiplicity
 _atom_site_fract_x
 _atom_site_fract_y
 _atom_site_fract_z
 _atom_site_occupancy
  La  La0  1  0.66679135  0.33440100  0.33201631  1
  La  La1  1  0.33320865  0.66798369  0.66559900  1
  La  La2  1  0.00000000  0.99554049  0.00445951  1
  Al  Al3  1  0.16324360  0.08372609  0.58978672  1
  Al  Al4  1  0.00000000  0.61653333  0.38346667  1
  Al  Al5  1  0.33117961  0.05229154  0.28534924  1
  Al  Al6  1  0.50000000  0.74914692  0.25085308  1
  Al  Al7  1  0.83011488  0.91972537  0.42004487  1
  Al  Al8  1  0.00000000  0.38826479  0.61173521  1
  Al  Al9  1  0.66441695  0.94745795  0.72370815  1
  Al  Al10  1  0.33558305  0.27629185  0.05254205  1
  Al  Al11  1  0.66882039  0.71465076  0.94770846  1
  Al  Al12  1  0.50000000  0.25281781  0.74718219  1
  Al  Al13  1  0.16988512  0.57995513  0.08027463  1
  Al  Al14  1  0.83675640  0.41021328  0.91627391  1
