# generated using pymatgen
data_Sc2InC
_symmetry_space_group_name_H-M   'P 1'
_cell_length_a   3.35253263
_cell_length_b   3.35253264
_cell_length_c   15.39104160
_cell_angle_alpha   90.00000000
_cell_angle_beta   90.00000000
_cell_angle_gamma   120.00000003
_symmetry_Int_Tables_number   1
_chemical_formula_structural   Sc2InC
_chemical_formula_sum   'Sc4 In2 C2'
_cell_volume   149.81133411
_cell_formula_units_Z   2
loop_
 _symmetry_equiv_pos_site_id
 _symmetry_equiv_pos_as_xyz
  1  'x, y, z'
loop_
 _atom_site_type_symbol
 _atom_site_label
 _atom_site_symmetry_multiplicity
 _atom_site_fract_x
 _atom_site_fract_y
 _atom_site_fract_z
 _atom_site_occupancy
  C  C0  1  0.00000000  0.00000000  0.00000000  1
  C  C1  1  0.00000000  0.00000000  0.50000000  1
  Sc  Sc2  1  0.33333333  0.66666667  0.07969724  1
  Sc  Sc3  1  0.33333333  0.66666667  0.42030276  1
  Sc  Sc4  1  0.66666667  0.33333333  0.57969724  1
  Sc  Sc5  1  0.66666667  0.33333333  0.92030276  1
  In  In6  1  0.33333333  0.66666667  0.75000000  1
  In  In7  1  0.66666667  0.33333333  0.25000000  1
