# generated using pymatgen
data_InAuO2
_symmetry_space_group_name_H-M   'P 1'
_cell_length_a   3.36965791
_cell_length_b   3.36965791
_cell_length_c   12.55229860
_cell_angle_alpha   90.00000000
_cell_angle_beta   90.00000000
_cell_angle_gamma   119.99999994
_symmetry_Int_Tables_number   1
_chemical_formula_structural   InAuO2
_chemical_formula_sum   'In2 Au2 O4'
_cell_volume   123.43136158
_cell_formula_units_Z   2
loop_
 _symmetry_equiv_pos_site_id
 _symmetry_equiv_pos_as_xyz
  1  'x, y, z'
loop_
 _atom_site_type_symbol
 _atom_site_label
 _atom_site_symmetry_multiplicity
 _atom_site_fract_x
 _atom_site_fract_y
 _atom_site_fract_z
 _atom_site_occupancy
  O  O0  1  0.33333333  0.66666667  0.41571997  1
  O  O1  1  0.66666667  0.33333333  0.91571997  1
  O  O2  1  0.33333333  0.66666667  0.08428003  1
  O  O3  1  0.66666667  0.33333333  0.58428003  1
  In  In4  1  0.00000000  0.00000000  0.00000000  1
  In  In5  1  0.00000000  0.00000000  0.50000000  1
  Au  Au6  1  0.66666667  0.33333333  0.75000000  1
  Au  Au7  1  0.33333333  0.66666667  0.25000000  1
