# generated using pymatgen
data_MnP2O7
_symmetry_space_group_name_H-M   'P 1'
_cell_length_a   6.93569440
_cell_length_b   8.61302411
_cell_length_c   9.41458697
_cell_angle_alpha   90.00000000
_cell_angle_beta   72.04484489
_cell_angle_gamma   90.00000000
_symmetry_Int_Tables_number   1
_chemical_formula_structural   MnP2O7
_chemical_formula_sum   'Mn4 P8 O28'
_cell_volume   535.01198191
_cell_formula_units_Z   4
loop_
 _symmetry_equiv_pos_site_id
 _symmetry_equiv_pos_as_xyz
  1  'x, y, z'
loop_
 _atom_site_type_symbol
 _atom_site_label
 _atom_site_symmetry_multiplicity
 _atom_site_fract_x
 _atom_site_fract_y
 _atom_site_fract_z
 _atom_site_occupancy
  Mn  Mn0  1  0.69791192  0.43214576  0.68007927  1
  Mn  Mn1  1  0.30208808  0.56785424  0.31992073  1
  Mn  Mn2  1  0.30208808  0.93214576  0.81992073  1
  Mn  Mn3  1  0.69791192  0.06785424  0.18007927  1
  P  P4  1  0.46641244  0.22123916  0.96761235  1
  P  P5  1  0.46641244  0.27876084  0.46761235  1
  P  P6  1  0.53358756  0.77876084  0.03238765  1
  P  P7  1  0.91791908  0.75605904  0.75557099  1
  P  P8  1  0.91791908  0.74394096  0.25557099  1
  P  P9  1  0.08208092  0.25605904  0.74442901  1
  P  P10  1  0.53358756  0.72123916  0.53238765  1
  P  P11  1  0.08208092  0.24394096  0.24442901  1
  O  O12  1  0.08900197  0.37835048  0.86080080  1
  O  O13  1  0.48293850  0.12473821  0.38561729  1
  O  O14  1  0.12287088  0.77189827  0.78400769  1
  O  O15  1  0.87712912  0.22810173  0.21599231  1
  O  O16  1  0.51706150  0.87526179  0.61438271  1
  O  O17  1  0.52154379  0.58208396  0.63791753  1
  O  O18  1  0.87712912  0.27189827  0.71599231  1
  O  O19  1  0.37313441  0.78703404  0.95113910  1
  O  O20  1  0.52154379  0.91791604  0.13791753  1
  O  O21  1  0.91099803  0.87835048  0.63919920  1
  O  O22  1  0.47845621  0.41791604  0.36208247  1
  O  O23  1  0.12287088  0.72810173  0.28400769  1
  O  O24  1  0.11564079  0.09131253  0.79273801  1
  O  O25  1  0.88435921  0.90868747  0.20726199  1
  O  O26  1  0.24659082  0.29502739  0.58836500  1
  O  O27  1  0.11564079  0.40868747  0.29273801  1
  O  O28  1  0.47845621  0.08208396  0.86208247  1
  O  O29  1  0.08900197  0.12164952  0.36080080  1
  O  O30  1  0.75340818  0.70497261  0.41163500  1
  O  O31  1  0.91099803  0.62164952  0.13919920  1
  O  O32  1  0.51706150  0.62473821  0.11438271  1
  O  O33  1  0.37313441  0.71296596  0.45113910  1
  O  O34  1  0.48293850  0.37526179  0.88561729  1
  O  O35  1  0.24659082  0.20497261  0.08836500  1
  O  O36  1  0.75340818  0.79502739  0.91163500  1
  O  O37  1  0.62686559  0.21296596  0.04886090  1
  O  O38  1  0.88435921  0.59131253  0.70726199  1
  O  O39  1  0.62686559  0.28703404  0.54886090  1
