# generated using pymatgen
data_Mo4P3
_symmetry_space_group_name_H-M   'P 1'
_cell_length_a   3.16369994
_cell_length_b   12.51058032
_cell_length_c   20.56808732
_cell_angle_alpha   90.00000000
_cell_angle_beta   90.00000000
_cell_angle_gamma   90.00000000
_symmetry_Int_Tables_number   1
_chemical_formula_structural   Mo4P3
_chemical_formula_sum   'Mo32 P24'
_cell_volume   814.07918247
_cell_formula_units_Z   8
loop_
 _symmetry_equiv_pos_site_id
 _symmetry_equiv_pos_as_xyz
  1  'x, y, z'
loop_
 _atom_site_type_symbol
 _atom_site_label
 _atom_site_symmetry_multiplicity
 _atom_site_fract_x
 _atom_site_fract_y
 _atom_site_fract_z
 _atom_site_occupancy
  P  P0  1  0.25000000  0.69957358  0.70509200  1
  P  P1  1  0.75000000  0.30042642  0.29490800  1
  P  P2  1  0.25000000  0.19957358  0.79490800  1
  P  P3  1  0.75000000  0.80042642  0.20509200  1
  P  P4  1  0.25000000  0.51647754  0.22524710  1
  P  P5  1  0.75000000  0.48352246  0.77475290  1
  P  P6  1  0.25000000  0.01647754  0.27475290  1
  P  P7  1  0.75000000  0.98352246  0.72524710  1
  P  P8  1  0.25000000  0.54139859  0.91920537  1
  P  P9  1  0.75000000  0.45860141  0.08079463  1
  P  P10  1  0.25000000  0.04139859  0.58079463  1
  P  P11  1  0.75000000  0.95860141  0.41920537  1
  P  P12  1  0.25000000  0.82137655  0.86338568  1
  P  P13  1  0.75000000  0.17862345  0.13661432  1
  P  P14  1  0.25000000  0.32137655  0.63661432  1
  P  P15  1  0.75000000  0.67862345  0.36338568  1
  P  P16  1  0.25000000  0.98169760  0.08103422  1
  P  P17  1  0.75000000  0.01830240  0.91896578  1
  P  P18  1  0.25000000  0.48169760  0.41896578  1
  P  P19  1  0.75000000  0.51830240  0.58103422  1
  P  P20  1  0.25000000  0.74560318  0.52769305  1
  P  P21  1  0.75000000  0.25439682  0.47230695  1
  P  P22  1  0.25000000  0.24560318  0.97230695  1
  P  P23  1  0.75000000  0.75439682  0.02769305  1
  Mo  Mo24  1  0.75000000  0.70196556  0.61350551  1
  Mo  Mo25  1  0.25000000  0.29803444  0.38649449  1
  Mo  Mo26  1  0.75000000  0.20196556  0.88649449  1
  Mo  Mo27  1  0.25000000  0.79803444  0.11350551  1
  Mo  Mo28  1  0.75000000  0.99076483  0.17230461  1
  Mo  Mo29  1  0.25000000  0.00923517  0.82769539  1
  Mo  Mo30  1  0.75000000  0.49076483  0.32769539  1
  Mo  Mo31  1  0.25000000  0.50923517  0.67230461  1
  Mo  Mo32  1  0.25000000  0.59481833  0.03340391  1
  Mo  Mo33  1  0.75000000  0.40518167  0.96659609  1
  Mo  Mo34  1  0.25000000  0.09481833  0.46659609  1
  Mo  Mo35  1  0.75000000  0.90518167  0.53340391  1
  Mo  Mo36  1  0.25000000  0.90099414  0.97274847  1
  Mo  Mo37  1  0.75000000  0.09900586  0.02725153  1
  Mo  Mo38  1  0.25000000  0.40099414  0.52725153  1
  Mo  Mo39  1  0.75000000  0.59900586  0.47274847  1
  Mo  Mo40  1  0.25000000  0.79717085  0.41597799  1
  Mo  Mo41  1  0.75000000  0.20282915  0.58402201  1
  Mo  Mo42  1  0.25000000  0.29717085  0.08402201  1
  Mo  Mo43  1  0.75000000  0.70282915  0.91597799  1
  Mo  Mo44  1  0.25000000  0.62049432  0.81085010  1
  Mo  Mo45  1  0.75000000  0.37950568  0.18914990  1
  Mo  Mo46  1  0.25000000  0.12049432  0.68914990  1
  Mo  Mo47  1  0.75000000  0.87950568  0.31085010  1
  Mo  Mo48  1  0.25000000  0.88480273  0.64751544  1
  Mo  Mo49  1  0.75000000  0.11519727  0.35248456  1
  Mo  Mo50  1  0.25000000  0.38480273  0.85248456  1
  Mo  Mo51  1  0.75000000  0.61519727  0.14751544  1
  Mo  Mo52  1  0.25000000  0.69403188  0.27354991  1
  Mo  Mo53  1  0.75000000  0.30596812  0.72645009  1
  Mo  Mo54  1  0.25000000  0.19403188  0.22645009  1
  Mo  Mo55  1  0.75000000  0.80596812  0.77354991  1
