# generated using pymatgen
data_Al2O3
_symmetry_space_group_name_H-M   'P 1'
_cell_length_a   4.88643120
_cell_length_b   8.39683838
_cell_length_c   9.02480008
_cell_angle_alpha   90.00000000
_cell_angle_beta   90.00000000
_cell_angle_gamma   90.00000000
_symmetry_Int_Tables_number   1
_chemical_formula_structural   Al2O3
_chemical_formula_sum   'Al16 O24'
_cell_volume   370.29271887
_cell_formula_units_Z   8
loop_
 _symmetry_equiv_pos_site_id
 _symmetry_equiv_pos_as_xyz
  1  'x, y, z'
loop_
 _atom_site_type_symbol
 _atom_site_label
 _atom_site_symmetry_multiplicity
 _atom_site_fract_x
 _atom_site_fract_y
 _atom_site_fract_z
 _atom_site_occupancy
  Al  Al0  1  0.67613342  0.15242863  0.20686849  1
  Al  Al1  1  0.82386658  0.65242863  0.70686849  1
  Al  Al2  1  0.68340081  0.83989454  0.01602182  1
  Al  Al3  1  0.81659919  0.33989454  0.51602182  1
  Al  Al4  1  0.31659919  0.16010546  0.51602182  1
  Al  Al5  1  0.17235305  0.03095996  0.00615144  1
  Al  Al6  1  0.68553665  0.15388499  0.79470710  1
  Al  Al7  1  0.18553665  0.34611501  0.79470710  1
  Al  Al8  1  0.31446335  0.84611501  0.29470710  1
  Al  Al9  1  0.82764695  0.96904004  0.50615144  1
  Al  Al10  1  0.67235305  0.46904004  0.00615144  1
  Al  Al11  1  0.17613342  0.34757137  0.20686849  1
  Al  Al12  1  0.32386658  0.84757137  0.70686849  1
  Al  Al13  1  0.81446335  0.65388499  0.29470710  1
  Al  Al14  1  0.32764695  0.53095996  0.50615144  1
  Al  Al15  1  0.18340081  0.66010546  0.01602182  1
  O  O16  1  0.97724775  0.51171476  0.14172544  1
  O  O17  1  0.34312178  0.83905142  0.90574189  1
  O  O18  1  0.02076586  0.82395590  0.13487085  1
  O  O19  1  0.48246828  0.66865878  0.64752591  1
  O  O20  1  0.84312178  0.66094858  0.90574189  1
  O  O21  1  0.34247770  0.16864747  0.88013175  1
  O  O22  1  0.97923414  0.17604410  0.63487085  1
  O  O23  1  0.15687822  0.33905142  0.40574189  1
  O  O24  1  0.98246828  0.83134122  0.64752591  1
  O  O25  1  0.52076586  0.67604410  0.13487085  1
  O  O26  1  0.52275225  0.01171476  0.64172544  1
  O  O27  1  0.65687822  0.16094858  0.40574189  1
  O  O28  1  0.65781082  0.50134002  0.41235532  1
  O  O29  1  0.51753172  0.33134122  0.14752591  1
  O  O30  1  0.01753172  0.16865878  0.14752591  1
  O  O31  1  0.02275225  0.48828524  0.64172544  1
  O  O32  1  0.15781082  0.99865998  0.41235532  1
  O  O33  1  0.15752230  0.66864747  0.38013175  1
  O  O34  1  0.47923414  0.32395590  0.63487085  1
  O  O35  1  0.65752230  0.83135253  0.38013175  1
  O  O36  1  0.47724775  0.98828524  0.14172544  1
  O  O37  1  0.84218918  0.00134002  0.91235532  1
  O  O38  1  0.34218918  0.49865998  0.91235532  1
  O  O39  1  0.84247770  0.33135253  0.88013175  1
