# generated using pymatgen
data_Dy2AlGe2
_symmetry_space_group_name_H-M   'P 1'
_cell_length_a   4.31424537
_cell_length_b   7.01876403
_cell_length_c   7.01876403
_cell_angle_alpha   90.00000000
_cell_angle_beta   90.00000000
_cell_angle_gamma   90.00000000
_symmetry_Int_Tables_number   1
_chemical_formula_structural   Dy2AlGe2
_chemical_formula_sum   'Dy4 Al2 Ge4'
_cell_volume   212.53287894
_cell_formula_units_Z   2
loop_
 _symmetry_equiv_pos_site_id
 _symmetry_equiv_pos_as_xyz
  1  'x, y, z'
loop_
 _atom_site_type_symbol
 _atom_site_label
 _atom_site_symmetry_multiplicity
 _atom_site_fract_x
 _atom_site_fract_y
 _atom_site_fract_z
 _atom_site_occupancy
  Al  Al0  1  0.00000000  0.50000000  0.50000000  1
  Al  Al1  1  0.00000000  0.00000000  0.00000000  1
  Ge  Ge2  1  0.00000000  0.37060640  0.87060640  1
  Ge  Ge3  1  0.00000000  0.12939360  0.37060640  1
  Ge  Ge4  1  0.00000000  0.62939360  0.12939360  1
  Ge  Ge5  1  0.00000000  0.87060640  0.62939360  1
  Dy  Dy6  1  0.50000000  0.82372761  0.32372761  1
  Dy  Dy7  1  0.50000000  0.67627239  0.82372761  1
  Dy  Dy8  1  0.50000000  0.32372761  0.17627239  1
  Dy  Dy9  1  0.50000000  0.17627239  0.67627239  1
