# generated using pymatgen
data_U20Si16C3
_symmetry_space_group_name_H-M   'P 1'
_cell_length_a   10.33693336
_cell_length_b   10.33693336
_cell_length_c   7.85790126
_cell_angle_alpha   90.00000000
_cell_angle_beta   90.00000000
_cell_angle_gamma   119.99999999
_symmetry_Int_Tables_number   1
_chemical_formula_structural   U20Si16C3
_chemical_formula_sum   'U20 Si16 C3'
_cell_volume   727.14434690
_cell_formula_units_Z   1
loop_
 _symmetry_equiv_pos_site_id
 _symmetry_equiv_pos_as_xyz
  1  'x, y, z'
loop_
 _atom_site_type_symbol
 _atom_site_label
 _atom_site_symmetry_multiplicity
 _atom_site_fract_x
 _atom_site_fract_y
 _atom_site_fract_z
 _atom_site_occupancy
  C  C0  1  0.50000000  0.00000000  0.00000000  1
  C  C1  1  0.50000000  0.50000000  0.00000000  1
  C  C2  1  0.00000000  0.50000000  0.00000000  1
  Si  Si3  1  0.33333333  0.66666667  0.25444199  1
  Si  Si4  1  0.66666667  0.33333333  0.25444199  1
  Si  Si5  1  0.66666667  0.33333333  0.74555801  1
  Si  Si6  1  0.33333333  0.66666667  0.74555801  1
  Si  Si7  1  0.22667474  0.00000000  0.24924675  1
  Si  Si8  1  0.22667474  0.22667474  0.24924675  1
  Si  Si9  1  0.00000000  0.77332526  0.24924675  1
  Si  Si10  1  0.00000000  0.22667474  0.24924675  1
  Si  Si11  1  0.77332526  0.77332526  0.24924675  1
  Si  Si12  1  0.22667474  0.00000000  0.75075325  1
  Si  Si13  1  0.77332526  0.77332526  0.75075325  1
  Si  Si14  1  0.77332526  0.00000000  0.24924675  1
  Si  Si15  1  0.00000000  0.22667474  0.75075325  1
  Si  Si16  1  0.00000000  0.77332526  0.75075325  1
  Si  Si17  1  0.77332526  0.00000000  0.75075325  1
  Si  Si18  1  0.22667474  0.22667474  0.75075325  1
  U  U19  1  0.00000000  0.00000000  0.00000000  1
  U  U20  1  0.00000000  0.00000000  0.50000000  1
  U  U21  1  0.50000000  0.00000000  0.29965344  1
  U  U22  1  0.50000000  0.50000000  0.29965344  1
  U  U23  1  0.00000000  0.50000000  0.29965344  1
  U  U24  1  0.50000000  0.00000000  0.70034656  1
  U  U25  1  0.50000000  0.50000000  0.70034656  1
  U  U26  1  0.00000000  0.50000000  0.70034656  1
  U  U27  1  0.21677037  0.43354074  0.00000000  1
  U  U28  1  0.78322963  0.21677037  0.00000000  1
  U  U29  1  0.43354074  0.21677037  0.00000000  1
  U  U30  1  0.56645926  0.78322963  0.00000000  1
  U  U31  1  0.21677037  0.78322963  0.00000000  1
  U  U32  1  0.78322963  0.56645926  0.00000000  1
  U  U33  1  0.21297742  0.42595485  0.50000000  1
  U  U34  1  0.78702258  0.21297742  0.50000000  1
  U  U35  1  0.42595485  0.21297742  0.50000000  1
  U  U36  1  0.57404515  0.78702258  0.50000000  1
  U  U37  1  0.21297742  0.78702258  0.50000000  1
  U  U38  1  0.78702258  0.57404515  0.50000000  1
