# generated using pymatgen
data_La4In5S13
_symmetry_space_group_name_H-M   'P 1'
_cell_length_a   4.04599899
_cell_length_b   11.98986940
_cell_length_c   21.87397512
_cell_angle_alpha   90.00000000
_cell_angle_beta   90.00000000
_cell_angle_gamma   90.00000000
_symmetry_Int_Tables_number   1
_chemical_formula_structural   La4In5S13
_chemical_formula_sum   'La8 In10 S26'
_cell_volume   1061.12839573
_cell_formula_units_Z   2
loop_
 _symmetry_equiv_pos_site_id
 _symmetry_equiv_pos_as_xyz
  1  'x, y, z'
loop_
 _atom_site_type_symbol
 _atom_site_label
 _atom_site_symmetry_multiplicity
 _atom_site_fract_x
 _atom_site_fract_y
 _atom_site_fract_z
 _atom_site_occupancy
  S  S0  1  0.00000000  0.50000000  0.00000000  1
  S  S1  1  0.00000000  0.00000000  0.50000000  1
  S  S2  1  0.50000000  0.66408460  0.11303284  1
  S  S3  1  0.50000000  0.33591540  0.88696716  1
  S  S4  1  0.50000000  0.16408460  0.38696716  1
  S  S5  1  0.50000000  0.83591540  0.61303284  1
  S  S6  1  0.50000000  0.00017770  0.09014481  1
  S  S7  1  0.50000000  0.99982230  0.90985519  1
  S  S8  1  0.50000000  0.50017770  0.40985519  1
  S  S9  1  0.50000000  0.49982230  0.59014481  1
  S  S10  1  0.00000000  0.79727606  0.97864719  1
  S  S11  1  0.00000000  0.20272394  0.02135281  1
  S  S12  1  0.00000000  0.29727606  0.52135281  1
  S  S13  1  0.00000000  0.70272394  0.47864719  1
  S  S14  1  0.00000000  0.82665811  0.23714747  1
  S  S15  1  0.00000000  0.17334189  0.76285253  1
  S  S16  1  0.00000000  0.32665811  0.26285253  1
  S  S17  1  0.00000000  0.67334189  0.73714747  1
  S  S18  1  0.50000000  0.84570390  0.36692372  1
  S  S19  1  0.50000000  0.15429610  0.63307628  1
  S  S20  1  0.50000000  0.34570390  0.13307628  1
  S  S21  1  0.50000000  0.65429610  0.86692372  1
  S  S22  1  0.50000000  0.92562037  0.76151449  1
  S  S23  1  0.50000000  0.07437963  0.23848551  1
  S  S24  1  0.50000000  0.42562037  0.73848551  1
  S  S25  1  0.50000000  0.57437963  0.26151449  1
  In  In26  1  0.50000000  0.84835154  0.17066767  1
  In  In27  1  0.50000000  0.15164846  0.82933233  1
  In  In28  1  0.50000000  0.34835154  0.32933233  1
  In  In29  1  0.50000000  0.65164846  0.67066767  1
  In  In30  1  0.50000000  0.65488581  0.99289562  1
  In  In31  1  0.50000000  0.34511419  0.00710438  1
  In  In32  1  0.50000000  0.15488581  0.50710438  1
  In  In33  1  0.50000000  0.84511419  0.49289562  1
  In  In34  1  0.00000000  0.00000000  0.00000000  1
  In  In35  1  0.00000000  0.50000000  0.50000000  1
  La  La36  1  0.00000000  0.51943362  0.16791086  1
  La  La37  1  0.00000000  0.48056638  0.83208914  1
  La  La38  1  0.00000000  0.01943362  0.33208914  1
  La  La39  1  0.00000000  0.98056638  0.66791086  1
  La  La40  1  0.00000000  0.66536310  0.34343378  1
  La  La41  1  0.00000000  0.33463690  0.65656622  1
  La  La42  1  0.00000000  0.16536310  0.15656622  1
  La  La43  1  0.00000000  0.83463690  0.84343378  1
