# generated using pymatgen
data_NaZnP2HO7
_symmetry_space_group_name_H-M   'P 1'
_cell_length_a   6.61834809
_cell_length_b   6.56322314
_cell_length_c   6.83014247
_cell_angle_alpha   66.52074939
_cell_angle_beta   84.19138480
_cell_angle_gamma   88.51908541
_symmetry_Int_Tables_number   1
_chemical_formula_structural   NaZnP2HO7
_chemical_formula_sum   'Na2 Zn2 P4 H2 O14'
_cell_volume   270.69010121
_cell_formula_units_Z   2
loop_
 _symmetry_equiv_pos_site_id
 _symmetry_equiv_pos_as_xyz
  1  'x, y, z'
loop_
 _atom_site_type_symbol
 _atom_site_label
 _atom_site_symmetry_multiplicity
 _atom_site_fract_x
 _atom_site_fract_y
 _atom_site_fract_z
 _atom_site_occupancy
  Na  Na0  1  0.64646958  0.78415210  0.24236086  1
  Na  Na1  1  0.35353042  0.21584790  0.75763914  1
  Zn  Zn2  1  0.85131757  0.21650217  0.37314964  1
  Zn  Zn3  1  0.14868243  0.78349783  0.62685036  1
  P  P4  1  0.64204484  0.75793793  0.71713586  1
  P  P5  1  0.35795616  0.24206207  0.28286414  1
  P  P6  1  0.87585700  0.33317697  0.86391535  1
  P  P7  1  0.12414300  0.66682303  0.13608465  1
  H  H8  1  0.70920008  0.06576935  0.79929161  1
  H  H9  1  0.29079992  0.93423065  0.20070839  1
  O  O10  1  0.53579979  0.27640350  0.39244656  1
  O  O11  1  0.46420021  0.72359650  0.60755344  1
  O  O12  1  0.82755595  0.86578178  0.55186613  1
  O  O13  1  0.17244405  0.13421822  0.44813387  1
  O  O14  1  0.59192283  0.88102942  0.86558857  1
  O  O15  1  0.40807717  0.11897058  0.13441143  1
  O  O16  1  0.07531076  0.45193643  0.75225302  1
  O  O17  1  0.92468924  0.54806357  0.24774698  1
  O  O18  1  0.21011334  0.77441992  0.27989847  1
  O  O19  1  0.78988666  0.22558008  0.72010153  1
  O  O20  1  0.28882550  0.48531124  0.12502311  1
  O  O21  1  0.71117450  0.51468876  0.87497689  1
  O  O22  1  0.12236462  0.83610217  0.90755896  1
  O  O23  1  0.87763538  0.16389783  0.09244104  1
