# generated using pymatgen
data_BiPd
_symmetry_space_group_name_H-M   'P 1'
_cell_length_a   5.75015242
_cell_length_b   5.73430878
_cell_length_c   10.85224061
_cell_angle_alpha   90.00000000
_cell_angle_beta   90.00000000
_cell_angle_gamma   101.10184131
_symmetry_Int_Tables_number   1
_chemical_formula_structural   BiPd
_chemical_formula_sum   'Bi8 Pd8'
_cell_volume   351.13624428
_cell_formula_units_Z   8
loop_
 _symmetry_equiv_pos_site_id
 _symmetry_equiv_pos_as_xyz
  1  'x, y, z'
loop_
 _atom_site_type_symbol
 _atom_site_label
 _atom_site_symmetry_multiplicity
 _atom_site_fract_x
 _atom_site_fract_y
 _atom_site_fract_z
 _atom_site_occupancy
  Pd  Pd0  1  0.17596138  0.17045393  0.44073091  1
  Pd  Pd1  1  0.82403862  0.82954607  0.94073091  1
  Pd  Pd2  1  0.59136196  0.59765614  0.43348145  1
  Pd  Pd3  1  0.40863804  0.40234386  0.93348145  1
  Pd  Pd4  1  0.33222477  0.84265727  0.26465396  1
  Pd  Pd5  1  0.66777523  0.15734273  0.76465396  1
  Pd  Pd6  1  0.91216890  0.40626611  0.26969635  1
  Pd  Pd7  1  0.08783110  0.59373389  0.76969635  1
  Bi  Bi8  1  0.15140841  0.11313801  0.71279844  1
  Bi  Bi9  1  0.84859159  0.88686199  0.21279844  1
  Bi  Bi10  1  0.60317317  0.64054819  0.70750433  1
  Bi  Bi11  1  0.39682683  0.35945181  0.20750433  1
  Bi  Bi12  1  0.65642756  0.11669714  0.49096341  1
  Bi  Bi13  1  0.34357244  0.88330286  0.99096341  1
  Bi  Bi14  1  0.10534756  0.64930368  0.49507114  1
  Bi  Bi15  1  0.89465244  0.35069632  0.99507114  1
