# generated using pymatgen
data_K3NaFeCl6
_symmetry_space_group_name_H-M   'P 1'
_cell_length_a   8.43311532
_cell_length_b   8.43311532
_cell_length_c   8.43311533
_cell_angle_alpha   92.79940744
_cell_angle_beta   92.79940740
_cell_angle_gamma   92.79940749
_symmetry_Int_Tables_number   1
_chemical_formula_structural   K3NaFeCl6
_chemical_formula_sum   'K6 Na2 Fe2 Cl12'
_cell_volume   597.52171048
_cell_formula_units_Z   2
loop_
 _symmetry_equiv_pos_site_id
 _symmetry_equiv_pos_as_xyz
  1  'x, y, z'
loop_
 _atom_site_type_symbol
 _atom_site_label
 _atom_site_symmetry_multiplicity
 _atom_site_fract_x
 _atom_site_fract_y
 _atom_site_fract_z
 _atom_site_occupancy
  Na  Na0  1  0.75000000  0.75000000  0.75000000  1
  Na  Na1  1  0.25000000  0.25000000  0.25000000  1
  Cl  Cl2  1  0.71567892  0.92070962  0.04463651  1
  Cl  Cl3  1  0.92070962  0.04463651  0.71567892  1
  Cl  Cl4  1  0.04463651  0.71567892  0.92070962  1
  Cl  Cl5  1  0.45536349  0.57929038  0.78432108  1
  Cl  Cl6  1  0.57929038  0.78432108  0.45536349  1
  Cl  Cl7  1  0.78432108  0.45536349  0.57929038  1
  Cl  Cl8  1  0.21567892  0.54463651  0.42070962  1
  Cl  Cl9  1  0.42070962  0.21567892  0.54463651  1
  Cl  Cl10  1  0.54463651  0.42070962  0.21567892  1
  Cl  Cl11  1  0.95536349  0.28432108  0.07929038  1
  Cl  Cl12  1  0.07929038  0.95536349  0.28432108  1
  Cl  Cl13  1  0.28432108  0.07929038  0.95536349  1
  K  K14  1  0.25000000  0.87372677  0.62627323  1
  K  K15  1  0.87372677  0.62627323  0.25000000  1
  K  K16  1  0.62627323  0.25000000  0.87372677  1
  K  K17  1  0.75000000  0.12627323  0.37372677  1
  K  K18  1  0.12627323  0.37372677  0.75000000  1
  K  K19  1  0.37372677  0.75000000  0.12627323  1
  Fe  Fe20  1  0.00000000  0.00000000  0.00000000  1
  Fe  Fe21  1  0.50000000  0.50000000  0.50000000  1
