# generated using pymatgen
data_BeAlH5
_symmetry_space_group_name_H-M   'P 1'
_cell_length_a   4.66286042
_cell_length_b   4.66286041
_cell_length_c   6.30702326
_cell_angle_alpha   106.70444072
_cell_angle_beta   106.70444063
_cell_angle_gamma   99.53280835
_symmetry_Int_Tables_number   1
_chemical_formula_structural   BeAlH5
_chemical_formula_sum   'Be2 Al2 H10'
_cell_volume   121.10668901
_cell_formula_units_Z   2
loop_
 _symmetry_equiv_pos_site_id
 _symmetry_equiv_pos_as_xyz
  1  'x, y, z'
loop_
 _atom_site_type_symbol
 _atom_site_label
 _atom_site_symmetry_multiplicity
 _atom_site_fract_x
 _atom_site_fract_y
 _atom_site_fract_z
 _atom_site_occupancy
  H  H0  1  0.35779581  0.26244988  0.59007068  1
  H  H1  1  0.73755012  0.64220419  0.90992932  1
  H  H2  1  0.64220419  0.73755012  0.40992932  1
  H  H3  1  0.26244988  0.35779581  0.09007068  1
  H  H4  1  0.09219863  0.90780137  0.75000000  1
  H  H5  1  0.90780137  0.09219863  0.25000000  1
  H  H6  1  0.31547070  0.87516508  0.11942396  1
  H  H7  1  0.12483492  0.68452930  0.38057604  1
  H  H8  1  0.68452930  0.12483492  0.88057604  1
  H  H9  1  0.87516508  0.31547070  0.61942396  1
  Be  Be10  1  0.66950458  0.33049542  0.75000000  1
  Be  Be11  1  0.33049542  0.66950458  0.25000000  1
  Al  Al12  1  0.00000000  0.00000000  0.00000000  1
  Al  Al13  1  0.00000000  0.00000000  0.50000000  1
