# generated using pymatgen
data_Nb2Se3
_symmetry_space_group_name_H-M   'P 1'
_cell_length_a   3.46735410
_cell_length_b   6.63692856
_cell_length_c   9.31098479
_cell_angle_alpha   104.15324534
_cell_angle_beta   90.00000000
_cell_angle_gamma   90.00000000
_symmetry_Int_Tables_number   1
_chemical_formula_structural   Nb2Se3
_chemical_formula_sum   'Nb4 Se6'
_cell_volume   207.76568002
_cell_formula_units_Z   2
loop_
 _symmetry_equiv_pos_site_id
 _symmetry_equiv_pos_as_xyz
  1  'x, y, z'
loop_
 _atom_site_type_symbol
 _atom_site_label
 _atom_site_symmetry_multiplicity
 _atom_site_fract_x
 _atom_site_fract_y
 _atom_site_fract_z
 _atom_site_occupancy
  Se  Se0  1  0.25000000  0.72889163  0.51297991  1
  Se  Se1  1  0.75000000  0.27110837  0.48702009  1
  Se  Se2  1  0.25000000  0.97203257  0.15680730  1
  Se  Se3  1  0.75000000  0.02796743  0.84319270  1
  Se  Se4  1  0.75000000  0.47628201  0.20310459  1
  Se  Se5  1  0.25000000  0.52371799  0.79689541  1
  Nb  Nb6  1  0.25000000  0.11406734  0.63533937  1
  Nb  Nb7  1  0.75000000  0.88593266  0.36466063  1
  Nb  Nb8  1  0.25000000  0.31883182  0.00189265  1
  Nb  Nb9  1  0.75000000  0.68116818  0.99810735  1
