# generated using pymatgen
data_DyH9C5(NO4)2
_symmetry_space_group_name_H-M   'P 1'
_cell_length_a   6.70454741
_cell_length_b   6.70454741
_cell_length_c   6.65374700
_cell_angle_alpha   73.93474016
_cell_angle_beta   106.06525984
_cell_angle_gamma   114.98751181
_symmetry_Int_Tables_number   1
_chemical_formula_structural   DyH9C5(NO4)2
_chemical_formula_sum   'Dy1 H9 C5 N2 O8'
_cell_volume   256.08622884
_cell_formula_units_Z   1
loop_
 _symmetry_equiv_pos_site_id
 _symmetry_equiv_pos_as_xyz
  1  'x, y, z'
loop_
 _atom_site_type_symbol
 _atom_site_label
 _atom_site_symmetry_multiplicity
 _atom_site_fract_x
 _atom_site_fract_y
 _atom_site_fract_z
 _atom_site_occupancy
  Dy  Dy0  1  0.99843448  0.99843448  0.00000000  1
  H  H1  1  0.18372975  0.65417350  0.41726552  1
  H  H2  1  0.65417350  0.18372975  0.58273448  1
  H  H3  1  0.47585509  0.74048796  0.52309627  1
  H  H4  1  0.74048796  0.47585509  0.47690373  1
  H  H5  1  0.83597520  0.46198827  0.87373903  1
  H  H6  1  0.46198827  0.83597520  0.12626097  1
  H  H7  1  0.08364874  0.08364874  0.50000000  1
  H  H8  1  0.44561139  0.46543117  0.80341583  1
  H  H9  1  0.46543117  0.44561139  0.19658417  1
  C  C10  1  0.94038848  0.46730810  0.03576328  1
  C  C11  1  0.46730810  0.94038848  0.96423672  1
  C  C12  1  0.93087250  0.93087250  0.50000000  1
  C  C13  1  0.28689339  0.47012740  0.70049202  1
  C  C14  1  0.47012740  0.28689339  0.29950798  1
  N  N15  1  0.31475515  0.63644807  0.53581289  1
  N  N16  1  0.63644807  0.31475515  0.46418711  1
  O  O17  1  0.00959799  0.31097415  0.12603873  1
  O  O18  1  0.31097415  0.00959799  0.87396127  1
  O  O19  1  0.98077399  0.63526154  0.11719285  1
  O  O20  1  0.63526154  0.98077399  0.88280715  1
  O  O21  1  0.84210969  0.85419023  0.66591547  1
  O  O22  1  0.85419023  0.84210969  0.33408453  1
  O  O23  1  0.10051843  0.32774536  0.74153247  1
  O  O24  1  0.32774536  0.10051843  0.25846753  1
