# generated using pymatgen
data_CaH4SO6
_symmetry_space_group_name_H-M   'P 1'
_cell_length_a   5.76418689
_cell_length_b   6.41067151
_cell_length_c   8.19557327
_cell_angle_alpha   66.97668071
_cell_angle_beta   80.76294357
_cell_angle_gamma   65.76846182
_symmetry_Int_Tables_number   1
_chemical_formula_structural   CaH4SO6
_chemical_formula_sum   'Ca2 H8 S2 O12'
_cell_volume   254.16540930
_cell_formula_units_Z   2
loop_
 _symmetry_equiv_pos_site_id
 _symmetry_equiv_pos_as_xyz
  1  'x, y, z'
loop_
 _atom_site_type_symbol
 _atom_site_label
 _atom_site_symmetry_multiplicity
 _atom_site_fract_x
 _atom_site_fract_y
 _atom_site_fract_z
 _atom_site_occupancy
  H  H0  1  0.40998909  0.75254266  0.48665002  1
  H  H1  1  0.09001091  0.26080732  0.48665002  1
  H  H2  1  0.59001091  0.24745734  0.51334998  1
  H  H3  1  0.90998909  0.73919268  0.51334998  1
  H  H4  1  0.75764876  0.15995587  0.68009500  1
  H  H5  1  0.74235124  0.65994913  0.68009500  1
  H  H6  1  0.24235124  0.84004413  0.31990500  1
  H  H7  1  0.25764876  0.34005087  0.31990500  1
  O  O8  1  0.91579531  0.91796314  0.26910919  1
  O  O9  1  0.09524859  0.68649123  0.95521197  1
  O  O10  1  0.90475141  0.31350877  0.04478803  1
  O  O11  1  0.59524859  0.14170320  0.04478803  1
  O  O12  1  0.91909776  0.63725762  0.63995890  1
  O  O13  1  0.58090224  0.22278348  0.63995890  1
  O  O14  1  0.08090224  0.36274238  0.36004110  1
  O  O15  1  0.41909776  0.77721652  0.36004110  1
  O  O16  1  0.08420469  0.08203686  0.73089081  1
  O  O17  1  0.41579531  0.68707232  0.73089081  1
  O  O18  1  0.40475141  0.85829680  0.95521197  1
  O  O19  1  0.58420469  0.31292768  0.26910919  1
  S  S20  1  0.75000000  0.17144855  0.15710290  1
  S  S21  1  0.25000000  0.82855145  0.84289710  1
  Ca  Ca22  1  0.75000000  0.67007924  0.15984151  1
  Ca  Ca23  1  0.25000000  0.32992076  0.84015849  1
