# generated using pymatgen
data_LiAlH16(CN)4
_symmetry_space_group_name_H-M   'P 1'
_cell_length_a   11.20014907
_cell_length_b   11.20014907
_cell_length_c   11.20014907
_cell_angle_alpha   100.40475520
_cell_angle_beta   100.40475520
_cell_angle_gamma   129.70228116
_symmetry_Int_Tables_number   1
_chemical_formula_structural   LiAlH16(CN)4
_chemical_formula_sum   'Li4 Al4 H64 C16 N16'
_cell_volume   978.49082565
_cell_formula_units_Z   4
loop_
 _symmetry_equiv_pos_site_id
 _symmetry_equiv_pos_as_xyz
  1  'x, y, z'
loop_
 _atom_site_type_symbol
 _atom_site_label
 _atom_site_symmetry_multiplicity
 _atom_site_fract_x
 _atom_site_fract_y
 _atom_site_fract_z
 _atom_site_occupancy
  Li  Li0  1  0.08968940  0.91719202  0.84752006  1
  Li  Li1  1  0.06967196  0.24216934  0.15247994  1
  Li  Li2  1  0.99216934  0.33968940  0.67249738  1
  Li  Li3  1  0.66719202  0.31967196  0.32750262  1
  Al  Al4  1  0.93386413  0.60289317  0.65067673  1
  Al  Al5  1  0.95221643  0.28318740  0.34932327  1
  Al  Al6  1  0.03318740  0.18386413  0.83097197  1
  Al  Al7  1  0.35289317  0.20221643  0.16902803  1
  H  H8  1  0.20078499  0.75796482  0.84340975  1
  H  H9  1  0.91455407  0.35737524  0.15659025  1
  H  H10  1  0.10737524  0.45078499  0.94282117  1
  H  H11  1  0.50796482  0.16455407  0.05717883  1
  H  H12  1  0.96310848  0.55091734  0.43682395  1
  H  H13  1  0.11409339  0.52628552  0.56317605  1
  H  H14  1  0.27628552  0.21310848  0.91219214  1
  H  H15  1  0.30091734  0.36409339  0.08780786  1
  H  H16  1  0.73008896  0.30129852  0.57781124  1
  H  H17  1  0.72348729  0.15227672  0.42218876  1
  H  H18  1  0.90227672  0.98008896  0.92879043  1
  H  H19  1  0.05129852  0.97348729  0.07120957  1
  H  H20  1  0.82673179  0.73508396  0.64110584  1
  H  H21  1  0.09397812  0.18562595  0.35889416  1
  H  H22  1  0.93562595  0.07673179  0.59164784  1
  H  H23  1  0.48508396  0.34397812  0.40835216  1
  H  H24  1  0.34492931  0.81290201  0.68926892  1
  H  H25  1  0.12363408  0.65566039  0.31073108  1
  H  H26  1  0.40566039  0.59492931  0.03202730  1
  H  H27  1  0.56290201  0.37363408  0.96797270  1
  H  H28  1  0.26615866  0.89917295  0.63963723  1
  H  H29  1  0.25953572  0.62652143  0.36036277  1
  H  H30  1  0.37652143  0.51615866  0.86698570  1
  H  H31  1  0.64917295  0.50953572  0.13301430  1
  H  H32  1  0.41688690  -0.00006991  0.80106164  1
  H  H33  1  0.19886845  0.61582526  0.19893836  1
  H  H34  1  0.36582526  0.66688690  0.91695681  1
  H  H35  1  0.74993009  0.44886845  0.08304319  1
  H  H36  1  0.86666008  0.74131213  0.47314689  1
  H  H37  1  0.26816524  0.39351219  0.52685311  1
  H  H38  1  0.14351219  0.11666008  0.62534695  1
  H  H39  1  0.49131213  0.51816524  0.37465305  1
  H  H40  1  0.05781837  0.81957940  0.46044328  1
  H  H41  1  0.35913613  0.59737509  0.53955672  1
  H  H42  1  0.34737509  0.30781837  0.73823897  1
  H  H43  1  0.56957940  0.60913613  0.26176103  1
  H  H44  1  0.86391206  0.65746617  0.32276497  1
  H  H45  1  0.33470020  0.54114709  0.67723503  1
  H  H46  1  0.29114709  0.11391206  0.70644589  1
  H  H47  1  0.40746617  0.58470020  0.29355411  1
  H  H48  1  0.72609052  0.22736548  0.76420628  1
  H  H49  1  0.46315920  0.96188424  0.23579372  1
  H  H50  1  0.71188424  0.97609052  0.99872504  1
  H  H51  1  0.97736548  0.71315920  0.00127496  1
  H  H52  1  0.89765755  0.44326998  0.86663315  1
  H  H53  1  0.57663683  0.03102440  0.13336685  1
  H  H54  1  0.78102440  0.14765755  0.95438757  1
  H  H55  1  0.19326998  0.82663683  0.04561243  1
  H  H56  1  0.69622863  0.36575576  0.78614151  1
  H  H57  1  0.57961425  0.91008712  0.21385849  1
  H  H58  1  0.66008712  0.94622863  0.83047287  1
  H  H59  1  0.11575576  0.82961425  0.16952713  1
  H  H60  1  0.58500109  0.47454595  0.67206013  1
  H  H61  1  0.80248582  0.91294096  0.32793987  1
  H  H62  1  0.66294096  0.83500109  0.61045514  1
  H  H63  1  0.22454595  0.05248582  0.38954486  1
  H  H64  1  0.73104293  0.59092463  0.83807603  1
  H  H65  1  0.75284860  0.89296590  0.16192397  1
  H  H66  1  0.64296590  0.98104293  0.64011730  1
  H  H67  1  0.34092463  0.00284860  0.35988270  1
  H  H68  1  0.66463037  0.67475815  0.76188820  1
  H  H69  1  0.91287094  0.90274217  0.23811180  1
  H  H70  1  0.65274217  0.91463037  0.48987223  1
  H  H71  1  0.42475815  0.16287094  0.51012777  1
  C  C72  1  0.30345090  0.87522349  0.72299701  1
  C  C73  1  0.15222649  0.58045389  0.27700299  1
  C  C74  1  0.33045389  0.55345090  0.92822840  1
  C  C75  1  0.62522349  0.40222649  0.07177160  1
  C  C76  1  0.92410367  0.70324891  0.43049331  1
  C  C77  1  0.27275560  0.49361036  0.56950669  1
  C  C78  1  0.24361036  0.17410367  0.72085575  1
  C  C79  1  0.45324891  0.52275560  0.27914425  1
  C  C80  1  0.78527001  0.35549296  0.77357467  1
  C  C81  1  0.58191829  0.01169534  0.22642533  1
  C  C82  1  0.76169534  0.03527001  0.92977705  1
  C  C83  1  0.10549296  0.83191829  0.07022295  1
  C  C84  1  0.70025501  0.60333103  0.74478917  1
  C  C85  1  0.85854186  0.95546584  0.25521083  1
  C  C86  1  0.70546584  0.95025501  0.59692498  1
  C  C87  1  0.35333103  0.10854186  0.40307502  1
  N  N88  1  0.16367179  0.77876612  0.76594447  1
  N  N89  1  0.01282164  0.39772731  0.23405553  1
  N  N90  1  0.14772731  0.41367179  0.88490567  1
  N  N91  1  0.52876612  0.26282164  0.11509433  1
  N  N92  1  0.89825590  0.57326406  0.47195210  1
  N  N93  1  0.10131296  0.42630380  0.52804790  1
  N  N94  1  0.17630380  0.14825590  0.82499083  1
  N  N95  1  0.32326406  0.35131296  0.17500917  1
  N  N96  1  0.83522351  0.39365715  0.66272831  1
  N  N97  1  0.73092884  0.17249520  0.33727169  1
  N  N98  1  0.92249520  0.08522351  0.94156736  1
  N  N99  1  0.14365715  0.98092884  0.05843264  1
  N  N100  1  0.84499166  0.69000590  0.70647196  1
  N  N101  1  0.98353394  0.13851870  0.29352804  1
  N  N102  1  0.88851870  0.09499166  0.65498576  1
  N  N103  1  0.44000590  0.23353394  0.34501424  1
