# generated using pymatgen
data_Na4Fe2(PO4)3
_symmetry_space_group_name_H-M   'P 1'
_cell_length_a   8.85728778
_cell_length_b   8.85728779
_cell_length_c   8.85728778
_cell_angle_alpha   61.52862555
_cell_angle_beta   61.52862554
_cell_angle_gamma   61.52862558
_symmetry_Int_Tables_number   1
_chemical_formula_structural   Na4Fe2(PO4)3
_chemical_formula_sum   'Na8 Fe4 P6 O24'
_cell_volume   508.20234333
_cell_formula_units_Z   2
loop_
 _symmetry_equiv_pos_site_id
 _symmetry_equiv_pos_as_xyz
  1  'x, y, z'
loop_
 _atom_site_type_symbol
 _atom_site_label
 _atom_site_symmetry_multiplicity
 _atom_site_fract_x
 _atom_site_fract_y
 _atom_site_fract_z
 _atom_site_occupancy
  O  O0  1  0.77204914  0.56651265  0.41204947  1
  O  O1  1  0.56651265  0.41204947  0.77204914  1
  O  O2  1  0.41204947  0.77204914  0.56651265  1
  O  O3  1  0.08795053  0.93348735  0.72795086  1
  O  O4  1  0.93348735  0.72795086  0.08795053  1
  O  O5  1  0.72795086  0.08795053  0.93348735  1
  O  O6  1  0.22795086  0.43348735  0.58795053  1
  O  O7  1  0.43348735  0.58795053  0.22795086  1
  O  O8  1  0.58795053  0.22795086  0.43348735  1
  O  O9  1  0.91204947  0.06651265  0.27204914  1
  O  O10  1  0.06651265  0.27204914  0.91204947  1
  O  O11  1  0.27204914  0.91204947  0.06651265  1
  O  O12  1  0.88495896  0.48466632  0.70312869  1
  O  O13  1  0.48466632  0.70312869  0.88495896  1
  O  O14  1  0.70312869  0.88495896  0.48466632  1
  O  O15  1  0.79687131  0.01533368  0.61504104  1
  O  O16  1  0.01533368  0.61504104  0.79687131  1
  O  O17  1  0.61504104  0.79687131  0.01533368  1
  O  O18  1  0.38495896  0.20312869  0.98466632  1
  O  O19  1  0.98466632  0.38495896  0.20312869  1
  O  O20  1  0.20312869  0.98466632  0.38495896  1
  O  O21  1  0.29687131  0.11504104  0.51533368  1
  O  O22  1  0.51533368  0.29687131  0.11504104  1
  O  O23  1  0.11504104  0.51533368  0.29687131  1
  Na  Na24  1  0.61494180  0.88505820  0.25000000  1
  Na  Na25  1  0.88505820  0.25000000  0.61494180  1
  Na  Na26  1  0.25000000  0.61494180  0.88505820  1
  Na  Na27  1  0.38505820  0.11494180  0.75000000  1
  Na  Na28  1  0.11494180  0.75000000  0.38505820  1
  Na  Na29  1  0.75000000  0.38505820  0.11494180  1
  Na  Na30  1  0.50000000  0.50000000  0.50000000  1
  Na  Na31  1  0.00000000  0.00000000  0.00000000  1
  P  P32  1  0.95238784  0.54761216  0.25000000  1
  P  P33  1  0.54761216  0.25000000  0.95238784  1
  P  P34  1  0.25000000  0.95238784  0.54761216  1
  P  P35  1  0.04761216  0.45238784  0.75000000  1
  P  P36  1  0.45238784  0.75000000  0.04761216  1
  P  P37  1  0.75000000  0.04761216  0.45238784  1
  Fe  Fe38  1  0.64890815  0.64890815  0.64890815  1
  Fe  Fe39  1  0.85109185  0.85109185  0.85109185  1
  Fe  Fe40  1  0.35109185  0.35109185  0.35109185  1
  Fe  Fe41  1  0.14890815  0.14890815  0.14890815  1
