# generated using pymatgen
data_ZnH8SO8
_symmetry_space_group_name_H-M   'P 1'
_cell_length_a   6.09473596
_cell_length_b   7.95785321
_cell_length_c   13.61312860
_cell_angle_alpha   90.00000000
_cell_angle_beta   90.00000000
_cell_angle_gamma   89.73289504
_symmetry_Int_Tables_number   1
_chemical_formula_structural   ZnH8SO8
_chemical_formula_sum   'Zn4 H32 S4 O32'
_cell_volume   660.24336771
_cell_formula_units_Z   4
loop_
 _symmetry_equiv_pos_site_id
 _symmetry_equiv_pos_as_xyz
  1  'x, y, z'
loop_
 _atom_site_type_symbol
 _atom_site_label
 _atom_site_symmetry_multiplicity
 _atom_site_fract_x
 _atom_site_fract_y
 _atom_site_fract_z
 _atom_site_occupancy
  Zn  Zn0  1  0.07428305  0.21969303  0.89628729  1
  Zn  Zn1  1  0.42571695  0.28030697  0.39628729  1
  Zn  Zn2  1  0.92571695  0.78030697  0.10371271  1
  Zn  Zn3  1  0.57428305  0.71969303  0.60371271  1
  H  H4  1  0.92482500  0.55127380  0.90000501  1
  H  H5  1  0.57517500  0.94872620  0.40000501  1
  H  H6  1  0.07517500  0.44872620  0.09999499  1
  H  H7  1  0.42482500  0.05127380  0.59999499  1
  H  H8  1  0.80152274  0.45195337  0.81416734  1
  H  H9  1  0.69847726  0.04804663  0.31416734  1
  H  H10  1  0.19847726  0.54804663  0.18583266  1
  H  H11  1  0.30152274  0.95195337  0.68583266  1
  H  H12  1  0.36515939  0.47320776  0.91625725  1
  H  H13  1  0.13484061  0.02679224  0.41625725  1
  H  H14  1  0.63484061  0.52679224  0.08374275  1
  H  H15  1  0.86515939  0.97320776  0.58374275  1
  H  H16  1  0.45105521  0.32351255  0.98403252  1
  H  H17  1  0.04894479  0.17648745  0.48403252  1
  H  H18  1  0.54894479  0.67648745  0.01596748  1
  H  H19  1  0.95105521  0.82351255  0.51596748  1
  H  H20  1  0.69958820  0.05254152  0.91479941  1
  H  H21  1  0.31808152  0.27891738  0.73495864  1
  H  H22  1  0.30041180  0.94745848  0.08520059  1
  H  H23  1  0.19958820  0.55254152  0.58520059  1
  H  H24  1  0.69345697  0.15456509  0.81419535  1
  H  H25  1  0.80654303  0.34543491  0.31419535  1
  H  H26  1  0.30654303  0.84543491  0.18580465  1
  H  H27  1  0.19345697  0.65456509  0.68580465  1
  H  H28  1  0.08439783  0.22288490  0.69293060  1
  H  H29  1  0.41560217  0.27711510  0.19293060  1
  H  H30  1  0.91560217  0.77711510  0.30706940  1
  H  H31  1  0.58439783  0.72288490  0.80706940  1
  H  H32  1  0.81808152  0.77891738  0.76504136  1
  H  H33  1  0.68191848  0.72108262  0.26504136  1
  H  H34  1  0.18191848  0.22108262  0.23495864  1
  H  H35  1  0.80041180  0.44745848  0.41479941  1
  S  S36  1  0.19558566  0.81681376  0.89139631  1
  S  S37  1  0.30441434  0.68318624  0.39139631  1
  S  S38  1  0.80441434  0.18318624  0.10860369  1
  S  S39  1  0.69558566  0.31681376  0.60860369  1
  O  O40  1  0.18636306  0.21185679  0.74931418  1
  O  O41  1  0.31363694  0.28814321  0.24931418  1
  O  O42  1  0.81363694  0.78814321  0.25068582  1
  O  O43  1  0.68636306  0.71185679  0.75068582  1
  O  O44  1  0.88380352  0.43844563  0.87568235  1
  O  O45  1  0.21359919  0.91543745  0.14258617  1
  O  O46  1  0.71359919  0.41543745  0.35741383  1
  O  O47  1  0.78640081  0.08456255  0.85741383  1
  O  O48  1  0.39488456  0.70692091  0.90615803  1
  O  O49  1  0.10511544  0.79307909  0.40615803  1
  O  O50  1  0.60511544  0.29307909  0.09384197  1
  O  O51  1  0.89488456  0.20692091  0.59384197  1
  O  O52  1  0.13526449  0.81745162  0.78613946  1
  O  O53  1  0.36473551  0.68254838  0.28613946  1
  O  O54  1  0.86473551  0.18254838  0.21386054  1
  O  O55  1  0.63526449  0.31745162  0.71386054  1
  O  O56  1  0.86351972  0.84988735  0.57533474  1
  O  O57  1  0.63648028  0.65011265  0.07533474  1
  O  O58  1  0.13648028  0.15011265  0.42466526  1
  O  O59  1  0.36351972  0.34988735  0.92466526  1
  O  O60  1  0.00738034  0.74703601  0.94955519  1
  O  O61  1  0.49261966  0.75296399  0.44955519  1
  O  O62  1  0.99261966  0.25296399  0.05044481  1
  O  O63  1  0.50738034  0.24703601  0.55044481  1
  O  O64  1  0.24860064  0.98908638  0.92823863  1
  O  O65  1  0.25139936  0.51091362  0.42823863  1
  O  O66  1  0.75139936  0.01091362  0.07176137  1
  O  O67  1  0.74860064  0.48908638  0.57176137  1
  O  O68  1  0.38380352  0.93844563  0.62431765  1
  O  O69  1  0.11619648  0.56155437  0.12431765  1
  O  O70  1  0.61619648  0.06155437  0.37568235  1
  O  O71  1  0.28640081  0.58456255  0.64258617  1
