# generated using pymatgen
data_Li2SnP2O7
_symmetry_space_group_name_H-M   'P 1'
_cell_length_a   7.32993150
_cell_length_b   7.32993150
_cell_length_c   13.17260067
_cell_angle_alpha   89.64964968
_cell_angle_beta   90.35035033
_cell_angle_gamma   59.96717667
_symmetry_Int_Tables_number   1
_chemical_formula_structural   Li2SnP2O7
_chemical_formula_sum   'Li8 Sn4 P8 O28'
_cell_volume   612.66876692
_cell_formula_units_Z   4
loop_
 _symmetry_equiv_pos_site_id
 _symmetry_equiv_pos_as_xyz
  1  'x, y, z'
loop_
 _atom_site_type_symbol
 _atom_site_label
 _atom_site_symmetry_multiplicity
 _atom_site_fract_x
 _atom_site_fract_y
 _atom_site_fract_z
 _atom_site_occupancy
  Li  Li0  1  0.25315573  0.28481102  0.99460860  1
  Li  Li1  1  0.71518898  0.74684427  0.49460860  1
  Li  Li2  1  0.26099368  0.26099368  0.75000000  1
  Li  Li3  1  0.71871867  0.71871867  0.75000000  1
  Li  Li4  1  0.28128133  0.28128133  0.25000000  1
  Li  Li5  1  0.73900632  0.73900632  0.25000000  1
  Li  Li6  1  0.28481102  0.25315573  0.50539140  1
  Li  Li7  1  0.74684427  0.71518898  0.00539140  1
  O  O8  1  0.08778297  0.88156951  0.62239820  1
  O  O9  1  0.11843049  0.91221703  0.12239820  1
  O  O10  1  0.38628785  0.85601339  0.50640290  1
  O  O11  1  0.14398661  0.61371215  0.00640290  1
  O  O12  1  0.15790764  0.59007508  0.75794165  1
  O  O13  1  0.40992492  0.84209236  0.25794165  1
  O  O14  1  0.44784401  0.77154424  0.69531513  1
  O  O15  1  0.22845576  0.55215599  0.19531513  1
  O  O16  1  0.29074522  0.49355585  0.57895552  1
  O  O17  1  0.68449406  0.89005298  0.88214746  1
  O  O18  1  0.50644415  0.70925478  0.07895552  1
  O  O19  1  0.10994702  0.31550594  0.38214746  1
  O  O20  1  0.15260813  0.20084995  0.87097204  1
  O  O21  1  0.79915005  0.84739187  0.37097204  1
  O  O22  1  0.20084995  0.15260813  0.62902796  1
  O  O23  1  0.84739187  0.79915005  0.12902796  1
  O  O24  1  0.89005298  0.68449406  0.61785254  1
  O  O25  1  0.49355585  0.29074522  0.92104448  1
  O  O26  1  0.31550594  0.10994702  0.11785254  1
  O  O27  1  0.70925478  0.50644415  0.42104448  1
  O  O28  1  0.77154424  0.44784401  0.80468487  1
  O  O29  1  0.55215599  0.22845576  0.30468487  1
  O  O30  1  0.59007508  0.15790764  0.74205835  1
  O  O31  1  0.84209236  0.40992492  0.24205835  1
  O  O32  1  0.85601339  0.38628785  0.99359710  1
  O  O33  1  0.61371215  0.14398661  0.49359710  1
  O  O34  1  0.88156951  0.08778297  0.87760180  1
  O  O35  1  0.91221703  0.11843049  0.37760180  1
  P  P36  1  0.29282929  0.91755971  0.61453796  1
  P  P37  1  0.08244029  0.70717071  0.11453796  1
  P  P38  1  0.10436924  0.65447693  0.64412588  1
  P  P39  1  0.34552307  0.89563076  0.14412588  1
  P  P40  1  0.65447693  0.10436924  0.85587412  1
  P  P41  1  0.89563076  0.34552307  0.35587412  1
  P  P42  1  0.91755971  0.29282929  0.88546204  1
  P  P43  1  0.70717071  0.08244029  0.38546204  1
  Sn  Sn44  1  0.33270011  0.65729162  0.87893230  1
  Sn  Sn45  1  0.34270838  0.66729989  0.37893230  1
  Sn  Sn46  1  0.65729162  0.33270011  0.62106770  1
  Sn  Sn47  1  0.66729989  0.34270838  0.12106770  1
