# generated using pymatgen
data_MgB3H15O13
_symmetry_space_group_name_H-M   'P 1'
_cell_length_a   6.48815360
_cell_length_b   8.35242915
_cell_length_c   10.72019998
_cell_angle_alpha   106.12000498
_cell_angle_beta   99.09185417
_cell_angle_gamma   109.51239980
_symmetry_Int_Tables_number   1
_chemical_formula_structural   MgB3H15O13
_chemical_formula_sum   'Mg2 B6 H30 O26'
_cell_volume   505.48067485
_cell_formula_units_Z   2
loop_
 _symmetry_equiv_pos_site_id
 _symmetry_equiv_pos_as_xyz
  1  'x, y, z'
loop_
 _atom_site_type_symbol
 _atom_site_label
 _atom_site_symmetry_multiplicity
 _atom_site_fract_x
 _atom_site_fract_y
 _atom_site_fract_z
 _atom_site_occupancy
  H  H0  1  0.05017909  0.72789522  0.69481901  1
  H  H1  1  0.94982091  0.27210478  0.30518099  1
  H  H2  1  0.83545473  0.75379328  0.73783507  1
  H  H3  1  0.16454527  0.24620672  0.26216493  1
  H  H4  1  0.85560103  0.09652059  0.09336031  1
  H  H5  1  0.14439897  0.90347941  0.90663969  1
  H  H6  1  0.18316672  0.72432651  0.50370509  1
  H  H7  1  0.81683328  0.27567349  0.49629491  1
  H  H8  1  0.59360792  0.88125775  0.47483955  1
  H  H9  1  0.40639208  0.11874225  0.52516045  1
  H  H10  1  0.86544055  0.45263926  0.74290864  1
  H  H11  1  0.13455945  0.54736074  0.25709136  1
  H  H12  1  0.62773841  0.46716150  0.88667865  1
  H  H13  1  0.37226159  0.53283850  0.11332135  1
  H  H14  1  0.02760011  0.29438752  0.96012407  1
  H  H15  1  0.97239989  0.70561248  0.03987593  1
  H  H16  1  0.22595305  0.22587245  0.97713309  1
  H  H17  1  0.77404695  0.77412755  0.02286691  1
  H  H18  1  0.31721952  0.68942574  0.95295561  1
  H  H19  1  0.68278048  0.31057426  0.04704439  1
  H  H20  1  0.42546051  0.70746733  0.82988316  1
  H  H21  1  0.57453949  0.29253267  0.17011684  1
  H  H22  1  0.24813263  0.52168409  0.58337148  1
  H  H23  1  0.75186737  0.47831591  0.41662852  1
  H  H24  1  0.28921119  0.33415086  0.53039373  1
  H  H25  1  0.71078881  0.66584914  0.46960627  1
  H  H26  1  0.20020920  0.03055064  0.66487414  1
  H  H27  1  0.79979080  0.96944936  0.33512586  1
  H  H28  1  0.92243462  0.98388231  0.62562503  1
  H  H29  1  0.07756538  0.01611769  0.37437497  1
  B  B30  1  0.69552666  0.01759669  0.89471786  1
  B  B31  1  0.30447334  0.98240331  0.10528214  1
  B  B32  1  0.49727326  0.88463464  0.64679102  1
  B  B33  1  0.50272674  0.11536536  0.35320898  1
  B  B34  1  0.64833237  0.23273894  0.77454337  1
  B  B35  1  0.35166763  0.76726106  0.22545663  1
  O  O36  1  0.96035851  0.71671330  0.76151375  1
  O  O37  1  0.03964149  0.28328670  0.23848625  1
  O  O38  1  0.76060218  0.98572916  0.01157942  1
  O  O39  1  0.23939782  0.01427084  0.98842058  1
  O  O40  1  0.59560709  0.86925106  0.77664638  1
  O  O41  1  0.40439291  0.13074894  0.22335362  1
  O  O42  1  0.26117680  0.73944150  0.59481614  1
  O  O43  1  0.73882320  0.26055850  0.40518386  1
  O  O44  1  0.63927284  0.84898563  0.55480161  1
  O  O45  1  0.36072716  0.15101437  0.44519839  1
  O  O46  1  0.48865888  0.06374125  0.66750917  1
  O  O47  1  0.51134112  0.93625875  0.33249083  1
  O  O48  1  0.73392480  0.19186771  0.89910941  1
  O  O49  1  0.26607520  0.80813229  0.10089059  1
  O  O50  1  0.85730895  0.33107225  0.73791250  1
  O  O51  1  0.14269105  0.66892775  0.26208750  1
  O  O52  1  0.52919407  0.35258234  0.81075522  1
  O  O53  1  0.47080593  0.64741766  0.18924478  1
  O  O54  1  0.19244246  0.32990535  0.96659130  1
  O  O55  1  0.80755754  0.67009465  0.03340870  1
  O  O56  1  0.33450528  0.62036128  0.86680882  1
  O  O57  1  0.66549472  0.37963872  0.13319118  1
  O  O58  1  0.21537977  0.39846287  0.58854379  1
  O  O59  1  0.78462023  0.60153713  0.41145621  1
  O  O60  1  0.07853739  0.07346990  0.68182105  1
  O  O61  1  0.92146261  0.92653010  0.31817895  1
  Mg  Mg62  1  0.19893585  0.34708854  0.76895899  1
  Mg  Mg63  1  0.80106415  0.65291146  0.23104101  1
