# generated using pymatgen
data_LiSnPO4
_symmetry_space_group_name_H-M   'P 1'
_cell_length_a   5.76403341
_cell_length_b   10.00729779
_cell_length_c   7.71990575
_cell_angle_alpha   90.00000000
_cell_angle_beta   81.93983966
_cell_angle_gamma   90.00000000
_symmetry_Int_Tables_number   1
_chemical_formula_structural   LiSnPO4
_chemical_formula_sum   'Li4 Sn4 P4 O16'
_cell_volume   440.90371136
_cell_formula_units_Z   4
loop_
 _symmetry_equiv_pos_site_id
 _symmetry_equiv_pos_as_xyz
  1  'x, y, z'
loop_
 _atom_site_type_symbol
 _atom_site_label
 _atom_site_symmetry_multiplicity
 _atom_site_fract_x
 _atom_site_fract_y
 _atom_site_fract_z
 _atom_site_occupancy
  Li  Li0  1  0.20637546  0.33278306  1.00376728  1
  Li  Li1  1  0.29362454  0.83278306  0.49623272  1
  Li  Li2  1  0.70637546  0.16721694  0.50376728  1
  Li  Li3  1  0.79362454  0.66721694  -0.00376728  1
  O  O4  1  0.06315382  0.86943848  0.34822829  1
  O  O5  1  0.12719670  0.67102264  0.87904366  1
  O  O6  1  0.13120322  0.13374294  0.92370484  1
  O  O7  1  0.21983985  0.94006091  0.71714662  1
  O  O8  1  0.28016015  0.44006091  0.78285338  1
  O  O9  1  0.36879678  0.63374294  0.57629516  1
  O  O10  1  0.37280330  0.17102264  0.62095634  1
  O  O11  1  0.43684618  0.36943848  0.15177171  1
  O  O12  1  0.56315382  0.63056152  0.84822829  1
  O  O13  1  0.62719670  0.82897736  0.37904366  1
  O  O14  1  0.63120322  0.36625706  0.42370484  1
  O  O15  1  0.71983985  0.55993909  0.21714662  1
  O  O16  1  0.78016015  0.05993909  0.28285338  1
  O  O17  1  0.86879678  0.86625706  0.07629516  1
  O  O18  1  0.87280330  0.32897736  0.12095634  1
  O  O19  1  0.93684618  0.13056152  0.65177171  1
  P  P20  1  0.16188428  0.09248196  0.72292617  1
  P  P21  1  0.33811572  0.59248196  0.77707383  1
  P  P22  1  0.66188428  0.40751804  0.22292617  1
  P  P23  1  0.83811572  0.90751804  0.27707383  1
  Sn  Sn24  1  0.25781029  0.85869760  -0.01622507  1
  Sn  Sn25  1  0.24218971  0.35869760  0.51622507  1
  Sn  Sn26  1  0.75781029  0.64130240  0.48377493  1
  Sn  Sn27  1  0.74218971  0.14130240  1.01622507  1
