# generated using pymatgen
data_Li2CrPCO7
_symmetry_space_group_name_H-M   'P 1'
_cell_length_a   5.02315887
_cell_length_b   6.39042739
_cell_length_c   8.47905883
_cell_angle_alpha   90.00000000
_cell_angle_beta   86.37160191
_cell_angle_gamma   90.00000000
_symmetry_Int_Tables_number   1
_chemical_formula_structural   Li2CrPCO7
_chemical_formula_sum   'Li4 Cr2 P2 C2 O14'
_cell_volume   271.63332108
_cell_formula_units_Z   2
loop_
 _symmetry_equiv_pos_site_id
 _symmetry_equiv_pos_as_xyz
  1  'x, y, z'
loop_
 _atom_site_type_symbol
 _atom_site_label
 _atom_site_symmetry_multiplicity
 _atom_site_fract_x
 _atom_site_fract_y
 _atom_site_fract_z
 _atom_site_occupancy
  Li  Li0  1  0.77477233  0.00145252  0.77413246  1
  Li  Li1  1  0.22522861  0.99854717  0.22586865  1
  Li  Li2  1  0.22522861  0.50145268  0.22586865  1
  Li  Li3  1  0.77477233  0.49854701  0.77413246  1
  C  C4  1  0.72699610  0.74999976  0.05849428  1
  C  C5  1  0.27300291  0.24999992  0.94150568  1
  O  O6  1  0.17474882  0.94192518  0.67623799  1
  O  O7  1  0.96180460  0.74999976  0.11958309  1
  O  O8  1  0.47390551  0.24999992  0.83213595  1
  O  O9  1  0.52609351  0.74999976  0.16786401  1
  O  O10  1  0.17474882  0.55807435  0.67623799  1
  O  O11  1  0.16732949  0.74999976  0.41284709  1
  O  O12  1  0.03819442  0.24999992  0.88041687  1
  O  O13  1  0.82525020  0.44192534  0.32376197  1
  O  O14  1  0.82525020  0.05807451  0.32376197  1
  O  O15  1  0.41183984  0.24999992  0.44181218  1
  O  O16  1  0.69608021  0.74999976  0.91235813  1
  O  O17  1  0.30391881  0.24999992  0.08764183  1
  O  O18  1  0.58815917  0.74999976  0.55818777  1
  O  O19  1  0.83267153  0.24999992  0.58715283  1
  P  P20  1  0.72243715  0.24999992  0.41930094  1
  P  P21  1  0.27756186  0.74999976  0.58069902  1
  Cr  Cr22  1  0.79067006  0.74999976  0.34362171  1
  Cr  Cr23  1  0.20933095  0.24999992  0.65637822  1
