# generated using pymatgen
data_Ti9O17
_symmetry_space_group_name_H-M   'P 1'
_cell_length_a   5.57685601
_cell_length_b   7.19835584
_cell_length_c   14.90099799
_cell_angle_alpha   96.82910296
_cell_angle_beta   90.62032359
_cell_angle_gamma   108.62794197
_symmetry_Int_Tables_number   1
_chemical_formula_structural   Ti9O17
_chemical_formula_sum   'Ti18 O34'
_cell_volume   562.07163382
_cell_formula_units_Z   2
loop_
 _symmetry_equiv_pos_site_id
 _symmetry_equiv_pos_as_xyz
  1  'x, y, z'
loop_
 _atom_site_type_symbol
 _atom_site_label
 _atom_site_symmetry_multiplicity
 _atom_site_fract_x
 _atom_site_fract_y
 _atom_site_fract_z
 _atom_site_occupancy
  O  O0  1  0.70335322  0.95923592  0.52081622  1
  O  O1  1  0.29664678  0.04076408  0.47918378  1
  O  O2  1  0.95679349  0.67869583  0.54246337  1
  O  O3  1  0.04320651  0.32130417  0.45753663  1
  O  O4  1  0.45758141  0.60462240  0.57059388  1
  O  O5  1  0.54241859  0.39537760  0.42940612  1
  O  O6  1  0.64758657  0.31460447  0.59520970  1
  O  O7  1  0.35241343  0.68539553  0.40479030  1
  O  O8  1  0.10561803  0.26109517  0.64048225  1
  O  O9  1  0.89438197  0.73890483  0.35951775  1
  O  O10  1  0.38673079  0.94867550  0.65791328  1
  O  O11  1  0.61326921  0.05132450  0.34208672  1
  O  O12  1  0.85993825  0.88673510  0.69132702  1
  O  O13  1  0.14006175  0.11326490  0.30867298  1
  O  O14  1  0.52090835  0.55924535  0.75513358  1
  O  O15  1  0.47909165  0.44075465  0.24486642  1
  O  O16  1  0.04501347  0.61434736  0.72750603  1
  O  O17  1  0.95498653  0.38565264  0.27249397  1
  O  O18  1  0.64125932  0.83263758  0.00999818  1
  O  O19  1  0.35874068  0.16736242  0.99000182  1
  O  O20  1  0.12571810  0.78740221  0.03732835  1
  O  O21  1  0.87428190  0.21259779  0.96267165  1
  O  O22  1  0.29139097  0.51119892  0.07973126  1
  O  O23  1  0.70860903  0.48880108  0.92026874  1
  O  O24  1  0.77384010  0.46567634  0.10658725  1
  O  O25  1  0.22615990  0.53432366  0.89341275  1
  O  O26  1  0.05988808  0.13380510  0.12717712  1
  O  O27  1  0.94011192  0.86619490  0.87282288  1
  O  O28  1  0.54210415  0.08691318  0.15497473  1
  O  O29  1  0.45789585  0.91308682  0.84502527  1
  O  O30  1  0.71393265  0.81166404  0.19464554  1
  O  O31  1  0.28606735  0.18833596  0.80535446  1
  O  O32  1  0.19323219  0.76115150  0.22439490  1
  O  O33  1  0.80676781  0.23884850  0.77560510  1
  Ti  Ti34  1  0.00000000  0.50000000  0.00000000  1
  Ti  Ti35  1  0.00000000  0.00000000  0.00000000  1
  Ti  Ti36  1  0.30311955  0.81047625  0.54036722  1
  Ti  Ti37  1  0.69688045  0.18952375  0.45963278  1
  Ti  Ti38  1  0.30304965  0.31264063  0.54273112  1
  Ti  Ti39  1  0.69695035  0.68735937  0.45726888  1
  Ti  Ti40  1  0.74977299  0.59978713  0.65936203  1
  Ti  Ti41  1  0.25022701  0.40021287  0.34063797  1
  Ti  Ti42  1  0.74949203  0.09595067  0.65991338  1
  Ti  Ti43  1  0.25050797  0.90404933  0.34008662  1
  Ti  Ti44  1  0.17271916  0.40782110  0.77412214  1
  Ti  Ti45  1  0.82728084  0.59217890  0.22587786  1
  Ti  Ti46  1  0.16888981  0.90707042  0.77332481  1
  Ti  Ti47  1  0.83111019  0.09292958  0.22667519  1
  Ti  Ti48  1  0.58460683  0.20511320  0.88695373  1
  Ti  Ti49  1  0.41539317  0.79488680  0.11304627  1
  Ti  Ti50  1  0.59128013  0.70727578  0.88682516  1
  Ti  Ti51  1  0.40871987  0.29272422  0.11317484  1
