# generated using pymatgen
data_Be(B3H7)2
_symmetry_space_group_name_H-M   'P 1'
_cell_length_a   8.64038542
_cell_length_b   8.73668010
_cell_length_c   10.93950920
_cell_angle_alpha   97.46340672
_cell_angle_beta   90.00000000
_cell_angle_gamma   90.00000000
_symmetry_Int_Tables_number   1
_chemical_formula_structural   Be(B3H7)2
_chemical_formula_sum   'Be4 B24 H56'
_cell_volume   818.80857034
_cell_formula_units_Z   4
loop_
 _symmetry_equiv_pos_site_id
 _symmetry_equiv_pos_as_xyz
  1  'x, y, z'
loop_
 _atom_site_type_symbol
 _atom_site_label
 _atom_site_symmetry_multiplicity
 _atom_site_fract_x
 _atom_site_fract_y
 _atom_site_fract_z
 _atom_site_occupancy
  H  H0  1  0.54270694  0.43897455  0.73010517  1
  H  H1  1  0.04270694  0.06102545  0.76989483  1
  H  H2  1  0.45729306  0.56102545  0.26989483  1
  H  H3  1  0.95729306  0.93897455  0.23010517  1
  H  H4  1  0.60072405  0.39941835  0.54613229  1
  H  H5  1  0.10072405  0.10058165  0.95386771  1
  H  H6  1  0.39927595  0.60058165  0.45386771  1
  H  H7  1  0.89927595  0.89941835  0.04613229  1
  H  H8  1  0.73395978  0.32352318  0.67471477  1
  H  H9  1  0.23395978  0.17647682  0.82528523  1
  H  H10  1  0.26604022  0.67647682  0.32528523  1
  H  H11  1  0.76604022  0.82352318  0.17471477  1
  H  H12  1  0.52077850  0.23006348  0.63258015  1
  H  H13  1  0.02077850  0.26993652  0.86741985  1
  H  H14  1  0.47922150  0.76993652  0.36741985  1
  H  H15  1  0.97922150  0.73006348  0.13258015  1
  H  H16  1  0.82006740  0.09789725  0.60253195  1
  H  H17  1  0.32006740  0.40210275  0.89746805  1
  H  H18  1  0.17993260  0.90210275  0.39746805  1
  H  H19  1  0.67993260  0.59789725  0.10253195  1
  H  H20  1  0.73268263  0.98134300  0.88390325  1
  H  H21  1  0.87378823  0.89099252  0.60419622  1
  H  H22  1  0.12621177  0.10900748  0.39580378  1
  H  H23  1  0.62621177  0.39099252  0.10419622  1
  H  H24  1  0.83505395  0.82177573  0.76632035  1
  H  H25  1  0.33505395  0.67822427  0.73367965  1
  H  H26  1  0.16494605  0.17822427  0.23367965  1
  H  H27  1  0.66494605  0.32177573  0.26632035  1
  H  H28  1  0.02018954  0.38706504  0.14325258  1
  H  H29  1  0.52018954  0.11293496  0.35674742  1
  H  H30  1  0.97981046  0.61293496  0.85674742  1
  H  H31  1  0.47981046  0.88706504  0.64325258  1
  H  H32  1  0.97801590  0.58465591  0.39267996  1
  H  H33  1  0.47801590  0.91534409  0.10732004  1
  H  H34  1  0.02198410  0.41534409  0.60732004  1
  H  H35  1  0.52198410  0.08465591  0.89267996  1
  H  H36  1  0.85734190  0.26373377  0.36153010  1
  H  H37  1  0.35734190  0.23626623  0.13846990  1
  H  H38  1  0.14265810  0.73626623  0.63846990  1
  H  H39  1  0.64265810  0.76373377  0.86153010  1
  H  H40  1  0.72996545  0.18132605  0.10857872  1
  H  H41  1  0.22996545  0.31867395  0.39142128  1
  H  H42  1  0.27003455  0.81867395  0.89142128  1
  H  H43  1  0.77003455  0.68132605  0.60857872  1
  H  H44  1  0.76123957  0.44461449  0.96413049  1
  H  H45  1  0.26123957  0.05538551  0.53586951  1
  H  H46  1  0.23876043  0.55538551  0.03586951  1
  H  H47  1  0.73876043  0.94461449  0.46413049  1
  H  H48  1  0.78702210  0.66690640  0.31745000  1
  H  H49  1  0.28702210  0.83309360  0.18255000  1
  H  H50  1  0.21297790  0.33309360  0.68255000  1
  H  H51  1  0.71297790  0.16690640  0.81745000  1
  H  H52  1  0.76731737  0.48134300  0.38390325  1
  H  H53  1  0.26731737  0.01865700  0.11609675  1
  H  H54  1  0.23268263  0.51865700  0.61609675  1
  H  H55  1  0.37378823  0.60900748  0.89580378  1
  Be  Be56  1  0.83217252  0.65602267  0.17668343  1
  Be  Be57  1  0.33217252  0.84397733  0.32331657  1
  Be  Be58  1  0.16782748  0.34397733  0.82331657  1
  Be  Be59  1  0.66782748  0.15602267  0.67668343  1
  B  B60  1  0.75204169  0.97253913  0.57352633  1
  B  B61  1  0.25204169  0.52746087  0.92647367  1
  B  B62  1  0.24795831  0.02746087  0.42647367  1
  B  B63  1  0.74795831  0.47253913  0.07352633  1
  B  B64  1  0.76378722  0.81166313  0.65587222  1
  B  B65  1  0.26378722  0.68833687  0.84412778  1
  B  B66  1  0.23621278  0.18833687  0.34412778  1
  B  B67  1  0.73621278  0.31166313  0.15587222  1
  B  B68  1  0.68974493  0.85966910  0.80299067  1
  B  B69  1  0.18974493  0.64033090  0.69700933  1
  B  B70  1  0.31025507  0.14033090  0.19700933  1
  B  B71  1  0.81025507  0.35966910  0.30299067  1
  B  B72  1  0.62696030  0.05318762  0.82270688  1
  B  B73  1  0.12696030  0.44681238  0.67729312  1
  B  B74  1  0.37303970  0.94681238  0.17729312  1
  B  B75  1  0.87303970  0.55318762  0.32270688  1
  B  B76  1  0.60422804  0.93269107  0.67902892  1
  B  B77  1  0.10422804  0.56730893  0.82097108  1
  B  B78  1  0.39577196  0.06730893  0.32097108  1
  B  B79  1  0.89577196  0.43269107  0.17902892  1
  B  B80  1  0.90255187  0.85419386  0.14530906  1
  B  B81  1  0.40255187  0.64580614  0.35469094  1
  B  B82  1  0.09744813  0.14580614  0.85469094  1
  B  B83  1  0.59744813  0.35419386  0.64530906  1
