# generated using pymatgen
data_WCl5
_symmetry_space_group_name_H-M   'P 1'
_cell_length_a   6.60088385
_cell_length_b   13.17168217
_cell_length_c   13.17168217
_cell_angle_alpha   89.27989685
_cell_angle_beta   94.17510676
_cell_angle_gamma   94.17510679
_symmetry_Int_Tables_number   1
_chemical_formula_structural   WCl5
_chemical_formula_sum   'W6 Cl30'
_cell_volume   1139.10789570
_cell_formula_units_Z   6
loop_
 _symmetry_equiv_pos_site_id
 _symmetry_equiv_pos_as_xyz
  1  'x, y, z'
loop_
 _atom_site_type_symbol
 _atom_site_label
 _atom_site_symmetry_multiplicity
 _atom_site_fract_x
 _atom_site_fract_y
 _atom_site_fract_z
 _atom_site_occupancy
  Cl  Cl0  1  0.81186343  0.68285371  0.49790256  1
  Cl  Cl1  1  0.18813657  0.50209744  0.31714629  1
  Cl  Cl2  1  0.18813657  0.31714629  0.50209744  1
  Cl  Cl3  1  0.81186343  0.49790256  0.68285371  1
  Cl  Cl4  1  0.38455481  0.78387210  0.41028874  1
  Cl  Cl5  1  0.61544519  0.58971126  0.21612790  1
  Cl  Cl6  1  0.12855310  0.92900874  0.92900874  1
  Cl  Cl7  1  0.87144690  0.07099126  0.07099126  1
  Cl  Cl8  1  0.12911297  0.73989072  0.11350864  1
  Cl  Cl9  1  0.87088703  0.88649136  0.26010928  1
  Cl  Cl10  1  0.87088703  0.26010928  0.88649136  1
  Cl  Cl11  1  0.12911297  0.11350864  0.73989072  1
  Cl  Cl12  1  0.70245368  0.83548791  0.01987870  1
  Cl  Cl13  1  0.29754632  0.98012130  0.16451209  1
  Cl  Cl14  1  0.29754632  0.16451209  0.98012130  1
  Cl  Cl15  1  0.70245368  0.01987870  0.83548791  1
  Cl  Cl16  1  0.74422140  0.73562864  0.73562864  1
  Cl  Cl17  1  0.25577860  0.26437136  0.26437136  1
  Cl  Cl18  1  0.74847879  0.55065171  0.92413141  1
  Cl  Cl19  1  0.25152121  0.07586859  0.44934829  1
  Cl  Cl20  1  0.25152121  0.44934829  0.07586859  1
  Cl  Cl21  1  0.74847879  0.92413141  0.55065171  1
  Cl  Cl22  1  0.32231316  0.65169636  0.83598784  1
  Cl  Cl23  1  0.67768684  0.16401216  0.34830364  1
  Cl  Cl24  1  0.67768684  0.34830364  0.16401216  1
  Cl  Cl25  1  0.32231316  0.83598784  0.65169636  1
  Cl  Cl26  1  0.38996846  0.59826948  0.59826948  1
  Cl  Cl27  1  0.61003154  0.40173052  0.40173052  1
  Cl  Cl28  1  0.38455481  0.41028874  0.78387210  1
  Cl  Cl29  1  0.61544519  0.21612790  0.58971126  1
  W  W30  1  0.56689761  0.77125743  0.56284007  1
  W  W31  1  0.43310239  0.43715993  0.22874257  1
  W  W32  1  0.43310239  0.22874257  0.43715993  1
  W  W33  1  0.56689761  0.56284007  0.77125743  1
  W  W34  1  0.00000000  0.10420327  0.89579673  1
  W  W35  1  0.00000000  0.89579673  0.10420327  1
