# generated using pymatgen
data_Lu(BRh)4
_symmetry_space_group_name_H-M   'P 1'
_cell_length_a   7.50733722
_cell_length_b   7.51270966
_cell_length_c   11.80546724
_cell_angle_alpha   90.00000000
_cell_angle_beta   108.53961062
_cell_angle_gamma   90.00000000
_symmetry_Int_Tables_number   1
_chemical_formula_structural   Lu(BRh)4
_chemical_formula_sum   'Lu6 B24 Rh24'
_cell_volume   631.27954646
_cell_formula_units_Z   6
loop_
 _symmetry_equiv_pos_site_id
 _symmetry_equiv_pos_as_xyz
  1  'x, y, z'
loop_
 _atom_site_type_symbol
 _atom_site_label
 _atom_site_symmetry_multiplicity
 _atom_site_fract_x
 _atom_site_fract_y
 _atom_site_fract_z
 _atom_site_occupancy
  B  B0  1  0.65897804  0.58425843  0.60689438  1
  B  B1  1  0.55208365  0.91574157  0.39310562  1
  B  B2  1  0.84102196  0.58425843  0.39310562  1
  B  B3  1  0.94791635  0.91574157  0.60689438  1
  B  B4  1  0.34102196  0.41574157  0.39310562  1
  B  B5  1  0.44791635  0.08425843  0.60689438  1
  B  B6  1  0.19793270  0.88632854  0.05688430  1
  B  B7  1  0.64104840  0.61367146  0.94311570  1
  B  B8  1  0.30206730  0.88632854  0.94311570  1
  B  B9  1  0.85895160  0.61367146  0.05688430  1
  B  B10  1  0.80206730  0.11367146  0.94311570  1
  B  B11  1  0.35895160  0.38632854  0.05688430  1
  B  B12  1  0.69793270  0.11367146  0.05688430  1
  B  B13  1  0.14104840  0.38632854  0.94311570  1
  B  B14  1  0.27656712  0.57802810  0.27916649  1
  B  B15  1  0.49740063  0.92197190  0.72083351  1
  B  B16  1  0.22343288  0.57802810  0.72083351  1
  B  B17  1  0.00259937  0.92197190  0.27916649  1
  B  B18  1  0.72343288  0.42197190  0.72083351  1
  B  B19  1  0.50259937  0.07802810  0.27916649  1
  B  B20  1  0.77656712  0.42197190  0.27916649  1
  B  B21  1  0.99740063  0.07802810  0.72083351  1
  B  B22  1  0.15897804  0.41574157  0.60689438  1
  B  B23  1  0.05208365  0.08425843  0.39310562  1
  Rh  Rh24  1  0.35643403  0.12598880  0.41417602  1
  Rh  Rh25  1  0.44225801  0.37401120  0.58582398  1
  Rh  Rh26  1  0.85643403  0.87401120  0.41417602  1
  Rh  Rh27  1  0.94225801  0.62598880  0.58582398  1
  Rh  Rh28  1  0.64356597  0.87401120  0.58582398  1
  Rh  Rh29  1  0.55774199  0.62598880  0.41417602  1
  Rh  Rh30  1  0.27856492  0.86435216  0.24893181  1
  Rh  Rh31  1  0.52963311  0.63564784  0.75106819  1
  Rh  Rh32  1  0.22143508  0.86435216  0.75106819  1
  Rh  Rh33  1  0.97036689  0.63564784  0.24893181  1
  Rh  Rh34  1  0.72143508  0.13564784  0.75106819  1
  Rh  Rh35  1  0.47036689  0.36435216  0.24893181  1
  Rh  Rh36  1  0.77856492  0.13564784  0.24893181  1
  Rh  Rh37  1  0.02963311  0.36435216  0.75106819  1
  Rh  Rh38  1  0.15751068  0.59405133  0.08259447  1
  Rh  Rh39  1  0.57491621  0.90594867  0.91740553  1
  Rh  Rh40  1  0.34248932  0.59405133  0.91740553  1
  Rh  Rh41  1  0.92508379  0.90594867  0.08259447  1
  Rh  Rh42  1  0.84248932  0.40594867  0.91740553  1
  Rh  Rh43  1  0.42508379  0.09405133  0.08259447  1
  Rh  Rh44  1  0.65751068  0.40594867  0.08259447  1
  Rh  Rh45  1  0.07491621  0.09405133  0.91740553  1
  Rh  Rh46  1  0.05774199  0.37401120  0.41417602  1
  Rh  Rh47  1  0.14356597  0.12598880  0.58582398  1
  Lu  Lu48  1  0.25000000  0.75000000  0.50000000  1
  Lu  Lu49  1  0.75000000  0.25000000  0.50000000  1
  Lu  Lu50  1  0.91683246  0.75000000  0.83366493  1
  Lu  Lu51  1  0.58316754  0.75000000  0.16633507  1
  Lu  Lu52  1  0.08316754  0.25000000  0.16633507  1
  Lu  Lu53  1  0.41683246  0.25000000  0.83366493  1
