# generated using pymatgen
data_Sb2I2F11
_symmetry_space_group_name_H-M   'P 1'
_cell_length_a   5.58344035
_cell_length_b   8.00978422
_cell_length_c   8.00978421
_cell_angle_alpha   64.81706762
_cell_angle_beta   79.39793198
_cell_angle_gamma   79.39793192
_symmetry_Int_Tables_number   1
_chemical_formula_structural   Sb2I2F11
_chemical_formula_sum   'Sb2 I2 F11'
_cell_volume   316.37629772
_cell_formula_units_Z   1
loop_
 _symmetry_equiv_pos_site_id
 _symmetry_equiv_pos_as_xyz
  1  'x, y, z'
loop_
 _atom_site_type_symbol
 _atom_site_label
 _atom_site_symmetry_multiplicity
 _atom_site_fract_x
 _atom_site_fract_y
 _atom_site_fract_z
 _atom_site_occupancy
  F  F0  1  0.74415024  0.79846544  0.42810081  1
  F  F1  1  0.25584976  0.57189919  0.20153456  1
  F  F2  1  0.82016755  0.47087932  0.72156402  1
  F  F3  1  0.17983245  0.27843598  0.52912068  1
  F  F4  1  0.50000000  0.51897071  0.48102929  1
  F  F5  1  0.41115537  0.20896312  0.22262336  1
  F  F6  1  0.58884463  0.77737664  0.79103688  1
  F  F7  1  0.73600197  0.44975475  0.18311347  1
  F  F8  1  0.26399803  0.81688653  0.55024525  1
  F  F9  1  0.66069074  0.16600016  0.51272413  1
  F  F10  1  0.33930926  0.48727587  0.83399984  1
  Sb  Sb11  1  0.54659829  0.65183944  0.64269487  1
  Sb  Sb12  1  0.45340171  0.35730513  0.34816056  1
  I  I13  1  0.86860990  0.93568690  0.92573919  1
  I  I14  1  0.13139010  0.07426081  0.06431310  1
