# generated using pymatgen
data_K2BiH5(CO2)5
_symmetry_space_group_name_H-M   'P 1'
_cell_length_a   7.24695141
_cell_length_b   7.24695141
_cell_length_c   12.38186502
_cell_angle_alpha   87.46476166
_cell_angle_beta   92.53523834
_cell_angle_gamma   67.65008831
_symmetry_Int_Tables_number   1
_chemical_formula_structural   K2BiH5(CO2)5
_chemical_formula_sum   'K4 Bi2 H10 C10 O20'
_cell_volume   599.52334403
_cell_formula_units_Z   2
loop_
 _symmetry_equiv_pos_site_id
 _symmetry_equiv_pos_as_xyz
  1  'x, y, z'
loop_
 _atom_site_type_symbol
 _atom_site_label
 _atom_site_symmetry_multiplicity
 _atom_site_fract_x
 _atom_site_fract_y
 _atom_site_fract_z
 _atom_site_occupancy
  K  K0  1  0.04512261  0.24920371  0.88120528  1
  K  K1  1  0.24920371  0.04512261  0.61879472  1
  K  K2  1  0.95487739  0.75079629  0.11879472  1
  K  K3  1  0.75079629  0.95487739  0.38120528  1
  Bi  Bi4  1  0.83018391  0.83018391  0.75000000  1
  Bi  Bi5  1  0.16981609  0.16981609  0.25000000  1
  H  H6  1  0.34907627  0.65419480  0.93246916  1
  H  H7  1  0.65419480  0.34907627  0.56753084  1
  H  H8  1  0.65092373  0.34580520  0.06753084  1
  H  H9  1  0.34580520  0.65092373  0.43246916  1
  H  H10  1  0.48599614  0.22512545  0.95636853  1
  H  H11  1  0.22512545  0.48599614  0.54363147  1
  H  H12  1  0.51400386  0.77487455  0.04363147  1
  H  H13  1  0.77487455  0.51400386  0.45636853  1
  H  H14  1  0.49452391  0.49452391  0.75000000  1
  H  H15  1  0.50547609  0.50547609  0.25000000  1
  C  C16  1  0.20225057  0.70062378  0.88587197  1
  C  C17  1  0.70062378  0.20225057  0.61412803  1
  C  C18  1  0.79774943  0.29937622  0.11412803  1
  C  C19  1  0.29937622  0.79774943  0.38587197  1
  C  C20  1  0.57022872  0.11394183  0.89874508  1
  C  C21  1  0.11394183  0.57022872  0.60125492  1
  C  C22  1  0.42977128  0.88605817  0.10125492  1
  C  C23  1  0.88605817  0.42977128  0.39874508  1
  C  C24  1  0.58703760  0.58703760  0.75000000  1
  C  C25  1  0.41296240  0.41296240  0.25000000  1
  O  O26  1  0.16091932  0.83953885  0.81115398  1
  O  O27  1  0.83953885  0.16091932  0.68884602  1
  O  O28  1  0.83908068  0.16046115  0.18884602  1
  O  O29  1  0.16046115  0.83908068  0.31115398  1
  O  O30  1  0.08639931  0.61296304  0.90907193  1
  O  O31  1  0.61296304  0.08639931  0.59092807  1
  O  O32  1  0.91360069  0.38703696  0.09092807  1
  O  O33  1  0.38703696  0.91360069  0.40907193  1
  O  O34  1  0.75879696  0.02621317  0.91927642  1
  O  O35  1  0.02621317  0.75879696  0.58072358  1
  O  O36  1  0.24120304  0.97378683  0.08072358  1
  O  O37  1  0.97378683  0.24120304  0.41927642  1
  O  O38  1  0.47400749  0.08363775  0.81856941  1
  O  O39  1  0.08363775  0.47400749  0.68143059  1
  O  O40  1  0.52599251  0.91636225  0.18143059  1
  O  O41  1  0.91636225  0.52599251  0.31856941  1
  O  O42  1  0.58206321  0.69017286  0.66346188  1
  O  O43  1  0.69017286  0.58206321  0.83653812  1
  O  O44  1  0.41793679  0.30982714  0.33653812  1
  O  O45  1  0.30982714  0.41793679  0.16346188  1
