# generated using pymatgen
data_TlCdI3
_symmetry_space_group_name_H-M   'P 1'
_cell_length_a   4.49742107
_cell_length_b   10.39580718
_cell_length_c   16.63770365
_cell_angle_alpha   90.00000000
_cell_angle_beta   90.00000000
_cell_angle_gamma   90.00000000
_symmetry_Int_Tables_number   1
_chemical_formula_structural   TlCdI3
_chemical_formula_sum   'Tl4 Cd4 I12'
_cell_volume   777.88455797
_cell_formula_units_Z   4
loop_
 _symmetry_equiv_pos_site_id
 _symmetry_equiv_pos_as_xyz
  1  'x, y, z'
loop_
 _atom_site_type_symbol
 _atom_site_label
 _atom_site_symmetry_multiplicity
 _atom_site_fract_x
 _atom_site_fract_y
 _atom_site_fract_z
 _atom_site_occupancy
  Cd  Cd0  1  0.25000000  0.66777088  0.44595286  1
  Cd  Cd1  1  0.75000000  0.33222912  0.55404714  1
  Cd  Cd2  1  0.25000000  0.16777088  0.05404714  1
  Cd  Cd3  1  0.75000000  0.83222912  0.94595286  1
  I  I4  1  0.75000000  0.98125677  0.10530024  1
  I  I5  1  0.25000000  0.01874323  0.89469976  1
  I  I6  1  0.75000000  0.48125677  0.39469976  1
  I  I7  1  0.25000000  0.51874323  0.60530024  1
  I  I8  1  0.75000000  0.83589310  0.51029450  1
  I  I9  1  0.25000000  0.16410690  0.48970550  1
  I  I10  1  0.75000000  0.33589310  0.98970550  1
  I  I11  1  0.25000000  0.66410690  0.01029450  1
  I  I12  1  0.75000000  0.71015228  0.78790587  1
  I  I13  1  0.25000000  0.28984772  0.21209413  1
  I  I14  1  0.75000000  0.21015228  0.71209413  1
  I  I15  1  0.25000000  0.78984772  0.28790587  1
  Tl  Tl16  1  0.25000000  0.95259683  0.67534618  1
  Tl  Tl17  1  0.75000000  0.04740317  0.32465382  1
  Tl  Tl18  1  0.25000000  0.45259683  0.82465382  1
  Tl  Tl19  1  0.75000000  0.54740317  0.17534618  1
