# generated using pymatgen
data_Al(HO)3
_symmetry_space_group_name_H-M   'P 1'
_cell_length_a   5.11272911
_cell_length_b   8.75063767
_cell_length_c   9.69465066
_cell_angle_alpha   92.03211617
_cell_angle_beta   90.00000000
_cell_angle_gamma   90.00000000
_symmetry_Int_Tables_number   1
_chemical_formula_structural   Al(HO)3
_chemical_formula_sum   'Al8 H24 O24'
_cell_volume   433.46240706
_cell_formula_units_Z   8
loop_
 _symmetry_equiv_pos_site_id
 _symmetry_equiv_pos_as_xyz
  1  'x, y, z'
loop_
 _atom_site_type_symbol
 _atom_site_label
 _atom_site_symmetry_multiplicity
 _atom_site_fract_x
 _atom_site_fract_y
 _atom_site_fract_z
 _atom_site_occupancy
  H  H0  1  0.66035411  0.68806343  0.70600017  1
  H  H1  1  0.16035411  0.81193657  0.79399983  1
  H  H2  1  0.33964589  0.31193657  0.29399983  1
  H  H3  1  0.83964589  0.18806343  0.20600017  1
  H  H4  1  0.22406136  0.20519906  0.70842817  1
  H  H5  1  0.72406136  0.29480094  0.79157183  1
  H  H6  1  0.77593864  0.79480094  0.29157183  1
  H  H7  1  0.27593864  0.70519906  0.20842817  1
  H  H8  1  0.68129009  0.45312331  0.38835726  1
  H  H9  1  0.18129009  0.04687669  0.11164274  1
  H  H10  1  0.61340152  -0.00182122  0.70664458  1
  H  H11  1  0.11340152  0.50182122  0.79335542  1
  H  H12  1  0.38659848  1.00182122  0.29335542  1
  H  H13  1  0.88659848  0.49817878  0.20664458  1
  H  H14  1  0.05545626  0.92260833  0.60213748  1
  H  H15  1  0.55545626  0.57739167  0.89786252  1
  H  H16  1  0.94454374  0.07739167  0.39786252  1
  H  H17  1  0.44454374  0.42260833  0.10213748  1
  H  H18  1  0.64105408  0.41855685  0.62442856  1
  H  H19  1  0.14105408  0.08144315  0.87557144  1
  H  H20  1  0.35894592  0.58144315  0.37557144  1
  H  H21  1  0.85894592  0.91855685  0.12442856  1
  H  H22  1  0.31870991  0.54687669  0.61164274  1
  H  H23  1  0.81870991  0.95312331  0.88835726  1
  O  O24  1  0.28047886  0.69843663  0.10633604  1
  O  O25  1  0.78047886  0.80156337  0.39366396  1
  O  O26  1  0.71952114  0.30156337  0.89366396  1
  O  O27  1  0.21952114  0.19843663  0.60633604  1
  O  O28  1  0.85505204  0.17342817  0.10426099  1
  O  O29  1  0.35505204  0.32657183  0.39573901  1
  O  O30  1  0.14494796  0.82657183  0.89573901  1
  O  O31  1  0.64494796  0.67342817  0.60426099  1
  O  O32  1  0.86632632  0.48351747  0.39254941  1
  O  O33  1  0.36632632  0.01648253  0.10745059  1
  O  O34  1  0.63297538  0.99611535  0.60524992  1
  O  O35  1  0.13297538  0.50388465  0.89475008  1
  O  O36  1  0.36702462  0.00388465  0.39475008  1
  O  O37  1  0.86702462  0.49611535  0.10524992  1
  O  O38  1  0.15311625  0.82620078  0.60422052  1
  O  O39  1  0.65311625  0.67379922  0.89577948  1
  O  O40  1  0.84688375  0.17379922  0.39577948  1
  O  O41  1  0.34688375  0.32620078  0.10422052  1
  O  O42  1  0.72037230  0.31747901  0.61281310  1
  O  O43  1  0.22037230  0.18252099  0.88718690  1
  O  O44  1  0.27962770  0.68252099  0.38718690  1
  O  O45  1  0.77962770  0.81747901  0.11281310  1
  O  O46  1  0.13367368  0.51648253  0.60745059  1
  O  O47  1  0.63367368  0.98351747  0.89254941  1
  Al  Al48  1  0.52474683  0.16505775  0.50224000  1
  Al  Al49  1  0.02474683  0.33494225  0.99776000  1
  Al  Al50  1  0.47525317  0.83494225  0.49776000  1
  Al  Al51  1  0.97525317  0.66505775  0.00224000  1
  Al  Al52  1  0.03312455  0.33237413  0.50183354  1
  Al  Al53  1  0.53312455  0.16762587  0.99816646  1
  Al  Al54  1  0.96687545  0.66762587  0.49816646  1
  Al  Al55  1  0.46687545  0.83237413  0.00183354  1
