# generated using pymatgen
data_CCl2O
_symmetry_space_group_name_H-M   'P 1'
_cell_length_a   5.95131882
_cell_length_b   12.26691352
_cell_length_c   12.26691352
_cell_angle_alpha   86.62658779
_cell_angle_beta   75.96136911
_cell_angle_gamma   75.96136917
_symmetry_Int_Tables_number   1
_chemical_formula_structural   CCl2O
_chemical_formula_sum   'C8 Cl16 O8'
_cell_volume   842.84135319
_cell_formula_units_Z   8
loop_
 _symmetry_equiv_pos_site_id
 _symmetry_equiv_pos_as_xyz
  1  'x, y, z'
loop_
 _atom_site_type_symbol
 _atom_site_label
 _atom_site_symmetry_multiplicity
 _atom_site_fract_x
 _atom_site_fract_y
 _atom_site_fract_z
 _atom_site_occupancy
  C  C0  1  0.12107891  0.75997005  0.98291758  1
  C  C1  1  0.10399649  0.51708242  0.75997005  1
  C  C2  1  0.38104896  0.98291758  0.74002995  1
  C  C3  1  0.86396654  0.74002995  0.51708242  1
  C  C4  1  0.87892109  0.24002995  0.01708242  1
  C  C5  1  0.89600351  0.48291758  0.24002995  1
  C  C6  1  0.61895104  0.01708242  0.25997005  1
  C  C7  1  0.13603346  0.25997005  0.48291758  1
  O  O8  1  0.23998623  0.67586979  0.93458008  1
  O  O9  1  0.17456631  0.56541992  0.67586979  1
  O  O10  1  0.41585603  0.93458008  0.82413021  1
  O  O11  1  0.85043611  0.82413021  0.56541992  1
  O  O12  1  0.76001377  0.32413021  0.06541992  1
  O  O13  1  0.82543369  0.43458008  0.32413021  1
  O  O14  1  0.58414397  0.06541992  0.17586979  1
  O  O15  1  0.14956389  0.17586979  0.43458008  1
  Cl  Cl16  1  0.18873821  0.81551128  0.09596166  1
  Cl  Cl17  1  0.28469987  0.40403834  0.81551128  1
  Cl  Cl18  1  0.50424949  0.09596166  0.68448872  1
  Cl  Cl19  1  0.10021115  0.68448872  0.40403834  1
  Cl  Cl20  1  0.81126179  0.18448872  0.90403834  1
  Cl  Cl21  1  0.71530013  0.59596166  0.18448872  1
  Cl  Cl22  1  0.49575051  0.90403834  0.31551128  1
  Cl  Cl23  1  0.89978885  0.31551128  0.59596166  1
  Cl  Cl24  1  0.86235535  0.84003747  0.95080176  1
  Cl  Cl25  1  0.81315710  0.54919824  0.84003747  1
  Cl  Cl26  1  0.20239282  0.95080176  0.65996253  1
  Cl  Cl27  1  0.65319457  0.65996253  0.54919824  1
  Cl  Cl28  1  0.13764465  0.15996253  0.04919824  1
  Cl  Cl29  1  0.18684290  0.45080176  0.15996253  1
  Cl  Cl30  1  0.79760718  0.04919824  0.34003747  1
  Cl  Cl31  1  0.34680543  0.34003747  0.45080176  1
