# generated using pymatgen
data_Ge5(Te4As)2
_symmetry_space_group_name_H-M   'P 1'
_cell_length_a   4.20025501
_cell_length_b   4.20025501
_cell_length_c   27.23070042
_cell_angle_alpha   90.00000000
_cell_angle_beta   90.00000000
_cell_angle_gamma   120.00000007
_symmetry_Int_Tables_number   1
_chemical_formula_structural   Ge5(Te4As)2
_chemical_formula_sum   'Ge5 Te8 As2'
_cell_volume   416.04543475
_cell_formula_units_Z   1
loop_
 _symmetry_equiv_pos_site_id
 _symmetry_equiv_pos_as_xyz
  1  'x, y, z'
loop_
 _atom_site_type_symbol
 _atom_site_label
 _atom_site_symmetry_multiplicity
 _atom_site_fract_x
 _atom_site_fract_y
 _atom_site_fract_z
 _atom_site_occupancy
  Ge  Ge0  1  0.00000000  0.00000000  0.00000000  1
  Ge  Ge1  1  0.33333333  0.66666667  0.74138243  1
  Ge  Ge2  1  0.66666667  0.33333333  0.87107767  1
  Ge  Ge3  1  0.66666667  0.33333333  0.25861757  1
  Ge  Ge4  1  0.33333333  0.66666667  0.12892233  1
  As  As5  1  0.00000000  0.00000000  0.38977095  1
  As  As6  1  0.00000000  0.00000000  0.61022905  1
  Te  Te7  1  0.66666667  0.33333333  0.67839280  1
  Te  Te8  1  0.66666667  0.33333333  0.06414585  1
  Te  Te9  1  0.33333333  0.66666667  0.32160720  1
  Te  Te10  1  0.33333333  0.66666667  0.93585415  1
  Te  Te11  1  0.00000000  0.00000000  0.19271852  1
  Te  Te12  1  0.00000000  0.00000000  0.80728148  1
  Te  Te13  1  0.66666667  0.33333333  0.44572621  1
  Te  Te14  1  0.33333333  0.66666667  0.55427379  1
