# generated using pymatgen
data_Tl2Te3
_symmetry_space_group_name_H-M   'P 1'
_cell_length_a   6.66002404
_cell_length_b   7.47172242
_cell_length_c   8.18005658
_cell_angle_alpha   103.84741472
_cell_angle_beta   90.00000000
_cell_angle_gamma   116.46697973
_symmetry_Int_Tables_number   1
_chemical_formula_structural   Tl2Te3
_chemical_formula_sum   'Tl4 Te6'
_cell_volume   351.12699012
_cell_formula_units_Z   2
loop_
 _symmetry_equiv_pos_site_id
 _symmetry_equiv_pos_as_xyz
  1  'x, y, z'
loop_
 _atom_site_type_symbol
 _atom_site_label
 _atom_site_symmetry_multiplicity
 _atom_site_fract_x
 _atom_site_fract_y
 _atom_site_fract_z
 _atom_site_occupancy
  Te  Te0  1  0.32293124  0.35672895  0.07300179  1
  Te  Te1  1  0.96620229  0.64327105  0.42699821  1
  Te  Te2  1  0.67706876  0.64327105  0.92699821  1
  Te  Te3  1  0.03379771  0.35672895  0.57300179  1
  Te  Te4  1  0.86353243  0.00000000  0.25000000  1
  Te  Te5  1  0.13646757  0.00000000  0.75000000  1
  Tl  Tl6  1  0.54838625  0.78377169  0.55072015  1
  Tl  Tl7  1  0.76461456  0.21622831  0.94927985  1
  Tl  Tl8  1  0.45161375  0.21622831  0.44927985  1
  Tl  Tl9  1  0.23538544  0.78377169  0.05072015  1
