# generated using pymatgen
data_Rb4Hg5Te13
_symmetry_space_group_name_H-M   'P 1'
_cell_length_a   9.37265463
_cell_length_b   10.26030948
_cell_length_c   35.49147830
_cell_angle_alpha   90.00000000
_cell_angle_beta   90.00000000
_cell_angle_gamma   90.00000000
_symmetry_Int_Tables_number   1
_chemical_formula_structural   Rb4Hg5Te13
_chemical_formula_sum   'Rb16 Hg20 Te52'
_cell_volume   3413.08546825
_cell_formula_units_Z   4
loop_
 _symmetry_equiv_pos_site_id
 _symmetry_equiv_pos_as_xyz
  1  'x, y, z'
loop_
 _atom_site_type_symbol
 _atom_site_label
 _atom_site_symmetry_multiplicity
 _atom_site_fract_x
 _atom_site_fract_y
 _atom_site_fract_z
 _atom_site_occupancy
  Rb  Rb0  1  0.99286725  0.22559651  0.48485336  1
  Rb  Rb1  1  0.49286725  0.77440349  0.51514664  1
  Rb  Rb2  1  0.50713275  0.72559651  0.01514664  1
  Rb  Rb3  1  0.00713275  0.27440349  0.98485336  1
  Rb  Rb4  1  0.00713275  0.77440349  0.51514664  1
  Rb  Rb5  1  0.50713275  0.22559651  0.48485336  1
  Rb  Rb6  1  0.49286725  0.27440349  0.98485336  1
  Rb  Rb7  1  0.99286725  0.72559651  0.01514664  1
  Rb  Rb8  1  0.75000000  0.58298827  0.34039610  1
  Rb  Rb9  1  0.25000000  0.41701173  0.65960390  1
  Rb  Rb10  1  0.75000000  0.08298827  0.15960390  1
  Rb  Rb11  1  0.25000000  0.91701173  0.84039610  1
  Rb  Rb12  1  0.25000000  0.08790509  0.25340164  1
  Rb  Rb13  1  0.75000000  0.91209491  0.74659836  1
  Rb  Rb14  1  0.25000000  0.58790509  0.24659836  1
  Rb  Rb15  1  0.75000000  0.41209491  0.75340164  1
  Te  Te16  1  0.02757533  0.87034209  0.32468373  1
  Te  Te17  1  0.52757533  0.12965791  0.67531627  1
  Te  Te18  1  0.47242467  0.37034209  0.17531627  1
  Te  Te19  1  0.97242467  0.62965791  0.82468373  1
  Te  Te20  1  0.97242467  0.12965791  0.67531627  1
  Te  Te21  1  0.47242467  0.87034209  0.32468373  1
  Te  Te22  1  0.52757533  0.62965791  0.82468373  1
  Te  Te23  1  0.02757533  0.37034209  0.17531627  1
  Te  Te24  1  0.25000000  0.93047643  0.44181417  1
  Te  Te25  1  0.75000000  0.06952357  0.55818583  1
  Te  Te26  1  0.25000000  0.43047643  0.05818583  1
  Te  Te27  1  0.75000000  0.56952357  0.94181417  1
  Te  Te28  1  0.75000000  0.14043181  0.40370961  1
  Te  Te29  1  0.25000000  0.85956819  0.59629039  1
  Te  Te30  1  0.75000000  0.64043181  0.09629039  1
  Te  Te31  1  0.25000000  0.35956819  0.90370961  1
  Te  Te32  1  0.75000000  0.89350998  0.43693484  1
  Te  Te33  1  0.25000000  0.10649002  0.56306516  1
  Te  Te34  1  0.75000000  0.39350998  0.06306516  1
  Te  Te35  1  0.25000000  0.60649002  0.93693484  1
  Te  Te36  1  0.25000000  0.20516439  0.40103226  1
  Te  Te37  1  0.75000000  0.79483561  0.59896774  1
  Te  Te38  1  0.25000000  0.70516439  0.09896774  1
  Te  Te39  1  0.75000000  0.29483561  0.90103226  1
  Te  Te40  1  0.25000000  0.44673030  0.35524128  1
  Te  Te41  1  0.75000000  0.55326970  0.64475872  1
  Te  Te42  1  0.25000000  0.94673030  0.14475872  1
  Te  Te43  1  0.75000000  0.05326970  0.85524128  1
  Te  Te44  1  0.75000000  0.20544704  0.26551466  1
  Te  Te45  1  0.25000000  0.79455296  0.73448534  1
  Te  Te46  1  0.75000000  0.70544704  0.23448534  1
  Te  Te47  1  0.25000000  0.29455296  0.76551466  1
  Te  Te48  1  0.99704290  0.33339991  0.30194829  1
  Te  Te49  1  0.49704290  0.66660009  0.69805171  1
  Te  Te50  1  0.50295710  0.83339991  0.19805171  1
  Te  Te51  1  0.00295710  0.16660009  0.80194829  1
  Te  Te52  1  0.00295710  0.66660009  0.69805171  1
  Te  Te53  1  0.50295710  0.33339991  0.30194829  1
  Te  Te54  1  0.49704290  0.16660009  0.80194829  1
  Te  Te55  1  0.99704290  0.83339991  0.19805171  1
  Te  Te56  1  0.75000000  0.53740675  0.46838036  1
  Te  Te57  1  0.25000000  0.46259325  0.53161964  1
  Te  Te58  1  0.75000000  0.03740675  0.03161964  1
  Te  Te59  1  0.25000000  0.96259325  0.96838036  1
  Te  Te60  1  0.99442588  0.52091440  0.42061906  1
  Te  Te61  1  0.49442588  0.47908560  0.57938094  1
  Te  Te62  1  0.50557412  0.02091440  0.07938094  1
  Te  Te63  1  0.00557412  0.97908560  0.92061906  1
  Te  Te64  1  0.00557412  0.47908560  0.57938094  1
  Te  Te65  1  0.50557412  0.52091440  0.42061906  1
  Te  Te66  1  0.49442588  0.97908560  0.92061906  1
  Te  Te67  1  0.99442588  0.02091440  0.07938094  1
  Hg  Hg68  1  0.75000000  0.94411286  0.30290798  1
  Hg  Hg69  1  0.25000000  0.05588714  0.69709202  1
  Hg  Hg70  1  0.75000000  0.44411286  0.19709202  1
  Hg  Hg71  1  0.25000000  0.55588714  0.80290798  1
  Hg  Hg72  1  0.02479920  0.79090473  0.40306983  1
  Hg  Hg73  1  0.52479920  0.20909527  0.59693017  1
  Hg  Hg74  1  0.47520080  0.29090473  0.09693017  1
  Hg  Hg75  1  0.97520080  0.70909527  0.90306983  1
  Hg  Hg76  1  0.97520080  0.20909527  0.59693017  1
  Hg  Hg77  1  0.47520080  0.79090473  0.40306983  1
  Hg  Hg78  1  0.52479920  0.70909527  0.90306983  1
  Hg  Hg79  1  0.02479920  0.29090473  0.09693017  1
  Hg  Hg80  1  0.00820731  0.12766368  0.35552346  1
  Hg  Hg81  1  0.50820731  0.87233632  0.64447654  1
  Hg  Hg82  1  0.49179269  0.62766368  0.14447654  1
  Hg  Hg83  1  0.99179269  0.37233632  0.85552346  1
  Hg  Hg84  1  0.99179269  0.87233632  0.64447654  1
  Hg  Hg85  1  0.49179269  0.12766368  0.35552346  1
  Hg  Hg86  1  0.50820731  0.37233632  0.85552346  1
  Hg  Hg87  1  0.00820731  0.62766368  0.14447654  1
