# generated using pymatgen
data_Mg3(HO2)2
_symmetry_space_group_name_H-M   'P 1'
_cell_length_a   3.07281331
_cell_length_b   3.07281331
_cell_length_c   19.77834693
_cell_angle_alpha   90.00000000
_cell_angle_beta   90.00000000
_cell_angle_gamma   120.00000006
_symmetry_Int_Tables_number   1
_chemical_formula_structural   Mg3(HO2)2
_chemical_formula_sum   'Mg6 H4 O8'
_cell_volume   161.73088881
_cell_formula_units_Z   2
loop_
 _symmetry_equiv_pos_site_id
 _symmetry_equiv_pos_as_xyz
  1  'x, y, z'
loop_
 _atom_site_type_symbol
 _atom_site_label
 _atom_site_symmetry_multiplicity
 _atom_site_fract_x
 _atom_site_fract_y
 _atom_site_fract_z
 _atom_site_occupancy
  H  H0  1  0.33333333  0.66666667  0.97678247  1
  H  H1  1  0.66666667  0.33333333  0.02321753  1
  H  H2  1  0.66666667  0.33333333  0.47630402  1
  H  H3  1  0.33333333  0.66666667  0.52369598  1
  O  O4  1  0.33333333  0.66666667  0.92780114  1
  O  O5  1  0.00000000  0.00000000  0.68835614  1
  O  O6  1  0.66666667  0.33333333  0.42735069  1
  O  O7  1  0.33333333  0.66666667  0.57264931  1
  O  O8  1  0.66666667  0.33333333  0.07219886  1
  O  O9  1  0.33333333  0.66666667  0.18807416  1
  O  O10  1  0.00000000  0.00000000  0.31164386  1
  O  O11  1  0.66666667  0.33333333  0.81192584  1
  Mg  Mg12  1  0.66666667  0.33333333  0.24986942  1
  Mg  Mg13  1  0.33333333  0.66666667  0.37367282  1
  Mg  Mg14  1  0.66666667  0.33333333  0.62632718  1
  Mg  Mg15  1  0.33333333  0.66666667  0.75013058  1
  Mg  Mg16  1  0.00000000  0.00000000  0.87408698  1
  Mg  Mg17  1  0.00000000  0.00000000  0.12591302  1
