# generated using pymatgen
data_TiH12N2(O2F3)2
_symmetry_space_group_name_H-M   'P 1'
_cell_length_a   6.27249120
_cell_length_b   10.13070231
_cell_length_c   7.49484985
_cell_angle_alpha   90.00000000
_cell_angle_beta   110.47799344
_cell_angle_gamma   90.00000000
_symmetry_Int_Tables_number   1
_chemical_formula_structural   TiH12N2(O2F3)2
_chemical_formula_sum   'Ti2 H24 N4 O8 F12'
_cell_volume   446.16192684
_cell_formula_units_Z   2
loop_
 _symmetry_equiv_pos_site_id
 _symmetry_equiv_pos_as_xyz
  1  'x, y, z'
loop_
 _atom_site_type_symbol
 _atom_site_label
 _atom_site_symmetry_multiplicity
 _atom_site_fract_x
 _atom_site_fract_y
 _atom_site_fract_z
 _atom_site_occupancy
  Ti  Ti0  1  0.00000000  0.50000000  0.50000000  1
  Ti  Ti1  1  0.00000000  0.00000000  0.00000000  1
  H  H2  1  0.51515038  0.22703318  0.32086876  1
  H  H3  1  0.48484962  0.72703318  0.17913124  1
  H  H4  1  0.48484962  0.77296682  0.67913124  1
  H  H5  1  0.51515038  0.27296682  0.82086876  1
  H  H6  1  0.44417037  0.37871800  0.38099907  1
  H  H7  1  0.55582963  0.87871800  0.11900093  1
  H  H8  1  0.55582963  0.62128200  0.61900093  1
  H  H9  1  0.44417037  0.12128200  0.88099907  1
  H  H10  1  0.23594214  0.26348651  0.27915500  1
  H  H11  1  0.76405786  0.76348651  0.22084500  1
  H  H12  1  0.76405786  0.73651349  0.72084500  1
  H  H13  1  0.23594214  0.23651349  0.77915500  1
  H  H14  1  0.32927807  0.44454247  0.09871105  1
  H  H15  1  0.67072193  0.94454247  0.40128895  1
  H  H16  1  0.67072193  0.55545753  0.90128895  1
  H  H17  1  0.32927807  0.05545753  0.59871105  1
  H  H18  1  0.84335003  0.37445480  0.83396398  1
  H  H19  1  0.15664997  0.87445480  0.66603602  1
  H  H20  1  0.15664997  0.62554520  0.16603602  1
  H  H21  1  0.84335003  0.12554520  0.33396398  1
  H  H22  1  0.82019456  0.37336491  0.03997352  1
  H  H23  1  0.17980544  0.87336491  0.46002648  1
  H  H24  1  0.17980544  0.62663509  0.96002648  1
  H  H25  1  0.82019456  0.12663509  0.53997352  1
  N  N26  1  0.39086112  0.30197310  0.28298184  1
  N  N27  1  0.60913888  0.80197310  0.21701816  1
  N  N28  1  0.60913888  0.69802690  0.71701816  1
  N  N29  1  0.39086112  0.19802690  0.78298184  1
  O  O30  1  0.36911291  0.34777529  0.09887887  1
  O  O31  1  0.63088709  0.84777529  0.40112113  1
  O  O32  1  0.63088709  0.65222471  0.90112113  1
  O  O33  1  0.36911291  0.15222471  0.59887887  1
  O  O34  1  0.73831170  0.39277272  0.90339232  1
  O  O35  1  0.26168830  0.89277272  0.59660768  1
  O  O36  1  0.26168830  0.60722728  0.09660768  1
  O  O37  1  0.73831170  0.10722728  0.40339232  1
  F  F38  1  0.05709339  0.61785755  0.70664776  1
  F  F39  1  0.94290661  0.11785755  0.79335224  1
  F  F40  1  0.94290661  0.38214245  0.29335224  1
  F  F41  1  0.05709339  0.88214245  0.20664776  1
  F  F42  1  0.99397372  0.36049490  0.66888260  1
  F  F43  1  0.00602628  0.86049490  0.83111740  1
  F  F44  1  0.00602628  0.63950510  0.33111740  1
  F  F45  1  0.99397372  0.13950510  0.16888260  1
  F  F46  1  0.31650623  0.47767317  0.55900730  1
  F  F47  1  0.68349377  0.97767317  0.94099270  1
  F  F48  1  0.68349377  0.52232683  0.44099270  1
  F  F49  1  0.31650623  0.02232683  0.05900730  1
