# generated using pymatgen
data_Al2ZnS4
_symmetry_space_group_name_H-M   'P 1'
_cell_length_a   3.71035806
_cell_length_b   3.71514557
_cell_length_c   25.66861659
_cell_angle_alpha   90.00000000
_cell_angle_beta   90.06647553
_cell_angle_gamma   120.04268178
_symmetry_Int_Tables_number   1
_chemical_formula_structural   Al2ZnS4
_chemical_formula_sum   'Al4 Zn2 S8'
_cell_volume   306.29324218
_cell_formula_units_Z   2
loop_
 _symmetry_equiv_pos_site_id
 _symmetry_equiv_pos_as_xyz
  1  'x, y, z'
loop_
 _atom_site_type_symbol
 _atom_site_label
 _atom_site_symmetry_multiplicity
 _atom_site_fract_x
 _atom_site_fract_y
 _atom_site_fract_z
 _atom_site_occupancy
  Al  Al0  1  0.99947113  0.99973557  0.24999775  1
  Al  Al1  1  0.00052887  0.00026443  0.75000225  1
  Al  Al2  1  0.33386498  0.66693249  0.10640753  1
  Al  Al3  1  0.66613502  0.33306751  0.89359247  1
  Zn  Zn4  1  0.33387030  0.66693515  0.58665739  1
  Zn  Zn5  1  0.66612970  0.33306485  0.41334261  1
  S  S6  1  0.33310768  0.66655384  0.70817341  1
  S  S7  1  0.66689232  0.33344616  0.29182659  1
  S  S8  1  0.33431462  0.66715731  0.43066897  1
  S  S9  1  0.66568538  0.33284269  0.56933103  1
  S  S10  1  0.33363188  0.66681594  0.19212236  1
  S  S11  1  0.66636812  0.33318406  0.80787764  1
  S  S12  1  0.33349563  0.66674782  0.93037270  1
  S  S13  1  0.66650437  0.33325218  0.06962730  1
