# generated using pymatgen
data_Li2Mn3(P2O7)2
_symmetry_space_group_name_H-M   'P 1'
_cell_length_a   5.34609467
_cell_length_b   6.66996433
_cell_length_c   16.07722400
_cell_angle_alpha   82.34196877
_cell_angle_beta   83.49813125
_cell_angle_gamma   71.85262206
_symmetry_Int_Tables_number   1
_chemical_formula_structural   Li2Mn3(P2O7)2
_chemical_formula_sum   'Li4 Mn6 P8 O28'
_cell_volume   538.34271198
_cell_formula_units_Z   2
loop_
 _symmetry_equiv_pos_site_id
 _symmetry_equiv_pos_as_xyz
  1  'x, y, z'
loop_
 _atom_site_type_symbol
 _atom_site_label
 _atom_site_symmetry_multiplicity
 _atom_site_fract_x
 _atom_site_fract_y
 _atom_site_fract_z
 _atom_site_occupancy
  Li  Li0  1  0.08910605  0.18285598  0.98470258  1
  Li  Li1  1  0.34222437  0.68781674  0.11630792  1
  Li  Li2  1  0.65777653  0.31218357  0.88369182  1
  Li  Li3  1  0.91089485  0.81714434  0.01529778  1
  O  O4  1  0.14376759  0.62079754  0.53674090  1
  O  O5  1  0.75890569  0.69822944  0.93527676  1
  O  O6  1  0.77242612  0.70310971  0.71543938  1
  O  O7  1  0.96097930  0.70866798  0.15411554  1
  O  O8  1  0.81900623  0.34805858  0.66429495  1
  O  O9  1  0.85623142  0.37920277  0.46325892  1
  O  O10  1  0.01093815  0.02649858  0.21258277  1
  O  O11  1  0.24109392  0.30176928  0.06472374  1
  O  O12  1  0.22757289  0.29689060  0.28456043  1
  O  O13  1  0.03902161  0.29133233  0.84588420  1
  O  O14  1  0.18099279  0.65194173  0.33570549  1
  O  O15  1  0.98906145  0.97350014  0.78741711  1
  O  O16  1  0.28382985  0.85527996  0.00417739  1
  O  O17  1  0.33456810  0.14765735  0.71247525  1
  O  O18  1  0.58589270  0.04326160  0.14684814  1
  O  O19  1  0.11746755  0.97777397  0.58254420  1
  O  O20  1  0.44711912  0.31495745  0.41127174  1
  O  O21  1  0.58338694  0.15640069  0.54850003  1
  O  O22  1  0.62377942  0.41845299  0.09979062  1
  O  O23  1  0.71616976  0.14471876  0.99582311  1
  O  O24  1  0.37985284  0.55079088  0.73199568  1
  O  O25  1  0.37622148  0.58154732  0.90020912  1
  O  O26  1  0.41661208  0.84359963  0.45149978  1
  O  O27  1  0.55288238  0.68504127  0.58872869  1
  O  O28  1  0.88253395  0.02222475  0.41745622  1
  O  O29  1  0.41410632  0.95673871  0.85315229  1
  O  O30  1  0.66543091  0.85234296  0.28752456  1
  O  O31  1  0.62014617  0.44920943  0.26800475  1
  P  P32  1  0.81883509  0.90013631  0.20555970  1
  P  P33  1  0.62741549  0.56727105  0.68135152  1
  P  P34  1  0.46066598  0.76061818  0.92735527  1
  P  P35  1  0.71112838  0.21489949  0.46157867  1
  P  P36  1  0.28887123  0.78509923  0.53842184  1
  P  P37  1  0.53933493  0.23938213  0.07264447  1
  P  P38  1  0.18116392  0.09986400  0.79444012  1
  P  P39  1  0.37258352  0.43272926  0.31864829  1
  Mn  Mn40  1  0.16687158  0.29476886  0.57894191  1
  Mn  Mn41  1  0.04799566  0.62699159  0.81753964  1
  Mn  Mn42  1  0.24476454  0.96874164  0.32981620  1
  Mn  Mn43  1  0.75523637  0.03125868  0.67018416  1
  Mn  Mn44  1  0.95200524  0.37300872  0.18246010  1
  Mn  Mn45  1  0.83312743  0.70523145  0.42105790  1
