# generated using pymatgen
data_Li3Cr3(PO4)4
_symmetry_space_group_name_H-M   'P 1'
_cell_length_a   6.39253657
_cell_length_b   10.14331523
_cell_length_c   10.49596847
_cell_angle_alpha   89.93139240
_cell_angle_beta   90.00000000
_cell_angle_gamma   71.63249657
_symmetry_Int_Tables_number   1
_chemical_formula_structural   Li3Cr3(PO4)4
_chemical_formula_sum   'Li6 Cr6 P8 O32'
_cell_volume   645.90202346
_cell_formula_units_Z   2
loop_
 _symmetry_equiv_pos_site_id
 _symmetry_equiv_pos_as_xyz
  1  'x, y, z'
loop_
 _atom_site_type_symbol
 _atom_site_label
 _atom_site_symmetry_multiplicity
 _atom_site_fract_x
 _atom_site_fract_y
 _atom_site_fract_z
 _atom_site_occupancy
  Li  Li0  1  0.17559254  0.86885813  0.95224577  1
  Li  Li1  1  0.46995628  0.99999995  0.25000016  1
  Li  Li2  1  0.53004322  0.99999984  0.74999954  1
  Li  Li3  1  0.82440732  0.13114190  0.04775404  1
  Li  Li4  1  0.04445180  0.13114180  0.54775437  1
  Li  Li5  1  0.95554806  0.86885823  0.45224544  1
  O  O6  1  0.94725269  0.70111881  0.99538821  1
  O  O7  1  0.42578495  0.17127731  0.10795206  1
  O  O8  1  0.37071224  0.15484903  0.86890997  1
  O  O9  1  0.47443964  0.15484914  0.36891060  1
  O  O10  1  0.78600981  0.04294868  0.52786646  1
  O  O11  1  0.17104242  0.04294879  0.02786709  1
  O  O12  1  0.82895743  0.95705125  0.97213367  1
  O  O13  1  0.21399163  0.95705135  0.47213334  1
  O  O14  1  0.52556022  0.84515090  0.63108921  1
  O  O15  1  0.62928919  0.84515100  0.13108984  1
  O  O16  1  0.57421491  0.82872272  0.89204774  1
  O  O17  1  0.59706320  0.82872178  0.39204742  1
  O  O18  1  0.72360269  0.50827223  0.36445679  1
  O  O19  1  0.35162723  0.70111891  0.49538884  1
  O  O20  1  0.31832335  0.69345256  0.78280730  1
  O  O21  1  0.94361312  0.68854225  0.71871161  1
  O  O22  1  0.05274717  0.29888123  0.00461160  1
  O  O23  1  0.36784494  0.68854235  0.21871128  1
  O  O24  1  0.76812549  0.50827212  0.86445616  1
  O  O25  1  0.69126443  0.51414852  0.64463494  1
  O  O26  1  0.40293718  0.17127721  0.60795239  1
  O  O27  1  0.79458578  0.51414863  0.14463461  1
  O  O28  1  0.20541408  0.48585140  0.85536520  1
  O  O29  1  0.27639717  0.49172780  0.63554301  1
  O  O30  1  0.30873543  0.48585151  0.35536487  1
  O  O31  1  0.23187594  0.49172791  0.13554364  1
  O  O32  1  0.63215649  0.31145768  0.78128852  1
  O  O33  1  0.01177546  0.30654737  0.71719188  1
  O  O34  1  0.05638674  0.31145779  0.28128819  1
  O  O35  1  0.68167650  0.30654748  0.21719251  1
  O  O36  1  0.64837262  0.29888112  0.50461193  1
  O  O37  1  0.98822439  0.69345266  0.28280793  1
  P  P38  1  0.41947941  0.83531687  0.49830441  1
  P  P39  1  0.17959082  0.60077243  0.74696219  1
  P  P40  1  0.21963610  0.60077253  0.24696186  1
  P  P41  1  0.78036376  0.39922750  0.75303795  1
  P  P42  1  0.82040904  0.39922761  0.25303858  1
  P  P43  1  0.58052044  0.16468316  0.50169540  1
  P  P44  1  0.74520413  0.83531677  0.99830474  1
  P  P45  1  0.25479573  0.16468327  0.00169602  1
  Cr  Cr46  1  0.36526160  0.31272994  0.24531210  1
  Cr  Cr47  1  0.32200790  0.31272983  0.74531243  1
  Cr  Cr48  1  0.99999965  0.49999960  0.00000006  1
  Cr  Cr49  1  0.50000019  0.49999950  0.50000039  1
  Cr  Cr50  1  0.67799195  0.68727020  0.25468737  1
  Cr  Cr51  1  0.63473826  0.68727010  0.75468770  1
