# generated using pymatgen
data_Li3Mn2(PO4)3
_symmetry_space_group_name_H-M   'P 1'
_cell_length_a   8.91078382
_cell_length_b   9.53200013
_cell_length_c   8.91078382
_cell_angle_alpha   56.62542949
_cell_angle_beta   122.54488858
_cell_angle_gamma   123.37457052
_symmetry_Int_Tables_number   1
_chemical_formula_structural   Li3Mn2(PO4)3
_chemical_formula_sum   'Li6 Mn4 P6 O24'
_cell_volume   496.85617061
_cell_formula_units_Z   2
loop_
 _symmetry_equiv_pos_site_id
 _symmetry_equiv_pos_as_xyz
  1  'x, y, z'
loop_
 _atom_site_type_symbol
 _atom_site_label
 _atom_site_symmetry_multiplicity
 _atom_site_fract_x
 _atom_site_fract_y
 _atom_site_fract_z
 _atom_site_occupancy
  Li  Li0  1  0.32200720  0.57149381  0.95065665  1
  Li  Li1  1  0.04934300  0.07149314  0.67799310  1
  Li  Li2  1  0.62560242  0.81203141  0.57858955  1
  Li  Li3  1  0.42141140  0.31203213  0.37439709  1
  Li  Li4  1  0.92328437  0.84877779  0.24481611  1
  Li  Li5  1  0.75518320  0.34877846  0.07671540  1
  O  O6  1  0.28344522  0.92017676  0.36143685  1
  O  O7  1  0.96382434  0.59330020  0.10541553  1
  O  O8  1  0.95310171  0.28483201  0.49066286  1
  O  O9  1  0.61368914  0.21037979  0.26725231  1
  O  O10  1  0.13298274  0.94194664  0.98008330  1
  O  O11  1  0.01991667  0.44194599  0.86701724  1
  O  O12  1  0.04343787  0.68235967  0.50715955  1
  O  O13  1  0.39492473  0.73795399  0.72147855  1
  O  O14  1  0.89458449  0.09329955  0.03617556  1
  O  O15  1  0.79715392  0.78772438  1.00075814  1
  O  O16  1  0.26809493  0.59667580  0.49693169  1
  O  O17  1  0.49284003  0.18235903  0.95656151  1
  O  O18  1  0.27852025  0.23795329  0.60507578  1
  O  O19  1  0.63856344  0.42017609  0.71655556  1
  O  O20  1  0.70382089  0.03930078  0.62705449  1
  O  O21  1  -0.00075852  0.28772370  0.20284681  1
  O  O22  1  0.52384395  0.85944596  0.29532500  1
  O  O23  1  0.50306856  0.09667650  0.73190438  1
  O  O24  1  0.37294624  0.53930144  0.29617968  1
  O  O25  1  0.73274754  0.71038044  0.38631082  1
  O  O26  1  0.50933689  0.78483129  0.04689935  1
  O  O27  1  0.24852055  0.29644446  0.12881604  1
  O  O28  1  0.70467550  0.35944669  0.47615499  1
  O  O29  1  0.87118452  0.79644513  0.75147937  1
  P  P30  1  0.74372407  0.22816461  0.46588383  1
  P  P31  1  0.04002761  0.27403330  0.06026837  1
  P  P32  1  0.53411660  0.72816528  0.25627598  1
  P  P33  1  0.47443832  0.23075992  0.75199093  1
  P  P34  1  0.24800905  0.73076060  0.52556072  1
  P  P35  1  0.93973069  0.77403260  0.95997228  1
  Mn  Mn36  1  0.64469787  0.94327678  0.85757833  1
  Mn  Mn37  1  0.14242179  0.44327745  0.35530229  1
  Mn  Mn38  1  0.84481240  0.53637979  0.62227420  1
  Mn  Mn39  1  0.37772552  0.03637911  0.15518811  1
