# generated using pymatgen
data_LiMn(PO3)4
_symmetry_space_group_name_H-M   'P 1'
_cell_length_a   9.31460982
_cell_length_b   9.31474342
_cell_length_c   9.33275108
_cell_angle_alpha   90.03473072
_cell_angle_beta   90.02584272
_cell_angle_gamma   90.00277014
_symmetry_Int_Tables_number   1
_chemical_formula_structural   LiMn(PO3)4
_chemical_formula_sum   'Li4 Mn4 P16 O48'
_cell_volume   809.73912110
_cell_formula_units_Z   4
loop_
 _symmetry_equiv_pos_site_id
 _symmetry_equiv_pos_as_xyz
  1  'x, y, z'
loop_
 _atom_site_type_symbol
 _atom_site_label
 _atom_site_symmetry_multiplicity
 _atom_site_fract_x
 _atom_site_fract_y
 _atom_site_fract_z
 _atom_site_occupancy
  Li  Li0  1  0.49999648  0.50004708  0.74999891  1
  Li  Li1  1  0.99995822  0.99993841  0.74998485  1
  Li  Li2  1  0.99977240  0.50028175  0.25001075  1
  Li  Li3  1  0.50029995  0.99967308  0.24999064  1
  Mn  Mn4  1  0.24980204  0.25001209  0.75015656  1
  Mn  Mn5  1  0.25003777  0.24998032  0.25003297  1
  Mn  Mn6  1  0.75003272  0.74991777  0.74998107  1
  Mn  Mn7  1  0.75020261  0.74997926  0.24995018  1
  P  P8  1  0.25007676  0.98066400  0.00006519  1
  P  P9  1  0.01965615  0.75001360  0.99992351  1
  P  P10  1  0.51933826  0.24987237  0.49999094  1
  P  P11  1  0.74993322  0.02851745  0.99998366  1
  P  P12  1  0.97153002  0.25002102  0.00009818  1
  P  P13  1  0.48031015  0.74992591  0.00003528  1
  P  P14  1  0.75005099  0.47146544  0.00008971  1
  P  P15  1  0.74992523  0.48038702  0.50001838  1
  P  P16  1  0.47147373  0.75008024  0.49998103  1
  P  P17  1  0.25000498  0.97149475  0.50000468  1
  P  P18  1  0.52850545  0.25001489  0.00002209  1
  P  P19  1  0.02854527  0.74994271  0.49992063  1
  P  P20  1  0.24998418  0.52845084  0.49990116  1
  P  P21  1  0.75000538  0.01972794  0.49994879  1
  P  P22  1  0.25003918  0.51941128  -0.00000188  1
  P  P23  1  0.98064086  0.24994270  0.49997597  1
  O  O24  1  0.62922836  0.37061890  0.56354735  1
  O  O25  1  0.86420530  0.36417694  0.92685438  1
  O  O26  1  0.54943195  0.82278406  0.37908840  1
  O  O27  1  0.04943356  0.32279442  0.12096076  1
  O  O28  1  0.62923352  0.12935950  0.43637642  1
  O  O29  1  0.12937957  0.87076182  0.93643516  1
  O  O30  1  0.68746861  0.55940234  0.37459287  1
  O  O31  1  0.67721714  0.95061686  0.12089528  1
  O  O32  1  0.45060798  0.17722866  0.12094303  1
  O  O33  1  0.44026997  0.18745017  0.62535856  1
  O  O34  1  0.17722200  0.45060819  0.37906633  1
  O  O35  1  0.87083978  0.12942588  0.56352531  1
  O  O36  1  0.13586254  0.63581681  0.57319262  1
  O  O37  1  0.18750434  0.05977298  0.12543189  1
  O  O38  1  0.87083406  0.37070700  0.43664965  1
  O  O39  1  0.45047378  0.32283684  0.87905084  1
  O  O40  1  0.82278860  0.54948888  0.12094359  1
  O  O41  1  0.63575093  0.13583748  0.92676199  1
  O  O42  1  0.04934745  0.17705926  0.87904793  1
  O  O43  1  0.44022013  0.31245800  0.37457212  1
  O  O44  1  0.55930470  0.81248370  0.87447605  1
  O  O45  1  0.95059893  0.67719967  0.37905263  1
  O  O46  1  0.36421321  0.63581933  0.42682391  1
  O  O47  1  0.31253076  0.44027864  0.12543235  1
  O  O48  1  0.55943245  0.68752416  0.12538314  1
  O  O49  1  0.32295243  0.45064220  0.62096586  1
  O  O50  1  0.13580521  0.86421077  0.42684061  1
  O  O51  1  0.54951559  0.67730553  0.62096653  1
  O  O52  1  0.63581173  0.36423126  0.07316914  1
  O  O53  1  0.81245821  0.55947226  0.62559403  1
  O  O54  1  0.68753392  0.94067122  0.62551033  1
  O  O55  1  0.67718939  0.54940917  0.87902053  1
  O  O56  1  0.81248981  0.94050226  0.37454090  1
  O  O57  1  0.32279555  0.04937769  0.37905465  1
  O  O58  1  0.05975628  0.18750027  0.37458656  1
  O  O59  1  0.12927847  0.62918166  0.06336047  1
  O  O60  1  0.94058600  0.81256485  0.12541938  1
  O  O61  1  0.94049854  0.68754169  0.87438333  1
  O  O62  1  0.18741190  0.44003402  0.87448452  1
  O  O63  1  0.31255351  0.05970506  0.87467243  1
  O  O64  1  0.17716547  0.04953423  0.62097043  1
  O  O65  1  0.05993801  0.31259462  0.62556149  1
  O  O66  1  0.82270703  0.95051126  0.87903851  1
  O  O67  1  0.86419530  0.13581867  0.07317528  1
  O  O68  1  0.36418912  0.86425541  0.57323201  1
  O  O69  1  0.37052412  0.62919603  0.93638642  1
  O  O70  1  0.37062217  0.87077269  0.06359000  1
  O  O71  1  0.95061561  0.82281177  0.62094981  1
