# generated using pymatgen
data_LiMn2(PO4)3
_symmetry_space_group_name_H-M   'P 1'
_cell_length_a   8.77930377
_cell_length_b   8.25892923
_cell_length_c   8.26026859
_cell_angle_alpha   59.39285407
_cell_angle_beta   61.89243673
_cell_angle_gamma   61.80785328
_symmetry_Int_Tables_number   1
_chemical_formula_structural   LiMn2(PO4)3
_chemical_formula_sum   'Li2 Mn4 P6 O24'
_cell_volume   432.83536341
_cell_formula_units_Z   2
loop_
 _symmetry_equiv_pos_site_id
 _symmetry_equiv_pos_as_xyz
  1  'x, y, z'
loop_
 _atom_site_type_symbol
 _atom_site_label
 _atom_site_symmetry_multiplicity
 _atom_site_fract_x
 _atom_site_fract_y
 _atom_site_fract_z
 _atom_site_occupancy
  Li  Li0  1  0.13254087  0.69107353  0.24801159  1
  Li  Li1  1  0.86745916  0.30892653  0.75198835  1
  O  O2  1  0.26208191  0.88398498  0.11322920  1
  O  O3  1  0.89829584  0.48220189  0.82966076  1
  O  O4  1  0.91396286  0.78018515  0.46584522  1
  O  O5  1  0.79448085  0.53125011  0.49937360  1
  O  O6  1  0.09958379  0.17200967  0.21366669  1
  O  O7  1  0.10170418  0.51779817  0.17033918  1
  O  O8  1  0.08603716  0.21981491  0.53415473  1
  O  O9  1  0.20551917  0.46874995  0.50062635  1
  O  O10  1  0.26782049  0.11247107  0.74145229  1
  O  O11  1  0.42712416  0.19890353  0.37383700  1
  O  O12  1  0.90041624  0.82799038  0.78633326  1
  O  O13  1  0.20416834  0.82100000  0.46578069  1
  O  O14  1  0.20265439  0.51258869  0.82133231  1
  O  O15  1  0.56449533  0.62307115  0.01671258  1
  O  O16  1  0.73538243  0.25857508  0.10653802  1
  O  O17  1  0.56501708  0.01365454  0.80284349  1
  O  O18  1  0.73217953  0.88752899  0.25854765  1
  O  O19  1  0.26461759  0.74142498  0.89346192  1
  O  O20  1  0.43550469  0.37692891  0.98328737  1
  O  O21  1  0.79734563  0.48741137  0.17866763  1
  O  O22  1  0.79583168  0.17900006  0.53421925  1
  O  O23  1  0.73791811  0.11601508  0.88677074  1
  O  O24  1  0.57287586  0.80109652  0.62616295  1
  O  O25  1  0.43498294  0.98634552  0.19715646  1
  P  P26  1  0.74918751  0.75000257  0.46662434  1
  P  P27  1  0.75086890  0.03129162  0.74838039  1
  P  P28  1  0.74826525  0.46603571  0.03693898  1
  P  P29  1  0.25173347  0.53396436  0.96306160  1
  P  P30  1  0.25081251  0.24999749  0.53337560  1
  P  P31  1  0.24913113  0.96870844  0.25161955  1
  Mn  Mn32  1  0.05168626  0.65150019  0.65091455  1
  Mn  Mn33  1  0.57015842  0.14036504  0.14232514  1
  Mn  Mn34  1  0.42984161  0.85963502  0.85767480  1
  Mn  Mn35  1  0.94831376  0.34849987  0.34908540  1
