# generated using pymatgen
data_LiCr(PO3)3
_symmetry_space_group_name_H-M   'P 1'
_cell_length_a   8.88021817
_cell_length_b   8.44206855
_cell_length_c   8.93549133
_cell_angle_alpha   90.00000000
_cell_angle_beta   90.00000000
_cell_angle_gamma   90.00000000
_symmetry_Int_Tables_number   1
_chemical_formula_structural   LiCr(PO3)3
_chemical_formula_sum   'Li4 Cr4 P12 O36'
_cell_volume   669.87064682
_cell_formula_units_Z   4
loop_
 _symmetry_equiv_pos_site_id
 _symmetry_equiv_pos_as_xyz
  1  'x, y, z'
loop_
 _atom_site_type_symbol
 _atom_site_label
 _atom_site_symmetry_multiplicity
 _atom_site_fract_x
 _atom_site_fract_y
 _atom_site_fract_z
 _atom_site_occupancy
  Li  Li0  1  0.10795157  0.87719985  0.41730064  1
  Li  Li1  1  0.89204786  0.37720012  0.08269855  1
  Li  Li2  1  0.60795185  0.62279934  0.58269886  1
  Li  Li3  1  0.39204758  0.12279961  0.91730095  1
  O  O4  1  0.35507501  0.37215711  0.92950176  1
  O  O5  1  0.89562464  0.41027956  0.83552596  1
  O  O6  1  0.94068844  0.61624524  0.13022454  1
  O  O7  1  0.98458058  0.28784482  0.58951457  1
  O  O8  1  0.01541997  0.78784455  0.91048524  1
  O  O9  1  0.05931211  0.11624432  0.36977577  1
  O  O10  1  0.10437479  0.91027929  0.66447385  1
  O  O11  1  0.11699074  0.52293544  0.69512544  1
  O  O12  1  0.11836729  0.85164939  0.17043963  1
  O  O13  1  0.13856913  0.34007020  0.12092074  1
  O  O14  1  0.14492526  0.62784354  0.42950257  1
  O  O15  1  0.15066669  0.05584751  0.91347423  1
  O  O16  1  0.20501914  0.61063642  0.01921121  1
  O  O17  1  0.29498114  0.38936423  0.51921153  1
  O  O18  1  0.34933359  0.94415314  0.41347392  1
  O  O19  1  0.60437506  0.58971990  0.33552565  1
  O  O20  1  0.36143115  0.65992925  0.62092105  1
  O  O21  1  0.38163298  0.14835126  0.67043995  1
  O  O22  1  0.38300953  0.47706402  0.19512513  1
  O  O23  1  0.39562437  0.08972017  0.16447467  1
  O  O24  1  0.44068817  0.88375514  0.86977608  1
  O  O25  1  0.88163214  0.35164966  0.32956068  1
  O  O26  1  0.51542024  0.71215583  0.08951425  1
  O  O27  1  0.55931238  0.38375541  0.63022372  1
  O  O28  1  0.88300981  0.02293571  0.80487437  1
  O  O29  1  0.61698990  0.97706375  0.30487405  1
  O  O30  1  0.61836756  0.64835098  0.82955986  1
  O  O31  1  0.63856828  0.15992953  0.87907876  1
  O  O32  1  0.64492442  0.87215684  0.57049805  1
  O  O33  1  0.65066585  0.44415222  0.08652639  1
  O  O34  1  0.70501941  0.88936396  0.98078828  1
  O  O35  1  0.79498141  0.11063669  0.48078797  1
  O  O36  1  0.84933386  0.55584724  0.58652670  1
  O  O37  1  0.85507529  0.12784381  0.07049774  1
  O  O38  1  0.86143142  0.84007112  0.37907957  1
  O  O39  1  0.48458031  0.21215610  0.41048606  1
  P  P40  1  0.56567283  0.78055670  0.93002658  1
  P  P41  1  0.73226876  0.93622996  0.44064946  1
  P  P42  1  0.76773094  0.06377068  0.94064977  1
  P  P43  1  0.93432688  0.21944275  0.43002626  1
  P  P44  1  0.05107161  0.95057734  0.81810138  1
  P  P45  1  0.06567255  0.71944248  0.06997405  1
  P  P46  1  0.23226849  0.56377041  0.55935004  1
  P  P47  1  0.26773067  0.43622904  0.05935085  1
  P  P48  1  0.43432772  0.28055697  0.56997436  1
  P  P49  1  0.44892867  0.04942331  0.31810107  1
  P  P50  1  0.55107077  0.54942303  0.18189924  1
  P  P51  1  0.94892894  0.45057762  0.68189843  1
  Cr  Cr52  1  0.88131938  0.59550833  0.35784799  1
  Cr  Cr53  1  0.61868032  0.40449113  0.85784717  1
  Cr  Cr54  1  0.38131911  0.90449085  0.64215264  1
  Cr  Cr55  1  0.11868117  0.09550860  0.14215232  1
