# generated using pymatgen
data_LiFeP2O7
_symmetry_space_group_name_H-M   'P 1'
_cell_length_a   5.26770960
_cell_length_b   5.26770960
_cell_length_c   4.55421270
_cell_angle_alpha   81.46697836
_cell_angle_beta   98.53302157
_cell_angle_gamma   77.52837729
_symmetry_Int_Tables_number   1
_chemical_formula_structural   LiFeP2O7
_chemical_formula_sum   'Li1 Fe1 P2 O7'
_cell_volume   119.87676225
_cell_formula_units_Z   1
loop_
 _symmetry_equiv_pos_site_id
 _symmetry_equiv_pos_as_xyz
  1  'x, y, z'
loop_
 _atom_site_type_symbol
 _atom_site_label
 _atom_site_symmetry_multiplicity
 _atom_site_fract_x
 _atom_site_fract_y
 _atom_site_fract_z
 _atom_site_occupancy
  Li  Li0  1  0.75003572  0.75003489  0.00000014  1
  O  O1  1  0.12765344  0.46299185  0.74464373  1
  O  O2  1  0.07311319  0.81653245  0.28936348  1
  O  O3  1  0.34762852  0.84422639  0.80238824  1
  O  O4  1  0.52668954  0.52668814  0.50000064  1
  O  O5  1  0.84422558  0.34762705  0.19761266  1
  O  O6  1  0.46299195  0.12765353  0.25535487  1
  O  O7  1  0.81653292  0.07311508  0.71063488  1
  P  P8  1  0.25304203  0.66769302  0.59031551  1
  P  P9  1  0.66769239  0.25304115  0.40968313  1
  Fe  Fe10  1  0.12524613  0.12524437  0.00000030  1
