# generated using pymatgen
data_Li2Mn(PO3)4
_symmetry_space_group_name_H-M   'P 1'
_cell_length_a   8.74892670
_cell_length_b   8.74892670
_cell_length_c   7.66937857
_cell_angle_alpha   83.86770679
_cell_angle_beta   96.13229319
_cell_angle_gamma   64.16765310
_symmetry_Int_Tables_number   1
_chemical_formula_structural   Li2Mn(PO3)4
_chemical_formula_sum   'Li4 Mn2 P8 O24'
_cell_volume   517.58513110
_cell_formula_units_Z   2
loop_
 _symmetry_equiv_pos_site_id
 _symmetry_equiv_pos_as_xyz
  1  'x, y, z'
loop_
 _atom_site_type_symbol
 _atom_site_label
 _atom_site_symmetry_multiplicity
 _atom_site_fract_x
 _atom_site_fract_y
 _atom_site_fract_z
 _atom_site_occupancy
  Li  Li0  1  0.50869826  0.81828587  0.76157946  1
  Li  Li1  1  0.18171322  0.49130264  0.26157816  1
  Li  Li2  1  0.81828581  0.50869791  0.73842132  1
  Li  Li3  1  0.49130253  0.18171333  0.23842163  1
  O  O4  1  0.61003522  0.92374257  0.30898409  1
  O  O5  1  0.88829558  0.16783334  0.83306568  1
  O  O6  1  0.16783344  0.88829562  0.66693508  1
  O  O7  1  0.11170518  0.83216590  0.16693410  1
  O  O8  1  0.02274792  0.72249425  0.51296015  1
  O  O9  1  0.27750610  0.97725245  0.01296033  1
  O  O10  1  0.16485006  0.63159397  0.84100070  1
  O  O11  1  0.36840642  0.83514956  0.34100096  1
  O  O12  1  0.07625870  0.38996429  0.80898408  1
  O  O13  1  0.83216680  0.11170487  0.33306583  1
  O  O14  1  0.63151330  0.69595381  0.56733583  1
  O  O15  1  0.36683899  0.36683914  0.74999971  1
  O  O16  1  0.88936175  0.88936088  0.74999981  1
  O  O17  1  0.30404660  0.36848648  0.06733608  1
  O  O18  1  0.69595359  0.63151405  0.93266352  1
  O  O19  1  0.97725227  0.27750628  0.48703945  1
  O  O20  1  0.63316004  0.63316141  0.24999977  1
  O  O21  1  0.36848573  0.30404675  0.43266365  1
  O  O22  1  0.38996498  0.07625796  0.69101551  1
  O  O23  1  0.92374205  0.61003495  0.19101570  1
  O  O24  1  0.63159317  0.16484970  0.65899870  1
  O  O25  1  0.83515013  0.36840656  0.15899889  1
  O  O26  1  0.72249413  0.02274804  0.98704058  1
  O  O27  1  0.11063901  0.11063836  0.24999997  1
  P  P28  1  0.93499710  0.21135505  0.32548674  1
  P  P29  1  0.78864499  0.06500236  0.82548661  1
  P  P30  1  0.06500197  0.78864547  0.67451406  1
  P  P31  1  0.21135404  0.93499819  0.17451287  1
  P  P32  1  0.22180596  0.43029917  0.87494236  1
  P  P33  1  0.77819480  0.56970007  0.12505742  1
  P  P34  1  0.43029922  0.22180549  0.62505714  1
  P  P35  1  0.56970036  0.77819377  0.37494252  1
  Mn  Mn36  1  0.12791152  0.12791095  0.74999978  1
  Mn  Mn37  1  0.87208807  0.87208831  0.24999988  1
