# generated using pymatgen
data_Ta2MnZn2O8
_symmetry_space_group_name_H-M   'P 1'
_cell_length_a   5.31981237
_cell_length_b   5.97793314
_cell_length_c   10.27173459
_cell_angle_alpha   106.91720324
_cell_angle_beta   90.16719607
_cell_angle_gamma   89.99999999
_symmetry_Int_Tables_number   1
_chemical_formula_structural   Ta2MnZn2O8
_chemical_formula_sum   'Ta4 Mn2 Zn4 O16'
_cell_volume   312.51929120
_cell_formula_units_Z   2
loop_
 _symmetry_equiv_pos_site_id
 _symmetry_equiv_pos_as_xyz
  1  'x, y, z'
loop_
 _atom_site_type_symbol
 _atom_site_label
 _atom_site_symmetry_multiplicity
 _atom_site_fract_x
 _atom_site_fract_y
 _atom_site_fract_z
 _atom_site_occupancy
  O  O0  1  0.06268664  0.18210757  0.14379596  1
  O  O1  1  0.43731336  0.03831161  0.85620404  1
  O  O2  1  0.93731336  0.81789243  0.85620404  1
  O  O3  1  0.56268664  0.96168839  0.14379596  1
  O  O4  1  0.59495035  0.43312243  0.12108322  1
  O  O5  1  0.90504965  0.31203921  0.87891678  1
  O  O6  1  0.40504965  0.56687757  0.87891678  1
  O  O7  1  0.09495035  0.68796079  0.12108322  1
  O  O8  1  0.43034712  0.28330635  0.35701510  1
  O  O9  1  0.06965288  0.92629125  0.64298490  1
  O  O10  1  0.35907063  0.84362109  0.38852078  1
  O  O11  1  0.14092937  0.45510031  0.61147922  1
  O  O12  1  0.64092937  0.15637891  0.61147922  1
  O  O13  1  0.85907063  0.54489969  0.38852078  1
  O  O14  1  0.93034712  0.07370875  0.35701510  1
  O  O15  1  0.56965288  0.71669365  0.64298490  1
  Mn  Mn16  1  0.75000000  0.65428525  0.00000000  1
  Mn  Mn17  1  0.25000000  0.34571475  0.00000000  1
  Zn  Zn18  1  0.77012562  0.43378073  0.56267268  1
  Zn  Zn19  1  0.72987438  0.87110806  0.43732732  1
  Zn  Zn20  1  0.22987438  0.56621927  0.43732732  1
  Zn  Zn21  1  0.27012562  0.12889194  0.56267268  1
  Ta  Ta22  1  0.73075376  0.27364624  0.23401215  1
  Ta  Ta23  1  0.76924624  0.03963409  0.76598785  1
  Ta  Ta24  1  0.26924624  0.72635376  0.76598785  1
  Ta  Ta25  1  0.23075376  0.96036591  0.23401215  1
