# generated using pymatgen
data_Li3Co2P5O16
_symmetry_space_group_name_H-M   'P 1'
_cell_length_a   18.23901451
_cell_length_b   6.93275758
_cell_length_c   5.05629931
_cell_angle_alpha   90.00000000
_cell_angle_beta   92.50112448
_cell_angle_gamma   90.00000000
_symmetry_Int_Tables_number   1
_chemical_formula_structural   Li3Co2P5O16
_chemical_formula_sum   'Li6 Co4 P10 O32'
_cell_volume   638.74312137
_cell_formula_units_Z   2
loop_
 _symmetry_equiv_pos_site_id
 _symmetry_equiv_pos_as_xyz
  1  'x, y, z'
loop_
 _atom_site_type_symbol
 _atom_site_label
 _atom_site_symmetry_multiplicity
 _atom_site_fract_x
 _atom_site_fract_y
 _atom_site_fract_z
 _atom_site_occupancy
  Li  Li0  1  0.03354439  0.32226004  0.26140137  1
  Li  Li1  1  0.96645556  0.67773979  0.73859807  1
  Li  Li2  1  0.74999978  0.02007964  0.50000067  1
  Li  Li3  1  0.53354455  0.67773979  0.26140136  1
  Li  Li4  1  0.46645540  0.32226004  0.73859808  1
  Li  Li5  1  0.25000017  0.97992019  0.50000075  1
  O  O6  1  0.29484485  0.61204710  0.19307925  1
  O  O7  1  0.92912621  0.92043819  0.93860536  1
  O  O8  1  0.93168858  0.37923531  0.08500082  1
  O  O9  1  0.98216240  0.79670839  0.38204440  1
  O  O10  1  0.01783754  0.20329288  0.61795504  1
  O  O11  1  0.06831137  0.62076596  0.91499862  1
  O  O12  1  0.07087429  0.07956164  0.06139416  1
  O  O13  1  0.10822569  0.55121821  0.44259869  1
  O  O14  1  0.12971682  0.97851810  0.61971272  1
  O  O15  1  0.14210948  0.31242026  0.80482866  1
  O  O16  1  0.20115355  0.86535982  0.17768216  1
  O  O17  1  0.20515493  0.61204710  0.80692218  1
  O  O18  1  0.51783771  0.79670839  0.61795503  1
  O  O19  1  0.29884623  0.86535982  0.82231729  1
  O  O20  1  0.35789030  0.31242026  0.19517277  1
  O  O21  1  0.37028296  0.97851810  0.38028673  1
  O  O22  1  0.39177464  0.55121821  0.55740282  1
  O  O23  1  0.87028312  0.02148172  0.38028673  1
  O  O24  1  0.43168841  0.62076596  0.08500083  1
  O  O25  1  0.48216279  0.20329288  0.38204449  1
  O  O26  1  0.89177426  0.44878162  0.55740273  1
  O  O27  1  0.56831154  0.37923531  0.91499861  1
  O  O28  1  0.57087391  0.92043819  0.06139408  1
  O  O29  1  0.60822531  0.44878162  0.44259860  1
  O  O30  1  0.62971699  0.02148172  0.61971271  1
  O  O31  1  0.64210965  0.68758101  0.80482865  1
  O  O32  1  0.70115372  0.13464001  0.17768413  1
  O  O33  1  0.70515510  0.38795272  0.80692218  1
  O  O34  1  0.79484502  0.38795272  0.19307924  1
  O  O35  1  0.79884639  0.13464001  0.82231728  1
  O  O36  1  0.85789047  0.68758101  0.19517276  1
  O  O37  1  0.42912604  0.07956164  0.93860537  1
  P  P38  1  0.58601201  0.87446007  0.77293257  1
  P  P39  1  0.62415638  0.46775638  0.73791269  1
  P  P40  1  0.75000025  0.24563214  0.00000098  1
  P  P41  1  0.87584374  0.46775638  0.26208675  1
  P  P42  1  0.08601185  0.12553975  0.77293258  1
  P  P43  1  0.12415676  0.53224489  0.73791277  1
  P  P44  1  0.25000008  0.75436768  0.00000099  1
  P  P45  1  0.37584357  0.53224489  0.26208675  1
  P  P46  1  0.41398794  0.12553975  0.22706687  1
  P  P47  1  0.91398810  0.87446007  0.22706686  1
  Co  Co48  1  0.91028464  0.17464094  0.73426197  1
  Co  Co49  1  0.58971492  0.17464094  0.26573738  1
  Co  Co50  1  0.41028503  0.82535888  0.73426206  1
  Co  Co51  1  0.08971531  0.82535888  0.26573747  1
