# generated using pymatgen
data_La2PbSe4
_symmetry_space_group_name_H-M   'P 1'
_cell_length_a   7.94095907
_cell_length_b   7.94095961
_cell_length_c   7.94095922
_cell_angle_alpha   109.41512183
_cell_angle_beta   109.58347830
_cell_angle_gamma   109.41512330
_symmetry_Int_Tables_number   1
_chemical_formula_structural   La2PbSe4
_chemical_formula_sum   'La4 Pb2 Se8'
_cell_volume   385.47458686
_cell_formula_units_Z   2
loop_
 _symmetry_equiv_pos_site_id
 _symmetry_equiv_pos_as_xyz
  1  'x, y, z'
loop_
 _atom_site_type_symbol
 _atom_site_label
 _atom_site_symmetry_multiplicity
 _atom_site_fract_x
 _atom_site_fract_y
 _atom_site_fract_z
 _atom_site_occupancy
  La  La0  1  0.25000000  0.63246761  0.38246761  1
  La  La1  1  0.75000000  0.86753239  0.11753239  1
  La  La2  1  0.61753239  0.36753239  0.25000000  1
  La  La3  1  0.88246761  0.13246761  0.75000000  1
  Pb  Pb4  1  0.12500000  0.75000000  0.87500000  1
  Pb  Pb5  1  0.37500000  0.25000000  0.62500000  1
  Se  Se6  1  0.99111082  0.84747246  0.49325623  1
  Se  Se7  1  0.14363836  0.15252754  0.14578378  1
  Se  Se8  1  0.35636164  0.50214541  0.00888918  1
  Se  Se9  1  0.50888918  0.00214541  0.85636164  1
  Se  Se10  1  0.64578378  0.65252754  0.64363836  1
  Se  Se11  1  0.50674377  0.99785459  0.35421622  1
  Se  Se12  1  0.85421622  0.49785459  0.00674377  1
  Se  Se13  1  0.99325623  0.34747246  0.49111082  1
