# generated using pymatgen
data_Mn3(PO4)4
_symmetry_space_group_name_H-M   'P 1'
_cell_length_a   8.24182429
_cell_length_b   13.37007993
_cell_length_c   5.92825032
_cell_angle_alpha   90.00000000
_cell_angle_beta   99.08842386
_cell_angle_gamma   90.00000000
_symmetry_Int_Tables_number   1
_chemical_formula_structural   Mn3(PO4)4
_chemical_formula_sum   'Mn6 P8 O32'
_cell_volume   645.05556987
_cell_formula_units_Z   2
loop_
 _symmetry_equiv_pos_site_id
 _symmetry_equiv_pos_as_xyz
  1  'x, y, z'
loop_
 _atom_site_type_symbol
 _atom_site_label
 _atom_site_symmetry_multiplicity
 _atom_site_fract_x
 _atom_site_fract_y
 _atom_site_fract_z
 _atom_site_occupancy
  Mn  Mn0  1  0.28627925  0.56260667  0.19147010  1
  Mn  Mn1  1  0.71372075  0.06260667  0.30852990  1
  Mn  Mn2  1  0.68557322  0.79439505  0.87202451  1
  Mn  Mn3  1  0.72607986  0.42930995  0.84796586  1
  Mn  Mn4  1  0.27392014  0.92930995  0.65203414  1
  Mn  Mn5  1  0.31442678  0.29439505  0.62797549  1
  P  P6  1  0.08972335  0.12181756  0.35505667  1
  P  P7  1  0.42768534  0.59677049  0.73041047  1
  P  P8  1  0.88690734  0.87276492  0.62067225  1
  P  P9  1  0.57231466  0.09677049  0.76958953  1
  P  P10  1  0.58192950  0.40893651  0.32666626  1
  P  P11  1  0.91027665  0.62181756  0.14494333  1
  P  P12  1  0.11309266  0.37276492  0.87932775  1
  P  P13  1  0.41807050  0.90893651  0.17333374  1
  O  O14  1  0.34183456  0.86903651  0.37814870  1
  O  O15  1  0.83052875  0.94265518  0.41506452  1
  O  O16  1  0.49538320  0.01297487  0.24470872  1
  O  O17  1  0.69157721  0.11322814  0.59561318  1
  O  O18  1  0.84710155  0.55363761  0.94268776  1
  O  O19  1  0.65816544  0.36903651  0.12185130  1
  O  O20  1  0.10801579  0.07826188  0.12218429  1
  O  O21  1  0.51193335  0.49399065  0.76959369  1
  O  O22  1  0.48806665  0.99399065  0.73040631  1
  O  O23  1  0.45914912  0.18771345  0.75707939  1
  O  O24  1  0.50461780  0.51297487  0.25529128  1
  O  O25  1  0.54085088  0.68771345  0.74292061  1
  O  O26  1  0.90605587  0.14713354  0.35455094  1
  O  O27  1  0.06973744  0.85022822  0.62101028  1
  O  O28  1  0.45496152  0.33721482  0.40145681  1
  O  O29  1  0.83392619  0.90961713  0.85012075  1
  O  O30  1  0.16947125  0.44265518  0.08493548  1
  O  O31  1  0.21430548  0.27266324  0.89771999  1
  O  O32  1  0.31087287  0.60252621  0.49744966  1
  O  O33  1  0.15289845  0.05363761  0.55731224  1
  O  O34  1  0.89198421  0.57826188  0.37781571  1
  O  O35  1  0.93026256  0.35022822  0.87898972  1
  O  O36  1  0.09394413  0.64713354  0.14544906  1
  O  O37  1  0.18555868  0.22204584  0.37450249  1
  O  O38  1  0.78569452  0.77266324  0.60228001  1
  O  O39  1  0.54503848  0.83721482  0.09854319  1
  O  O40  1  0.72848546  0.42002158  0.52559167  1
  O  O41  1  0.68912713  0.10252621  0.00255034  1
  O  O42  1  0.30842279  0.61322814  0.90438682  1
  O  O43  1  0.16607381  0.40961713  0.64987925  1
  O  O44  1  0.27151454  0.92002158  0.97440833  1
  O  O45  1  0.81444132  0.72204584  0.12549751  1
