# generated using pymatgen
data_B36O5
_symmetry_space_group_name_H-M   'P 1'
_cell_length_a   10.29071558
_cell_length_b   18.38760073
_cell_length_c   13.46614334
_cell_angle_alpha   20.27796252
_cell_angle_beta   58.01384458
_cell_angle_gamma   48.10586086
_symmetry_Int_Tables_number   1
_chemical_formula_structural   B36O5
_chemical_formula_sum   'B72 O10'
_cell_volume   609.48259231
_cell_formula_units_Z   2
loop_
 _symmetry_equiv_pos_site_id
 _symmetry_equiv_pos_as_xyz
  1  'x, y, z'
loop_
 _atom_site_type_symbol
 _atom_site_label
 _atom_site_symmetry_multiplicity
 _atom_site_fract_x
 _atom_site_fract_y
 _atom_site_fract_z
 _atom_site_occupancy
  B  B0  1  0.05265197  0.09316614  0.19960612  1
  B  B1  1  0.99730603  0.33491197  1.00034957  1
  B  B2  1  0.45121469  0.10360971  0.00682820  1
  B  B3  1  0.38079203  0.02235355  0.35841637  1
  B  B4  1  0.20681649  0.25816905  0.21035047  1
  B  B5  1  0.12651651  0.07516395  0.78964953  1
  B  B6  1  0.55491571  0.08574404  0.20856124  1
  B  B7  1  0.27890351  0.43911746  0.00688917  1
  B  B8  1  0.44585368  0.10398297  0.34260618  1
  B  B9  1  0.20562442  0.38621681  0.32156283  1
  B  B10  1  0.02690936  0.59623080  0.21123617  1
  B  B11  1  0.49947688  0.32971161  0.00576649  1
  B  B12  1  0.33602697  0.99842103  -0.00034957  1
  B  B13  1  0.38768550  0.42733019  0.19818856  1
  B  B14  1  0.10925865  0.77527851  0.00567638  1
  B  B15  1  0.27494224  0.44384535  0.33710191  1
  B  B16  1  0.94317248  0.12234842  0.98724150  1
  B  B17  1  0.39184746  0.21856344  0.66893125  1
  B  B18  1  0.04135616  0.72020985  0.32007002  1
  B  B19  1  0.28068103  0.24016686  0.80039388  1
  B  B20  1  0.33379879  0.66595458  0.00216643  1
  B  B21  1  0.87074991  0.05376858  0.32107884  1
  B  B22  1  0.69951799  0.27316759  0.19552319  1
  B  B23  1  0.16840887  0.32290505  0.01119164  1
  B  B24  1  0.63381501  0.06016541  0.80447681  1
  B  B25  1  0.46258409  0.27956542  0.67892116  1
  B  B26  1  0.22148465  0.76225535  0.19633665  1
  B  B27  1  0.11131095  0.78321034  0.32807784  1
  B  B28  1  0.94148554  0.11476956  0.33106875  1
  B  B29  1  0.77336427  0.44975596  0.99664066  1
  B  B30  1  0.22202205  0.55012266  0.67192216  1
  B  B31  1  0.39016052  0.21098458  0.01275850  1
  B  B32  1  0.11184935  0.57107865  0.80366335  1
  B  B33  1  0.16492413  0.01042795  0.98880836  1
  B  B34  1  0.70787180  0.38292172  0.32476592  1
  B  B35  1  0.53832817  0.59948031  0.20152333  1
  B  B36  1  0.46169890  0.39586581  0.80423287  1
  B  B37  1  0.29197684  0.61312315  0.67992998  1
  B  B38  1  0.83385612  0.00362139  0.99423351  1
  B  B39  1  0.88863068  0.42398448  0.20164959  1
  B  B40  1  0.61279479  0.77682123  0.00064819  1
  B  B41  1  0.77840798  0.44564789  0.33181062  1
  B  B42  1  0.05839176  0.88948865  0.66289809  1
  B  B43  1  0.22407535  0.55805549  0.99432362  1
  B  B44  1  0.88747932  0.22935003  0.65739382  1
  B  B45  1  0.54516159  0.71246585  0.32686011  1
  B  B46  1  0.77841729  0.24758896  0.79143876  1
  B  B47  1  0.37457789  0.92927909  0.20403154  1
  B  B48  1  0.83427262  0.66680875  0.99958002  1
  B  B49  1  0.30642464  0.73710320  0.78876383  1
  B  B50  1  0.12770858  0.94711619  0.67843717  1
  B  B51  1  0.65819818  0.34250610  0.99233349  1
  B  B52  1  0.95254197  0.31098045  0.64158363  1
  B  B53  1  0.73951091  0.73637389  0.21620309  1
  B  B54  1  0.61904916  0.77071358  0.33800384  1
  B  B55  1  0.05442949  0.89421554  0.99311083  1
  B  B56  1  0.71428384  0.56261942  0.66199616  1
  B  B57  1  0.88211831  0.22972329  0.99317180  1
  B  B58  1  0.59382309  0.59696011  0.78379691  1
  B  B59  1  0.67513482  0.99082690  0.00766651  1
  B  B60  1  0.49906138  0.66652525  0.00041998  1
  B  B61  1  0.95875511  0.40405391  0.79596846  1
  B  B62  1  0.78817141  0.62086715  0.67313989  1
  B  B63  1  0.55492602  0.88768611  0.66818938  1
  B  B64  1  0.72053921  0.55651277  0.99935181  1
  B  B65  1  0.44470232  0.90934852  0.79835041  1
  B  B66  1  0.87163410  0.93746719  0.19576713  1
  B  B67  1  0.79500583  0.73385369  0.79847667  1
  B  B68  1  0.62546120  0.95041128  0.67523408  1
  B  B69  1  0.55996873  0.88357704  0.00335934  1
  B  B70  1  0.99953521  0.66737942  0.99783357  1
  B  B71  1  0.94564750  0.90600281  0.80181144  1
  O  O72  1  0.08578790  0.20484977  0.38203165  1
  O  O73  1  0.24754510  0.12848323  0.61796835  1
  O  O74  1  0.08124445  0.46093085  0.61996018  1
  O  O75  1  0.58427068  0.20815594  0.37890755  1
  O  O76  1  0.41966232  0.54035097  0.37911358  1
  O  O77  1  0.74906232  0.12517706  0.62109245  1
  O  O78  1  0.25208955  0.87240315  0.38003982  1
  O  O79  1  0.58021424  0.45793876  0.62348253  1
  O  O80  1  0.75311976  0.87539524  0.37651747  1
  O  O81  1  0.91367068  0.79298203  0.62088642  1
