# generated using pymatgen
data_LiVP4O13
_symmetry_space_group_name_H-M   'P 1'
_cell_length_a   5.07128059
_cell_length_b   7.88593568
_cell_length_c   14.34489954
_cell_angle_alpha   83.55857544
_cell_angle_beta   85.23469586
_cell_angle_gamma   81.38361626
_symmetry_Int_Tables_number   1
_chemical_formula_structural   LiVP4O13
_chemical_formula_sum   'Li2 V2 P8 O26'
_cell_volume   562.33923345
_cell_formula_units_Z   2
loop_
 _symmetry_equiv_pos_site_id
 _symmetry_equiv_pos_as_xyz
  1  'x, y, z'
loop_
 _atom_site_type_symbol
 _atom_site_label
 _atom_site_symmetry_multiplicity
 _atom_site_fract_x
 _atom_site_fract_y
 _atom_site_fract_z
 _atom_site_occupancy
  Li  Li0  1  0.50007448  0.49895155  0.50279951  1
  Li  Li1  1  0.99540959  0.60275744  0.01523172  1
  O  O2  1  0.41520555  0.83353359  0.31769946  1
  O  O3  1  0.01589133  0.74584850  0.25442388  1
  O  O4  1  0.06378369  0.79922049  0.07400247  1
  O  O5  1  0.15142360  0.14713375  0.34920679  1
  O  O6  1  0.27847415  0.53770248  0.37839472  1
  O  O7  1  0.15488179  0.62718026  0.72638665  1
  O  O8  1  0.30330005  0.02457241  0.82819188  1
  O  O9  1  0.23159343  0.69349342  0.54784576  1
  O  O10  1  0.44175146  0.28624352  0.19655544  1
  O  O11  1  0.19797553  0.57000633  0.90283663  1
  O  O12  1  0.46958222  0.60215443  0.20814568  1
  O  O13  1  0.15936945  0.02459104  0.18009840  1
  O  O14  1  0.30508454  0.90962550  0.65955601  1
  O  O15  1  0.68227598  0.09122926  0.33509031  1
  O  O16  1  0.57552319  0.16576662  0.68141072  1
  O  O17  1  0.50385153  0.39549068  0.79252757  1
  O  O18  1  0.78474618  0.45018659  0.09226410  1
  O  O19  1  0.83784250  0.96243557  0.81218876  1
  O  O20  1  0.68771436  0.96779414  0.16856530  1
  O  O21  1  0.55583621  0.70904552  0.79501461  1
  O  O22  1  0.83284951  0.37315116  0.26789271  1
  O  O23  1  0.71609217  0.45911802  0.62458883  1
  O  O24  1  0.91482304  0.16438141  0.93320008  1
  O  O25  1  0.83662426  0.85276877  0.64171727  1
  O  O26  1  0.96529635  0.25306150  0.75238720  1
  O  O27  1  0.76369973  0.30543807  0.44723860  1
  P  P28  1  0.13405935  0.77141840  0.63545290  1
  P  P29  1  0.29448647  0.67167104  0.29904856  1
  P  P30  1  0.34740470  0.58174959  0.81071772  1
  P  P31  1  0.63792664  0.42167852  0.18407311  1
  P  P32  1  0.69289667  0.32588561  0.70426526  1
  P  P33  1  0.00476074  0.10061767  0.84203625  1
  P  P34  1  0.98321483  0.88628060  0.15993386  1
  P  P35  1  0.85439664  0.22971303  0.35874342  1
  V  V36  1  0.42000801  0.06034766  0.25849631  1
  V  V37  1  0.57098147  0.93698622  0.73655001  1
