# generated using pymatgen
data_LiV(PO3)4
_symmetry_space_group_name_H-M   'P 1'
_cell_length_a   8.59124199
_cell_length_b   8.59124199
_cell_length_c   7.81992216
_cell_angle_alpha   82.13281602
_cell_angle_beta   97.86718400
_cell_angle_gamma   66.66427193
_symmetry_Int_Tables_number   1
_chemical_formula_structural   LiV(PO3)4
_chemical_formula_sum   'Li2 V2 P8 O24'
_cell_volume   513.26458990
_cell_formula_units_Z   2
loop_
 _symmetry_equiv_pos_site_id
 _symmetry_equiv_pos_as_xyz
  1  'x, y, z'
loop_
 _atom_site_type_symbol
 _atom_site_label
 _atom_site_symmetry_multiplicity
 _atom_site_fract_x
 _atom_site_fract_y
 _atom_site_fract_z
 _atom_site_occupancy
  Li  Li0  1  0.49724696  0.18115786  0.23291420  1
  Li  Li1  1  0.81884126  0.50275429  0.73291502  1
  O  O2  1  0.61958059  0.17183120  0.69674222  1
  O  O3  1  0.08758160  0.36652001  0.81219526  1
  O  O4  1  0.25365459  0.00664538  0.01872484  1
  O  O5  1  0.15295284  0.62507683  0.83811662  1
  O  O6  1  0.35859913  0.09920329  0.69964359  1
  O  O7  1  0.09720420  0.85229251  0.18610151  1
  O  O8  1  0.14770737  0.90279617  0.68610128  1
  O  O9  1  0.32766973  0.40797832  0.68052297  1
  O  O10  1  0.36807033  0.33380940  0.01722438  1
  O  O11  1  0.39785011  0.26848444  0.41882288  1
  O  O12  1  0.11515207  0.12614901  0.26364968  1
  O  O13  1  0.37492296  0.84704757  0.33811668  1
  O  O14  1  0.74462423  0.00680113  0.01271236  1
  O  O15  1  0.59202195  0.67233084  0.18052308  1
  O  O16  1  0.66618975  0.63193025  0.51722531  1
  O  O17  1  0.84474229  0.09795086  0.33745061  1
  O  O18  1  0.99335534  0.74634561  0.51872476  1
  O  O19  1  0.90204912  0.15525736  0.83745051  1
  O  O20  1  0.63347960  0.91241836  0.31219408  1
  O  O21  1  0.82816905  0.38041913  0.19674244  1
  O  O22  1  0.99319929  0.25537581  0.51271226  1
  O  O23  1  0.90079792  0.64140078  0.19964393  1
  O  O24  1  0.87385052  0.88484807  0.76365072  1
  O  O25  1  0.73151535  0.60214980  0.91882271  1
  P  P26  1  0.04561092  0.79550520  0.68744981  1
  P  P27  1  0.23790342  0.41945671  0.85073652  1
  P  P28  1  0.41724423  0.22985571  0.61225547  1
  P  P29  1  0.20449427  0.95438975  0.18744979  1
  P  P30  1  0.78925233  0.05715612  0.84038809  1
  P  P31  1  0.94284360  0.21074758  0.34038821  1
  P  P32  1  0.77014453  0.58275591  0.11225564  1
  P  P33  1  0.58054333  0.76209654  0.35073540  1
  V  V34  1  0.13118977  0.12374000  0.76240691  1
  V  V35  1  0.87625958  0.86880975  0.26240707  1
