# generated using pymatgen
data_NaSbSe2
_symmetry_space_group_name_H-M   'P 1'
_cell_length_a   8.24355424
_cell_length_b   11.02659799
_cell_length_c   7.29914099
_cell_angle_alpha   29.05602026
_cell_angle_beta   55.62809311
_cell_angle_gamma   41.45863371
_symmetry_Int_Tables_number   1
_chemical_formula_structural   NaSbSe2
_chemical_formula_sum   'Na2 Sb2 Se4'
_cell_volume   204.70665630
_cell_formula_units_Z   2
loop_
 _symmetry_equiv_pos_site_id
 _symmetry_equiv_pos_as_xyz
  1  'x, y, z'
loop_
 _atom_site_type_symbol
 _atom_site_label
 _atom_site_symmetry_multiplicity
 _atom_site_fract_x
 _atom_site_fract_y
 _atom_site_fract_z
 _atom_site_occupancy
  Na  Na0  1  0.25014003  0.49996533  0.99983035  1
  Na  Na1  1  0.49985997  0.00003467  0.00016965  1
  Sb  Sb2  1  0.99755550  0.99999787  0.00477728  1
  Sb  Sb3  1  0.75244450  0.50000213  0.99522272  1
  Se  Se4  1  0.98902647  0.50008990  0.52167393  1
  Se  Se5  1  0.50942939  0.49978036  0.48178823  1
  Se  Se6  1  0.24057061  0.00021964  0.51821177  1
  Se  Se7  1  0.76097353  0.99991010  0.47832607  1
