# generated using pymatgen
data_Ti(FeO2)2
_symmetry_space_group_name_H-M   'P 1'
_cell_length_a   6.16404087
_cell_length_b   6.16404079
_cell_length_c   6.09884691
_cell_angle_alpha   60.34926066
_cell_angle_beta   60.34926112
_cell_angle_gamma   59.08113920
_symmetry_Int_Tables_number   1
_chemical_formula_structural   Ti(FeO2)2
_chemical_formula_sum   'Ti2 Fe4 O8'
_cell_volume   163.53045599
_cell_formula_units_Z   2
loop_
 _symmetry_equiv_pos_site_id
 _symmetry_equiv_pos_as_xyz
  1  'x, y, z'
loop_
 _atom_site_type_symbol
 _atom_site_label
 _atom_site_symmetry_multiplicity
 _atom_site_fract_x
 _atom_site_fract_y
 _atom_site_fract_z
 _atom_site_occupancy
  Ti  Ti0  1  0.00000000  0.50000000  0.50000000  1
  Ti  Ti1  1  0.50000000  0.00000000  0.50000000  1
  Fe  Fe2  1  0.11914142  0.11914142  0.13085858  1
  Fe  Fe3  1  0.50000000  0.50000000  0.00000000  1
  Fe  Fe4  1  0.50000000  0.50000000  0.50000000  1
  Fe  Fe5  1  0.88085858  0.88085858  0.86914142  1
  O  O6  1  0.25003571  0.25003571  0.28112379  1
  O  O7  1  0.25003571  0.25003571  0.71880479  1
  O  O8  1  0.23224538  0.71442570  0.27666446  1
  O  O9  1  0.71442570  0.23224538  0.27666446  1
  O  O10  1  0.28557430  0.76775462  0.72333554  1
  O  O11  1  0.76775462  0.28557430  0.72333554  1
  O  O12  1  0.74996429  0.74996429  0.28119521  1
  O  O13  1  0.74996429  0.74996429  0.71887621  1
