# generated using pymatgen
data_SmSnAu
_symmetry_space_group_name_H-M   'P 1'
_cell_length_a   4.76219770
_cell_length_b   4.76219770
_cell_length_c   7.58948998
_cell_angle_alpha   90.00000000
_cell_angle_beta   90.00000000
_cell_angle_gamma   119.99999998
_symmetry_Int_Tables_number   1
_chemical_formula_structural   SmSnAu
_chemical_formula_sum   'Sm2 Sn2 Au2'
_cell_volume   149.05895284
_cell_formula_units_Z   2
loop_
 _symmetry_equiv_pos_site_id
 _symmetry_equiv_pos_as_xyz
  1  'x, y, z'
loop_
 _atom_site_type_symbol
 _atom_site_label
 _atom_site_symmetry_multiplicity
 _atom_site_fract_x
 _atom_site_fract_y
 _atom_site_fract_z
 _atom_site_occupancy
  Sn  Sn0  1  0.33333333  0.66666667  0.69971568  1
  Sn  Sn1  1  0.66666667  0.33333333  0.19971568  1
  Sm  Sm2  1  0.00000000  0.00000000  0.47433421  1
  Sm  Sm3  1  0.00000000  0.00000000  0.97433421  1
  Au  Au4  1  0.66666667  0.33333333  0.79595011  1
  Au  Au5  1  0.33333333  0.66666667  0.29595011  1
