# generated using pymatgen
data_Na3Zr2Si2PO12
_symmetry_space_group_name_H-M   'P 1'
_cell_length_a   9.19571584
_cell_length_b   9.21035094
_cell_length_c   9.22022545
_cell_angle_alpha   60.33771466
_cell_angle_beta   60.25671674
_cell_angle_gamma   59.98416054
_symmetry_Int_Tables_number   1
_chemical_formula_structural   Na3Zr2Si2PO12
_chemical_formula_sum   'Na6 Zr4 Si4 P2 O24'
_cell_volume   554.58975858
_cell_formula_units_Z   2
loop_
 _symmetry_equiv_pos_site_id
 _symmetry_equiv_pos_as_xyz
  1  'x, y, z'
loop_
 _atom_site_type_symbol
 _atom_site_label
 _atom_site_symmetry_multiplicity
 _atom_site_fract_x
 _atom_site_fract_y
 _atom_site_fract_z
 _atom_site_occupancy
  Na  Na0  1  0.25870966  0.12766555  0.20535701  1
  Na  Na1  1  0.48362274  0.02305220  0.50166319  1
  Na  Na2  1  0.60557974  0.38949886  0.25705340  1
  Na  Na3  1  0.38105917  0.60972152  0.75797229  1
  Na  Na4  1  0.87701979  0.74028807  0.29176363  1
  Na  Na5  1  0.98428297  0.51319769  0.99680957  1
  O  O6  1  0.13495981  0.00239274  0.08134042  1
  O  O7  1  0.01184507  0.10587606  0.58284015  1
  O  O8  1  0.08322076  0.42907421  0.26048259  1
  O  O9  1  0.29196872  0.62615752  0.05301252  1
  O  O10  1  0.22624546  0.50618509  0.40148631  1
  O  O11  1  0.42740933  0.27540532  0.23249654  1
  O  O12  1  0.06536594  0.77308785  0.75253363  1
  O  O13  1  0.43663291  0.07753797  0.75033329  1
  O  O14  1  0.27113661  0.42072796  0.75025327  1
  O  O15  1  0.77450269  0.06703750  0.23921165  1
  O  O16  1  0.37376466  0.71059383  0.44277689  1
  O  O17  1  0.49905267  0.77210910  0.09562800  1
  O  O18  1  0.49511047  0.19987940  0.92491053  1
  O  O19  1  0.62121782  0.29878388  0.57310315  1
  O  O20  1  0.23030340  0.92684273  0.74742944  1
  O  O21  1  0.72922488  0.57719266  0.26716025  1
  O  O22  1  0.57059049  0.91825122  0.23992195  1
  O  O23  1  0.93822616  0.22347649  0.25975074  1
  O  O24  1  0.58872158  0.71307593  0.74890597  1
  O  O25  1  0.80618931  0.50287452  0.58109511  1
  O  O26  1  0.70659479  0.38454671  0.91624750  1
  O  O27  1  0.91016864  0.56348909  0.75014400  1
  O  O28  1  0.99215102  0.86488878  0.42401611  1
  O  O29  1  0.89550907  0.99145793  0.91681676  1
  P  P30  1  0.05043968  0.94959126  0.74995588  1
  P  P31  1  0.75449849  0.54206529  0.75013089  1
  Si  Si32  1  0.25592153  0.46090451  0.23513143  1
  Si  Si33  1  0.45388806  0.24618403  0.74857306  1
  Si  Si34  1  0.54195363  0.74504194  0.26177141  1
  Si  Si35  1  0.95838651  0.03912682  0.25242924  1
  Zr  Zr36  1  0.14824807  0.63976329  0.56147481  1
  Zr  Zr37  1  0.65079099  0.14149155  0.05806337  1
  Zr  Zr38  1  0.35834349  0.85745867  0.93832871  1
  Zr  Zr39  1  0.85714320  0.34400427  0.44162534  1
