# generated using pymatgen
data_K2(SO2)3
_symmetry_space_group_name_H-M   'P 1'
_cell_length_a   5.81556279
_cell_length_b   9.95427510
_cell_length_c   14.30669368
_cell_angle_alpha   90.00000000
_cell_angle_beta   90.00000000
_cell_angle_gamma   90.00000000
_symmetry_Int_Tables_number   1
_chemical_formula_structural   K2(SO2)3
_chemical_formula_sum   'K8 S12 O24'
_cell_volume   828.21037499
_cell_formula_units_Z   4
loop_
 _symmetry_equiv_pos_site_id
 _symmetry_equiv_pos_as_xyz
  1  'x, y, z'
loop_
 _atom_site_type_symbol
 _atom_site_label
 _atom_site_symmetry_multiplicity
 _atom_site_fract_x
 _atom_site_fract_y
 _atom_site_fract_z
 _atom_site_occupancy
  O  O0  1  0.96047184  0.85129284  0.92449568  1
  O  O1  1  0.46047184  0.14870716  0.07550432  1
  O  O2  1  0.53952816  0.35129284  0.57550432  1
  O  O3  1  0.03952816  0.64870716  0.42449568  1
  O  O4  1  0.03952816  0.14870716  0.07550432  1
  O  O5  1  0.53952816  0.85129284  0.92449568  1
  O  O6  1  0.46047184  0.64870716  0.42449568  1
  O  O7  1  0.96047184  0.35129284  0.57550432  1
  O  O8  1  0.96064321  0.58025771  0.77114588  1
  O  O9  1  0.46064321  0.41974229  0.22885412  1
  O  O10  1  0.53935679  0.08025771  0.72885412  1
  O  O11  1  0.03935679  0.91974229  0.27114588  1
  O  O12  1  0.03935679  0.41974229  0.22885412  1
  O  O13  1  0.53935679  0.58025771  0.77114588  1
  O  O14  1  0.46064321  0.91974229  0.27114588  1
  O  O15  1  0.96064321  0.08025771  0.72885412  1
  O  O16  1  0.25000000  0.19159110  0.92966640  1
  O  O17  1  0.75000000  0.80840890  0.07033360  1
  O  O18  1  0.25000000  0.69159110  0.57033360  1
  O  O19  1  0.75000000  0.30840890  0.42966640  1
  O  O20  1  0.75000000  0.88273980  0.67167211  1
  O  O21  1  0.25000000  0.11726020  0.32832789  1
  O  O22  1  0.75000000  0.38273980  0.82832789  1
  O  O23  1  0.25000000  0.61726020  0.17167211  1
  S  S24  1  0.25000000  0.20236750  0.03254000  1
  S  S25  1  0.75000000  0.79763250  0.96746000  1
  S  S26  1  0.25000000  0.70236750  0.46746000  1
  S  S27  1  0.75000000  0.29763250  0.53254000  1
  S  S28  1  0.25000000  0.41369778  0.04131401  1
  S  S29  1  0.75000000  0.58630222  0.95868599  1
  S  S30  1  0.25000000  0.91369778  0.45868599  1
  S  S31  1  0.75000000  0.08630222  0.54131401  1
  S  S32  1  0.25000000  0.47077986  0.18474919  1
  S  S33  1  0.75000000  0.52922014  0.81525081  1
  S  S34  1  0.25000000  0.97077986  0.31525081  1
  S  S35  1  0.75000000  0.02922014  0.68474919  1
  K  K36  1  0.25000000  0.31738425  0.73528160  1
  K  K37  1  0.75000000  0.68261575  0.26471840  1
  K  K38  1  0.25000000  0.81738425  0.76471840  1
  K  K39  1  0.75000000  0.18261575  0.23528160  1
  K  K40  1  0.25000000  0.36509792  0.41079813  1
  K  K41  1  0.75000000  0.63490208  0.58920187  1
  K  K42  1  0.25000000  0.86509792  0.08920187  1
  K  K43  1  0.75000000  0.13490208  0.91079813  1
