# generated using pymatgen
data_LiSn(PO3)3
_symmetry_space_group_name_H-M   'P 1'
_cell_length_a   7.33378098
_cell_length_b   7.52146235
_cell_length_c   6.86279908
_cell_angle_alpha   100.77187189
_cell_angle_beta   97.52280097
_cell_angle_gamma   83.71419750
_symmetry_Int_Tables_number   1
_chemical_formula_structural   LiSn(PO3)3
_chemical_formula_sum   'Li2 Sn2 P6 O18'
_cell_volume   367.27832879
_cell_formula_units_Z   2
loop_
 _symmetry_equiv_pos_site_id
 _symmetry_equiv_pos_as_xyz
  1  'x, y, z'
loop_
 _atom_site_type_symbol
 _atom_site_label
 _atom_site_symmetry_multiplicity
 _atom_site_fract_x
 _atom_site_fract_y
 _atom_site_fract_z
 _atom_site_occupancy
  Li  Li0  1  0.17347907  0.17648441  0.44764155  1
  Li  Li1  1  0.82652093  0.82351559  0.55235845  1
  O  O2  1  0.01002522  0.32059548  0.26906528  1
  O  O3  1  0.16013893  0.35395356  0.71191215  1
  O  O4  1  0.11210120  0.90953426  0.17587116  1
  O  O5  1  0.25155928  0.95043118  0.63332123  1
  O  O6  1  0.22819276  0.58682923  0.00895734  1
  O  O7  1  0.33280767  0.61556866  0.67884029  1
  O  O8  1  0.34597656  0.69580755  0.35199151  1
  O  O9  1  0.41268476  0.20172647  0.36035149  1
  O  O10  1  0.56275875  0.15660436  0.92718020  1
  O  O11  1  0.43724125  0.84339564  0.07281980  1
  O  O12  1  0.58731524  0.79827353  0.63964851  1
  O  O13  1  0.65402344  0.30419245  0.64800849  1
  O  O14  1  0.66719233  0.38443134  0.32115971  1
  O  O15  1  0.77180724  0.41317077  0.99104266  1
  O  O16  1  0.74844072  0.04956882  0.36667877  1
  O  O17  1  0.88789880  0.09046574  0.82412884  1
  O  O18  1  0.83986107  0.64604644  0.28808785  1
  O  O19  1  0.98997478  0.67940452  0.73093472  1
  P  P20  1  0.16034491  0.55815463  0.76928125  1
  P  P21  1  0.28016913  0.77554543  0.15243728  1
  P  P22  1  0.38562604  0.78287662  0.58684174  1
  P  P23  1  0.61437396  0.21712338  0.41315826  1
  P  P24  1  0.71983087  0.22445457  0.84756272  1
  P  P25  1  0.83965509  0.44184537  0.23071875  1
  Sn  Sn26  1  0.23369694  0.14614821  0.94873393  1
  Sn  Sn27  1  0.76630306  0.85385179  0.05126607  1
