# generated using pymatgen
data_Pr6Fe13Ag
_symmetry_space_group_name_H-M   'P 1'
_cell_length_a   8.07537346
_cell_length_b   8.07537345
_cell_length_c   13.04773127
_cell_angle_alpha   108.02639418
_cell_angle_beta   108.02639414
_cell_angle_gamma   89.99999999
_symmetry_Int_Tables_number   1
_chemical_formula_structural   Pr6Fe13Ag
_chemical_formula_sum   'Pr12 Fe26 Ag2'
_cell_volume   765.05659182
_cell_formula_units_Z   2
loop_
 _symmetry_equiv_pos_site_id
 _symmetry_equiv_pos_as_xyz
  1  'x, y, z'
loop_
 _atom_site_type_symbol
 _atom_site_label
 _atom_site_symmetry_multiplicity
 _atom_site_fract_x
 _atom_site_fract_y
 _atom_site_fract_z
 _atom_site_occupancy
  Fe  Fe0  1  0.43347938  0.70999290  0.00000000  1
  Fe  Fe1  1  0.12047146  0.62047146  0.88362906  1
  Fe  Fe2  1  0.97963983  0.70700797  0.18664780  1
  Fe  Fe3  1  0.02036017  0.29299203  0.81335220  1
  Fe  Fe4  1  0.79299203  0.52036017  0.81335220  1
  Fe  Fe5  1  0.29299203  0.79299203  0.81335220  1
  Fe  Fe6  1  0.52036017  0.02036017  0.81335220  1
  Fe  Fe7  1  0.47963983  0.97963983  0.18664780  1
  Fe  Fe8  1  0.70700797  0.20700797  0.18664780  1
  Fe  Fe9  1  0.20700797  0.47963983  0.18664780  1
  Fe  Fe10  1  0.73684240  0.87952854  0.11637094  1
  Fe  Fe11  1  0.26315760  0.12047146  0.88362906  1
  Fe  Fe12  1  0.50000000  0.00000000  0.00000000  1
  Fe  Fe13  1  0.76315760  0.26315760  0.88362906  1
  Fe  Fe14  1  0.79000710  0.06652062  0.00000000  1
  Fe  Fe15  1  0.93347938  0.79000710  0.00000000  1
  Fe  Fe16  1  0.06652062  0.20999290  0.00000000  1
  Fe  Fe17  1  0.29000710  0.43347938  0.00000000  1
  Fe  Fe18  1  0.70999290  0.56652062  0.00000000  1
  Fe  Fe19  1  0.56652062  0.29000710  0.00000000  1
  Fe  Fe20  1  0.00000000  0.50000000  0.00000000  1
  Fe  Fe21  1  0.20999290  0.93347938  0.00000000  1
  Fe  Fe22  1  0.37952854  0.23684240  0.11637094  1
  Fe  Fe23  1  0.87952854  0.37952854  0.11637094  1
  Fe  Fe24  1  0.23684240  0.73684240  0.11637094  1
  Fe  Fe25  1  0.62047146  0.76315760  0.88362906  1
  Ag  Ag26  1  0.25000000  0.25000000  0.50000000  1
  Ag  Ag27  1  0.75000000  0.75000000  0.50000000  1
  Pr  Pr28  1  0.34721905  0.84721905  0.36891451  1
  Pr  Pr29  1  0.15278095  0.97830454  0.63108549  1
  Pr  Pr30  1  0.47830454  0.65278095  0.63108549  1
  Pr  Pr31  1  0.97830454  0.47830454  0.63108549  1
  Pr  Pr32  1  0.65278095  0.15278095  0.63108549  1
  Pr  Pr33  1  0.84721905  0.02169546  0.36891451  1
  Pr  Pr34  1  0.02169546  0.52169546  0.36891451  1
  Pr  Pr35  1  0.52169546  0.34721905  0.36891451  1
  Pr  Pr36  1  0.60512984  0.60512984  0.21025968  1
  Pr  Pr37  1  0.89487016  0.89487016  0.78974032  1
  Pr  Pr38  1  0.39487016  0.39487016  0.78974032  1
  Pr  Pr39  1  0.10512984  0.10512984  0.21025968  1
