# generated using pymatgen
data_Ba10Ta10(N3O7)3
_symmetry_space_group_name_H-M   'P 1'
_cell_length_a   4.13157633
_cell_length_b   4.13789903
_cell_length_c   41.51311658
_cell_angle_alpha   90.00000000
_cell_angle_beta   90.00000000
_cell_angle_gamma   90.00000000
_symmetry_Int_Tables_number   1
_chemical_formula_structural   Ba10Ta10(N3O7)3
_chemical_formula_sum   'Ba10 Ta10 N9 O21'
_cell_volume   709.71013771
_cell_formula_units_Z   1
loop_
 _symmetry_equiv_pos_site_id
 _symmetry_equiv_pos_as_xyz
  1  'x, y, z'
loop_
 _atom_site_type_symbol
 _atom_site_label
 _atom_site_symmetry_multiplicity
 _atom_site_fract_x
 _atom_site_fract_y
 _atom_site_fract_z
 _atom_site_occupancy
  Ba  Ba0  1  0.00000000  0.00000000  0.99846462  1
  Ba  Ba1  1  0.00000000  0.00000000  0.10028548  1
  Ba  Ba2  1  0.00000000  0.00000000  0.20000000  1
  Ba  Ba3  1  0.00000000  0.00000000  0.40153538  1
  Ba  Ba4  1  0.00000000  0.00000000  0.50031808  1
  Ba  Ba5  1  0.00000000  0.00000000  0.79992986  1
  Ba  Ba6  1  0.00000000  0.00000000  0.29971452  1
  Ba  Ba7  1  0.00000000  0.00000000  0.70000000  1
  Ba  Ba8  1  0.00000000  0.00000000  0.60007014  1
  Ba  Ba9  1  0.00000000  0.00000000  0.89968192  1
  N  N10  1  0.50000000  0.50000000  0.20000000  1
  N  N11  1  0.50000000  0.50000000  0.09888793  1
  N  N12  1  0.50000000  0.50000000  0.30111207  1
  N  N13  1  0.50000000  0.00000000  0.55001167  1
  N  N14  1  0.50000000  0.00000000  0.65001478  1
  N  N15  1  0.50000000  0.00000000  0.74998522  1
  N  N16  1  0.50000000  0.00000000  0.44978208  1
  N  N17  1  0.50000000  0.00000000  0.84998833  1
  N  N18  1  0.50000000  0.00000000  0.95021792  1
  O  O19  1  0.00000000  0.50000000  0.04885495  1
  O  O20  1  0.00000000  0.50000000  0.14979270  1
  O  O21  1  0.00000000  0.50000000  0.25020730  1
  O  O22  1  0.00000000  0.50000000  0.35114505  1
  O  O23  1  0.00000000  0.50000000  0.55002752  1
  O  O24  1  0.00000000  0.50000000  0.65001649  1
  O  O25  1  0.00000000  0.50000000  0.74998351  1
  O  O26  1  0.00000000  0.50000000  0.84997248  1
  O  O27  1  0.50000000  0.00000000  0.04936488  1
  O  O28  1  0.50000000  0.50000000  0.99946401  1
  O  O29  1  0.50000000  0.00000000  0.25017177  1
  O  O30  1  0.50000000  0.50000000  0.40053599  1
  O  O31  1  0.50000000  0.00000000  0.14982823  1
  O  O32  1  0.50000000  0.50000000  0.60004245  1
  O  O33  1  0.50000000  0.50000000  0.50012415  1
  O  O34  1  0.50000000  0.00000000  0.35063512  1
  O  O35  1  0.50000000  0.50000000  0.70000000  1
  O  O36  1  0.50000000  0.50000000  0.79995755  1
  O  O37  1  0.50000000  0.50000000  0.89987585  1
  O  O38  1  0.00000000  0.50000000  0.45008542  1
  O  O39  1  0.00000000  0.50000000  0.94991458  1
  Ta  Ta40  1  0.50000000  0.50000000  0.05258595  1
  Ta  Ta41  1  0.50000000  0.50000000  0.24880737  1
  Ta  Ta42  1  0.50000000  0.50000000  0.15119263  1
  Ta  Ta43  1  0.50000000  0.50000000  0.34741405  1
  Ta  Ta44  1  0.50000000  0.50000000  0.54994831  1
  Ta  Ta45  1  0.50000000  0.50000000  0.44966549  1
  Ta  Ta46  1  0.50000000  0.50000000  0.75000448  1
  Ta  Ta47  1  0.50000000  0.50000000  0.64999552  1
  Ta  Ta48  1  0.50000000  0.50000000  0.95033451  1
  Ta  Ta49  1  0.50000000  0.50000000  0.85005169  1
