# generated using pymatgen
data_LiCrP2O7
_symmetry_space_group_name_H-M   'P 1'
_cell_length_a   8.10902037
_cell_length_b   13.44956049
_cell_length_c   5.04158079
_cell_angle_alpha   90.00000000
_cell_angle_beta   90.62028925
_cell_angle_gamma   90.00000000
_symmetry_Int_Tables_number   1
_chemical_formula_structural   LiCrP2O7
_chemical_formula_sum   'Li4 Cr4 P8 O28'
_cell_volume   549.81649319
_cell_formula_units_Z   4
loop_
 _symmetry_equiv_pos_site_id
 _symmetry_equiv_pos_as_xyz
  1  'x, y, z'
loop_
 _atom_site_type_symbol
 _atom_site_label
 _atom_site_symmetry_multiplicity
 _atom_site_fract_x
 _atom_site_fract_y
 _atom_site_fract_z
 _atom_site_occupancy
  Li  Li0  1  0.64350869  0.61981680  0.65368642  1
  Li  Li1  1  0.85649131  0.11981680  0.84631358  1
  Li  Li2  1  0.14350869  0.88018320  0.15368642  1
  Li  Li3  1  0.35649131  0.38018320  0.34631358  1
  Cr  Cr4  1  0.73384480  0.33213348  0.70705467  1
  Cr  Cr5  1  0.23384480  0.16786652  0.20705467  1
  Cr  Cr6  1  0.26615520  0.66786652  0.29294433  1
  Cr  Cr7  1  0.76615520  0.83213348  0.79294533  1
  P  P8  1  0.27443646  0.52882362  0.79286484  1
  P  P9  1  0.72556354  0.47117638  0.20713516  1
  P  P10  1  0.46061003  0.17812553  0.72988832  1
  P  P11  1  0.96061003  0.32187447  0.22988832  1
  P  P12  1  0.77443646  0.97117638  0.29286484  1
  P  P13  1  0.03938997  0.67812553  0.77011168  1
  P  P14  1  0.53938997  0.82187447  0.27011168  1
  P  P15  1  0.22556354  0.02882362  0.70713516  1
  O  O16  1  0.81479465  0.95569309  0.59468964  1
  O  O17  1  0.42427335  0.21557883  0.01071880  1
  O  O18  1  0.36837101  0.60768644  0.62436165  1
  O  O19  1  0.70943104  0.57502801  0.30338669  1
  O  O20  1  0.42377440  0.06029540  0.73084801  1
  O  O21  1  0.57622560  0.93970460  0.26915199  1
  O  O22  1  0.13162899  0.10768644  0.87563835  1
  O  O23  1  0.34855773  0.22526238  0.51874419  1
  O  O24  1  0.68520535  0.45569309  0.90531036  1
  O  O25  1  0.20943104  0.92497199  0.80338669  1
  O  O26  1  0.07622560  0.56029540  0.76915199  1
  O  O27  1  0.64364971  0.19388804  0.66976559  1
  O  O28  1  0.29056896  0.42497199  0.69661331  1
  O  O29  1  0.07572665  0.71557883  0.48928120  1
  O  O30  1  0.31479465  0.54430691  0.09468964  1
  O  O31  1  0.63162899  0.39231356  0.37563835  1
  O  O32  1  0.92427335  0.28442117  0.51071880  1
  O  O33  1  0.35635029  0.80611196  0.33023441  1
  O  O34  1  0.86837101  0.89231356  0.12436165  1
  O  O35  1  0.79056896  0.07502801  0.19661331  1
  O  O36  1  0.18520535  0.04430691  0.40531036  1
  O  O37  1  0.92377440  0.43970460  0.23084801  1
  O  O38  1  0.14364971  0.30611196  0.16976559  1
  O  O39  1  0.65144227  0.77473762  0.48125581  1
  O  O40  1  0.84855773  0.27473762  0.01874419  1
  O  O41  1  0.85635029  0.69388804  0.83023441  1
  O  O42  1  0.15144227  0.72526238  0.98125581  1
  O  O43  1  0.57572665  0.78442117  0.98928120  1
