# generated using pymatgen
data_Sr(SmSe2)2
_symmetry_space_group_name_H-M   'P 1'
_cell_length_a   7.79343774
_cell_length_b   7.79343778
_cell_length_c   7.79343779
_cell_angle_alpha   109.40481405
_cell_angle_beta   109.60410539
_cell_angle_gamma   109.40482298
_symmetry_Int_Tables_number   1
_chemical_formula_structural   Sr(SmSe2)2
_chemical_formula_sum   'Sr2 Sm4 Se8'
_cell_volume   364.38759126
_cell_formula_units_Z   2
loop_
 _symmetry_equiv_pos_site_id
 _symmetry_equiv_pos_as_xyz
  1  'x, y, z'
loop_
 _atom_site_type_symbol
 _atom_site_label
 _atom_site_symmetry_multiplicity
 _atom_site_fract_x
 _atom_site_fract_y
 _atom_site_fract_z
 _atom_site_occupancy
  Se  Se0  1  0.98773924  0.84607549  0.48948859  1
  Se  Se1  1  0.98948859  0.34607549  0.48773924  1
  Se  Se2  1  0.51051141  0.99825065  0.35658690  1
  Se  Se3  1  0.14166375  0.15392451  0.14341310  1
  Se  Se4  1  0.35833625  0.50174935  0.01226076  1
  Se  Se5  1  0.64341310  0.65392451  0.64166375  1
  Se  Se6  1  0.51226076  0.00174935  0.85833625  1
  Se  Se7  1  0.85658690  0.49825065  0.01051141  1
  Sm  Sm8  1  0.25000000  0.62558863  0.37558863  1
  Sm  Sm9  1  0.62441137  0.37441137  0.25000000  1
  Sm  Sm10  1  0.75000000  0.87441137  0.12441137  1
  Sm  Sm11  1  0.87558863  0.12558863  0.75000000  1
  Sr  Sr12  1  0.12500000  0.75000000  0.87500000  1
  Sr  Sr13  1  0.37500000  0.25000000  0.62500000  1
