# generated using pymatgen
data_Ag5(Sn3S8)2
_symmetry_space_group_name_H-M   'P 1'
_cell_length_a   10.73952313
_cell_length_b   10.72235807
_cell_length_c   10.74195281
_cell_angle_alpha   90.00626393
_cell_angle_beta   89.02866579
_cell_angle_gamma   89.99605603
_symmetry_Int_Tables_number   1
_chemical_formula_structural   Ag5(Sn3S8)2
_chemical_formula_sum   'Ag10 Sn12 S32'
_cell_volume   1236.79046573
_cell_formula_units_Z   2
loop_
 _symmetry_equiv_pos_site_id
 _symmetry_equiv_pos_as_xyz
  1  'x, y, z'
loop_
 _atom_site_type_symbol
 _atom_site_label
 _atom_site_symmetry_multiplicity
 _atom_site_fract_x
 _atom_site_fract_y
 _atom_site_fract_z
 _atom_site_occupancy
  Ag  Ag0  1  0.11178710  0.87485896  0.63808338  1
  Ag  Ag1  1  0.12878712  0.37495526  0.62114571  1
  Ag  Ag2  1  0.13565238  0.38210965  0.12782893  1
  Ag  Ag3  1  0.37701358  0.62517721  0.12702125  1
  Ag  Ag4  1  0.37767042  0.86812531  0.88574973  1
  Ag  Ag5  1  0.62288389  0.12490377  0.37309222  1
  Ag  Ag6  1  0.62209668  0.36785300  0.61446722  1
  Ag  Ag7  1  0.86420196  0.88194512  0.37232166  1
  Ag  Ag8  1  0.87097907  0.87494417  0.87889855  1
  Ag  Ag9  1  0.88802839  0.37489954  0.86179960  1
  Sn  Sn10  1  0.12217582  0.63072821  0.37553393  1
  Sn  Sn11  1  0.12616225  0.88197444  0.13495846  1
  Sn  Sn12  1  0.13467715  0.12484873  0.88494109  1
  Sn  Sn13  1  0.37253213  0.87477037  0.37739538  1
  Sn  Sn14  1  0.37437666  0.11905604  0.62795012  1
  Sn  Sn15  1  0.38466602  0.36801442  0.87631571  1
  Sn  Sn16  1  0.61490010  0.86773840  0.62384829  1
  Sn  Sn17  1  0.62527266  0.61896883  0.87222599  1
  Sn  Sn18  1  0.62710701  0.37510257  0.12275296  1
  Sn  Sn19  1  0.86511619  0.62497455  0.61530817  1
  Sn  Sn20  1  0.87362852  0.38212596  0.36509646  1
  Sn  Sn21  1  0.87774003  0.13086435  0.12452562  1
  S  S22  1  0.10523778  0.63367010  0.61402002  1
  S  S23  1  0.11353225  0.39092048  0.36803592  1
  S  S24  1  0.13144523  0.63866615  0.13708091  1
  S  S25  1  0.12201765  0.87797819  0.37828656  1
  S  S26  1  0.12473165  0.12817041  0.12777667  1
  S  S27  1  0.13487736  0.88480320  0.89270724  1
  S  S28  1  0.13587890  0.11608195  0.64469856  1
  S  S29  1  0.14236350  0.36490163  0.88482187  1
  S  S30  1  0.36030660  0.63596851  0.37196220  1
  S  S31  1  0.36413553  0.87642574  0.13807845  1
  S  S32  1  0.37856290  0.11380556  0.38974813  1
  S  S33  1  0.37155966  0.87180850  0.62784621  1
  S  S34  1  0.37751269  0.12181454  0.87498909  1
  S  S35  1  0.38187796  0.35878214  0.63644525  1
  S  S36  1  0.38680370  0.61131724  0.88129808  1
  S  S37  1  0.38776645  0.37359277  0.11422878  1
  S  S38  1  0.61196529  0.87350841  0.38586905  1
  S  S39  1  0.61281449  0.11119276  0.61834043  1
  S  S40  1  0.61763220  0.85881490  0.86375614  1
  S  S41  1  0.62221760  0.62159562  0.62521008  1
  S  S42  1  0.62807509  0.37176650  0.87231280  1
  S  S43  1  0.62156801  0.61390781  0.11038170  1
  S  S44  1  0.63559722  0.37629381  0.36225736  1
  S  S45  1  0.63944030  0.13605310  0.12872958  1
  S  S46  1  0.85717341  0.86495466  0.61528758  1
  S  S47  1  0.86377293  0.61633876  0.85537630  1
  S  S48  1  0.86504795  0.38495464  0.60740066  1
  S  S49  1  0.87509920  0.62813591  0.37238884  1
  S  S50  1  0.87756261  0.37804197  0.12173756  1
  S  S51  1  0.86799972  0.13867582  0.36304167  1
  S  S52  1  0.88625265  0.89104214  0.13214141  1
  S  S53  1  0.89451637  0.13347721  0.88608449  1
