# generated using pymatgen
data_Nb2Te4O13
_symmetry_space_group_name_H-M   'P 1'
_cell_length_a   7.71848829
_cell_length_b   12.96527919
_cell_length_c   13.00440435
_cell_angle_alpha   116.19756176
_cell_angle_beta   90.28873532
_cell_angle_gamma   90.20486474
_symmetry_Int_Tables_number   1
_chemical_formula_structural   Nb2Te4O13
_chemical_formula_sum   'Nb8 Te16 O52'
_cell_volume   1167.66055675
_cell_formula_units_Z   4
loop_
 _symmetry_equiv_pos_site_id
 _symmetry_equiv_pos_as_xyz
  1  'x, y, z'
loop_
 _atom_site_type_symbol
 _atom_site_label
 _atom_site_symmetry_multiplicity
 _atom_site_fract_x
 _atom_site_fract_y
 _atom_site_fract_z
 _atom_site_occupancy
  Nb  Nb0  1  0.64452242  0.79810560  0.96275815  1
  Nb  Nb1  1  0.10568103  0.29646672  0.47295673  1
  Nb  Nb2  1  0.85636972  0.20898263  0.04859501  1
  Nb  Nb3  1  0.35547758  0.20189440  0.03724185  1
  Nb  Nb4  1  0.60428244  0.28101726  0.46427246  1
  Nb  Nb5  1  0.14363028  0.79101737  0.95140499  1
  Nb  Nb6  1  0.89431897  0.70353328  0.52704327  1
  Nb  Nb7  1  0.39571756  0.71898274  0.53572754  1
  Te  Te8  1  0.44648614  0.76588733  0.28892350  1
  Te  Te9  1  0.69927399  0.54778944  0.01134260  1
  Te  Te10  1  0.87987205  0.05117510  0.24028092  1
  Te  Te11  1  0.55351386  0.23411267  0.71107650  1
  Te  Te12  1  0.62176635  0.46813378  0.29926789  1
  Te  Te13  1  0.97081403  0.26840883  0.80952930  1
  Te  Te14  1  0.37823365  0.53186622  0.70073211  1
  Te  Te15  1  0.21153026  0.05272634  0.52034827  1
  Te  Te16  1  0.12012795  0.94882490  0.75971908  1
  Te  Te17  1  0.37171835  0.01500229  0.19996418  1
  Te  Te18  1  0.02918597  0.73159117  0.19047070  1
  Te  Te19  1  0.62828165  0.98499771  0.80003582  1
  Te  Te20  1  0.12474094  0.44808305  0.27692819  1
  Te  Te21  1  0.78846974  0.94727366  0.47965173  1
  Te  Te22  1  0.30072601  0.45221056  0.98865740  1
  Te  Te23  1  0.87525906  0.55191695  0.72307181  1
  O  O24  1  0.68959469  0.14213810  0.32892004  1
  O  O25  1  0.54026345  0.51220312  0.10266990  1
  O  O26  1  0.38611360  0.12290360  0.13287187  1
  O  O27  1  0.18718874  0.43583391  0.61468217  1
  O  O28  1  0.06926199  0.14861231  0.32445783  1
  O  O29  1  0.30836449  0.36112293  0.17565644  1
  O  O30  1  0.87924877  0.79469673  0.43361088  1
  O  O31  1  0.56251708  0.92905672  0.10927168  1
  O  O32  1  0.37261467  0.24497082  0.43625437  1
  O  O33  1  0.10530683  0.69157743  0.03798907  1
  O  O34  1  0.89469317  0.30842257  0.96201093  1
  O  O35  1  0.39299905  0.61714984  0.61449232  1
  O  O36  1  0.12398198  0.16818663  0.00535139  1
  O  O37  1  0.93073801  0.85138769  0.67554217  1
  O  O38  1  0.37456674  0.75388860  0.92763645  1
  O  O39  1  0.63320512  0.70408742  0.05912716  1
  O  O40  1  0.93600378  0.35220958  0.19015690  1
  O  O41  1  0.81281126  0.56416609  0.38531783  1
  O  O42  1  0.12469735  0.40158186  0.85383225  1
  O  O43  1  0.36679488  0.29591258  0.94087284  1
  O  O44  1  0.43748292  0.07094328  0.89072832  1
  O  O45  1  0.13081046  0.88082511  0.86375956  1
  O  O46  1  0.12590603  0.67134064  0.49889951  1
  O  O47  1  0.45973655  0.48779688  0.89733010  1
  O  O48  1  0.30376379  0.86301416  0.25151554  1
  O  O49  1  0.87409397  0.32865936  0.50110049  1
  O  O50  1  0.63545902  0.19022477  0.55720337  1
  O  O51  1  0.69163551  0.63887707  0.82434356  1
  O  O52  1  0.79108333  0.34424953  0.76989799  1
  O  O53  1  0.87601802  0.83181337  0.99464861  1
  O  O54  1  0.82102638  0.06402126  0.89777234  1
  O  O55  1  0.62391888  0.89906685  0.35120639  1
  O  O56  1  0.44240794  0.57691936  0.37889864  1
  O  O57  1  0.94706304  0.99453171  0.39815253  1
  O  O58  1  0.86918954  0.11917489  0.13624044  1
  O  O59  1  0.14714117  0.38276248  0.38008517  1
  O  O60  1  0.61388640  0.87709640  0.86712813  1
  O  O61  1  0.31040531  0.85786190  0.67107996  1
  O  O62  1  0.20891667  0.65575047  0.23010201  1
  O  O63  1  0.55759206  0.42308064  0.62110136  1
  O  O64  1  0.62543326  0.24611140  0.07236355  1
  O  O65  1  0.36454098  0.80977523  0.44279663  1
  O  O66  1  0.60700095  0.38285016  0.38550768  1
  O  O67  1  0.06399622  0.64779042  0.80984310  1
  O  O68  1  0.12075123  0.20530327  0.56638912  1
  O  O69  1  0.17897362  0.93597874  0.10222766  1
  O  O70  1  0.37608112  0.10093315  0.64879361  1
  O  O71  1  0.87530265  0.59841814  0.14616775  1
  O  O72  1  0.62738533  0.75502918  0.56374563  1
  O  O73  1  0.85285883  0.61723752  0.61991483  1
  O  O74  1  0.69623621  0.13698584  0.74848446  1
  O  O75  1  0.05293696  0.00546829  0.60184747  1
