# generated using pymatgen
data_V6O11
_symmetry_space_group_name_H-M   'P 1'
_cell_length_a   5.56025986
_cell_length_b   7.14219259
_cell_length_c   9.75894401
_cell_angle_alpha   89.26289971
_cell_angle_beta   80.14214263
_cell_angle_gamma   72.20699054
_symmetry_Int_Tables_number   1
_chemical_formula_structural   V6O11
_chemical_formula_sum   'V12 O22'
_cell_volume   363.24372732
_cell_formula_units_Z   2
loop_
 _symmetry_equiv_pos_site_id
 _symmetry_equiv_pos_as_xyz
  1  'x, y, z'
loop_
 _atom_site_type_symbol
 _atom_site_label
 _atom_site_symmetry_multiplicity
 _atom_site_fract_x
 _atom_site_fract_y
 _atom_site_fract_z
 _atom_site_occupancy
  V  V0  1  0.75910603  0.64146065  0.57498105  1
  V  V1  1  0.24089397  0.35853935  0.42501895  1
  V  V2  1  0.68852088  0.07950482  0.24418630  1
  V  V3  1  0.31147912  0.92049518  0.75581370  1
  V  V4  1  0.23099755  0.85982497  0.41393222  1
  V  V5  1  0.76900245  0.14017503  0.58606778  1
  V  V6  1  0.69444756  0.57146042  0.23512245  1
  V  V7  1  0.30555244  0.42853958  0.76487755  1
  V  V8  1  0.18201271  0.80197125  0.06431719  1
  V  V9  1  0.81798729  0.19802875  0.93568281  1
  V  V10  1  0.17473929  0.30762003  0.06922118  1
  V  V11  1  0.82526071  0.69237997  0.93077882  1
  O  O12  1  0.12786631  0.98377166  0.61444343  1
  O  O13  1  0.87213369  0.01622834  0.38555657  1
  O  O14  1  0.63761254  0.91724837  0.65203396  1
  O  O15  1  0.36238746  0.08275163  0.34796604  1
  O  O16  1  0.90464075  0.36054760  0.52524255  1
  O  O17  1  0.09535925  0.63945240  0.47475745  1
  O  O18  1  0.92713042  0.57990902  0.75962744  1
  O  O19  1  0.07286958  0.42009098  0.24037256  1
  O  O20  1  0.20949248  0.54813359  0.96568062  1
  O  O21  1  0.79050752  0.45186641  0.03431938  1
  O  O22  1  0.81791878  0.79585682  0.13950037  1
  O  O23  1  0.18208122  0.20414318  0.86049963  1
  O  O24  1  0.59258503  0.69907566  0.42656657  1
  O  O25  1  0.40741497  0.30092434  0.57343343  1
  O  O26  1  0.32917101  0.74530789  0.21021488  1
  O  O27  1  0.67082899  0.25469211  0.78978512  1
  O  O28  1  0.01680633  0.09164229  0.10605776  1
  O  O29  1  0.98319367  0.90835771  0.89394224  1
  O  O30  1  0.44140995  0.64190919  0.70229697  1
  O  O31  1  0.55859005  0.35809081  0.29770303  1
  O  O32  1  0.47335302  0.82828103  0.92833519  1
  O  O33  1  0.52664698  0.17171897  0.07166481  1
