# generated using pymatgen
data_MgAl2O4
_symmetry_space_group_name_H-M   'P 1'
_cell_length_a   5.77085471
_cell_length_b   5.77085463
_cell_length_c   28.89407239
_cell_angle_alpha   60.04555039
_cell_angle_beta   60.04555087
_cell_angle_gamma   59.99999701
_symmetry_Int_Tables_number   1
_chemical_formula_structural   MgAl2O4
_chemical_formula_sum   'Mg10 Al20 O40'
_cell_volume   680.88331352
_cell_formula_units_Z   10
loop_
 _symmetry_equiv_pos_site_id
 _symmetry_equiv_pos_as_xyz
  1  'x, y, z'
loop_
 _atom_site_type_symbol
 _atom_site_label
 _atom_site_symmetry_multiplicity
 _atom_site_fract_x
 _atom_site_fract_y
 _atom_site_fract_z
 _atom_site_occupancy
  Al  Al0  1  0.49549783  0.49549783  0.09987091  1
  Al  Al1  1  0.49549783  0.00964977  0.09987091  1
  Al  Al2  1  0.00964977  0.49549783  0.09987091  1
  Al  Al3  1  0.49656618  0.49656618  0.30035652  1
  Al  Al4  1  0.50074119  0.00105663  0.49949220  1
  Al  Al5  1  0.88016982  0.88016982  0.17189811  1
  Al  Al6  1  0.50090412  0.50090412  0.39945753  1
  Al  Al7  1  0.49656618  0.00508507  0.30035652  1
  Al  Al8  1  0.00508507  0.49656618  0.30035652  1
  Al  Al9  1  0.50074119  0.50074119  0.49949220  1
  Al  Al10  1  0.50022481  0.00134508  0.69964106  1
  Al  Al11  1  0.50099273  0.50099273  0.59940436  1
  Al  Al12  1  0.00105663  0.50074119  0.49949220  1
  Al  Al13  1  0.50022481  0.50022481  0.69964106  1
  Al  Al14  1  0.49823267  0.00617144  0.89947265  1
  Al  Al15  1  0.50194974  0.50194974  0.79883016  1
  Al  Al16  1  0.49823267  0.49823267  0.89947265  1
  Al  Al17  1  0.00134508  0.50022481  0.69964106  1
  Al  Al18  1  0.00617144  0.49823267  0.89947265  1
  Al  Al19  1  0.87648068  0.87648068  0.97411159  1
  Mg  Mg20  1  0.12090157  0.12090157  0.02745906  1
  Mg  Mg21  1  0.12007622  0.12007622  0.22795427  1
  Mg  Mg22  1  0.49840211  0.49840211  0.00095874  1
  Mg  Mg23  1  0.12409225  0.12409225  0.42554465  1
  Mg  Mg24  1  0.49659761  0.49659761  0.20204143  1
  Mg  Mg25  1  0.12591507  0.12591507  0.62445096  1
  Mg  Mg26  1  0.12522103  0.12522103  0.82486738  1
  Mg  Mg27  1  0.87898850  0.87898850  0.37260690  1
  Mg  Mg28  1  0.87557738  0.87557738  0.57465357  1
  Mg  Mg29  1  0.87397030  0.87397030  0.77561782  1
  O  O30  1  0.25399658  0.25399658  0.05598253  1
  O  O31  1  0.26010858  0.26010858  0.14393485  1
  O  O32  1  0.25399658  0.71209418  0.05598253  1
  O  O33  1  0.71209418  0.25399658  0.05598253  1
  O  O34  1  0.27207915  0.75194279  0.14480705  1
  O  O35  1  0.25027170  0.25027170  0.25755737  1
  O  O36  1  0.74546599  0.74546599  0.05272040  1
  O  O37  1  0.26021870  0.26021870  0.34386878  1
  O  O38  1  0.75194279  0.27207915  0.14480705  1
  O  O39  1  0.25027170  0.71166974  0.25755737  1
  O  O40  1  0.75194279  0.75194279  0.14480705  1
  O  O41  1  0.71166974  0.25027170  0.25755737  1
  O  O42  1  0.29709890  0.73447020  0.34679214  1
  O  O43  1  0.26307106  0.26307106  0.45307272  1
  O  O44  1  0.73447020  0.29709890  0.34679214  1
  O  O45  1  0.75032225  0.75032225  0.24980665  1
  O  O46  1  0.26346266  0.26346266  0.54192241  1
  O  O47  1  0.26307106  0.70849426  0.45307272  1
  O  O48  1  0.73447020  0.73447020  0.34679214  1
  O  O49  1  0.70849426  0.26307106  0.45307272  1
  O  O50  1  0.29096990  0.73591240  0.54744106  1
  O  O51  1  0.26302127  0.26302127  0.65300155  1
  O  O52  1  0.73591240  0.29096990  0.54744106  1
  O  O53  1  0.26302127  0.70894974  0.65300155  1
  O  O54  1  0.73754259  0.73754259  0.45747445  1
  O  O55  1  0.26326021  0.26326021  0.74204387  1
  O  O56  1  0.73591240  0.73591240  0.54744106  1
  O  O57  1  0.70894974  0.26302127  0.65300155  1
  O  O58  1  0.28970053  0.73635788  0.74751674  1
  O  O59  1  0.26575293  0.26575293  0.85199554  1
  O  O60  1  0.73635788  0.28970053  0.74751674  1
  O  O61  1  0.26281776  0.26281776  0.94230935  1
  O  O62  1  0.73597637  0.73597637  0.65841418  1
  O  O63  1  0.26575293  0.70851642  0.85199554  1
  O  O64  1  0.73635788  0.73635788  0.74751674  1
  O  O65  1  0.70851642  0.26575293  0.85199554  1
  O  O66  1  0.26372341  0.75501188  0.94525057  1
  O  O67  1  0.73183881  0.73183881  0.86089671  1
  O  O68  1  0.75501188  0.26372341  0.94525057  1
  O  O69  1  0.75501188  0.75501188  0.94525057  1
