# generated using pymatgen
data_Zr2Ni2Sn
_symmetry_space_group_name_H-M   'P 1'
_cell_length_a   6.85395683
_cell_length_b   7.11124620
_cell_length_c   7.11124620
_cell_angle_alpha   90.00000000
_cell_angle_beta   90.00000000
_cell_angle_gamma   90.00000000
_symmetry_Int_Tables_number   1
_chemical_formula_structural   Zr2Ni2Sn
_chemical_formula_sum   'Zr8 Ni8 Sn4'
_cell_volume   346.60338043
_cell_formula_units_Z   4
loop_
 _symmetry_equiv_pos_site_id
 _symmetry_equiv_pos_as_xyz
  1  'x, y, z'
loop_
 _atom_site_type_symbol
 _atom_site_label
 _atom_site_symmetry_multiplicity
 _atom_site_fract_x
 _atom_site_fract_y
 _atom_site_fract_z
 _atom_site_occupancy
  Zr  Zr0  1  0.00000000  0.18331383  0.18331383  1
  Zr  Zr1  1  0.50000000  0.31668617  0.68331383  1
  Zr  Zr2  1  0.50000000  0.68331383  0.31668617  1
  Zr  Zr3  1  0.00000000  0.81668617  0.81668617  1
  Zr  Zr4  1  0.00000000  0.34505358  0.65494642  1
  Zr  Zr5  1  0.50000000  0.84505358  0.84505358  1
  Zr  Zr6  1  0.50000000  0.15494642  0.15494642  1
  Zr  Zr7  1  0.00000000  0.65494642  0.34505358  1
  Ni  Ni8  1  0.28476809  0.37463470  0.37463470  1
  Ni  Ni9  1  0.78476809  0.12536530  0.87463470  1
  Ni  Ni10  1  0.78476809  0.87463470  0.12536530  1
  Ni  Ni11  1  0.28476809  0.62536530  0.62536530  1
  Ni  Ni12  1  0.21523191  0.87463470  0.12536530  1
  Ni  Ni13  1  0.21523191  0.12536530  0.87463470  1
  Ni  Ni14  1  0.71523191  0.37463470  0.37463470  1
  Ni  Ni15  1  0.71523191  0.62536530  0.62536530  1
  Sn  Sn16  1  0.25000000  0.00000000  0.50000000  1
  Sn  Sn17  1  0.75000000  0.00000000  0.50000000  1
  Sn  Sn18  1  0.25000000  0.50000000  0.00000000  1
  Sn  Sn19  1  0.75000000  0.50000000  0.00000000  1
