# generated using pymatgen
data_CoSnH12(OF)6
_symmetry_space_group_name_H-M   'P 1'
_cell_length_a   6.65086910
_cell_length_b   6.65086872
_cell_length_c   6.65086878
_cell_angle_alpha   96.64609744
_cell_angle_beta   96.64609699
_cell_angle_gamma   96.64609772
_symmetry_Int_Tables_number   1
_chemical_formula_structural   CoSnH12(OF)6
_chemical_formula_sum   'Co1 Sn1 H12 O6 F6'
_cell_volume   287.75732644
_cell_formula_units_Z   1
loop_
 _symmetry_equiv_pos_site_id
 _symmetry_equiv_pos_as_xyz
  1  'x, y, z'
loop_
 _atom_site_type_symbol
 _atom_site_label
 _atom_site_symmetry_multiplicity
 _atom_site_fract_x
 _atom_site_fract_y
 _atom_site_fract_z
 _atom_site_occupancy
  H  H0  1  0.69708887  0.89384112  0.54381930  1
  H  H1  1  0.89384012  0.54382030  0.69708887  1
  H  H2  1  0.54381930  0.69708987  0.89384112  1
  H  H3  1  0.30291113  0.10615888  0.45618070  1
  H  H4  1  0.10615888  0.45617970  0.30291113  1
  H  H5  1  0.45618070  0.30291113  0.10615888  1
  H  H6  1  0.66969119  0.80328063  0.30826214  1
  H  H7  1  0.80327963  0.30826214  0.66969219  1
  H  H8  1  0.30826314  0.66969119  0.80327963  1
  H  H9  1  0.19672037  0.69173686  0.33030981  1
  H  H10  1  0.69173686  0.33030781  0.19671937  1
  H  H11  1  0.33030881  0.19672037  0.69173686  1
  O  O12  1  0.79002221  0.43886892  0.61658764  1
  O  O13  1  0.43886892  0.61658664  0.79002221  1
  O  O14  1  0.38341236  0.20997879  0.56113008  1
  O  O15  1  0.20997779  0.56113208  0.38341336  1
  O  O16  1  0.56113108  0.38341236  0.20997879  1
  O  O17  1  0.61658764  0.79002221  0.43886892  1
  F  F18  1  0.84310958  0.06659335  0.74476723  1
  F  F19  1  0.06659335  0.74476723  0.84310958  1
  F  F20  1  0.74476723  0.84310958  0.06659335  1
  F  F21  1  0.15688942  0.93340665  0.25523177  1
  F  F22  1  0.25523277  0.15688942  0.93340765  1
  F  F23  1  0.93340665  0.25523277  0.15688942  1
  Co  Co24  1  0.50000100  0.50000000  0.50000100  1
  Sn  Sn25  1  0.00000000  0.00000000  0.00000000  1
