# generated using pymatgen
data_CaMn4(CuO4)3
_symmetry_space_group_name_H-M   'P 1'
_cell_length_a   6.40938344
_cell_length_b   6.40938316
_cell_length_c   6.40938303
_cell_angle_alpha   109.47122021
_cell_angle_beta   109.47121933
_cell_angle_gamma   109.47122278
_symmetry_Int_Tables_number   1
_chemical_formula_structural   CaMn4(CuO4)3
_chemical_formula_sum   'Ca1 Mn4 Cu3 O12'
_cell_volume   202.68743304
_cell_formula_units_Z   1
loop_
 _symmetry_equiv_pos_site_id
 _symmetry_equiv_pos_as_xyz
  1  'x, y, z'
loop_
 _atom_site_type_symbol
 _atom_site_label
 _atom_site_symmetry_multiplicity
 _atom_site_fract_x
 _atom_site_fract_y
 _atom_site_fract_z
 _atom_site_occupancy
  O  O0  1  0.51893129  0.82880281  0.69012748  1
  O  O1  1  0.13867433  0.82880281  0.30987152  1
  O  O2  1  0.86132567  0.17119719  0.69012948  1
  O  O3  1  0.17119619  0.30987152  0.48106871  1
  O  O4  1  0.30987152  0.48106871  0.17119719  1
  O  O5  1  0.69012848  0.51893129  0.82880281  1
  O  O6  1  0.82880281  0.30987152  0.13867533  1
  O  O7  1  0.69012748  0.86132567  0.17119619  1
  O  O8  1  0.48106871  0.17119719  0.30987152  1
  O  O9  1  0.17119719  0.69012848  0.86132567  1
  O  O10  1  0.82880381  0.69012848  0.51893229  1
  O  O11  1  0.30987052  0.13867433  0.82880281  1
  Ca  Ca12  1  0.00000000  0.00000000  0.00000000  1
  Mn  Mn13  1  0.00000000  0.00000000  0.50000000  1
  Mn  Mn14  1  0.00000000  0.50000100  0.00000100  1
  Mn  Mn15  1  0.50000100  0.50000100  0.50000000  1
  Mn  Mn16  1  0.50000000  0.00000000  0.00000100  1
  Cu  Cu17  1  0.50000100  0.50000100  0.00000000  1
  Cu  Cu18  1  0.00000000  0.50000100  0.50000100  1
  Cu  Cu19  1  0.50000000  0.00000000  0.50000100  1
