# generated using pymatgen
data_CeHSO5
_symmetry_space_group_name_H-M   'P 1'
_cell_length_a   4.55697537
_cell_length_b   6.97982334
_cell_length_c   12.65470328
_cell_angle_alpha   90.00000000
_cell_angle_beta   90.00000000
_cell_angle_gamma   106.37021063
_symmetry_Int_Tables_number   1
_chemical_formula_structural   CeHSO5
_chemical_formula_sum   'Ce4 H4 S4 O20'
_cell_volume   386.18930451
_cell_formula_units_Z   4
loop_
 _symmetry_equiv_pos_site_id
 _symmetry_equiv_pos_as_xyz
  1  'x, y, z'
loop_
 _atom_site_type_symbol
 _atom_site_label
 _atom_site_symmetry_multiplicity
 _atom_site_fract_x
 _atom_site_fract_y
 _atom_site_fract_z
 _atom_site_occupancy
  Ce  Ce0  1  0.14059387  0.80212534  0.93564439  1
  Ce  Ce1  1  0.35940613  0.69787466  0.43564439  1
  Ce  Ce2  1  0.85940613  0.19787466  0.06435561  1
  Ce  Ce3  1  0.64059387  0.30212534  0.56435561  1
  S  S4  1  0.48396575  0.38790966  0.85393200  1
  S  S5  1  0.01603425  0.11209034  0.35393200  1
  S  S6  1  0.51603425  0.61209034  0.14606800  1
  S  S7  1  0.98396575  0.88790966  0.64606800  1
  O  O8  1  0.24794821  0.21941343  0.90289668  1
  O  O9  1  0.25205179  0.28058657  0.40289668  1
  O  O10  1  0.75205179  0.78058657  0.09710332  1
  O  O11  1  0.74794821  0.71941343  0.59710332  1
  O  O12  1  0.36851869  0.56145431  0.83468248  1
  O  O13  1  0.13148131  0.93854569  0.33468248  1
  O  O14  1  0.63148131  0.43854569  0.16531752  1
  O  O15  1  0.86851869  0.06145431  0.66531752  1
  O  O16  1  0.75322524  0.44773013  0.92940803  1
  O  O17  1  0.74677476  0.05226987  0.42940803  1
  O  O18  1  0.24677476  0.55226987  0.07059197  1
  O  O19  1  0.25322524  0.94773013  0.57059197  1
  O  O20  1  0.58929109  0.32029482  0.75373832  1
  O  O21  1  0.91070891  0.17970518  0.25373832  1
  O  O22  1  0.41070891  0.67970518  0.24626168  1
  O  O23  1  0.08929109  0.82029482  0.74626168  1
  O  O24  1  0.30399939  0.04131188  0.08412635  1
  O  O25  1  0.19600061  0.45868812  0.58412635  1
  O  O26  1  0.69600061  0.95868812  0.91587365  1
  O  O27  1  0.80399939  0.54131188  0.41587365  1
  H  H28  1  0.26333968  0.97639225  0.15351462  1
  H  H29  1  0.23666032  0.52360775  0.65351462  1
  H  H30  1  0.73666032  0.02360775  0.84648538  1
  H  H31  1  0.76333968  0.47639225  0.34648538  1
