# generated using pymatgen
data_LiFeP4O13
_symmetry_space_group_name_H-M   'P 1'
_cell_length_a   8.84995382
_cell_length_b   10.21560743
_cell_length_c   13.87718225
_cell_angle_alpha   78.75424043
_cell_angle_beta   95.52152810
_cell_angle_gamma   114.12668440
_symmetry_Int_Tables_number   1
_chemical_formula_structural   LiFeP4O13
_chemical_formula_sum   'Li4 Fe4 P16 O52'
_cell_volume   1122.83085671
_cell_formula_units_Z   4
loop_
 _symmetry_equiv_pos_site_id
 _symmetry_equiv_pos_as_xyz
  1  'x, y, z'
loop_
 _atom_site_type_symbol
 _atom_site_label
 _atom_site_symmetry_multiplicity
 _atom_site_fract_x
 _atom_site_fract_y
 _atom_site_fract_z
 _atom_site_occupancy
  Li  Li0  1  0.50474200  0.86096042  0.48033020  1
  Li  Li1  1  0.87083768  0.19725716  0.00644161  1
  Li  Li2  1  0.63074001  0.30308395  0.99422682  1
  Li  Li3  1  0.15171290  0.80005969  0.99958004  1
  Fe  Fe4  1  0.18649886  0.24130844  0.25781211  1
  Fe  Fe5  1  0.31003130  0.25606841  0.74113996  1
  Fe  Fe6  1  0.81272950  0.75713723  0.74530694  1
  Fe  Fe7  1  0.68880866  0.74439540  0.25429226  1
  P  P8  1  0.61280543  0.03856941  0.18160659  1
  P  P9  1  0.04803690  0.94702868  0.15209633  1
  P  P10  1  0.16587613  0.95945031  0.64163941  1
  P  P11  1  0.31526890  0.98264467  0.29786403  1
  P  P12  1  0.10856491  0.53389373  0.18235648  1
  P  P13  1  0.33529868  0.54242411  0.35582428  1
  P  P14  1  0.88767473  0.46271716  0.81761921  1
  P  P15  1  0.38947276  0.96728121  0.81625293  1
  P  P16  1  0.83250784  0.03862287  0.35686839  1
  P  P17  1  0.95323529  0.05295999  0.84707638  1
  P  P18  1  0.80979855  0.47893024  0.30143251  1
  P  P19  1  0.18682725  0.51955345  0.70150635  1
  P  P20  1  0.54572683  0.44700012  0.15384598  1
  P  P21  1  0.45420632  0.55164693  0.84778837  1
  P  P22  1  0.68570934  0.01821262  0.70117989  1
  P  P23  1  0.66584269  0.46058404  0.64245879  1
  O  O24  1  0.35426962  0.61074258  0.75766326  1
  O  O25  1  0.87717980  0.05284671  0.93982021  1
  O  O26  1  0.63768065  0.11162646  0.61793656  1
  O  O27  1  0.82841981  0.89473326  0.33518017  1
  O  O28  1  0.75852217  0.39504460  0.73306332  1
  O  O29  1  0.79274897  0.61088500  0.32599658  1
  O  O30  1  0.44597903  0.04838332  0.20801802  1
  O  O31  1  0.62383787  0.44898903  0.06088472  1
  O  O32  1  0.13215556  0.16761497  0.84051075  1
  O  O33  1  0.64446716  0.38602716  0.24563750  1
  O  O34  1  0.63023588  0.66762383  0.84455081  1
  O  O35  1  0.73075320  0.99980033  0.44819520  1
  O  O36  1  0.94247130  0.54013060  0.21471665  1
  O  O37  1  0.20492814  0.38854807  0.67605134  1
  O  O38  1  0.07938605  0.37518511  0.18987721  1
  O  O39  1  0.55883346  0.59425346  0.17251758  1
  O  O40  1  0.67956910  0.60847417  0.65963233  1
  O  O41  1  0.24117049  0.60519591  0.26493298  1
  O  O42  1  0.85321213  0.38166170  0.38455167  1
  O  O43  1  0.67003044  0.14019650  0.08572051  1
  O  O44  1  0.32935808  0.87088994  0.91181360  1
  O  O45  1  0.58342441  0.87990825  0.18943932  1
  O  O46  1  0.15404511  0.63238654  0.08631592  1
  O  O47  1  0.29615393  0.11286220  0.32316782  1
  O  O48  1  0.94117355  0.90434865  0.83096495  1
  O  O49  1  0.55638161  0.95654713  0.79104406  1
  O  O50  1  0.69987302  0.88462334  0.67623795  1
  O  O51  1  0.00835468  0.15334522  0.36002951  1
  O  O52  1  0.14751809  0.88918209  0.24423698  1
  O  O53  1  0.26263494  0.89705847  0.73122470  1
  O  O54  1  0.25140365  0.52574303  0.45175453  1
  O  O55  1  0.05705602  0.09547496  0.16636553  1
  O  O56  1  0.74269113  0.10755824  0.26551540  1
  O  O57  1  0.18074470  0.10809127  0.65735162  1
  O  O58  1  0.44377304  0.40295940  0.83223921  1
  O  O59  1  0.51084502  0.66000508  0.35879459  1
  O  O60  1  0.91722550  0.62119271  0.81176822  1
  O  O61  1  0.12508604  0.94778379  0.05900736  1
  O  O62  1  0.36717235  0.33284997  0.15836164  1
  O  O63  1  0.14935191  0.62099077  0.61930987  1
  O  O64  1  0.48921711  0.34713514  0.64033011  1
  O  O65  1  0.36111319  0.88431897  0.37745330  1
  O  O66  1  0.05418638  0.45410029  0.78973761  1
  O  O67  1  0.36846516  0.53425880  0.94290561  1
  O  O68  1  0.75336099  0.48267406  0.54656475  1
  O  O69  1  0.87025590  0.83008753  0.15712159  1
  O  O70  1  0.85392079  0.11097749  0.75423802  1
  O  O71  1  0.42286660  0.12773729  0.80700283  1
  O  O72  1  0.32180080  0.39415352  0.34050619  1
  O  O73  1  0.98886395  0.84615804  0.64211081  1
  O  O74  1  0.25118563  0.97592686  0.54629372  1
  O  O75  1  0.83038346  0.36006995  0.91307046  1
