# generated using pymatgen
data_MnH10SO9
_symmetry_space_group_name_H-M   'P 1'
_cell_length_a   6.17986380
_cell_length_b   6.33266855
_cell_length_c   10.96004200
_cell_angle_alpha   75.46148167
_cell_angle_beta   81.58809324
_cell_angle_gamma   70.04754247
_symmetry_Int_Tables_number   1
_chemical_formula_structural   MnH10SO9
_chemical_formula_sum   'Mn2 H20 S2 O18'
_cell_volume   389.39864162
_cell_formula_units_Z   2
loop_
 _symmetry_equiv_pos_site_id
 _symmetry_equiv_pos_as_xyz
  1  'x, y, z'
loop_
 _atom_site_type_symbol
 _atom_site_label
 _atom_site_symmetry_multiplicity
 _atom_site_fract_x
 _atom_site_fract_y
 _atom_site_fract_z
 _atom_site_occupancy
  Mn  Mn0  1  0.00000000  0.00000000  0.00000000  1
  Mn  Mn1  1  0.00000000  0.50000000  0.50000000  1
  S  S2  1  0.34316593  0.02573577  0.71426500  1
  S  S3  1  0.65683407  0.97426423  0.28573500  1
  O  O4  1  0.28578724  0.91940713  0.84788642  1
  O  O5  1  0.71421276  0.08059287  0.15211358  1
  O  O6  1  0.17269773  0.26228207  0.67950080  1
  O  O7  1  0.82730227  0.73771793  0.32049920  1
  O  O8  1  0.33767909  0.87916226  0.62884313  1
  O  O9  1  0.66232091  0.12083774  0.37115687  1
  O  O10  1  0.57931269  0.04838404  0.70474578  1
  O  O11  1  0.42068731  0.95161596  0.29525422  1
  O  O12  1  0.83410366  0.81667257  0.92101631  1
  O  O13  1  0.16589634  0.18332743  0.07898369  1
  O  O14  1  0.80846610  0.32082208  0.87893213  1
  O  O15  1  0.19153390  0.67917792  0.12106787  1
  O  O16  1  0.67405490  0.47356970  0.60071419  1
  O  O17  1  0.32594510  0.52643030  0.39928581  1
  O  O18  1  0.96519969  0.77023507  0.59391880  1
  O  O19  1  0.03480031  0.22976493  0.40608120  1
  O  O20  1  0.33971825  0.44530789  0.87504276  1
  O  O21  1  0.66028175  0.55469211  0.12495724  1
  H  H22  1  0.72947125  0.89808983  0.85218523  1
  H  H23  1  0.27052875  0.10191017  0.14781477  1
  H  H24  1  0.76477151  0.70922265  0.98243215  1
  H  H25  1  0.23522849  0.29077735  0.01756785  1
  H  H26  1  0.63934881  0.36059862  0.87213525  1
  H  H27  1  0.36065119  0.63940138  0.12786475  1
  H  H28  1  0.87950789  0.34407569  0.79261984  1
  H  H29  1  0.12049211  0.65592431  0.20738016  1
  H  H30  1  0.62128858  0.33741873  0.62853982  1
  H  H31  1  0.37871142  0.66258127  0.37146018  1
  H  H32  1  0.54449359  0.61283422  0.61336902  1
  H  H33  1  0.45550641  0.38716578  0.38663098  1
  H  H34  1  0.81874892  0.87246960  0.62547687  1
  H  H35  1  0.18125108  0.12753040  0.37452313  1
  H  H36  1  0.09208892  0.82444152  0.60572037  1
  H  H37  1  0.90791108  0.17555848  0.39427963  1
  H  H38  1  0.28613110  0.61364413  0.86793673  1
  H  H39  1  0.71386890  0.38635587  0.13206327  1
  H  H40  1  0.26946153  0.41933453  0.80773136  1
  H  H41  1  0.73053847  0.58066547  0.19226864  1
