# generated using pymatgen
data_Hf3Sc4O12
_symmetry_space_group_name_H-M   'P 1'
_cell_length_a   6.19325128
_cell_length_b   6.17782303
_cell_length_c   18.44748770
_cell_angle_alpha   99.31191603
_cell_angle_beta   99.48013954
_cell_angle_gamma   99.64895468
_symmetry_Int_Tables_number   1
_chemical_formula_structural   Hf3Sc4O12
_chemical_formula_sum   'Hf9 Sc12 O36'
_cell_volume   673.18047912
_cell_formula_units_Z   3
loop_
 _symmetry_equiv_pos_site_id
 _symmetry_equiv_pos_as_xyz
  1  'x, y, z'
loop_
 _atom_site_type_symbol
 _atom_site_label
 _atom_site_symmetry_multiplicity
 _atom_site_fract_x
 _atom_site_fract_y
 _atom_site_fract_z
 _atom_site_occupancy
  Hf  Hf0  1  0.00517848  0.00324982  0.66841584  1
  Hf  Hf1  1  0.00514518  0.00409588  0.33490415  1
  Hf  Hf2  1  0.14113339  0.61035778  0.10287237  1
  Hf  Hf3  1  0.68534283  0.86012061  0.79698147  1
  Hf  Hf4  1  0.68275480  0.85636499  0.46210795  1
  Hf  Hf5  1  0.86953797  0.39041958  0.89781288  1
  Hf  Hf6  1  0.86363593  0.38960617  0.56449463  1
  Hf  Hf7  1  0.60637127  0.29541021  0.04431715  1
  Hf  Hf8  1  0.86011670  0.38957484  0.23085155  1
  O  O9  1  0.06694463  0.67325289  0.97440961  1
  O  O10  1  0.08509814  0.93849980  0.77476315  1
  O  O11  1  0.05611884  0.68439152  0.63264089  1
  O  O12  1  0.17765852  0.41874887  0.85973958  1
  O  O13  1  0.08233350  0.93789257  0.44147975  1
  O  O14  1  0.05340648  0.68497037  0.29672227  1
  O  O15  1  0.31817802  0.09555126  0.97873966  1
  O  O16  1  0.43118724  0.82138908  0.85923716  1
  O  O17  1  0.17256336  0.41268148  0.52597156  1
  O  O18  1  0.08584555  0.92998204  0.10804410  1
  O  O19  1  0.42522622  0.58340404  0.72746807  1
  O  O20  1  0.31981032  0.09846112  0.64733233  1
  O  O21  1  0.42877971  0.82011265  0.52549669  1
  O  O22  1  0.17111423  0.41446381  0.18871141  1
  O  O23  1  0.58885331  0.42796065  0.94148409  1
  O  O24  1  0.42191031  0.58416827  0.39374071  1
  O  O25  1  0.32112313  0.09652373  0.31452178  1
  O  O26  1  0.41614257  0.81424449  0.18993304  1
  O  O27  1  0.58745084  0.18154922  0.80750943  1
  O  O28  1  0.68207706  0.90718997  0.68796502  1
  O  O29  1  0.58162594  0.42673978  0.60518970  1
  O  O30  1  0.42031218  0.55867037  0.05960120  1
  O  O31  1  0.82367882  0.58419932  0.81310945  1
  O  O32  1  0.58886549  0.17816970  0.47347216  1
  O  O33  1  0.68175561  0.90428643  0.35321460  1
  O  O34  1  0.57983159  0.42824980  0.27215335  1
  O  O35  1  0.90038109  0.06032485  0.89310799  1
  O  O36  1  0.81920844  0.58053488  0.47796025  1
  O  O37  1  0.57964514  0.18358273  0.14192384  1
  O  O38  1  0.67021390  0.92795157  0.02311760  1
  O  O39  1  0.93943727  0.32721672  0.69256986  1
  O  O40  1  0.89409040  0.05420661  0.56072749  1
  O  O41  1  0.82068397  0.56944033  0.13940314  1
  O  O42  1  0.93874139  0.32797034  0.35900316  1
  O  O43  1  0.90158096  0.06184425  0.22721535  1
  O  O44  1  0.93537747  0.32248955  0.02739013  1
  Sc  Sc45  1  0.14314018  0.60713536  0.77295413  1
  Sc  Sc46  1  0.39671926  0.68994395  0.95435516  1
  Sc  Sc47  1  0.14124441  0.60630644  0.44066204  1
  Sc  Sc48  1  0.31706807  0.13866158  0.86855872  1
  Sc  Sc49  1  0.39295918  0.68479920  0.61964307  1
  Sc  Sc50  1  0.99869479  0.99498699  0.00082631  1
  Sc  Sc51  1  0.32233687  0.13920693  0.53594100  1
  Sc  Sc52  1  0.39187531  0.68615301  0.28563721  1
  Sc  Sc53  1  0.31298983  0.13579880  0.20254614  1
  Sc  Sc54  1  0.60462592  0.31840102  0.71177903  1
  Sc  Sc55  1  0.60480785  0.31978809  0.37824810  1
  Sc  Sc56  1  0.68707014  0.85830367  0.13102149  1
