# generated using pymatgen
data_LiCo2P3O10
_symmetry_space_group_name_H-M   'P 1'
_cell_length_a   8.11072847
_cell_length_b   8.11072833
_cell_length_c   9.16763112
_cell_angle_alpha   62.05311423
_cell_angle_beta   117.94688463
_cell_angle_gamma   116.50664115
_symmetry_Int_Tables_number   1
_chemical_formula_structural   LiCo2P3O10
_chemical_formula_sum   'Li2 Co4 P6 O20'
_cell_volume   450.33409706
_cell_formula_units_Z   2
loop_
 _symmetry_equiv_pos_site_id
 _symmetry_equiv_pos_as_xyz
  1  'x, y, z'
loop_
 _atom_site_type_symbol
 _atom_site_label
 _atom_site_symmetry_multiplicity
 _atom_site_fract_x
 _atom_site_fract_y
 _atom_site_fract_z
 _atom_site_occupancy
  Li  Li0  1  0.59674038  0.59674038  0.75000000  1
  Li  Li1  1  0.40325962  0.40325962  0.25000000  1
  Co  Co2  1  0.29767671  0.75652888  0.95649312  1
  Co  Co3  1  0.70232329  0.24347112  0.04350688  1
  Co  Co4  1  0.24347112  0.70232329  0.45649312  1
  Co  Co5  1  0.75652888  0.29767671  0.54350688  1
  P  P6  1  0.56068689  0.82900988  0.30862235  1
  P  P7  1  0.17099012  0.43931311  0.80862235  1
  P  P8  1  0.92161193  0.92161193  0.25000000  1
  P  P9  1  0.82900988  0.56068689  0.19137765  1
  P  P10  1  0.43931311  0.17099012  0.69137765  1
  P  P11  1  0.07838807  0.07838807  0.75000000  1
  O  O12  1  0.17209705  0.21451811  0.86988222  1
  O  O13  1  0.90772015  0.12314873  0.12830880  1
  O  O14  1  0.54616671  0.03442757  0.19232231  1
  O  O15  1  0.03442757  0.54616671  0.30767769  1
  O  O16  1  0.75808393  0.52089494  0.02057962  1
  O  O17  1  0.09227985  0.87685127  0.87169120  1
  O  O18  1  0.21451811  0.17209705  0.63011778  1
  O  O19  1  0.32058841  0.56846962  0.71112011  1
  O  O20  1  0.67941159  0.43153038  0.28887989  1
  O  O21  1  0.82790295  0.78548189  0.13011778  1
  O  O22  1  0.78548189  0.82790295  0.36988222  1
  O  O23  1  0.96557243  0.45383329  0.69232231  1
  O  O24  1  0.45383329  0.96557243  0.80767769  1
  O  O25  1  0.12314873  0.90772015  0.37169120  1
  O  O26  1  0.87685127  0.09227985  0.62830880  1
  O  O27  1  0.47910506  0.24191607  0.52057962  1
  O  O28  1  0.52089494  0.75808393  0.47942038  1
  O  O29  1  0.43153038  0.67941159  0.21112011  1
  O  O30  1  0.56846962  0.32058841  0.78887989  1
  O  O31  1  0.24191607  0.47910506  0.97942038  1
