# generated using pymatgen
data_SrH9ClO5
_symmetry_space_group_name_H-M   'P 1'
_cell_length_a   5.96405099
_cell_length_b   7.45879399
_cell_length_c   7.75398692
_cell_angle_alpha   89.64766004
_cell_angle_beta   72.16926764
_cell_angle_gamma   87.78251295
_symmetry_Int_Tables_number   1
_chemical_formula_structural   SrH9ClO5
_chemical_formula_sum   'Sr2 H18 Cl2 O10'
_cell_volume   328.11267068
_cell_formula_units_Z   2
loop_
 _symmetry_equiv_pos_site_id
 _symmetry_equiv_pos_as_xyz
  1  'x, y, z'
loop_
 _atom_site_type_symbol
 _atom_site_label
 _atom_site_symmetry_multiplicity
 _atom_site_fract_x
 _atom_site_fract_y
 _atom_site_fract_z
 _atom_site_occupancy
  Sr  Sr0  1  0.17624392  0.95800435  0.71540123  1
  Sr  Sr1  1  0.82375608  0.04199565  0.28459877  1
  Cl  Cl2  1  0.15568518  0.50590362  0.71801785  1
  Cl  Cl3  1  0.84431482  0.49409638  0.28198215  1
  O  O4  1  0.19757115  0.80299655  0.18713645  1
  O  O5  1  0.80242885  0.19700345  0.81286355  1
  O  O6  1  0.46061966  0.82270675  0.40491098  1
  O  O7  1  0.53938034  0.17729325  0.59508902  1
  O  O8  1  0.14447879  0.16228337  0.42709586  1
  O  O9  1  0.85552121  0.83771663  0.57290414  1
  O  O10  1  0.17325306  0.16563442  0.00409328  1
  O  O11  1  0.82674694  0.83436558  0.99590672  1
  O  O12  1  0.47702556  0.80281240  0.85324244  1
  O  O13  1  0.52297444  0.19718760  0.14675756  1
  H  H14  1  0.11890019  0.68672468  0.20504703  1
  H  H15  1  0.88109981  0.31327532  0.79495297  1
  H  H16  1  0.30680257  0.80447070  0.05524968  1
  H  H17  1  0.69319743  0.19552930  0.94475032  1
  H  H18  1  0.54550297  0.70538904  0.39772355  1
  H  H19  1  0.45449703  0.29461096  0.60227645  1
  H  H20  1  0.36412952  0.81165259  0.31873729  1
  H  H21  1  0.63587048  0.18834741  0.68126271  1
  H  H22  1  0.09686733  0.28776001  0.45990264  1
  H  H23  1  0.90313267  0.71223999  0.54009736  1
  H  H24  1  0.29630019  0.17039013  0.32016563  1
  H  H25  1  0.70369981  0.82960987  0.67983437  1
  H  H26  1  0.31357349  0.17805369  0.05212149  1
  H  H27  1  0.68642651  0.82194631  0.94787851  1
  H  H28  1  0.13744567  0.28844559  0.97168594  1
  H  H29  1  0.86255433  0.71155441  0.02831406  1
  H  H30  1  0.45878931  0.67668132  0.82823265  1
  H  H31  1  0.54121069  0.32331868  0.17176735  1
