# generated using pymatgen
data_Ni5(P2O7)4
_symmetry_space_group_name_H-M   'P 1'
_cell_length_a   12.75327206
_cell_length_b   9.25425770
_cell_length_c   10.73783980
_cell_angle_alpha   64.37346050
_cell_angle_beta   86.17956257
_cell_angle_gamma   73.93134907
_symmetry_Int_Tables_number   1
_chemical_formula_structural   Ni5(P2O7)4
_chemical_formula_sum   'Ni10 P16 O56'
_cell_volume   1095.93561652
_cell_formula_units_Z   2
loop_
 _symmetry_equiv_pos_site_id
 _symmetry_equiv_pos_as_xyz
  1  'x, y, z'
loop_
 _atom_site_type_symbol
 _atom_site_label
 _atom_site_symmetry_multiplicity
 _atom_site_fract_x
 _atom_site_fract_y
 _atom_site_fract_z
 _atom_site_occupancy
  Ni  Ni0  1  0.81364299  0.49722223  0.75340114  1
  Ni  Ni1  1  0.68635701  0.50277777  0.24659886  1
  Ni  Ni2  1  0.01039550  0.80149198  0.99026944  1
  Ni  Ni3  1  0.36158494  0.89716938  0.71715290  1
  Ni  Ni4  1  0.31434005  0.50515169  0.75704799  1
  Ni  Ni5  1  0.48960450  0.19850802  0.00973056  1
  Ni  Ni6  1  0.64225514  0.10962250  0.28160009  1
  Ni  Ni7  1  0.85774486  0.89037750  0.71839991  1
  Ni  Ni8  1  0.18565995  0.49484831  0.24295201  1
  Ni  Ni9  1  0.13841506  0.10283062  0.28284710  1
  P  P10  1  0.96001131  0.15653633  0.71500317  1
  P  P11  1  0.79142790  0.69911894  0.95597433  1
  P  P12  1  0.28688003  0.70971391  0.95013936  1
  P  P13  1  0.35336056  0.81050343  0.46047034  1
  P  P14  1  0.53998869  0.84346367  0.28499683  1
  P  P15  1  0.85416866  0.79543131  0.45924204  1
  P  P16  1  0.64583134  0.20456869  0.54075796  1
  P  P17  1  0.46028579  0.18995631  0.71794809  1
  P  P18  1  0.21311997  0.29028609  0.04986064  1
  P  P19  1  0.05994514  0.55994602  0.80719178  1
  P  P20  1  0.03971421  0.81004369  0.28205191  1
  P  P21  1  0.14663944  0.18949657  0.53952966  1
  P  P22  1  0.70857210  0.30088106  0.04402567  1
  P  P23  1  0.55733139  0.54336384  0.81304976  1
  P  P24  1  0.94266861  0.45663616  0.18695024  1
  P  P25  1  0.44005486  0.44005398  0.19280822  1
  O  O26  1  0.89077047  0.53325269  0.03087312  1
  O  O27  1  0.47668442  0.43865930  0.82789567  1
  O  O28  1  0.78074599  0.70979149  0.80747818  1
  O  O29  1  0.89161739  0.87065785  0.54470065  1
  O  O30  1  0.63728861  0.71641071  0.26974101  1
  O  O31  1  0.60922953  0.46674731  0.96912688  1
  O  O32  1  0.27483371  0.92524194  0.33466603  1
  O  O33  1  0.69236674  0.67896816  0.03891821  1
  O  O34  1  0.71498085  0.06509141  0.66792777  1
  O  O35  1  0.66277365  0.15053696  0.07103239  1
  O  O36  1  0.86271139  0.28358929  0.73025899  1
  O  O37  1  0.48922169  0.26985611  0.18795607  1
  O  O38  1  0.32233277  0.65662963  0.55920611  1
  O  O39  1  0.03829265  0.25661248  0.60967524  1
  O  O40  1  0.38668182  0.55368726  0.03627133  1
  O  O41  1  0.35120196  0.31841132  0.70190156  1
  O  O42  1  0.99686872  0.27386253  0.22528600  1
  O  O43  1  0.80763326  0.32103184  0.96108179  1
  O  O44  1  0.17766723  0.34337037  0.44079389  1
  O  O45  1  0.80376459  0.65615402  0.54855443  1
  O  O46  1  0.02304785  0.02867760  0.85152066  1
  O  O47  1  0.92535538  0.06909296  0.63772348  1
  O  O48  1  0.21968819  0.29658426  0.19244167  1
  O  O49  1  0.18534676  0.68922695  0.03273013  1
  O  O50  1  0.97665288  0.48870830  0.77569638  1
  O  O51  1  0.60838261  0.12934215  0.45529935  1
  O  O52  1  0.01077831  0.73014389  0.81204393  1
  O  O53  1  0.69623541  0.34384598  0.45144557  1
  O  O54  1  0.44714488  0.05919566  0.67486858  1
  O  O55  1  0.32223439  0.86879187  0.91066588  1
  O  O56  1  0.15393855  0.55620347  0.71187323  1
  O  O57  1  0.17776561  0.13120813  0.08933412  1
  O  O58  1  0.98303641  0.88335093  0.13850945  1
  O  O59  1  0.53835243  0.28472808  0.60322387  1
  O  O60  1  0.46170735  0.74338752  0.39032476  1
  O  O61  1  0.05285512  0.94080434  0.32513142  1
  O  O62  1  0.12054347  0.08667755  0.47138436  1
  O  O63  1  0.14879804  0.68158868  0.29809844  1
  O  O64  1  0.78501915  0.93490859  0.33207223  1
  O  O65  1  0.96164757  0.71527192  0.39677613  1
  O  O66  1  0.65063061  0.51948157  0.72202518  1
  O  O67  1  0.34606145  0.44379653  0.28812677  1
  O  O68  1  0.47695215  0.97132240  0.14847934  1
  O  O69  1  0.28031181  0.70341574  0.80755833  1
  O  O70  1  0.11331818  0.44631274  0.96372867  1
  O  O71  1  0.52334712  0.51129170  0.22430362  1
  O  O72  1  0.37945653  0.91332245  0.52861564  1
  O  O73  1  0.57464462  0.93090704  0.36227652  1
  O  O74  1  0.02331558  0.56134070  0.17210433  1
  O  O75  1  0.84936939  0.48051843  0.27797482  1
  O  O76  1  0.50313128  0.72613747  0.77471400  1
  O  O77  1  0.83722635  0.84946304  0.92896761  1
  O  O78  1  0.22516629  0.07475806  0.66533397  1
  O  O79  1  0.31465324  0.31077305  0.96726987  1
  O  O80  1  0.51696359  0.11664907  0.86149055  1
  O  O81  1  0.71925401  0.29020851  0.19252182  1
