# generated using pymatgen
data_Co2P3O10
_symmetry_space_group_name_H-M   'P 1'
_cell_length_a   8.07739438
_cell_length_b   7.85606413
_cell_length_c   9.63818947
_cell_angle_alpha   82.61317621
_cell_angle_beta   67.33037772
_cell_angle_gamma   113.16003867
_symmetry_Int_Tables_number   1
_chemical_formula_structural   Co2P3O10
_chemical_formula_sum   'Co4 P6 O20'
_cell_volume   489.76661328
_cell_formula_units_Z   2
loop_
 _symmetry_equiv_pos_site_id
 _symmetry_equiv_pos_as_xyz
  1  'x, y, z'
loop_
 _atom_site_type_symbol
 _atom_site_label
 _atom_site_symmetry_multiplicity
 _atom_site_fract_x
 _atom_site_fract_y
 _atom_site_fract_z
 _atom_site_occupancy
  Co  Co0  1  0.20099116  0.28451299  0.54272736  1
  Co  Co1  1  0.32511080  0.73419645  0.96751842  1
  Co  Co2  1  0.67488920  0.26580355  0.03248158  1
  Co  Co3  1  0.79900884  0.71548701  0.45727264  1
  O  O4  1  0.08347874  0.81439725  0.41251883  1
  O  O5  1  0.25594829  0.72410724  0.17413954  1
  O  O6  1  0.42958473  0.85004839  0.33802456  1
  O  O7  1  0.21974334  0.87692213  0.88369411  1
  O  O8  1  0.39885343  0.42600418  0.31807114  1
  O  O9  1  0.26358091  0.45846745  0.66735335  1
  O  O10  1  0.39126681  0.08226248  0.15586472  1
  O  O11  1  0.69401373  0.77258474  0.15238161  1
  O  O12  1  0.27518563  0.50886568  0.91891524  1
  O  O13  1  0.25631105  0.08255718  0.63324536  1
  O  O14  1  0.74368895  0.91744282  0.36675464  1
  O  O15  1  0.72481437  0.49113432  0.08108476  1
  O  O16  1  0.30598627  0.22741526  0.84761839  1
  O  O17  1  0.60873319  0.91773752  0.84413528  1
  O  O18  1  0.73641909  0.54153255  0.33264665  1
  O  O19  1  0.60114657  0.57399582  0.68192886  1
  O  O20  1  0.78025666  0.12307787  0.11630589  1
  O  O21  1  0.57041527  0.14995161  0.66197544  1
  O  O22  1  0.74405171  0.27589276  0.82586046  1
  O  O23  1  0.91652126  0.18560275  0.58748117  1
  P  P24  1  0.28156210  0.87009787  0.26876542  1
  P  P25  1  0.67261731  0.92484729  0.24477203  1
  P  P26  1  0.63077483  0.54348195  0.23274393  1
  P  P27  1  0.36922517  0.45651805  0.76725607  1
  P  P28  1  0.32738269  0.07515271  0.75522797  1
  P  P29  1  0.71843790  0.12990213  0.73123458  1
