# generated using pymatgen
data_LaSiAs3
_symmetry_space_group_name_H-M   'P 1'
_cell_length_a   6.12710191
_cell_length_b   6.00964741
_cell_length_c   26.65883520
_cell_angle_alpha   90.00000000
_cell_angle_beta   90.00000000
_cell_angle_gamma   90.00000000
_symmetry_Int_Tables_number   1
_chemical_formula_structural   LaSiAs3
_chemical_formula_sum   'La8 Si8 As24'
_cell_volume   981.62422189
_cell_formula_units_Z   8
loop_
 _symmetry_equiv_pos_site_id
 _symmetry_equiv_pos_as_xyz
  1  'x, y, z'
loop_
 _atom_site_type_symbol
 _atom_site_label
 _atom_site_symmetry_multiplicity
 _atom_site_fract_x
 _atom_site_fract_y
 _atom_site_fract_z
 _atom_site_occupancy
  La  La0  1  0.01587591  0.25201406  0.90949911  1
  La  La1  1  0.98412409  0.75201406  0.09050089  1
  La  La2  1  0.48412409  0.75201406  0.40949911  1
  La  La3  1  0.51587591  0.25201406  0.59050089  1
  La  La4  1  0.51692299  0.75236918  0.90351060  1
  La  La5  1  0.48307701  0.25236918  0.09648940  1
  La  La6  1  0.98307701  0.25236918  0.40351060  1
  La  La7  1  0.01692299  0.75236918  0.59648940  1
  As  As8  1  0.51139740  0.25488696  0.87488710  1
  As  As9  1  0.48860260  0.75488696  0.12511290  1
  As  As10  1  0.98860260  0.75488696  0.37488710  1
  As  As11  1  0.01139740  0.25488696  0.62511290  1
  As  As12  1  0.02094271  0.75560223  0.87813652  1
  As  As13  1  0.97905729  0.25560223  0.12186348  1
  As  As14  1  0.47905729  0.25560223  0.37813652  1
  As  As15  1  0.52094271  0.75560223  0.62186348  1
  As  As16  1  0.29575886  0.53160311  0.99791056  1
  As  As17  1  0.70424114  0.03160311  0.00208944  1
  As  As18  1  0.20424114  0.03160311  0.49791056  1
  As  As19  1  0.79575886  0.53160311  0.50208944  1
  As  As20  1  0.70611628  0.45710993  0.00171666  1
  As  As21  1  0.29388372  0.95710993  0.99828334  1
  As  As22  1  0.79388372  0.95710993  0.50171666  1
  As  As23  1  0.20611628  0.45710993  0.49828334  1
  As  As24  1  0.56771880  0.78057234  0.78599427  1
  As  As25  1  0.43228120  0.28057234  0.21400573  1
  As  As26  1  0.93228120  0.28057234  0.28599427  1
  As  As27  1  0.06771880  0.78057234  0.71400573  1
  As  As28  1  0.98420435  0.27927732  0.78974135  1
  As  As29  1  0.01579565  0.77927732  0.21025865  1
  As  As30  1  0.51579565  0.77927732  0.28974135  1
  As  As31  1  0.48420435  0.27927732  0.71025865  1
  Si  Si32  1  0.93693508  0.67290457  0.79473842  1
  Si  Si33  1  0.06306492  0.17290457  0.20526158  1
  Si  Si34  1  0.56306492  0.17290457  0.29473842  1
  Si  Si35  1  0.43693508  0.67290457  0.70526158  1
  Si  Si36  1  0.61275810  0.17466030  0.79214129  1
  Si  Si37  1  0.38724190  0.67466030  0.20785871  1
  Si  Si38  1  0.88724190  0.67466030  0.29214129  1
  Si  Si39  1  0.11275810  0.17466030  0.70785871  1
