# generated using pymatgen
data_Na26In4O19
_symmetry_space_group_name_H-M   'P 1'
_cell_length_a   12.54681719
_cell_length_b   12.48168524
_cell_length_c   12.48742948
_cell_angle_alpha   109.57105448
_cell_angle_beta   109.78179523
_cell_angle_gamma   109.14916693
_symmetry_Int_Tables_number   1
_chemical_formula_structural   Na26In4O19
_chemical_formula_sum   'Na52 In8 O38'
_cell_volume   1503.74156319
_cell_formula_units_Z   2
loop_
 _symmetry_equiv_pos_site_id
 _symmetry_equiv_pos_as_xyz
  1  'x, y, z'
loop_
 _atom_site_type_symbol
 _atom_site_label
 _atom_site_symmetry_multiplicity
 _atom_site_fract_x
 _atom_site_fract_y
 _atom_site_fract_z
 _atom_site_occupancy
  In  In0  1  0.99743767  0.81800765  0.50000184  1
  In  In1  1  -0.00256417  0.31800581  0.49999816  1
  In  In2  1  0.50117629  1.00263726  0.31949206  1
  In  In3  1  0.18375093  0.18401603  0.18301431  1
  In  In4  1  0.32013018  0.50256900  0.00588581  1
  In  In5  1  0.50073662  1.00100172  0.81698569  1
  In  In6  1  0.68168423  0.68314520  0.68050794  1
  In  In7  1  0.81424437  0.49668319  0.99411419  1
  Na  Na8  1  0.05692395  0.91475338  0.87129029  1
  Na  Na9  1  0.18167230  0.83036275  0.74103331  1
  Na  Na10  1  0.09039742  0.26443136  0.94313538  1
  Na  Na11  1  0.14173058  0.55276788  0.82064692  1
  Na  Na12  1  0.05436003  0.64630918  0.31946346  1
  Na  Na13  1  0.11721478  0.87438131  0.24834315  1
  Na  Na14  1  0.35446805  0.81262685  0.94403416  1
  Na  Na15  1  0.04256934  0.12891487  0.68678888  1
  Na  Na16  1  0.18333850  0.62930257  0.54509832  1
  Na  Na17  1  0.32239952  0.84081008  0.42676260  1
  Na  Na18  1  0.15103016  0.69010788  0.06592224  1
  Na  Na19  1  0.10291399  0.47223005  0.15308804  1
  Na  Na20  1  0.23489657  0.32684572  0.68053654  1
  Na  Na21  1  0.18139803  0.41011549  0.36531229  1
  Na  Na22  1  0.25902627  0.94375755  0.08828292  1
  Na  Na23  1  0.25508669  0.13006902  0.87478503  1
  Na  Na24  1  0.36887163  0.62603816  0.75165685  1
  Na  Na25  1  0.13824018  0.08420426  0.45490168  1
  Na  Na26  1  0.44705244  0.74843562  0.59984068  1
  Na  Na27  1  0.39563692  0.41404749  0.57323740  1
  Na  Na28  1  0.44982595  0.31914201  0.84691196  1
  Na  Na29  1  0.58510792  0.62418564  0.93407776  1
  Na  Na30  1  0.67074335  0.85547463  0.91171708  1
  Na  Na31  1  0.31608574  0.04480320  0.63468771  1
  Na  Na32  1  0.40078516  0.56446582  0.35585566  1
  Na  Na33  1  0.64035788  0.95671277  0.58436680  1
  Na  Na34  1  0.34721175  0.14859494  0.40015932  1
  Na  Na35  1  0.55752982  0.81356176  0.14176081  1
  Na  Na36  1  0.41255053  0.35100196  0.17374692  1
  Na  Na37  1  0.61358582  0.74823756  0.36724126  1
  Na  Na38  1  0.54492951  0.20861016  0.64414434  1
  Na  Na39  1  0.55599108  0.37234597  0.41563320  1
  Na  Na40  1  0.85045648  0.90668536  0.66401227  1
  Na  Na41  1  0.46090136  0.14328254  0.08667485  1
  Na  Na42  1  0.81260627  0.94260397  0.35595909  1
  Na  Na43  1  0.62984405  0.54035384  0.18932024  1
  Na  Na44  1  0.91576901  0.67180095  0.85823919  1
  Na  Na45  1  0.73880360  0.17725504  0.82625308  1
  Na  Na46  1  0.75865172  0.59094868  0.44372039  1
  Na  Na47  1  0.74634456  0.38099630  0.63275874  1
  Na  Na48  1  0.68644421  0.24267309  0.33598773  1
  Na  Na49  1  0.82108367  0.73212096  0.17935308  1
  Na  Na50  1  0.64726204  0.32129598  0.05686462  1
  Na  Na51  1  0.87422651  0.05660769  0.91332515  1
  Na  Na52  1  0.95664718  0.58664488  0.64404091  1
  Na  Na53  1  0.94052381  0.35103359  0.81067976  1
  Na  Na54  1  0.81493132  0.14722829  0.55627961  1
  Na  Na55  1  0.91043389  0.86859269  0.05596584  1
  Na  Na56  1  0.85578046  0.44212600  0.31321112  1
  Na  Na57  1  0.68563366  0.04346308  0.12870971  1
  Na  Na58  1  0.88030166  0.25528399  0.12521497  1
  Na  Na59  1  0.94063899  0.08932944  0.25896669  1
  O  O60  1  0.06243504  0.94723431  0.69611467  1
  O  O61  1  0.12668943  0.75009137  0.87562674  1
  O  O62  1  0.99741876  0.64775332  0.50075269  1
  O  O63  1  0.12508385  0.87973605  0.43362578  1
  O  O64  1  0.99666607  0.14700063  0.49924731  1
  O  O65  1  0.36472967  0.80992189  0.75565812  1
  O  O66  1  0.19145806  0.44611026  0.56637422  1
  O  O67  1  0.25274793  0.30745780  0.86503244  1
  O  O68  1  0.38553186  0.63161542  0.93946182  1
  O  O69  1  0.24413737  0.62046472  0.38674673  1
  O  O70  1  0.30554281  0.89725555  0.26181183  1
  O  O71  1  0.05666213  0.25073504  0.11434521  1
  O  O72  1  0.14197611  0.48988672  0.98857770  1
  O  O73  1  0.10907154  0.05426377  0.24434188  1
  O  O74  1  0.35739064  0.23371799  0.61325327  1
  O  O75  1  0.44231693  0.13638984  0.88565479  1
  O  O76  1  0.54373098  0.63544373  0.73818817  1
  O  O77  1  0.50108023  -0.00096791  0.14734944  1
  O  O78  1  0.35260284  0.35552588  0.35348390  1
  O  O79  1  0.61585118  0.74982705  0.55070744  1
  O  O80  1  0.63598135  0.94354197  0.38552316  1
  O  O81  1  0.24955149  0.11579152  0.05390535  1
  O  O82  1  0.45198669  0.54974201  0.19097838  1
  O  O83  1  0.85373079  0.85168265  0.85265056  1
  O  O84  1  0.49911894  0.00204198  0.64651610  1
  O  O85  1  0.56514374  0.19911960  0.44929256  1
  O  O86  1  0.69564615  0.06188617  0.94609465  1
  O  O87  1  0.75045819  0.55801881  0.61447684  1
  O  O88  1  0.76100831  0.35876363  0.80902162  1
  O  O89  1  0.75106269  0.87446463  0.12437326  1
  O  O90  1  0.62738857  0.37326940  0.25248035  1
  O  O91  1  0.80288608  0.75468744  0.37119748  1
  O  O92  1  0.65339841  0.50130902  0.01142230  1
  O  O93  1  0.87490822  0.12078905  0.74751965  1
  O  O94  1  0.93168860  0.38348995  0.62880252  1
  O  O95  1  0.86632037  0.25111964  0.30388533  1
  O  O96  1  0.88771549  0.44242537  0.13496756  1
  O  O97  1  0.94607004  0.69215360  0.06053818  1
