# generated using pymatgen
data_BaNdGaO4
_symmetry_space_group_name_H-M   'P 1'
_cell_length_a   5.91758144
_cell_length_b   7.19355038
_cell_length_c   10.02194404
_cell_angle_alpha   90.00000000
_cell_angle_beta   90.00000000
_cell_angle_gamma   90.00000000
_symmetry_Int_Tables_number   1
_chemical_formula_structural   BaNdGaO4
_chemical_formula_sum   'Ba4 Nd4 Ga4 O16'
_cell_volume   426.61832528
_cell_formula_units_Z   4
loop_
 _symmetry_equiv_pos_site_id
 _symmetry_equiv_pos_as_xyz
  1  'x, y, z'
loop_
 _atom_site_type_symbol
 _atom_site_label
 _atom_site_symmetry_multiplicity
 _atom_site_fract_x
 _atom_site_fract_y
 _atom_site_fract_z
 _atom_site_occupancy
  Ba  Ba0  1  0.75642978  0.67294340  0.32840644  1
  Ba  Ba1  1  0.25642978  0.32705660  0.17159356  1
  Ba  Ba2  1  0.74357022  0.17294340  0.67159356  1
  Ba  Ba3  1  0.24357022  0.82705660  0.82840644  1
  Nd  Nd4  1  0.76164938  0.50299364  0.95121297  1
  Nd  Nd5  1  0.26164938  0.49700636  0.54878703  1
  Nd  Nd6  1  0.73835062  0.00299364  0.04878703  1
  Nd  Nd7  1  0.23835062  0.99700636  0.45121297  1
  Ga  Ga8  1  0.73644459  0.71650206  0.66694649  1
  Ga  Ga9  1  0.23644459  0.28349794  0.83305351  1
  Ga  Ga10  1  0.76355541  0.21650206  0.33305351  1
  Ga  Ga11  1  0.26355541  0.78349794  0.16694649  1
  O  O12  1  0.75130271  0.85024622  0.82764843  1
  O  O13  1  0.25130271  0.14975378  0.67235157  1
  O  O14  1  0.74869729  0.35024622  0.17235157  1
  O  O15  1  0.24869729  0.64975378  0.32764843  1
  O  O16  1  0.50738723  0.80427365  0.55133452  1
  O  O17  1  0.00738723  0.19572635  0.94866548  1
  O  O18  1  0.99261277  0.30427365  0.44866548  1
  O  O19  1  0.49261277  0.69572635  0.05133452  1
  O  O20  1  0.58159850  0.50265308  0.72117356  1
  O  O21  1  0.08159850  0.49734692  0.77882644  1
  O  O22  1  0.91840150  0.00265308  0.27882644  1
  O  O23  1  0.41840150  0.99734692  0.22117356  1
  O  O24  1  0.99757230  0.76231520  0.56734230  1
  O  O25  1  0.49757230  0.23768480  0.93265770  1
  O  O26  1  0.50242770  0.26231520  0.43265770  1
  O  O27  1  0.00242770  0.73768480  0.06734230  1
