# generated using pymatgen
data_Sr2TbGaCu2O7
_symmetry_space_group_name_H-M   'P 1'
_cell_length_a   5.41626377
_cell_length_b   5.53624993
_cell_length_c   12.22952371
_cell_angle_alpha   103.08678919
_cell_angle_beta   102.79636245
_cell_angle_gamma   90.00095767
_symmetry_Int_Tables_number   1
_chemical_formula_structural   Sr2TbGaCu2O7
_chemical_formula_sum   'Sr4 Tb2 Ga2 Cu4 O14'
_cell_volume   347.83026607
_cell_formula_units_Z   2
loop_
 _symmetry_equiv_pos_site_id
 _symmetry_equiv_pos_as_xyz
  1  'x, y, z'
loop_
 _atom_site_type_symbol
 _atom_site_label
 _atom_site_symmetry_multiplicity
 _atom_site_fract_x
 _atom_site_fract_y
 _atom_site_fract_z
 _atom_site_occupancy
  Tb  Tb0  1  0.50051955  0.49999974  0.00001594  1
  Tb  Tb1  1  0.00046865  0.00003415  0.00002105  1
  Sr  Sr2  1  0.34696418  0.36673190  0.69693498  1
  Sr  Sr3  1  0.64989249  0.63323644  0.30294696  1
  Sr  Sr4  1  0.84686769  0.83019014  0.69692655  1
  Sr  Sr5  1  0.14989759  0.16976404  0.30295806  1
  Cu  Cu6  1  0.92925770  0.42734835  0.85680208  1
  Cu  Cu7  1  0.07243145  0.57284684  0.14356753  1
  Cu  Cu8  1  0.42900441  0.92925299  0.85653557  1
  Cu  Cu9  1  0.57235312  0.07065564  0.14342078  1
  Ga  Ga10  1  0.71197630  0.18082661  0.49995589  1
  Ga  Ga11  1  0.21197677  0.81913443  0.49987176  1
  O  O12  1  0.85964649  0.86646287  0.49992444  1
  O  O13  1  0.35960567  0.13346877  0.49990397  1
  O  O14  1  0.18691993  0.18588869  0.87191944  1
  O  O15  1  0.31506017  0.81420615  0.12816986  1
  O  O16  1  0.68692790  0.18595616  0.87193146  1
  O  O17  1  0.81487112  0.81428809  0.12817356  1
  O  O18  1  0.68785302  0.68669162  0.87627431  1
  O  O19  1  0.81146301  0.31314630  0.12382140  1
  O  O20  1  0.18787257  0.68948920  0.87629090  1
  O  O21  1  0.31166739  0.31049748  0.12381086  1
  O  O22  1  0.35222886  0.77622030  0.64607364  1
  O  O23  1  0.70610594  0.22374548  0.35383727  1
  O  O24  1  0.85212001  0.36972501  0.64618116  1
  O  O25  1  0.20604803  0.63019260  0.35373060  1
