# generated using pymatgen
data_CdH4Br3N
_symmetry_space_group_name_H-M   'P 1'
_cell_length_a   4.39002834
_cell_length_b   9.21381405
_cell_length_c   16.16450405
_cell_angle_alpha   90.00000000
_cell_angle_beta   90.00000000
_cell_angle_gamma   90.00000000
_symmetry_Int_Tables_number   1
_chemical_formula_structural   CdH4Br3N
_chemical_formula_sum   'Cd4 H16 Br12 N4'
_cell_volume   653.83648544
_cell_formula_units_Z   4
loop_
 _symmetry_equiv_pos_site_id
 _symmetry_equiv_pos_as_xyz
  1  'x, y, z'
loop_
 _atom_site_type_symbol
 _atom_site_label
 _atom_site_symmetry_multiplicity
 _atom_site_fract_x
 _atom_site_fract_y
 _atom_site_fract_z
 _atom_site_occupancy
  Cd  Cd0  1  0.75000000  0.83255840  0.05867939  1
  Cd  Cd1  1  0.25000000  0.16744160  0.94132061  1
  Cd  Cd2  1  0.75000000  0.33255840  0.44132061  1
  Cd  Cd3  1  0.25000000  0.66744160  0.55867939  1
  Br  Br4  1  0.75000000  0.71786022  0.21117358  1
  Br  Br5  1  0.25000000  0.28213978  0.78882642  1
  Br  Br6  1  0.75000000  0.21786022  0.28882642  1
  Br  Br7  1  0.25000000  0.78213978  0.71117358  1
  Br  Br8  1  0.25000000  0.66309943  1.00096651  1
  Br  Br9  1  0.75000000  0.33690057  -0.00096651  1
  Br  Br10  1  0.25000000  0.16309943  0.49903349  1
  Br  Br11  1  0.75000000  0.83690057  0.50096651  1
  Br  Br12  1  0.75000000  0.96517831  0.90164897  1
  Br  Br13  1  0.25000000  0.03482169  0.09835103  1
  Br  Br14  1  0.75000000  0.46517831  0.59835103  1
  Br  Br15  1  0.25000000  0.53482169  0.40164897  1
  N  N16  1  0.75000000  0.56600350  0.82927457  1
  N  N17  1  0.25000000  0.43399650  0.17072543  1
  N  N18  1  0.75000000  0.06600350  0.67072543  1
  N  N19  1  0.25000000  0.93399650  0.32927457  1
  H  H20  1  0.75000000  0.67704043  0.83730684  1
  H  H21  1  0.25000000  0.32295957  0.16269316  1
  H  H22  1  0.75000000  0.17704043  0.66269316  1
  H  H23  1  0.25000000  0.82295957  0.33730684  1
  H  H24  1  0.75000000  0.51176105  0.88579131  1
  H  H25  1  0.25000000  0.48823895  0.11420869  1
  H  H26  1  0.75000000  0.01176105  0.61420869  1
  H  H27  1  0.25000000  0.98823895  0.38579131  1
  H  H28  1  0.93985616  0.53455874  0.79621440  1
  H  H29  1  0.43985616  0.46544126  0.20378560  1
  H  H30  1  0.56014384  0.03455874  0.70378560  1
  H  H31  1  0.06014384  0.96544126  0.29621440  1
  H  H32  1  0.06014384  0.46544126  0.20378560  1
  H  H33  1  0.56014384  0.53455874  0.79621440  1
  H  H34  1  0.43985616  0.96544126  0.29621440  1
  H  H35  1  0.93985616  0.03455874  0.70378560  1
