# generated using pymatgen
data_Rb10NaAl11Si13O48
_symmetry_space_group_name_H-M   'P 1'
_cell_length_a   12.65427430
_cell_length_b   12.24154934
_cell_length_c   12.06775249
_cell_angle_alpha   90.16477281
_cell_angle_beta   89.84211206
_cell_angle_gamma   89.43293889
_symmetry_Int_Tables_number   1
_chemical_formula_structural   Rb10NaAl11Si13O48
_chemical_formula_sum   'Rb10 Na1 Al11 Si13 O48'
_cell_volume   1869.28394673
_cell_formula_units_Z   1
loop_
 _symmetry_equiv_pos_site_id
 _symmetry_equiv_pos_as_xyz
  1  'x, y, z'
loop_
 _atom_site_type_symbol
 _atom_site_label
 _atom_site_symmetry_multiplicity
 _atom_site_fract_x
 _atom_site_fract_y
 _atom_site_fract_z
 _atom_site_occupancy
  Rb  Rb0  1  0.01997631  0.50543016  0.53350754  1
  Rb  Rb1  1  0.26216511  0.73787685  0.25420521  1
  Rb  Rb2  1  0.24435156  0.74128509  0.74390330  1
  Rb  Rb3  1  0.56702043  0.01272827  0.49378341  1
  Rb  Rb4  1  0.55416399  0.49861655  0.00186233  1
  Rb  Rb5  1  0.72118351  0.26700658  0.26682606  1
  Rb  Rb6  1  0.73613921  0.24333604  0.74913104  1
  Rb  Rb7  1  0.73517866  0.75979223  0.23704134  1
  Rb  Rb8  1  0.67776764  0.69996499  0.73737793  1
  Rb  Rb9  1  0.95598019  0.11502708  0.07620246  1
  Na  Na10  1  0.83130703  0.85396333  0.86262796  1
  Al  Al11  1  0.99582442  0.81067961  0.62530823  1
  Al  Al12  1  0.37607701  0.80538071  0.99400786  1
  Al  Al13  1  0.60686743  0.00943071  0.19156058  1
  Al  Al14  1  0.60662028  0.19387433  0.00531427  1
  Al  Al15  1  0.61672364  0.00147055  0.80342982  1
  Al  Al16  1  0.61615494  0.81112205  0.99136396  1
  Al  Al17  1  0.82704641  0.99682903  0.35234797  1
  Al  Al18  1  0.82244733  0.99055138  0.63181242  1
  Al  Al19  1  0.81776961  0.36302783  0.00032639  1
  Al  Al20  1  0.82698702  0.63496525  0.99348740  1
  Al  Al21  1  0.99901247  0.62095839  0.80824666  1
  Si  Si22  1  0.18100533  0.00151079  0.36834692  1
  Si  Si23  1  0.18277173  0.99890108  0.61879855  1
  Si  Si24  1  0.17927273  0.36247502  0.99955837  1
  Si  Si25  1  0.18804558  0.60971499  0.99833279  1
  Si  Si26  1  0.37187877  0.99637577  0.18552737  1
  Si  Si27  1  0.36685341  0.18139480  0.99430894  1
  Si  Si28  1  0.36899523  0.99945148  0.80610881  1
  Si  Si29  1  0.99746419  0.18421405  0.36992843  1
  Si  Si30  1  0.00027399  0.17673427  0.62760145  1
  Si  Si31  1  0.99864119  0.37218558  0.18861397  1
  Si  Si32  1  0.99628757  0.35770737  0.81895645  1
  Si  Si33  1  0.00793578  0.62361896  0.18297118  1
  Si  Si34  1  0.00135673  0.82061816  0.35773923  1
  O  O35  1  0.01449616  0.29934397  0.30168442  1
  O  O36  1  0.99121707  0.49884364  0.23447017  1
  O  O37  1  0.00992885  0.28827368  0.70230968  1
  O  O38  1  0.02721855  0.70317673  0.29090316  1
  O  O39  1  0.97674162  0.48106360  0.77635931  1
  O  O40  1  0.97558359  0.78414613  0.48206388  1
  O  O41  1  0.03163943  0.68261459  0.68159778  1
  O  O42  1  0.10310796  0.10799176  0.35442710  1
  O  O43  1  0.10272589  0.35371193  0.10998649  1
  O  O44  1  0.11283526  0.11138436  0.63193428  1
  O  O45  1  0.12121655  0.62173736  0.11674596  1
  O  O46  1  0.10766479  0.34718028  0.88900889  1
  O  O47  1  0.11518788  0.88721263  0.35079052  1
  O  O48  1  0.11399487  0.62811453  0.89255020  1
  O  O49  1  0.11263466  0.89157072  0.63700452  1
  O  O50  1  0.23473686  0.99930991  0.49155175  1
  O  O51  1  0.23697163  0.48240503  0.99837057  1
  O  O52  1  0.27043588  0.00351948  0.27330331  1
  O  O53  1  0.26475714  0.26580260  0.00713759  1
  O  O54  1  0.28183358  0.99925007  0.70364436  1
  O  O55  1  0.28268074  0.69631007  0.00383166  1
  O  O56  1  0.36048919  0.10155116  0.10295822  1
  O  O57  1  0.34583258  0.10913525  0.88211018  1
  O  O58  1  0.35653773  0.88223742  0.11772982  1
  O  O59  1  0.34667836  0.88897060  0.87770820  1
  O  O60  1  0.47870954  0.99824513  0.25946930  1
  O  O61  1  0.47444436  0.25098376  0.98904093  1
  O  O62  1  0.48458066  0.00190165  0.74855899  1
  O  O63  1  0.49643751  0.73830482  0.98045199  1
  O  O64  1  0.61535313  0.14005856  0.13773830  1
  O  O65  1  0.63780765  0.11035388  0.89336474  1
  O  O66  1  0.62395633  0.90004020  0.10285895  1
  O  O67  1  0.64939236  0.87279145  0.86175606  1
  O  O68  1  0.70108763  0.00024238  0.29794032  1
  O  O69  1  0.69684577  0.02068701  0.68541930  1
  O  O70  1  0.69407202  0.30514944  0.00552147  1
  O  O71  1  0.71128354  0.70783541  0.01394428  1
  O  O72  1  0.81276515  0.97703035  0.49072177  1
  O  O73  1  0.79601104  0.49926070  0.98416267  1
  O  O74  1  0.89545869  0.12310460  0.31858213  1
  O  O75  1  0.89996602  0.10877385  0.66636399  1
  O  O76  1  0.89296775  0.33124840  0.12585322  1
  O  O77  1  0.90177970  0.30548249  0.89349076  1
  O  O78  1  0.90871510  0.66252116  0.11220066  1
  O  O79  1  0.88863913  0.68022600  0.87140837  1
  O  O80  1  0.91146436  0.89126825  0.29317753  1
  O  O81  1  0.88556543  0.87352587  0.68767558  1
  O  O82  1  0.98410387  0.22398780  0.49895007  1
