# generated using pymatgen
data_Li22Si5
_symmetry_space_group_name_H-M   'P 1'
_cell_length_a   13.17479590
_cell_length_b   13.17479590
_cell_length_c   13.17479590
_cell_angle_alpha   60.00000000
_cell_angle_beta   60.00000000
_cell_angle_gamma   60.00000000
_symmetry_Int_Tables_number   1
_chemical_formula_structural   Li22Si5
_chemical_formula_sum   'Li88 Si20'
_cell_volume   1617.02483433
_cell_formula_units_Z   4
loop_
 _symmetry_equiv_pos_site_id
 _symmetry_equiv_pos_as_xyz
  1  'x, y, z'
loop_
 _atom_site_type_symbol
 _atom_site_label
 _atom_site_symmetry_multiplicity
 _atom_site_fract_x
 _atom_site_fract_y
 _atom_site_fract_z
 _atom_site_occupancy
  Li  Li0  1  0.00000000  0.00000000  -0.00000000  1
  Li  Li1  1  0.50000000  0.50000000  0.50000000  1
  Li  Li2  1  0.75000000  0.75000000  0.75000000  1
  Li  Li3  1  0.25000000  0.25000000  0.25000000  1
  Li  Li4  1  0.21530706  0.92823098  0.92823098  1
  Li  Li5  1  0.92823098  0.21530706  0.92823098  1
  Li  Li6  1  0.92823098  0.92823098  0.21530706  1
  Li  Li7  1  0.92823098  0.92823098  0.92823098  1
  Li  Li8  1  0.50415290  0.83194903  0.83194903  1
  Li  Li9  1  0.83194903  0.50415290  0.83194903  1
  Li  Li10  1  0.83194903  0.83194903  0.50415290  1
  Li  Li11  1  0.83194903  0.83194903  0.83194903  1
  Li  Li12  1  0.97716201  0.67427933  0.67427933  1
  Li  Li13  1  0.67427933  0.97716201  0.67427933  1
  Li  Li14  1  0.67427933  0.67427933  0.97716201  1
  Li  Li15  1  0.67427933  0.67427933  0.67427933  1
  Li  Li16  1  0.27024618  0.57658461  0.57658461  1
  Li  Li17  1  0.57658461  0.27024618  0.57658461  1
  Li  Li18  1  0.57658461  0.57658461  0.27024618  1
  Li  Li19  1  0.57658461  0.57658461  0.57658461  1
  Li  Li20  1  0.74876323  0.41707892  0.41707892  1
  Li  Li21  1  0.41707892  0.74876323  0.41707892  1
  Li  Li22  1  0.41707892  0.41707892  0.74876323  1
  Li  Li23  1  0.41707892  0.41707892  0.41707892  1
  Li  Li24  1  0.48137125  0.17287625  0.17287625  1
  Li  Li25  1  0.17287625  0.48137125  0.17287625  1
  Li  Li26  1  0.17287625  0.17287625  0.48137125  1
  Li  Li27  1  0.17287625  0.17287625  0.17287625  1
  Li  Li28  1  0.17234294  0.82765706  0.17234294  1
  Li  Li29  1  0.17234294  0.82765706  0.82765706  1
  Li  Li30  1  0.17234294  0.17234294  0.82765706  1
  Li  Li31  1  0.82765706  0.17234294  0.82765706  1
  Li  Li32  1  0.82765706  0.17234294  0.17234294  1
  Li  Li33  1  0.82765706  0.82765706  0.17234294  1
  Li  Li34  1  0.08317043  0.41682957  0.08317043  1
  Li  Li35  1  0.08317043  0.41682957  0.41682957  1
  Li  Li36  1  0.08317043  0.08317043  0.41682957  1
  Li  Li37  1  0.41682957  0.08317043  0.41682957  1
  Li  Li38  1  0.41682957  0.08317043  0.08317043  1
  Li  Li39  1  0.41682957  0.41682957  0.08317043  1
  Li  Li40  1  0.99780602  0.99250975  0.67916948  1
  Li  Li41  1  0.99780602  0.33051475  0.99250975  1
  Li  Li42  1  0.99780602  0.67916948  0.33051475  1
  Li  Li43  1  0.99250975  0.99780602  0.33051475  1
  Li  Li44  1  0.33051475  0.99780602  0.67916948  1
  Li  Li45  1  0.67916948  0.99780602  0.99250975  1
  Li  Li46  1  0.67916948  0.33051475  0.99780602  1
  Li  Li47  1  0.99250975  0.67916948  0.99780602  1
  Li  Li48  1  0.33051475  0.99250975  0.99780602  1
  Li  Li49  1  0.33051475  0.67916948  0.99250975  1
  Li  Li50  1  0.67916948  0.99250975  0.33051475  1
  Li  Li51  1  0.99250975  0.33051475  0.67916948  1
  Li  Li52  1  0.82819582  0.18290041  0.49159816  1
  Li  Li53  1  0.82819582  0.49730561  0.18290041  1
  Li  Li54  1  0.82819582  0.49159816  0.49730561  1
  Li  Li55  1  0.18290041  0.82819582  0.49730561  1
  Li  Li56  1  0.49730561  0.82819582  0.49159816  1
  Li  Li57  1  0.49159816  0.82819582  0.18290041  1
  Li  Li58  1  0.49159816  0.49730561  0.82819582  1
  Li  Li59  1  0.18290041  0.49159816  0.82819582  1
  Li  Li60  1  0.49730561  0.18290041  0.82819582  1
  Li  Li61  1  0.49730561  0.49159816  0.18290041  1
  Li  Li62  1  0.49159816  0.18290041  0.49730561  1
  Li  Li63  1  0.18290041  0.49730561  0.49159816  1
  Li  Li64  1  0.43878453  0.73920869  0.07713333  1
  Li  Li65  1  0.43878453  0.74487345  0.73920869  1
  Li  Li66  1  0.43878453  0.07713333  0.74487345  1
  Li  Li67  1  0.73920869  0.43878453  0.74487345  1
  Li  Li68  1  0.74487345  0.43878453  0.07713333  1
  Li  Li69  1  0.07713333  0.43878453  0.73920869  1
  Li  Li70  1  0.07713333  0.74487345  0.43878453  1
  Li  Li71  1  0.73920869  0.07713333  0.43878453  1
  Li  Li72  1  0.74487345  0.73920869  0.43878453  1
  Li  Li73  1  0.74487345  0.07713333  0.73920869  1
  Li  Li74  1  0.07713333  0.73920869  0.74487345  1
  Li  Li75  1  0.73920869  0.74487345  0.07713333  1
  Li  Li76  1  0.92063905  0.24777295  0.57824093  1
  Li  Li77  1  0.92063905  0.25334707  0.24777295  1
  Li  Li78  1  0.92063905  0.57824093  0.25334707  1
  Li  Li79  1  0.24777295  0.92063905  0.25334707  1
  Li  Li80  1  0.25334707  0.92063905  0.57824093  1
  Li  Li81  1  0.57824093  0.92063905  0.24777295  1
  Li  Li82  1  0.57824093  0.25334707  0.92063905  1
  Li  Li83  1  0.24777295  0.57824093  0.92063905  1
  Li  Li84  1  0.25334707  0.24777295  0.92063905  1
  Li  Li85  1  0.25334707  0.57824093  0.24777295  1
  Li  Li86  1  0.57824093  0.24777295  0.25334707  1
  Li  Li87  1  0.24777295  0.25334707  0.57824093  1
  Si  Si88  1  0.73464166  0.08845278  0.08845278  1
  Si  Si89  1  0.08845278  0.73464166  0.08845278  1
  Si  Si90  1  0.08845278  0.08845278  0.73464166  1
  Si  Si91  1  0.08845278  0.08845278  0.08845278  1
  Si  Si92  1  0.00006943  0.33331019  0.33331019  1
  Si  Si93  1  0.33331019  0.00006943  0.33331019  1
  Si  Si94  1  0.33331019  0.33331019  0.00006943  1
  Si  Si95  1  0.33331019  0.33331019  0.33331019  1
  Si  Si96  1  0.32464197  0.67535803  0.32464197  1
  Si  Si97  1  0.32464197  0.67535803  0.67535803  1
  Si  Si98  1  0.32464197  0.32464197  0.67535803  1
  Si  Si99  1  0.67535803  0.32464197  0.67535803  1
  Si  Si100  1  0.67535803  0.32464197  0.32464197  1
  Si  Si101  1  0.67535803  0.67535803  0.32464197  1
  Si  Si102  1  0.57401534  0.92598466  0.57401534  1
  Si  Si103  1  0.57401534  0.92598466  0.92598466  1
  Si  Si104  1  0.57401534  0.57401534  0.92598466  1
  Si  Si105  1  0.92598466  0.57401534  0.92598466  1
  Si  Si106  1  0.92598466  0.57401534  0.57401534  1
  Si  Si107  1  0.92598466  0.92598466  0.57401534  1
