# generated using pymatgen
data_Si6Cl10O7
_symmetry_space_group_name_H-M   'P 1'
_cell_length_a   6.44709671
_cell_length_b   8.63604627
_cell_length_c   21.39171411
_cell_angle_alpha   90.00000000
_cell_angle_beta   90.00000000
_cell_angle_gamma   99.31532126
_symmetry_Int_Tables_number   1
_chemical_formula_structural   Si6Cl10O7
_chemical_formula_sum   'Si12 Cl20 O14'
_cell_volume   1175.32874928
_cell_formula_units_Z   2
loop_
 _symmetry_equiv_pos_site_id
 _symmetry_equiv_pos_as_xyz
  1  'x, y, z'
loop_
 _atom_site_type_symbol
 _atom_site_label
 _atom_site_symmetry_multiplicity
 _atom_site_fract_x
 _atom_site_fract_y
 _atom_site_fract_z
 _atom_site_occupancy
  Si  Si0  1  0.21769627  0.61904187  0.75000000  1
  Si  Si1  1  0.78230373  0.38095813  0.25000000  1
  Si  Si2  1  0.00750997  0.55105041  0.61885122  1
  Si  Si3  1  0.99249003  0.44894959  0.11885122  1
  Si  Si4  1  0.99249003  0.44894959  0.38114878  1
  Si  Si5  1  0.00750997  0.55105041  0.88114878  1
  Si  Si6  1  0.12479690  0.20216577  0.62094318  1
  Si  Si7  1  0.87520310  0.79783423  0.12094318  1
  Si  Si8  1  0.87520310  0.79783423  0.37905682  1
  Si  Si9  1  0.12479690  0.20216577  0.87905682  1
  Si  Si10  1  0.35019091  0.27919043  0.75000000  1
  Si  Si11  1  0.64980909  0.72080957  0.25000000  1
  O  O12  1  0.33147953  0.46394632  0.75000000  1
  O  O13  1  0.66852047  0.53605368  0.25000000  1
  O  O14  1  0.06952448  0.61877606  0.68841411  1
  O  O15  1  0.93047552  0.38122394  0.18841411  1
  O  O16  1  0.93047552  0.38122394  0.31158589  1
  O  O17  1  0.06952448  0.61877606  0.81158589  1
  O  O18  1  0.05247224  0.37212047  0.61235901  1
  O  O19  1  0.94752776  0.62787953  0.11235901  1
  O  O20  1  0.94752776  0.62787953  0.38764099  1
  O  O21  1  0.05247224  0.37212047  0.88764099  1
  O  O22  1  0.23908708  0.19253151  0.68831594  1
  O  O23  1  0.76091292  0.80746849  0.18831594  1
  O  O24  1  0.76091292  0.80746849  0.31168406  1
  O  O25  1  0.23908708  0.19253151  0.81168406  1
  Cl  Cl26  1  0.44157375  0.81249675  0.75000000  1
  Cl  Cl27  1  0.55842625  0.18750325  0.25000000  1
  Cl  Cl28  1  0.69735665  0.55555063  0.60421897  1
  Cl  Cl29  1  0.30264335  0.44444937  0.10421897  1
  Cl  Cl30  1  0.30264335  0.44444937  0.39578103  1
  Cl  Cl31  1  0.69735665  0.55555063  0.89578103  1
  Cl  Cl32  1  0.17933214  0.68689835  0.55372701  1
  Cl  Cl33  1  0.82066786  0.31310165  0.05372701  1
  Cl  Cl34  1  0.82066786  0.31310165  0.44627299  1
  Cl  Cl35  1  0.17933214  0.68689835  0.94627299  1
  Cl  Cl36  1  0.32604497  0.16675751  0.55137194  1
  Cl  Cl37  1  0.67395503  0.83324249  0.05137194  1
  Cl  Cl38  1  0.67395503  0.83324249  0.44862806  1
  Cl  Cl39  1  0.32604497  0.16675751  0.94862806  1
  Cl  Cl40  1  0.86864677  0.03129463  0.61713588  1
  Cl  Cl41  1  0.13135323  0.96870537  0.11713588  1
  Cl  Cl42  1  0.13135323  0.96870537  0.38286412  1
  Cl  Cl43  1  0.86864677  0.03129463  0.88286412  1
  Cl  Cl44  1  0.65945664  0.25689503  0.75000000  1
  Cl  Cl45  1  0.34054336  0.74310497  0.25000000  1
