# generated using pymatgen
data_LiZr2(PO4)3
_symmetry_space_group_name_H-M   'P 1'
_cell_length_a   9.05810544
_cell_length_b   9.05810574
_cell_length_c   9.05810548
_cell_angle_alpha   59.13024949
_cell_angle_beta   59.13024833
_cell_angle_gamma   59.13025035
_symmetry_Int_Tables_number   1
_chemical_formula_structural   LiZr2(PO4)3
_chemical_formula_sum   'Li2 Zr4 P6 O24'
_cell_volume   515.11130554
_cell_formula_units_Z   2
loop_
 _symmetry_equiv_pos_site_id
 _symmetry_equiv_pos_as_xyz
  1  'x, y, z'
loop_
 _atom_site_type_symbol
 _atom_site_label
 _atom_site_symmetry_multiplicity
 _atom_site_fract_x
 _atom_site_fract_y
 _atom_site_fract_z
 _atom_site_occupancy
  Zr  Zr0  1  0.14331770  0.14331770  0.14331770  1
  Zr  Zr1  1  0.35668230  0.35668230  0.35668230  1
  Zr  Zr2  1  0.85668230  0.85668230  0.85668230  1
  Zr  Zr3  1  0.64331770  0.64331770  0.64331770  1
  P  P4  1  0.54359102  0.95640898  0.25000000  1
  P  P5  1  0.25000000  0.54359102  0.95640898  1
  P  P6  1  0.95640898  0.25000000  0.54359102  1
  P  P7  1  0.45640898  0.04359102  0.75000000  1
  P  P8  1  0.75000000  0.45640898  0.04359102  1
  P  P9  1  0.04359102  0.75000000  0.45640898  1
  O  O10  1  0.38635819  0.99831515  0.19608155  1
  O  O11  1  0.19608155  0.38635819  0.99831515  1
  O  O12  1  0.99831515  0.19608155  0.38635819  1
  O  O13  1  0.50168485  0.11364181  0.30391845  1
  O  O14  1  0.30391845  0.50168485  0.11364181  1
  O  O15  1  0.11364181  0.30391845  0.50168485  1
  O  O16  1  0.61364181  0.00168485  0.80391845  1
  O  O17  1  0.80391845  0.61364181  0.00168485  1
  O  O18  1  0.00168485  0.80391845  0.61364181  1
  O  O19  1  0.49831515  0.88635819  0.69608155  1
  O  O20  1  0.69608155  0.49831515  0.88635819  1
  O  O21  1  0.88635819  0.69608155  0.49831515  1
  O  O22  1  0.27272754  0.06040359  0.91126856  1
  O  O23  1  0.91126856  0.27272754  0.06040359  1
  O  O24  1  0.06040359  0.91126856  0.27272754  1
  O  O25  1  0.43959641  0.22727246  0.58873144  1
  O  O26  1  0.58873144  0.43959641  0.22727246  1
  O  O27  1  0.22727246  0.58873144  0.43959641  1
  O  O28  1  0.72727246  0.93959641  0.08873144  1
  O  O29  1  0.08873144  0.72727246  0.93959641  1
  O  O30  1  0.93959641  0.08873144  0.72727246  1
  O  O31  1  0.56040359  0.77272754  0.41126856  1
  O  O32  1  0.41126856  0.56040359  0.77272754  1
  O  O33  1  0.77272754  0.41126856  0.56040359  1
  Li  Li34  1  0.00000000  0.00000000  0.00000000  1
  Li  Li35  1  0.50000000  0.50000000  0.50000000  1
