# generated using pymatgen
data_Ce5Ga3
_symmetry_space_group_name_H-M   'P 1'
_cell_length_a   5.63292826
_cell_length_b   8.95126317
_cell_length_c   8.95126372
_cell_angle_alpha   84.31835351
_cell_angle_beta   71.66065658
_cell_angle_gamma   71.66066071
_symmetry_Int_Tables_number   1
_chemical_formula_structural   Ce5Ga3
_chemical_formula_sum   'Ce10 Ga6'
_cell_volume   406.65600752
_cell_formula_units_Z   2
loop_
 _symmetry_equiv_pos_site_id
 _symmetry_equiv_pos_as_xyz
  1  'x, y, z'
loop_
 _atom_site_type_symbol
 _atom_site_label
 _atom_site_symmetry_multiplicity
 _atom_site_fract_x
 _atom_site_fract_y
 _atom_site_fract_z
 _atom_site_occupancy
  Ce  Ce0  1  0.25000000  0.50000000  0.50000000  1
  Ce  Ce1  1  0.75000000  0.50000000  0.50000000  1
  Ce  Ce2  1  0.08206121  0.14206062  0.69381696  1
  Ce  Ce3  1  0.77587817  0.30618304  0.14206062  1
  Ce  Ce4  1  0.22412183  0.69381696  0.85793938  1
  Ce  Ce5  1  0.91793879  0.85793938  0.30618304  1
  Ce  Ce6  1  0.27587817  0.14206062  0.30618304  1
  Ce  Ce7  1  0.72412183  0.85793938  0.69381696  1
  Ce  Ce8  1  0.41793879  0.30618304  0.85793938  1
  Ce  Ce9  1  0.58206121  0.69381696  0.14206062  1
  Ga  Ga10  1  0.25000000  0.00000000  0.00000000  1
  Ga  Ga11  1  0.75000000  0.00000000  0.00000000  1
  Ga  Ga12  1  0.16304134  0.50000000  0.17391732  1
  Ga  Ga13  1  0.33695866  0.82608268  0.50000000  1
  Ga  Ga14  1  0.66304134  0.17391732  0.50000000  1
  Ga  Ga15  1  0.83695866  0.50000000  0.82608268  1
