# generated using pymatgen
data_Sr4Li(BO3)3
_symmetry_space_group_name_H-M   'P 1'
_cell_length_a   13.08396298
_cell_length_b   13.08396325
_cell_length_c   13.08396352
_cell_angle_alpha   109.47121942
_cell_angle_beta   109.47121987
_cell_angle_gamma   109.47122326
_symmetry_Int_Tables_number   1
_chemical_formula_structural   Sr4Li(BO3)3
_chemical_formula_sum   'Sr32 Li8 B24 O72'
_cell_volume   1724.23339661
_cell_formula_units_Z   8
loop_
 _symmetry_equiv_pos_site_id
 _symmetry_equiv_pos_as_xyz
  1  'x, y, z'
loop_
 _atom_site_type_symbol
 _atom_site_label
 _atom_site_symmetry_multiplicity
 _atom_site_fract_x
 _atom_site_fract_y
 _atom_site_fract_z
 _atom_site_occupancy
  Sr  Sr0  1  0.99658094  0.74658094  0.25000000  1
  Sr  Sr1  1  0.75341906  0.50341906  0.25000000  1
  Sr  Sr2  1  0.25000000  0.49658094  0.24658094  1
  Sr  Sr3  1  0.24658094  0.49658094  0.75000000  1
  Sr  Sr4  1  0.00341906  0.25341906  0.75000000  1
  Sr  Sr5  1  0.25000000  0.99658094  0.74658094  1
  Sr  Sr6  1  0.75000000  0.00341906  0.25341906  1
  Sr  Sr7  1  0.74658094  0.99658094  0.75000000  1
  Sr  Sr8  1  0.74658094  0.25000000  0.99658094  1
  Sr  Sr9  1  0.99658094  0.75000000  0.74658094  1
  Sr  Sr10  1  0.49658094  0.24658094  0.25000000  1
  Sr  Sr11  1  0.00000000  0.00000000  0.00000000  1
  Sr  Sr12  1  0.00000000  0.50000000  0.50000000  1
  Sr  Sr13  1  0.75000000  0.74658094  0.99658094  1
  Sr  Sr14  1  0.00000000  0.00000000  0.50000000  1
  Sr  Sr15  1  0.75000000  0.50341906  0.75341906  1
  Sr  Sr16  1  0.25341906  0.00341906  0.25000000  1
  Sr  Sr17  1  0.75000000  0.24658094  0.49658094  1
  Sr  Sr18  1  0.25341906  0.75000000  0.00341906  1
  Sr  Sr19  1  0.25000000  0.75341906  0.50341906  1
  Sr  Sr20  1  0.49658094  0.75000000  0.24658094  1
  Sr  Sr21  1  0.50341906  0.25000000  0.75341906  1
  Sr  Sr22  1  0.00341906  0.25000000  0.25341906  1
  Sr  Sr23  1  0.50000000  0.00000000  0.00000000  1
  Sr  Sr24  1  0.00000000  0.50000000  0.00000000  1
  Sr  Sr25  1  0.50000000  0.50000000  0.00000000  1
  Sr  Sr26  1  0.75341906  0.75000000  0.50341906  1
  Sr  Sr27  1  0.25000000  0.25341906  0.00341906  1
  Sr  Sr28  1  0.50000000  0.50000000  0.50000000  1
  Sr  Sr29  1  0.50000000  0.00000000  0.50000000  1
  Sr  Sr30  1  0.24658094  0.25000000  0.49658094  1
  Sr  Sr31  1  0.50341906  0.75341906  0.75000000  1
  Li  Li32  1  0.25000000  0.25000000  0.25000000  1
  Li  Li33  1  0.50000000  0.00000000  0.75000000  1
  Li  Li34  1  0.25000000  0.50000000  0.00000000  1
  Li  Li35  1  0.75000000  0.75000000  0.75000000  1
  Li  Li36  1  0.50000000  0.00000000  0.25000000  1
  Li  Li37  1  0.00000000  0.25000000  0.50000000  1
  Li  Li38  1  0.00000000  0.75000000  0.50000000  1
  Li  Li39  1  0.75000000  0.50000000  0.00000000  1
  B  B40  1  0.76490145  0.73509855  0.25000000  1
  B  B41  1  0.02980290  0.26490145  0.01490145  1
  B  B42  1  0.48509855  0.23509855  0.47019710  1
  B  B43  1  0.26490145  0.01490145  0.02980290  1
  B  B44  1  0.47019710  0.48509855  0.23509855  1
  B  B45  1  0.26490145  0.75000000  0.23509855  1
  B  B46  1  0.51490145  0.25000000  0.98509855  1
  B  B47  1  0.23509855  0.26490145  0.75000000  1
  B  B48  1  0.97019710  0.73509855  0.98509855  1
  B  B49  1  0.76490145  0.52980290  0.51490145  1
  B  B50  1  0.23509855  0.47019710  0.48509855  1
  B  B51  1  0.98509855  0.97019710  0.73509855  1
  B  B52  1  0.01490145  0.48509855  0.75000000  1
  B  B53  1  0.51490145  0.76490145  0.52980290  1
  B  B54  1  0.01490145  0.02980290  0.26490145  1
  B  B55  1  0.75000000  0.01490145  0.48509855  1
  B  B56  1  0.73509855  0.98509855  0.97019710  1
  B  B57  1  0.25000000  0.98509855  0.51490145  1
  B  B58  1  0.48509855  0.75000000  0.01490145  1
  B  B59  1  0.73509855  0.25000000  0.76490145  1
  B  B60  1  0.75000000  0.23509855  0.26490145  1
  B  B61  1  0.98509855  0.51490145  0.25000000  1
  B  B62  1  0.52980290  0.51490145  0.76490145  1
  B  B63  1  0.25000000  0.76490145  0.73509855  1
  O  O64  1  0.20056588  0.95056588  0.90113176  1
  O  O65  1  0.04943412  0.45056588  0.25000000  1
  O  O66  1  0.89788505  0.90108020  0.75953695  1
  O  O67  1  0.64154325  0.00319515  0.90108020  1
  O  O68  1  0.64154325  0.13834810  0.74046305  1
  O  O69  1  0.45056588  0.70056588  0.40113176  1
  O  O70  1  0.14154325  0.24046305  0.63834810  1
  O  O71  1  0.60211495  0.74046305  0.59891980  1
  O  O72  1  0.50319515  0.14154325  0.40108020  1
  O  O73  1  0.36165190  0.85845675  0.75953695  1
  O  O74  1  0.25953695  0.35845675  0.86165190  1
  O  O75  1  0.63834810  0.14154325  0.24046305  1
  O  O76  1  0.75000000  0.95056588  0.54943412  1
  O  O77  1  0.35845675  0.99680485  0.09891980  1
  O  O78  1  0.95056588  0.90113176  0.20056588  1
  O  O79  1  0.49680485  0.85845675  0.59891980  1
  O  O80  1  0.89788505  0.49680485  0.13834810  1
  O  O81  1  0.40113176  0.45056588  0.70056588  1
  O  O82  1  0.36165190  0.00319515  0.60211495  1
  O  O83  1  0.54943412  0.29943412  0.59886824  1
  O  O84  1  0.85845675  0.75953695  0.36165190  1
  O  O85  1  0.75953695  0.89788505  0.90108020  1
  O  O86  1  0.00319515  0.60211495  0.36165190  1
  O  O87  1  0.00319515  0.90108020  0.64154325  1
  O  O88  1  0.29943412  0.59886824  0.54943412  1
  O  O89  1  0.40108020  0.50319515  0.14154325  1
  O  O90  1  0.74046305  0.64154325  0.13834810  1
  O  O91  1  0.99680485  0.09891980  0.35845675  1
  O  O92  1  0.40108020  0.39788505  0.25953695  1
  O  O93  1  0.50319515  0.86165190  0.10211495  1
  O  O94  1  0.45056588  0.25000000  0.04943412  1
  O  O95  1  0.86165190  0.25953695  0.35845675  1
  O  O96  1  0.54943412  0.75000000  0.95056588  1
  O  O97  1  0.90108020  0.64154325  0.00319515  1
  O  O98  1  0.04943412  0.09886824  0.79943412  1
  O  O99  1  0.63834810  0.99680485  0.39788505  1
  O  O100  1  0.85845675  0.59891980  0.49680485  1
  O  O101  1  0.13834810  0.74046305  0.64154325  1
  O  O102  1  0.09891980  0.24046305  0.10211495  1
  O  O103  1  0.39788505  0.63834810  0.99680485  1
  O  O104  1  0.74046305  0.59891980  0.60211495  1
  O  O105  1  0.75953695  0.36165190  0.85845675  1
  O  O106  1  0.70056588  0.79943412  0.25000000  1
  O  O107  1  0.10211495  0.09891980  0.24046305  1
  O  O108  1  0.24046305  0.63834810  0.14154325  1
  O  O109  1  0.59891980  0.60211495  0.74046305  1
  O  O110  1  0.20056588  0.75000000  0.29943412  1
  O  O111  1  0.25000000  0.04943412  0.45056588  1
  O  O112  1  0.59891980  0.49680485  0.85845675  1
  O  O113  1  0.29943412  0.20056588  0.75000000  1
  O  O114  1  0.13834810  0.89788505  0.49680485  1
  O  O115  1  0.79943412  0.25000000  0.70056588  1
  O  O116  1  0.59886824  0.54943412  0.29943412  1
  O  O117  1  0.90108020  0.75953695  0.89788505  1
  O  O118  1  0.79943412  0.04943412  0.09886824  1
  O  O119  1  0.14154325  0.40108020  0.50319515  1
  O  O120  1  0.49680485  0.13834810  0.89788505  1
  O  O121  1  0.35845675  0.86165190  0.25953695  1
  O  O122  1  0.90113176  0.20056588  0.95056588  1
  O  O123  1  0.75000000  0.29943412  0.20056588  1
  O  O124  1  0.10211495  0.50319515  0.86165190  1
  O  O125  1  0.09891980  0.35845675  0.99680485  1
  O  O126  1  0.86165190  0.10211495  0.50319515  1
  O  O127  1  0.99680485  0.39788505  0.63834810  1
  O  O128  1  0.39788505  0.25953695  0.40108020  1
  O  O129  1  0.70056588  0.40113176  0.45056588  1
  O  O130  1  0.25000000  0.70056588  0.79943412  1
  O  O131  1  0.25953695  0.40108020  0.39788505  1
  O  O132  1  0.24046305  0.10211495  0.09891980  1
  O  O133  1  0.95056588  0.54943412  0.75000000  1
  O  O134  1  0.09886824  0.79943412  0.04943412  1
  O  O135  1  0.60211495  0.36165190  0.00319515  1
