# generated using pymatgen
data_Ca2P2H8O11
_symmetry_space_group_name_H-M   'P 1'
_cell_length_a   5.97329613
_cell_length_b   6.96477548
_cell_length_c   25.27542274
_cell_angle_alpha   90.00000000
_cell_angle_beta   90.00000000
_cell_angle_gamma   109.71574861
_symmetry_Int_Tables_number   1
_chemical_formula_structural   Ca2P2H8O11
_chemical_formula_sum   'Ca8 P8 H32 O44'
_cell_volume   989.88232934
_cell_formula_units_Z   4
loop_
 _symmetry_equiv_pos_site_id
 _symmetry_equiv_pos_as_xyz
  1  'x, y, z'
loop_
 _atom_site_type_symbol
 _atom_site_label
 _atom_site_symmetry_multiplicity
 _atom_site_fract_x
 _atom_site_fract_y
 _atom_site_fract_z
 _atom_site_occupancy
  Ca  Ca0  1  0.10629605  0.60227005  0.29463123  1
  Ca  Ca1  1  0.89370395  0.39772995  0.70536877  1
  Ca  Ca2  1  0.19510903  0.39524787  0.95757889  1
  Ca  Ca3  1  0.10629605  0.10227005  0.20536877  1
  Ca  Ca4  1  0.89370395  0.89772995  0.79463123  1
  Ca  Ca5  1  0.19510903  0.89524787  0.54242111  1
  Ca  Ca6  1  0.80489097  0.10475213  0.45757889  1
  Ca  Ca7  1  0.80489097  0.60475213  0.04242111  1
  P  P8  1  0.07605257  0.08992160  0.33328250  1
  P  P9  1  0.92394743  0.41007840  0.83328250  1
  P  P10  1  0.92394743  0.91007840  0.66671750  1
  P  P11  1  0.19336178  0.85502967  0.41856296  1
  P  P12  1  0.80663822  0.64497033  0.91856296  1
  P  P13  1  0.19336178  0.35502967  0.08143704  1
  P  P14  1  0.07605257  0.58992160  0.16671750  1
  P  P15  1  0.80663822  0.14497033  0.58143704  1
  H  H16  1  0.53370678  0.86503156  0.18707415  1
  H  H17  1  0.61267471  0.37026163  0.17331239  1
  H  H18  1  0.38304725  0.19531234  0.73242934  1
  H  H19  1  0.61695275  0.30468766  0.23242934  1
  H  H20  1  0.38304725  0.69531234  0.76757066  1
  H  H21  1  0.19728802  0.98817612  0.07410751  1
  H  H22  1  0.21298232  0.48920022  0.57696076  1
  H  H23  1  0.78701768  0.01079978  0.07696076  1
  H  H24  1  0.38732529  0.12973837  0.67331239  1
  H  H25  1  0.19728802  0.48817612  0.42589249  1
  H  H26  1  0.21298232  0.98920022  0.92303924  1
  H  H27  1  0.75808499  0.54402078  0.51332438  1
  H  H28  1  0.71742759  0.75397215  0.17063056  1
  H  H29  1  0.46629322  0.13496844  0.81292585  1
  H  H30  1  0.80271198  0.51182388  0.57410751  1
  H  H31  1  0.75808499  0.04402078  0.98667562  1
  H  H32  1  0.28257241  0.24602785  0.82936944  1
  H  H33  1  0.46629322  0.63496844  0.68707415  1
  H  H34  1  0.24191501  0.95597922  0.01332438  1
  H  H35  1  0.80271198  0.01182388  0.92589249  1
  H  H36  1  0.48027722  0.60351048  0.55656750  1
  H  H37  1  0.51972278  0.39648952  0.44343250  1
  H  H38  1  0.53370678  0.36503156  0.31292585  1
  H  H39  1  0.71742759  0.25397215  0.32936944  1
  H  H40  1  0.24191501  0.45597922  0.48667562  1
  H  H41  1  0.78701768  0.51079978  0.42303924  1
  H  H42  1  0.51972278  0.89648952  0.05656750  1
  H  H43  1  0.48027722  0.10351048  0.94343250  1
  H  H44  1  0.38732529  0.62973837  0.82668761  1
  H  H45  1  0.61695275  0.80468766  0.26757066  1
  H  H46  1  0.28257241  0.74602785  0.67063056  1
  H  H47  1  0.61267471  0.87026163  0.32668761  1
  O  O48  1  0.68984988  0.90821543  0.05184831  1
  O  O49  1  0.21237225  0.30174653  0.31109633  1
  O  O50  1  0.84608311  0.08030227  0.36251682  1
  O  O51  1  0.10973462  0.65565113  0.38657111  1
  O  O52  1  0.78470275  0.11408279  0.95184730  1
  O  O53  1  0.99862634  0.37007121  0.04381323  1
  O  O54  1  0.48505343  0.22096545  0.70082064  1
  O  O55  1  0.69934287  0.36664458  0.30761632  1
  O  O56  1  0.68984988  0.40821543  0.44815169  1
  O  O57  1  0.00137366  0.12992879  0.54381323  1
  O  O58  1  0.21529725  0.88591721  0.04815270  1
  O  O59  1  0.51494657  0.77903455  0.29917936  1
  O  O60  1  0.51494657  0.27903455  0.20082064  1
  O  O61  1  0.74498291  0.45571610  0.87664773  1
  O  O62  1  0.96543446  0.57387762  0.79001233  1
  O  O63  1  0.00137366  0.62992879  0.95618677  1
  O  O64  1  0.78762775  0.69825347  0.68890367  1
  O  O65  1  0.03456554  0.42612238  0.20998767  1
  O  O66  1  0.42097770  0.38767079  0.05009837  1
  O  O67  1  0.96543446  0.07387762  0.70998767  1
  O  O68  1  0.10973462  0.15565113  0.11342889  1
  O  O69  1  0.30065713  0.13335542  0.80761632  1
  O  O70  1  0.74498291  0.95571610  0.62335227  1
  O  O71  1  0.69934287  0.86664458  0.19238368  1
  O  O72  1  0.15391689  0.91969773  0.63748318  1
  O  O73  1  0.31015012  0.09178457  0.94815169  1
  O  O74  1  0.25501709  0.54428390  0.12335227  1
  O  O75  1  0.30065713  0.63335542  0.69238368  1
  O  O76  1  0.03456554  0.92612238  0.29001233  1
  O  O77  1  0.42097770  0.88767079  0.44990163  1
  O  O78  1  0.25501709  0.04428390  0.37664773  1
  O  O79  1  0.31015012  0.59178457  0.55184831  1
  O  O80  1  0.78762775  0.19825347  0.81109633  1
  O  O81  1  0.48505343  0.72096545  0.79917936  1
  O  O82  1  0.15391689  0.41969773  0.86251682  1
  O  O83  1  0.57902230  0.11232921  0.55009837  1
  O  O84  1  0.21529725  0.38591721  0.45184730  1
  O  O85  1  0.99862634  0.87007121  0.45618677  1
  O  O86  1  0.21237225  0.80174653  0.18890367  1
  O  O87  1  0.89026538  0.34434887  0.61342889  1
  O  O88  1  0.57902230  0.61232921  0.94990163  1
  O  O89  1  0.84608311  0.58030227  0.13748318  1
  O  O90  1  0.78470275  0.61408279  0.54815270  1
  O  O91  1  0.89026538  0.84434887  0.88657111  1
