# generated using pymatgen
data_Ba2ZnReO6
_symmetry_space_group_name_H-M   'P 1'
_cell_length_a   5.80684982
_cell_length_b   5.80692893
_cell_length_c   5.80690841
_cell_angle_alpha   59.99963979
_cell_angle_beta   60.00017836
_cell_angle_gamma   59.99966691
_symmetry_Int_Tables_number   1
_chemical_formula_structural   Ba2ZnReO6
_chemical_formula_sum   'Ba2 Zn1 Re1 O6'
_cell_volume   138.45715172
_cell_formula_units_Z   1
loop_
 _symmetry_equiv_pos_site_id
 _symmetry_equiv_pos_as_xyz
  1  'x, y, z'
loop_
 _atom_site_type_symbol
 _atom_site_label
 _atom_site_symmetry_multiplicity
 _atom_site_fract_x
 _atom_site_fract_y
 _atom_site_fract_z
 _atom_site_occupancy
  O  O0  1  0.26248684  0.73751365  0.26248937  1
  O  O1  1  0.26248454  0.26248711  0.73751531  1
  O  O2  1  0.73751777  0.26248779  0.26248024  1
  Ba  Ba3  1  0.75000124  0.75000001  0.74999797  1
  O  O4  1  0.73751318  0.73751599  0.26248124  1
  Ba  Ba5  1  0.24999911  0.25000030  0.24999957  1
  O  O6  1  0.26248146  0.73751421  0.73751675  1
  Re  Re7  1  0.50000201  0.49999388  0.50000863  1
  Zn  Zn8  1  0.99999975  0.00000084  0.99999851  1
  O  O9  1  0.73751409  0.26248623  0.73751239  1
