# generated using pymatgen
data_KNO2
_symmetry_space_group_name_H-M   'P 1'
_cell_length_a   4.27574206
_cell_length_b   4.27938212
_cell_length_c   6.36201996
_cell_angle_alpha   124.95975351
_cell_angle_beta   124.93133892
_cell_angle_gamma   85.54655496
_symmetry_Int_Tables_number   1
_chemical_formula_structural   KNO2
_chemical_formula_sum   'K1 N1 O2'
_cell_volume   72.57902510
_cell_formula_units_Z   1
loop_
 _symmetry_equiv_pos_site_id
 _symmetry_equiv_pos_as_xyz
  1  'x, y, z'
loop_
 _atom_site_type_symbol
 _atom_site_label
 _atom_site_symmetry_multiplicity
 _atom_site_fract_x
 _atom_site_fract_y
 _atom_site_fract_z
 _atom_site_occupancy
  K  K0  1  0.05211078  0.05222199  0.05477459  1
  N  N1  1  0.93753770  0.93720760  0.44163995  1
  O  O2  1  0.20366347  0.83251909  0.59869075  1
  O  O3  1  0.83268805  0.20405232  0.59889471  1
