# generated using pymatgen
data_La3RuO7
_symmetry_space_group_name_H-M   'P 1'
_cell_length_a   5.76793673
_cell_length_b   8.91198494
_cell_length_c   12.63261242
_cell_angle_alpha   104.46948187
_cell_angle_beta   90.00000000
_cell_angle_gamma   90.00000000
_symmetry_Int_Tables_number   1
_chemical_formula_structural   La3RuO7
_chemical_formula_sum   'La12 Ru4 O28'
_cell_volume   628.76658521
_cell_formula_units_Z   4
loop_
 _symmetry_equiv_pos_site_id
 _symmetry_equiv_pos_as_xyz
  1  'x, y, z'
loop_
 _atom_site_type_symbol
 _atom_site_label
 _atom_site_symmetry_multiplicity
 _atom_site_fract_x
 _atom_site_fract_y
 _atom_site_fract_z
 _atom_site_occupancy
  La  La0  1  0.98196377  0.70379387  0.57266963  1
  La  La1  1  0.51369667  0.43004331  0.63168142  1
  La  La2  1  0.01369667  0.56995669  0.86831858  1
  La  La3  1  0.01803623  0.29620613  0.42733037  1
  La  La4  1  0.51803623  0.70379387  0.07266963  1
  La  La5  1  0.98902452  -0.00080797  0.85863342  1
  La  La6  1  0.48902452  1.00080797  0.64136658  1
  La  La7  1  0.98630333  0.43004331  0.13168142  1
  La  La8  1  0.48196377  0.29620613  0.92733037  1
  La  La9  1  0.51097548  -0.00080797  0.35863342  1
  La  La10  1  0.48630333  0.56995669  0.36831858  1
  La  La11  1  0.01097548  1.00080797  0.14136658  1
  Ru  Ru12  1  0.45482413  0.78489178  0.83169976  1
  Ru  Ru13  1  0.54517587  0.21510822  0.16830024  1
  Ru  Ru14  1  0.04517587  0.78489178  0.33169976  1
  Ru  Ru15  1  0.95482413  0.21510822  0.66830024  1
  O  O16  1  0.23761245  0.82816328  0.96694736  1
  O  O17  1  0.74134287  0.80888780  0.92286913  1
  O  O18  1  0.14843596  0.76078103  0.75338258  1
  O  O19  1  0.94766481  0.43623001  0.67694320  1
  O  O20  1  0.56882975  0.99130784  0.16948776  1
  O  O21  1  0.38343903  0.25114812  0.30824799  1
  O  O22  1  0.61656097  0.74885188  0.69175201  1
  O  O23  1  0.88343903  0.74885188  0.19175201  1
  O  O24  1  0.05233519  0.56376999  0.32305680  1
  O  O25  1  0.24134287  0.19111220  0.57713087  1
  O  O26  1  0.85156404  0.23921897  0.24661742  1
  O  O27  1  0.93117025  0.99130784  0.66948776  1
  O  O28  1  0.35156404  0.76078103  0.25338258  1
  O  O29  1  0.43117025  0.00869216  0.83051224  1
  O  O30  1  0.75865713  0.80888780  0.42286913  1
  O  O31  1  0.76238755  0.17183672  0.03305264  1
  O  O32  1  0.73761245  0.17183672  0.53305264  1
  O  O33  1  0.24050941  0.50689719  0.01127508  1
  O  O34  1  0.74050941  0.49310281  0.48872492  1
  O  O35  1  0.55233519  0.43623001  0.17694320  1
  O  O36  1  0.06882975  0.00869216  0.33051224  1
  O  O37  1  0.26238755  0.82816328  0.46694736  1
  O  O38  1  0.11656097  0.25114812  0.80824799  1
  O  O39  1  0.75949059  0.49310281  0.98872492  1
  O  O40  1  0.44766481  0.56376999  0.82305680  1
  O  O41  1  0.25865713  0.19111220  0.07713087  1
  O  O42  1  0.64843596  0.23921897  0.74661742  1
  O  O43  1  0.25949059  0.50689719  0.51127508  1
