# generated using pymatgen
data_Ca3CoRhO6
_symmetry_space_group_name_H-M   'P 1'
_cell_length_a   6.46066887
_cell_length_b   6.47951283
_cell_length_c   6.46528752
_cell_angle_alpha   91.06543933
_cell_angle_beta   91.10808141
_cell_angle_gamma   91.05407507
_symmetry_Int_Tables_number   1
_chemical_formula_structural   Ca3CoRhO6
_chemical_formula_sum   'Ca6 Co2 Rh2 O12'
_cell_volume   270.50475911
_cell_formula_units_Z   2
loop_
 _symmetry_equiv_pos_site_id
 _symmetry_equiv_pos_as_xyz
  1  'x, y, z'
loop_
 _atom_site_type_symbol
 _atom_site_label
 _atom_site_symmetry_multiplicity
 _atom_site_fract_x
 _atom_site_fract_y
 _atom_site_fract_z
 _atom_site_occupancy
  Ca  Ca0  1  0.74782748  0.38716976  0.11246289  1
  Ca  Ca1  1  0.88488998  0.25101114  0.61517104  1
  Ca  Ca2  1  0.11448536  0.74937715  0.38536239  1
  Ca  Ca3  1  0.25200041  0.61335596  0.88710264  1
  Ca  Ca4  1  0.38723615  0.11345281  0.75259697  1
  Ca  Ca5  1  0.61318363  0.88612703  0.24713973  1
  Co  Co6  1  0.75441286  0.75173257  0.74379807  1
  Co  Co7  1  0.24511894  0.24926521  0.25568469  1
  Rh  Rh8  1  0.00021656  0.00009930  0.00029212  1
  Rh  Rh9  1  0.49988054  0.49969072  0.49977864  1
  O  O10  1  0.29526672  0.95356203  0.08957579  1
  O  O11  1  0.79592243  0.59152538  0.45722940  1
  O  O12  1  0.04160256  0.90715391  0.70429218  1
  O  O13  1  0.09334356  0.29482737  0.95653135  1
  O  O14  1  0.45727635  0.79480592  0.59375008  1
  O  O15  1  0.41011313  0.54649282  0.20492221  1
  O  O16  1  0.90723101  0.70537219  0.04410399  1
  O  O17  1  0.20387883  0.40776448  0.54211966  1
  O  O18  1  0.70507137  0.04691075  0.91092618  1
  O  O19  1  0.95861960  0.09273150  0.29621166  1
  O  O20  1  0.58966444  0.45280070  0.79468951  1
  O  O21  1  0.54275909  0.20477330  0.40625881  1
