# generated using pymatgen
data_Ba8(CoO3)7
_symmetry_space_group_name_H-M   'P 1'
_cell_length_a   10.56717094
_cell_length_b   10.56717116
_cell_length_c   11.63777171
_cell_angle_alpha   106.03376076
_cell_angle_beta   106.03376107
_cell_angle_gamma   113.05571618
_symmetry_Int_Tables_number   1
_chemical_formula_structural   Ba8(CoO3)7
_chemical_formula_sum   'Ba16 Co14 O42'
_cell_volume   1034.98555458
_cell_formula_units_Z   2
loop_
 _symmetry_equiv_pos_site_id
 _symmetry_equiv_pos_as_xyz
  1  'x, y, z'
loop_
 _atom_site_type_symbol
 _atom_site_label
 _atom_site_symmetry_multiplicity
 _atom_site_fract_x
 _atom_site_fract_y
 _atom_site_fract_z
 _atom_site_occupancy
  O  O0  1  0.21799910  0.49302558  0.92842337  1
  O  O1  1  0.71042427  0.43539778  0.92842337  1
  O  O2  1  0.18539778  0.96042427  0.42842337  1
  O  O3  1  0.24302558  0.46799910  0.42842337  1
  O  O4  1  0.43602972  0.70649278  0.92791431  1
  O  O5  1  0.49188558  0.22142253  0.92791431  1
  O  O6  1  0.97142253  0.74188558  0.42791431  1
  O  O7  1  0.45649278  0.68602972  0.42791431  1
  O  O8  1  0.76943765  0.93578355  0.92713297  1
  O  O9  1  0.15769533  0.99134842  0.92713297  1
  O  O10  1  0.74134842  0.40769533  0.42713297  1
  O  O11  1  0.68578355  0.01943765  0.42713297  1
  O  O12  1  0.98836253  0.15577303  0.92753974  1
  O  O13  1  0.93917721  0.77176671  0.92753974  1
  O  O14  1  0.52176671  0.18917721  0.42753974  1
  O  O15  1  0.90577303  0.23836253  0.42753974  1
  O  O16  1  0.45757651  0.68478075  0.64474102  1
  O  O17  1  0.45309702  0.40272826  0.35267566  1
  O  O18  1  0.18716451  0.95995927  0.64474102  1
  O  O19  1  0.43478075  0.70757651  0.14474102  1
  O  O20  1  0.90618587  0.23801229  0.64491794  1
  O  O21  1  0.73873307  0.40690565  0.64491794  1
  O  O22  1  0.15690565  0.98873307  0.14491794  1
  O  O23  1  0.98801229  0.15618587  0.14491794  1
  O  O24  1  0.39437256  0.89833191  0.57387009  1
  O  O25  1  0.17949853  0.67553818  0.57387009  1
  O  O26  1  0.42553818  0.42949853  0.07387009  1
  O  O27  1  0.64833191  0.64437256  0.07387009  1
  O  O28  1  0.69994740  0.14957764  0.85267566  1
  O  O29  1  0.15272826  0.70309702  0.85267566  1
  O  O30  1  0.42757945  0.42757945  0.85515990  1
  O  O31  1  0.17757945  0.67757945  0.35515990  1
  O  O32  1  0.11538455  0.17387286  0.57189972  1
  O  O33  1  0.45651618  0.39802686  0.57189972  1
  O  O34  1  0.14802686  0.70651618  0.07189972  1
  O  O35  1  0.92387286  0.36538455  0.07189972  1
  O  O36  1  0.90096894  0.95108555  0.57124373  1
  O  O37  1  0.67027579  0.62015918  0.57124373  1
  O  O38  1  0.37015918  0.92027579  0.07124373  1
  O  O39  1  0.70108555  0.15096894  0.07124373  1
  O  O40  1  0.89957764  0.94994740  0.35267566  1
  O  O41  1  0.70995927  0.43716451  0.14474102  1
  Co  Co42  1  0.18165810  0.82028052  0.50099176  1
  Co  Co43  1  0.31933367  0.68071124  0.50099176  1
  Co  Co44  1  0.43071124  0.56933367  0.00099176  1
  Co  Co45  1  0.57028052  0.43165810  0.00099176  1
  Co  Co46  1  0.04133090  0.95874006  0.49916133  1
  Co  Co47  1  0.45783044  0.54042127  0.49916133  1
  Co  Co48  1  0.29042127  0.70783044  0.99916133  1
  Co  Co49  1  0.70874006  0.29133090  0.99916133  1
  Co  Co50  1  0.89778300  0.09907992  0.49914733  1
  Co  Co51  1  0.60136533  0.40006841  0.49914733  1
  Co  Co52  1  0.15006841  0.85136533  0.99914733  1
  Co  Co53  1  0.84907992  0.14778300  0.99914733  1
  Co  Co54  1  0.75076018  0.25076018  0.50152137  1
  Co  Co55  1  0.00076018  0.00076018  0.00152137  1
  Ba  Ba56  1  0.20049011  0.46778284  0.66974129  1
  Ba  Ba57  1  0.46925118  0.20195845  0.66974129  1
  Ba  Ba58  1  0.95195845  0.71925118  0.16974129  1
  Ba  Ba59  1  0.21778284  0.45049011  0.16974129  1
  Ba  Ba60  1  0.70420965  0.94932427  0.66610949  1
  Ba  Ba61  1  0.96190084  0.71678522  0.66610949  1
  Ba  Ba62  1  0.46678522  0.21190084  0.16610949  1
  Ba  Ba63  1  0.69932427  0.95420965  0.16610949  1
  Ba  Ba64  1  0.93142254  0.42379490  0.31991221  1
  Ba  Ba65  1  0.38848868  0.89611631  0.31991221  1
  Ba  Ba66  1  0.64611631  0.63848868  0.81991221  1
  Ba  Ba67  1  0.17379490  0.18142254  0.81991221  1
  Ba  Ba68  1  0.41725546  0.91725546  0.83451091  1
  Ba  Ba69  1  0.66725546  0.66725546  0.33451091  1
  Ba  Ba70  1  0.92887996  0.42887996  0.85776092  1
  Ba  Ba71  1  0.17887996  0.17887996  0.35776092  1
