# generated using pymatgen
data_Mg2Fe2O5
_symmetry_space_group_name_H-M   'P 1'
_cell_length_a   6.17100140
_cell_length_b   5.99269460
_cell_length_c   30.03245522
_cell_angle_alpha   59.83969919
_cell_angle_beta   60.56196553
_cell_angle_gamma   60.69840610
_symmetry_Int_Tables_number   1
_chemical_formula_structural   Mg2Fe2O5
_chemical_formula_sum   'Mg16 Fe16 O40'
_cell_volume   791.74531289
_cell_formula_units_Z   8
loop_
 _symmetry_equiv_pos_site_id
 _symmetry_equiv_pos_as_xyz
  1  'x, y, z'
loop_
 _atom_site_type_symbol
 _atom_site_label
 _atom_site_symmetry_multiplicity
 _atom_site_fract_x
 _atom_site_fract_y
 _atom_site_fract_z
 _atom_site_occupancy
  Mg  Mg0  1  0.98615870  0.98693807  0.00405014  1
  Mg  Mg1  1  0.12192589  0.62572482  0.12558742  1
  Mg  Mg2  1  0.62419190  0.12278830  0.12588981  1
  Mg  Mg3  1  0.12390679  0.62434679  0.32505661  1
  Mg  Mg4  1  0.62750580  0.12281615  0.32461704  1
  Mg  Mg5  1  0.13904044  0.62031516  0.52344452  1
  Mg  Mg6  1  0.65290322  0.12484043  0.51800304  1
  Mg  Mg7  1  0.62662479  0.62731096  0.42242729  1
  Mg  Mg8  1  0.63395165  0.12090507  0.62432605  1
  Mg  Mg9  1  0.12447700  0.62598452  0.72474356  1
  Mg  Mg10  1  0.62573332  0.12444444  0.72519934  1
  Mg  Mg11  1  0.63165832  0.62323682  0.62343452  1
  Mg  Mg12  1  0.10713104  0.63234028  0.92640151  1
  Mg  Mg13  1  0.61750005  0.12770208  0.82634321  1
  Mg  Mg14  1  0.59724101  0.12581739  0.93182473  1
  Mg  Mg15  1  0.61652251  0.62767507  0.82714704  1
  Fe  Fe16  1  0.24223098  0.25572268  0.05239668  1
  Fe  Fe17  1  0.25318738  0.26025151  0.24873359  1
  Fe  Fe18  1  0.62920270  0.62744302  0.02537597  1
  Fe  Fe19  1  0.62684231  0.62838269  0.12588361  1
  Fe  Fe20  1  0.99816648  0.98944356  0.20174709  1
  Fe  Fe21  1  0.26082369  0.26033728  0.44775719  1
  Fe  Fe22  1  0.10024067  0.97649272  0.58537243  1
  Fe  Fe23  1  0.62578839  0.62563236  0.22535085  1
  Fe  Fe24  1  0.62796191  0.62467510  0.32466984  1
  Fe  Fe25  1  0.01144592  0.99670592  0.39530575  1
  Fe  Fe26  1  0.16850739  0.28991277  0.65523863  1
  Fe  Fe27  1  0.65963913  0.63442813  0.51586855  1
  Fe  Fe28  1  0.15203408  0.27841057  0.86196700  1
  Fe  Fe29  1  0.62626973  0.62506433  0.72501818  1
  Fe  Fe30  1  0.08201622  0.96195518  0.79366275  1
  Fe  Fe31  1  0.59283137  0.61681186  0.93413141  1
  O  O32  1  0.38626537  0.38683489  0.07436712  1
  O  O33  1  0.38536851  0.38772667  0.17077120  1
  O  O34  1  0.38716312  0.85868527  0.07509209  1
  O  O35  1  0.85411608  0.38711486  0.07533556  1
  O  O36  1  0.38658709  0.38599603  0.27482488  1
  O  O37  1  0.39106814  0.86374264  0.17525929  1
  O  O38  1  0.86244377  0.38980530  0.17535582  1
  O  O39  1  0.38595426  0.38241512  0.37115846  1
  O  O40  1  0.85485165  0.85569916  0.08337249  1
  O  O41  1  0.38909212  0.85663272  0.27541505  1
  O  O42  1  0.85673298  0.38781080  0.27518597  1
  O  O43  1  0.86526918  0.86547835  0.17550241  1
  O  O44  1  0.38270598  0.37021384  0.47881177  1
  O  O45  1  0.39425708  0.86390992  0.37282329  1
  O  O46  1  0.37834416  0.36699955  0.57930055  1
  O  O47  1  0.86493158  0.38901876  0.37319928  1
  O  O48  1  0.86559330  0.86237448  0.27936286  1
  O  O49  1  0.38466023  0.85416982  0.48024373  1
  O  O50  1  0.86558306  0.37894129  0.47684785  1
  O  O51  1  0.86878925  0.86700309  0.37399029  1
  O  O52  1  0.37610432  0.36858874  0.67532353  1
  O  O53  1  0.45775729  0.84532749  0.56903882  1
  O  O54  1  0.87881843  0.35702571  0.57727634  1
  O  O55  1  0.37448799  0.38057466  0.77643293  1
  O  O56  1  0.88940450  0.85539725  0.47740138  1
  O  O57  1  0.37713717  0.88164871  0.67623080  1
  O  O58  1  0.80646683  0.39866624  0.67969998  1
  O  O59  1  0.87759480  0.87090129  0.57737829  1
  O  O60  1  0.37061930  0.37891474  0.87274261  1
  O  O61  1  0.44429846  0.85036977  0.77038234  1
  O  O62  1  0.87290851  0.36865440  0.77377426  1
  O  O63  1  0.35830211  0.39554309  0.97244562  1
  O  O64  1  0.36964884  0.89592270  0.87267002  1
  O  O65  1  0.87593254  0.86968837  0.67338918  1
  O  O66  1  0.79448134  0.40303809  0.88127216  1
  O  O67  1  0.87400818  0.88065682  0.77476425  1
  O  O68  1  0.39311425  0.86456202  0.97377632  1
  O  O69  1  0.85478534  0.40568494  0.97093812  1
  O  O70  1  0.87641640  0.88437871  0.86931154  1
  O  O71  1  0.85427570  0.86902766  0.97255620  1
