# generated using pymatgen
data_Ho2Cu(BO2)8
_symmetry_space_group_name_H-M   'P 1'
_cell_length_a   6.22914889
_cell_length_b   8.49928214
_cell_length_c   10.24786628
_cell_angle_alpha   90.00000000
_cell_angle_beta   90.00000000
_cell_angle_gamma   90.00000000
_symmetry_Int_Tables_number   1
_chemical_formula_structural   Ho2Cu(BO2)8
_chemical_formula_sum   'Ho4 Cu2 B16 O32'
_cell_volume   542.55579639
_cell_formula_units_Z   2
loop_
 _symmetry_equiv_pos_site_id
 _symmetry_equiv_pos_as_xyz
  1  'x, y, z'
loop_
 _atom_site_type_symbol
 _atom_site_label
 _atom_site_symmetry_multiplicity
 _atom_site_fract_x
 _atom_site_fract_y
 _atom_site_fract_z
 _atom_site_occupancy
  Ho  Ho0  1  0.50000000  0.50000000  0.81793048  1
  Ho  Ho1  1  0.50000000  0.50000000  0.18206952  1
  Ho  Ho2  1  0.00000000  0.00000000  0.18206952  1
  Ho  Ho3  1  0.00000000  0.00000000  0.81793048  1
  Cu  Cu4  1  0.50000000  0.50000000  0.50000000  1
  Cu  Cu5  1  0.00000000  0.00000000  0.50000000  1
  B  B6  1  0.88113475  0.69297135  0.62290268  1
  B  B7  1  0.11886525  0.30702865  0.62290268  1
  B  B8  1  0.38113475  0.80702865  0.62290268  1
  B  B9  1  0.61886525  0.19297135  0.37709732  1
  B  B10  1  0.88113475  0.69297135  0.37709732  1
  B  B11  1  0.38113475  0.80702865  0.37709732  1
  B  B12  1  0.50000000  0.00000000  0.80630220  1
  B  B13  1  0.11886525  0.30702865  0.37709732  1
  B  B14  1  0.00000000  0.50000000  0.19369780  1
  B  B15  1  0.11435935  0.68276262  0.00000000  1
  B  B16  1  0.50000000  0.00000000  0.19369780  1
  B  B17  1  0.38564065  0.18276262  0.00000000  1
  B  B18  1  0.88564065  0.31723738  0.00000000  1
  B  B19  1  0.61435935  0.81723738  0.00000000  1
  B  B20  1  0.00000000  0.50000000  0.80630220  1
  B  B21  1  0.61886525  0.19297135  0.62290268  1
  O  O22  1  0.06239559  0.83728347  0.00000000  1
  O  O23  1  0.93719081  0.84485104  0.35908557  1
  O  O24  1  0.14858769  0.59920584  0.11611604  1
  O  O25  1  0.64858769  0.90079416  0.88388396  1
  O  O26  1  0.43760441  0.33728347  0.00000000  1
  O  O27  1  0.15333874  0.40613616  0.27022463  1
  O  O28  1  0.64936726  0.12675232  0.50000000  1
  O  O29  1  0.15333874  0.40613616  0.72977537  1
  O  O30  1  0.65333874  0.09386384  0.72977537  1
  O  O31  1  0.93719081  0.84485104  0.64091443  1
  O  O32  1  0.14858769  0.59920584  0.88388396  1
  O  O33  1  0.56280919  0.34485104  0.64091443  1
  O  O34  1  0.64858769  0.90079416  0.11611604  1
  O  O35  1  0.43719081  0.65514896  0.35908557  1
  O  O36  1  0.35141231  0.09920584  0.88388396  1
  O  O37  1  0.06280919  0.15514896  0.35908557  1
  O  O38  1  0.14936726  0.37324768  0.50000000  1
  O  O39  1  0.93760441  0.16271653  0.00000000  1
  O  O40  1  0.84666126  0.59386384  0.72977537  1
  O  O41  1  0.85141231  0.40079416  0.88388396  1
  O  O42  1  0.84666126  0.59386384  0.27022463  1
  O  O43  1  0.56280919  0.34485104  0.35908557  1
  O  O44  1  0.35063274  0.87324768  0.50000000  1
  O  O45  1  0.56239559  0.66271653  0.00000000  1
  O  O46  1  0.34666126  0.90613616  0.27022463  1
  O  O47  1  0.35141231  0.09920584  0.11611604  1
  O  O48  1  0.65333874  0.09386384  0.27022463  1
  O  O49  1  0.43719081  0.65514896  0.64091443  1
  O  O50  1  0.85141231  0.40079416  0.11611604  1
  O  O51  1  0.06280919  0.15514896  0.64091443  1
  O  O52  1  0.34666126  0.90613616  0.72977537  1
  O  O53  1  0.85063274  0.62675232  0.50000000  1
