# generated using pymatgen
data_K6H6S6N2O23
_symmetry_space_group_name_H-M   'P 1'
_cell_length_a   15.32850735
_cell_length_b   14.88197012
_cell_length_c   15.32850735
_cell_angle_alpha   62.49507114
_cell_angle_beta   154.22428690
_cell_angle_gamma   124.35419339
_symmetry_Int_Tables_number   1
_chemical_formula_structural   K6H6S6N2O23
_chemical_formula_sum   'K12 H12 S12 N4 O46'
_cell_volume   1244.80802546
_cell_formula_units_Z   2
loop_
 _symmetry_equiv_pos_site_id
 _symmetry_equiv_pos_as_xyz
  1  'x, y, z'
loop_
 _atom_site_type_symbol
 _atom_site_label
 _atom_site_symmetry_multiplicity
 _atom_site_fract_x
 _atom_site_fract_y
 _atom_site_fract_z
 _atom_site_occupancy
  K  K0  1  0.15049570  0.43153037  0.55678378  1
  K  K1  1  0.37474659  0.93153037  0.28103468  1
  K  K2  1  0.84950430  0.56846963  0.44321622  1
  K  K3  1  0.62525341  0.06846963  0.71896532  1
  K  K4  1  0.04306770  0.11959258  0.78049951  1
  K  K5  1  0.83909307  0.61959258  0.07652489  1
  K  K6  1  0.95693230  0.88040742  0.21950049  1
  K  K7  1  0.16090693  0.38040742  0.92347511  1
  K  K8  1  0.62162606  0.41843200  0.73631734  1
  K  K9  1  0.18211466  0.91843200  0.79680594  1
  K  K10  1  0.37837394  0.58156800  0.26368266  1
  K  K11  1  0.81788534  0.08156800  0.20319406  1
  H  H12  1  0.77726724  0.26680192  0.46811221  1
  H  H13  1  0.29868971  0.76680192  0.48953468  1
  H  H14  1  0.22273276  0.73319808  0.53188779  1
  H  H15  1  0.70131029  0.23319808  0.51046532  1
  H  H16  1  0.82510391  0.36628100  0.11866295  1
  H  H17  1  0.74761805  0.86628100  0.54117709  1
  H  H18  1  0.17489609  0.63371900  0.88133705  1
  H  H19  1  0.25238195  0.13371900  0.45882291  1
  H  H20  1  0.04188526  0.44269557  0.23554139  1
  H  H21  1  0.70715418  0.94269557  0.40081031  1
  H  H22  1  0.95811474  0.55730443  0.76445861  1
  H  H23  1  0.29284582  0.05730443  0.59918969  1
  S  S24  1  0.62337012  0.15141270  0.21979603  1
  S  S25  1  0.43161667  0.65141270  0.52804258  1
  S  S26  1  0.37662988  0.84858730  0.78020397  1
  S  S27  1  0.56838333  0.34858730  0.47195742  1
  S  S28  1  0.55136360  0.36538953  0.07480707  1
  S  S29  1  0.79058247  0.86538953  0.81402593  1
  S  S30  1  0.44863640  0.63461047  0.92519293  1
  S  S31  1  0.20941753  0.13461047  0.18597407  1
  S  S32  1  0.36531464  0.21777606  0.75613152  1
  S  S33  1  0.96164454  0.71777606  0.85246142  1
  S  S34  1  0.63468536  0.78222394  0.24386848  1
  S  S35  1  0.03835546  0.28222394  0.14753858  1
  N  N36  1  0.56923716  0.25858730  0.07200089  1
  N  N37  1  0.68658641  0.75858730  0.68935014  1
  N  N38  1  0.43076284  0.74141270  0.92799911  1
  N  N39  1  0.31341359  0.24141270  0.31064986  1
  O  O40  1  0.59148490  0.07309219  0.15440626  1
  O  O41  1  0.41868593  0.57309219  0.48160729  1
  O  O42  1  0.40851510  0.92690781  0.84559374  1
  O  O43  1  0.58131407  0.42690781  0.51839271  1
  O  O44  1  0.84870413  0.20728067  0.42531862  1
  O  O45  1  0.28196205  0.70728067  0.35857654  1
  O  O46  1  0.15129587  0.79271933  0.57468138  1
  O  O47  1  0.71803795  0.29271933  0.64142346  1
  O  O48  1  0.46574222  0.10840948  0.16783480  1
  O  O49  1  0.44057468  0.60840948  0.64266726  1
  O  O50  1  0.53425778  0.89159052  0.83216520  1
  O  O51  1  0.55942532  0.39159052  0.35733274  1
  O  O52  1  0.54117710  0.44238670  0.96444080  1
  O  O53  1  0.97794590  0.94238670  0.90120960  1
  O  O54  1  0.45882290  0.55761330  0.03555920  1
  O  O55  1  0.02205410  0.05761330  0.09879040  1
  O  O56  1  0.35444024  0.31936591  0.97053989  1
  O  O57  1  0.84882602  0.81936591  0.96492567  1
  O  O58  1  0.64555976  0.68063409  0.02946011  1
  O  O59  1  0.15117398  0.18063409  0.03507433  1
  O  O60  1  0.75491586  0.40190445  0.29077809  1
  O  O61  1  0.61112636  0.90190445  0.64698860  1
  O  O62  1  0.24508414  0.59809555  0.70922191  1
  O  O63  1  0.38887364  0.09809555  0.35301140  1
  O  O64  1  0.58413569  0.22903499  0.92106546  1
  O  O65  1  0.80796953  0.72903499  0.64489931  1
  O  O66  1  0.41586431  0.77096501  0.07893454  1
  O  O67  1  0.19203047  0.27096501  0.35510069  1
  O  O68  1  0.19240098  0.11272296  0.62549980  1
  O  O69  1  0.98722316  0.61272296  0.92032199  1
  O  O70  1  0.80759902  0.88727704  0.37450020  1
  O  O71  1  0.01277684  0.38727704  0.07967801  1
  O  O72  1  0.31766162  0.31417397  0.65122210  1
  O  O73  1  0.16295187  0.81417397  0.99651235  1
  O  O74  1  0.68233838  0.68582603  0.34877790  1
  O  O75  1  0.83704813  0.18582603  0.00348765  1
  O  O76  1  0.35792276  0.20584046  0.86573785  1
  O  O77  1  0.84010260  0.70584046  0.84791770  1
  O  O78  1  0.64207724  0.79415954  0.13426215  1
  O  O79  1  0.15989740  0.29415954  0.15208230  1
  O  O80  1  0.82580597  0.25000000  0.57580597  1
  O  O81  1  0.17419403  0.75000000  0.42419403  1
  O  O82  1  0.93866363  0.44078540  0.18943768  1
  O  O83  1  0.75134772  0.94078540  0.50212177  1
  O  O84  1  0.06133637  0.55921460  0.81056232  1
  O  O85  1  0.24865228  0.05921460  0.49787823  1
