# generated using pymatgen
data_Si(AgO)4
_symmetry_space_group_name_H-M   'P 1'
_cell_length_a   4.96775220
_cell_length_b   7.46189874
_cell_length_c   7.46189874
_cell_angle_alpha   90.00000000
_cell_angle_beta   90.00000000
_cell_angle_gamma   90.00000000
_symmetry_Int_Tables_number   1
_chemical_formula_structural   Si(AgO)4
_chemical_formula_sum   'Si2 Ag8 O8'
_cell_volume   276.60410869
_cell_formula_units_Z   2
loop_
 _symmetry_equiv_pos_site_id
 _symmetry_equiv_pos_as_xyz
  1  'x, y, z'
loop_
 _atom_site_type_symbol
 _atom_site_label
 _atom_site_symmetry_multiplicity
 _atom_site_fract_x
 _atom_site_fract_y
 _atom_site_fract_z
 _atom_site_occupancy
  Si  Si0  1  0.75000000  0.25000000  0.25000000  1
  Si  Si1  1  0.25000000  0.75000000  0.75000000  1
  Ag  Ag2  1  0.20379678  0.13677400  0.56891179  1
  Ag  Ag3  1  0.79620322  0.63677400  0.06891179  1
  Ag  Ag4  1  0.79620322  0.86322600  0.43108821  1
  Ag  Ag5  1  0.70379678  0.43108821  0.63677400  1
  Ag  Ag6  1  0.70379678  0.06891179  0.86322600  1
  Ag  Ag7  1  0.29620322  0.56891179  0.36322600  1
  Ag  Ag8  1  0.20379678  0.36322600  0.93108821  1
  Ag  Ag9  1  0.29620322  0.93108821  0.13677400  1
  O  O10  1  0.43929517  0.57771068  0.81146685  1
  O  O11  1  0.93929517  0.31146685  0.42228932  1
  O  O12  1  0.06070483  0.81146685  0.92228932  1
  O  O13  1  0.56070483  0.42228932  0.18853315  1
  O  O14  1  0.93929517  0.18853315  0.07771068  1
  O  O15  1  0.43929517  0.92228932  0.68853315  1
  O  O16  1  0.06070483  0.68853315  0.57771068  1
  O  O17  1  0.56070483  0.07771068  0.31146685  1
