# generated using pymatgen
data_Na2Si3O7
_symmetry_space_group_name_H-M   'P 1'
_cell_length_a   7.29481143
_cell_length_b   8.88125256
_cell_length_c   10.73429100
_cell_angle_alpha   90.00000000
_cell_angle_beta   90.00000000
_cell_angle_gamma   104.89601436
_symmetry_Int_Tables_number   1
_chemical_formula_structural   Na2Si3O7
_chemical_formula_sum   'Na8 Si12 O28'
_cell_volume   672.07209523
_cell_formula_units_Z   4
loop_
 _symmetry_equiv_pos_site_id
 _symmetry_equiv_pos_as_xyz
  1  'x, y, z'
loop_
 _atom_site_type_symbol
 _atom_site_label
 _atom_site_symmetry_multiplicity
 _atom_site_fract_x
 _atom_site_fract_y
 _atom_site_fract_z
 _atom_site_occupancy
  Na  Na0  1  0.58868429  0.37757773  0.69640345  1
  Na  Na1  1  0.68125646  0.42998305  0.06045909  1
  Na  Na2  1  0.18125646  0.92998305  0.43954091  1
  Na  Na3  1  0.81874354  0.07001695  0.56045909  1
  Na  Na4  1  0.08868429  0.87757773  0.80359655  1
  Na  Na5  1  0.31874354  0.57001695  0.93954091  1
  Na  Na6  1  0.41131571  0.62242227  0.30359655  1
  Na  Na7  1  0.91131571  0.12242227  0.19640345  1
  Si  Si8  1  0.40350126  0.02407325  0.18319955  1
  Si  Si9  1  0.84903532  0.68424381  0.56838591  1
  Si  Si10  1  0.59649874  0.97592675  0.81680045  1
  Si  Si11  1  0.44918643  0.72717960  0.60617237  1
  Si  Si12  1  0.05081357  0.77282040  0.10617237  1
  Si  Si13  1  0.94918643  0.22717960  0.89382763  1
  Si  Si14  1  0.90350126  0.52407325  0.31680045  1
  Si  Si15  1  0.34903532  0.18424381  0.93161409  1
  Si  Si16  1  0.09649874  0.47592675  0.68319955  1
  Si  Si17  1  0.55081357  0.27282040  0.39382763  1
  Si  Si18  1  0.15096468  0.31575619  0.43161409  1
  Si  Si19  1  0.65096468  0.81575619  0.06838591  1
  O  O20  1  0.58090277  0.95411155  0.14409206  1
  O  O21  1  0.71022106  0.38276356  0.29550194  1
  O  O22  1  0.45902166  0.35665173  0.89467245  1
  O  O23  1  0.95902166  0.85665173  0.60532755  1
  O  O24  1  0.78977894  0.11723644  0.79550194  1
  O  O25  1  0.86704650  0.25670587  0.02466358  1
  O  O26  1  0.28977894  0.61723644  0.70449806  1
  O  O27  1  0.38039526  0.36630390  0.39816976  1
  O  O28  1  0.41909723  0.04588845  0.85590794  1
  O  O29  1  0.63098405  0.84748469  0.91670910  1
  O  O30  1  0.13098405  0.34748469  0.58329090  1
  O  O31  1  0.11960474  0.13369610  0.89816976  1
  O  O32  1  0.54097834  0.64334827  0.10532755  1
  O  O33  1  0.88039526  0.86630390  0.10183024  1
  O  O34  1  0.13295350  0.74329413  0.97533642  1
  O  O35  1  0.04171139  0.39219321  0.81765735  1
  O  O36  1  0.91909723  0.54588845  0.64409206  1
  O  O37  1  0.86901595  0.65251531  0.41670910  1
  O  O38  1  0.54171139  0.89219321  0.68234265  1
  O  O39  1  0.36704650  0.75670587  0.47533642  1
  O  O40  1  0.36901595  0.15251531  0.08329090  1
  O  O41  1  0.08090277  0.45411155  0.35590794  1
  O  O42  1  0.63295350  0.24329413  0.52466358  1
  O  O43  1  0.21022106  0.88276356  0.20449806  1
  O  O44  1  0.61960474  0.63369610  0.60183024  1
  O  O45  1  0.45828861  0.10780679  0.31765735  1
  O  O46  1  0.95828861  0.60780679  0.18234265  1
  O  O47  1  0.04097834  0.14334827  0.39467245  1
