# generated using pymatgen
data_Ca(BO2)2
_symmetry_space_group_name_H-M   'P 1'
_cell_length_a   6.44680420
_cell_length_b   11.43188936
_cell_length_c   11.46615782
_cell_angle_alpha   90.00000000
_cell_angle_beta   90.00000000
_cell_angle_gamma   90.00000000
_symmetry_Int_Tables_number   1
_chemical_formula_structural   Ca(BO2)2
_chemical_formula_sum   'Ca12 B24 O48'
_cell_volume   845.04611193
_cell_formula_units_Z   12
loop_
 _symmetry_equiv_pos_site_id
 _symmetry_equiv_pos_as_xyz
  1  'x, y, z'
loop_
 _atom_site_type_symbol
 _atom_site_label
 _atom_site_symmetry_multiplicity
 _atom_site_fract_x
 _atom_site_fract_y
 _atom_site_fract_z
 _atom_site_occupancy
  Ca  Ca0  1  0.44927064  0.00139249  0.57243801  1
  Ca  Ca1  1  0.11269746  0.27919846  0.25340049  1
  Ca  Ca2  1  0.61269746  0.77919846  0.24659951  1
  Ca  Ca3  1  0.84109172  0.23468361  0.53253383  1
  Ca  Ca4  1  0.55072936  0.50139249  0.42756199  1
  Ca  Ca5  1  0.15890828  0.73468361  0.46746617  1
  Ca  Ca6  1  0.88730254  0.77919846  0.74659951  1
  Ca  Ca7  1  0.05072936  0.00139249  0.07243801  1
  Ca  Ca8  1  0.38730254  0.27919846  0.75340049  1
  Ca  Ca9  1  0.94927064  0.50139249  0.92756199  1
  Ca  Ca10  1  0.65890828  0.23468361  0.03253383  1
  Ca  Ca11  1  0.34109172  0.73468361  0.96746617  1
  B  B12  1  0.74693361  0.03936109  0.85970837  1
  B  B13  1  0.88116295  0.24009646  0.78747889  1
  B  B14  1  0.38116295  0.74009646  0.71252111  1
  B  B15  1  0.92038179  0.55104566  0.24927124  1
  B  B16  1  0.75306639  0.03936109  0.35970837  1
  B  B17  1  0.24693361  0.53936109  0.64029163  1
  B  B18  1  0.12332864  0.24756969  0.97498484  1
  B  B19  1  0.42038179  0.05104566  0.25072876  1
  B  B20  1  0.11883705  0.74009646  0.21252111  1
  B  B21  1  0.01808294  0.47986945  0.46607397  1
  B  B22  1  0.51808294  0.97986945  0.03392603  1
  B  B23  1  0.98191706  0.97986945  0.53392603  1
  B  B24  1  0.39972928  0.94407431  0.82206888  1
  B  B25  1  0.37667136  0.24756969  0.47498484  1
  B  B26  1  0.10027072  0.94407431  0.32206888  1
  B  B27  1  0.25306639  0.53936109  0.14029163  1
  B  B28  1  0.07961821  0.05104566  0.75072876  1
  B  B29  1  0.57961821  0.55104566  0.74927124  1
  B  B30  1  0.60027072  0.44407431  0.17793112  1
  B  B31  1  0.89972928  0.44407431  0.67793112  1
  B  B32  1  0.87667136  0.74756969  0.02501516  1
  B  B33  1  0.62332864  0.74756969  0.52501516  1
  B  B34  1  0.48191706  0.47986945  0.96607397  1
  B  B35  1  0.61883705  0.24009646  0.28747889  1
  O  O36  1  0.17154118  0.25579714  0.45374268  1
  O  O37  1  0.32845882  0.25579714  0.95374268  1
  O  O38  1  0.67154118  0.75579714  0.04625732  1
  O  O39  1  0.53104426  0.70010876  0.42788693  1
  O  O40  1  0.79865811  0.33272223  0.71248307  1
  O  O41  1  0.53321371  0.01148921  0.35436721  1
  O  O42  1  0.52188758  0.29850379  0.39339458  1
  O  O43  1  0.12356395  0.45004942  0.70103387  1
  O  O44  1  0.20134189  0.83272223  0.28751693  1
  O  O45  1  0.96895574  0.70010876  0.92788693  1
  O  O46  1  0.46857854  0.17277161  0.21804501  1
  O  O47  1  0.02188758  0.79850379  0.10660542  1
  O  O48  1  0.03142146  0.17277161  0.71804501  1
  O  O49  1  0.96678629  0.01148921  0.85436721  1
  O  O50  1  0.97811242  0.29850379  0.89339458  1
  O  O51  1  0.30355537  0.04400147  0.76545667  1
  O  O52  1  0.69644463  0.54400147  0.23454333  1
  O  O53  1  0.69895470  0.03035044  0.99359522  1
  O  O54  1  0.96857854  0.67277161  0.28195499  1
  O  O55  1  0.19895470  0.53035044  0.50640478  1
  O  O56  1  0.62356395  0.95004942  0.79896613  1
  O  O57  1  0.02215449  0.96819445  0.65005532  1
  O  O58  1  0.29398844  0.66377089  0.17336688  1
  O  O59  1  0.20601156  0.66377089  0.67336688  1
  O  O60  1  0.87643605  0.95004942  0.29896613  1
  O  O61  1  0.03104426  0.20010876  0.07211307  1
  O  O62  1  0.47811242  0.79850379  0.60660542  1
  O  O63  1  0.47784551  0.96819445  0.15005532  1
  O  O64  1  0.52215449  0.46819445  0.84994468  1
  O  O65  1  0.46895574  0.20010876  0.57211307  1
  O  O66  1  0.86385529  0.44645935  0.54357220  1
  O  O67  1  0.37643605  0.45004942  0.20103387  1
  O  O68  1  0.03321371  0.51148921  0.14563279  1
  O  O69  1  0.30104530  0.53035044  0.00640478  1
  O  O70  1  0.29865811  0.83272223  0.78751693  1
  O  O71  1  0.79398844  0.16377089  0.32663312  1
  O  O72  1  0.97784551  0.46819445  0.34994468  1
  O  O73  1  0.63614471  0.44645935  0.04357220  1
  O  O74  1  0.46678629  0.51148921  0.64563279  1
  O  O75  1  0.19644463  0.04400147  0.26545667  1
  O  O76  1  0.70134189  0.33272223  0.21248307  1
  O  O77  1  0.80355537  0.54400147  0.73454333  1
  O  O78  1  0.53142146  0.67277161  0.78195499  1
  O  O79  1  0.13614471  0.94645935  0.45642780  1
  O  O80  1  0.80104530  0.03035044  0.49359522  1
  O  O81  1  0.82845882  0.75579714  0.54625732  1
  O  O82  1  0.70601156  0.16377089  0.82663312  1
  O  O83  1  0.36385529  0.94645935  0.95642780  1
