# generated using pymatgen
data_S
_symmetry_space_group_name_H-M   'P 1'
_cell_length_a   7.81767852
_cell_length_b   11.16927682
_cell_length_c   13.58251772
_cell_angle_alpha   91.46637688
_cell_angle_beta   90.00000000
_cell_angle_gamma   90.00000000
_symmetry_Int_Tables_number   1
_chemical_formula_structural   S
_chemical_formula_sum   S36
_cell_volume   1185.60737939
_cell_formula_units_Z   36
loop_
 _symmetry_equiv_pos_site_id
 _symmetry_equiv_pos_as_xyz
  1  'x, y, z'
loop_
 _atom_site_type_symbol
 _atom_site_label
 _atom_site_symmetry_multiplicity
 _atom_site_fract_x
 _atom_site_fract_y
 _atom_site_fract_z
 _atom_site_occupancy
  S  S0  1  0.47148641  0.71580780  0.55206018  1
  S  S1  1  0.42704025  0.30247631  0.58793929  1
  S  S2  1  0.51859447  0.98446520  0.33960550  1
  S  S3  1  0.02851359  0.21580780  0.05206018  1
  S  S4  1  0.98140553  0.48446520  0.83960550  1
  S  S5  1  0.05643122  0.30893267  0.81813158  1
  S  S6  1  0.96161968  0.81360519  0.64748189  1
  S  S7  1  0.26610752  0.98945429  0.74589136  1
  S  S8  1  0.46161968  0.68639481  0.85251811  1
  S  S9  1  0.24943971  0.11575668  0.06087132  1
  S  S10  1  0.57295975  0.69752369  0.41206071  1
  S  S11  1  0.92704025  0.19752369  0.91206071  1
  S  S12  1  0.05362497  0.98652700  0.65391495  1
  S  S13  1  0.55643122  0.19106733  0.68186842  1
  S  S14  1  0.54816594  0.77600923  0.97795083  1
  S  S15  1  0.44637503  0.48652700  0.15391495  1
  S  S16  1  0.07295975  0.80247631  0.08793929  1
  S  S17  1  0.75056029  0.88424332  0.93912868  1
  S  S18  1  0.53838032  0.31360519  0.14748189  1
  S  S19  1  0.74943971  0.38424332  0.43912868  1
  S  S20  1  0.01859447  0.51553480  0.16039450  1
  S  S21  1  0.44356878  0.80893267  0.31813158  1
  S  S22  1  0.52851359  0.28419220  0.44793982  1
  S  S23  1  0.45183406  0.22399077  0.02204917  1
  S  S24  1  0.48140553  0.01553480  0.66039450  1
  S  S25  1  0.03838032  0.18639481  0.35251811  1
  S  S26  1  0.94637503  0.01347300  0.34608505  1
  S  S27  1  0.73389248  0.01054571  0.25410864  1
  S  S28  1  0.23389248  0.48945429  0.24589136  1
  S  S29  1  0.94356878  0.69106733  0.18186842  1
  S  S30  1  0.25056029  0.61575668  0.56087132  1
  S  S31  1  0.76610752  0.51054571  0.75410864  1
  S  S32  1  0.04816594  0.72399077  0.52204917  1
  S  S33  1  0.97148641  0.78419220  0.94793982  1
  S  S34  1  0.55362497  0.51347300  0.84608505  1
  S  S35  1  0.95183406  0.27600923  0.47795083  1
