# generated using pymatgen
data_ErCu3Se2ClO8
_symmetry_space_group_name_H-M   'P 1'
_cell_length_a   6.34615862
_cell_length_b   7.03120883
_cell_length_c   9.52196892
_cell_angle_alpha   90.00000000
_cell_angle_beta   90.00000000
_cell_angle_gamma   90.00000000
_symmetry_Int_Tables_number   1
_chemical_formula_structural   ErCu3Se2ClO8
_chemical_formula_sum   'Er2 Cu6 Se4 Cl2 O16'
_cell_volume   424.88136083
_cell_formula_units_Z   2
loop_
 _symmetry_equiv_pos_site_id
 _symmetry_equiv_pos_as_xyz
  1  'x, y, z'
loop_
 _atom_site_type_symbol
 _atom_site_label
 _atom_site_symmetry_multiplicity
 _atom_site_fract_x
 _atom_site_fract_y
 _atom_site_fract_z
 _atom_site_occupancy
  Er  Er0  1  0.75000000  0.73427071  0.75000000  1
  Er  Er1  1  0.25000000  0.26572929  0.25000000  1
  Cu  Cu2  1  0.00000000  0.00000000  0.50000000  1
  Cu  Cu3  1  0.50000000  0.00000000  0.00000000  1
  Cu  Cu4  1  0.50000000  0.00000000  0.50000000  1
  Cu  Cu5  1  0.75000000  0.20554642  0.75000000  1
  Cu  Cu6  1  0.25000000  0.79445358  0.25000000  1
  Cu  Cu7  1  0.00000000  0.00000000  0.00000000  1
  Se  Se8  1  0.25000000  0.58793034  0.93853681  1
  Se  Se9  1  0.75000000  0.41206966  0.06146319  1
  Se  Se10  1  0.75000000  0.41206966  0.43853681  1
  Se  Se11  1  0.25000000  0.58793034  0.56146319  1
  Cl  Cl12  1  0.25000000  0.14929194  0.75000000  1
  Cl  Cl13  1  0.75000000  0.85070806  0.25000000  1
  O  O14  1  0.53635884  0.26194002  0.08951609  1
  O  O15  1  0.25000000  0.57272381  0.12035674  1
  O  O16  1  0.25000000  0.99876686  0.11257392  1
  O  O17  1  0.03635884  0.73805998  0.91048391  1
  O  O18  1  0.75000000  0.42727619  0.62035674  1
  O  O19  1  0.25000000  0.99876686  0.38742608  1
  O  O20  1  0.96364116  0.26194002  0.08951609  1
  O  O21  1  0.46364116  0.73805998  0.58951609  1
  O  O22  1  0.75000000  0.00123314  0.61257392  1
  O  O23  1  0.96364116  0.26194002  0.41048391  1
  O  O24  1  0.75000000  0.00123314  0.88742608  1
  O  O25  1  0.46364116  0.73805998  0.91048391  1
  O  O26  1  0.53635884  0.26194002  0.41048391  1
  O  O27  1  0.75000000  0.42727619  0.87964326  1
  O  O28  1  0.03635884  0.73805998  0.58951609  1
  O  O29  1  0.25000000  0.57272381  0.37964326  1
