# generated using pymatgen
data_Ti3O5
_symmetry_space_group_name_H-M   'P 1'
_cell_length_a   5.06690812
_cell_length_b   5.69429201
_cell_length_c   7.25376132
_cell_angle_alpha   109.73168567
_cell_angle_beta   90.00000000
_cell_angle_gamma   116.41765489
_symmetry_Int_Tables_number   1
_chemical_formula_structural   Ti3O5
_chemical_formula_sum   'Ti6 O10'
_cell_volume   173.60499151
_cell_formula_units_Z   2
loop_
 _symmetry_equiv_pos_site_id
 _symmetry_equiv_pos_as_xyz
  1  'x, y, z'
loop_
 _atom_site_type_symbol
 _atom_site_label
 _atom_site_symmetry_multiplicity
 _atom_site_fract_x
 _atom_site_fract_y
 _atom_site_fract_z
 _atom_site_occupancy
  Ti  Ti0  1  0.85970510  0.74424526  0.78174595  1
  Ti  Ti1  1  0.88454017  0.74424526  0.28174595  1
  Ti  Ti2  1  0.11545983  0.25575474  0.71825405  1
  Ti  Ti3  1  0.14029490  0.25575474  0.21825405  1
  Ti  Ti4  1  0.50000000  0.00000000  0.50000000  1
  Ti  Ti5  1  0.50000000  0.00000000  0.00000000  1
  O  O6  1  0.14802389  0.62047034  0.84574716  1
  O  O7  1  0.31230705  0.00000000  0.25000000  1
  O  O8  1  0.92367109  0.16273581  0.44143766  1
  O  O9  1  0.23906473  0.16273581  0.94143766  1
  O  O10  1  0.85197611  0.37952966  0.15425284  1
  O  O11  1  0.07632891  0.83726419  0.55856234  1
  O  O12  1  0.68769295  0.00000000  0.75000000  1
  O  O13  1  0.52755355  0.37952966  0.65425284  1
  O  O14  1  0.76093527  0.83726419  0.05856234  1
  O  O15  1  0.47244645  0.62047034  0.34574716  1
