# generated using pymatgen
data_Bi(BO2)3
_symmetry_space_group_name_H-M   'P 1'
_cell_length_a   4.30268809
_cell_length_b   7.33790087
_cell_length_c   11.82212681
_cell_angle_alpha   90.00000000
_cell_angle_beta   90.00000000
_cell_angle_gamma   91.04795856
_symmetry_Int_Tables_number   1
_chemical_formula_structural   Bi(BO2)3
_chemical_formula_sum   'Bi4 B12 O24'
_cell_volume   373.19401591
_cell_formula_units_Z   4
loop_
 _symmetry_equiv_pos_site_id
 _symmetry_equiv_pos_as_xyz
  1  'x, y, z'
loop_
 _atom_site_type_symbol
 _atom_site_label
 _atom_site_symmetry_multiplicity
 _atom_site_fract_x
 _atom_site_fract_y
 _atom_site_fract_z
 _atom_site_occupancy
  Bi  Bi0  1  0.83648755  0.63171723  0.61378812  1
  Bi  Bi1  1  0.16351245  0.86828277  0.11378812  1
  Bi  Bi2  1  0.83648755  0.13171723  0.88621188  1
  Bi  Bi3  1  0.16351245  0.36828277  0.38621188  1
  B  B4  1  0.20117656  0.36926279  0.09340333  1
  B  B5  1  0.68227585  0.20671871  0.16266418  1
  B  B6  1  0.69079138  0.56547143  0.12507964  1
  B  B7  1  0.68227585  0.70671871  0.33733582  1
  B  B8  1  0.20117656  0.86926279  0.40659667  1
  B  B9  1  0.30920862  0.93452857  0.62507964  1
  B  B10  1  0.31772415  0.29328129  0.66266418  1
  B  B11  1  0.30920862  0.43452857  0.87492036  1
  B  B12  1  0.79882344  0.63073721  0.90659667  1
  B  B13  1  0.79882344  0.13073721  0.59340333  1
  B  B14  1  0.69079138  0.06547143  0.37492036  1
  B  B15  1  0.31772415  0.79328129  0.83733582  1
  O  O16  1  0.65456072  0.77334587  0.84102518  1
  O  O17  1  0.64231376  0.45877413  0.88311451  1
  O  O18  1  0.76902027  0.56086032  0.41865935  1
  O  O19  1  0.76902027  0.06086032  0.08134065  1
  O  O20  1  0.21155101  0.32212265  0.77901381  1
  O  O21  1  0.35768624  0.04122587  0.38311451  1
  O  O22  1  0.64231376  0.95877413  0.61688549  1
  O  O23  1  0.65456072  0.27334587  0.65897482  1
  O  O24  1  0.23097973  0.43913968  0.58134065  1
  O  O25  1  0.80645005  0.17728614  0.47129295  1
  O  O26  1  0.34543928  0.22665413  0.15897482  1
  O  O27  1  0.85380279  0.88315689  0.37232310  1
  O  O28  1  0.35768624  0.54122587  0.11688549  1
  O  O29  1  0.19354995  0.82271386  0.52870705  1
  O  O30  1  0.19354995  0.32271386  0.97129295  1
  O  O31  1  0.23097973  0.93913968  0.91865935  1
  O  O32  1  0.78844899  0.17787735  0.27901381  1
  O  O33  1  0.14619721  0.61684311  0.87232310  1
  O  O34  1  0.80645005  0.67728614  0.02870705  1
  O  O35  1  0.21155101  0.82212265  0.72098619  1
  O  O36  1  0.34543928  0.72665413  0.34102518  1
  O  O37  1  0.78844899  0.67787735  0.22098619  1
  O  O38  1  0.85380279  0.38315689  0.12767690  1
  O  O39  1  0.14619721  0.11684311  0.62767690  1
