# generated using pymatgen
data_V7O13
_symmetry_space_group_name_H-M   'P 1'
_cell_length_a   5.54868236
_cell_length_b   7.12003825
_cell_length_c   11.43618240
_cell_angle_alpha   82.98928979
_cell_angle_beta   89.84488594
_cell_angle_gamma   72.00904593
_symmetry_Int_Tables_number   1
_chemical_formula_structural   V7O13
_chemical_formula_sum   'V14 O26'
_cell_volume   426.21038999
_cell_formula_units_Z   2
loop_
 _symmetry_equiv_pos_site_id
 _symmetry_equiv_pos_as_xyz
  1  'x, y, z'
loop_
 _atom_site_type_symbol
 _atom_site_label
 _atom_site_symmetry_multiplicity
 _atom_site_fract_x
 _atom_site_fract_y
 _atom_site_fract_z
 _atom_site_occupancy
  O  O0  1  0.63787095  0.17379162  0.48844673  1
  O  O1  1  0.36212905  0.82620838  0.51155327  1
  O  O2  1  0.12565408  0.22571897  0.44274924  1
  O  O3  1  0.87434592  0.77428103  0.55725076  1
  O  O4  1  0.28876799  0.53515373  0.39304000  1
  O  O5  1  0.71123201  0.46484627  0.60696000  1
  O  O6  1  0.75688219  0.59680683  0.36190731  1
  O  O7  1  0.24311781  0.40319317  0.63809269  1
  O  O8  1  0.02618387  0.92479483  0.32938088  1
  O  O9  1  0.97381613  0.07520517  0.67061912  1
  O  O10  1  0.50013782  0.98976323  0.29741816  1
  O  O11  1  0.49986218  0.01023677  0.70258184  1
  O  O12  1  0.66555037  0.28610414  0.25381247  1
  O  O13  1  0.33444963  0.71389586  0.74618753  1
  O  O14  1  0.19150358  0.55640640  0.97615046  1
  O  O15  1  0.80849642  0.44359360  0.02384954  1
  O  O16  1  0.45614077  0.83532788  0.94330904  1
  O  O17  1  0.54385923  0.16467212  0.05669096  1
  O  O18  1  0.95220073  0.92963061  0.90782252  1
  O  O19  1  0.04779927  0.07036939  0.09217748  1
  O  O20  1  0.12885417  0.23152211  0.87844318  1
  O  O21  1  0.87114583  0.76847789  0.12155682  1
  O  O22  1  0.58066930  0.30688572  0.82225537  1
  O  O23  1  0.41933070  0.69311428  0.17774463  1
  O  O24  1  0.84395018  0.63848660  0.79309312  1
  O  O25  1  0.15604982  0.36151340  0.20690688  1
  V  V26  1  0.00000000  0.50000000  0.50000000  1
  V  V27  1  0.00000000  0.00000000  0.50000000  1
  V  V28  1  0.38540543  0.26190546  0.35225707  1
  V  V29  1  0.61459457  0.73809454  0.64774293  1
  V  V30  1  0.41054503  0.74982106  0.35897188  1
  V  V31  1  0.58945497  0.25017894  0.64102812  1
  V  V32  1  0.79350671  0.01674320  0.21435868  1
  V  V33  1  0.20649329  0.98325680  0.78564132  1
  V  V34  1  0.79374601  0.51085717  0.20159258  1
  V  V35  1  0.20625399  0.48914283  0.79840742  1
  V  V36  1  0.20230134  0.78531768  0.05871841  1
  V  V37  1  0.79769866  0.21468232  0.94128159  1
  V  V38  1  0.21090095  0.28340230  0.05452553  1
  V  V39  1  0.78909905  0.71659770  0.94547447  1
