# generated using pymatgen
data_H5CSO5F3
_symmetry_space_group_name_H-M   'P 1'
_cell_length_a   10.31723626
_cell_length_b   8.87805423
_cell_length_c   7.83488301
_cell_angle_alpha   90.00000000
_cell_angle_beta   97.62954319
_cell_angle_gamma   90.00000000
_symmetry_Int_Tables_number   1
_chemical_formula_structural   H5CSO5F3
_chemical_formula_sum   'H20 C4 S4 O20 F12'
_cell_volume   711.29842936
_cell_formula_units_Z   4
loop_
 _symmetry_equiv_pos_site_id
 _symmetry_equiv_pos_as_xyz
  1  'x, y, z'
loop_
 _atom_site_type_symbol
 _atom_site_label
 _atom_site_symmetry_multiplicity
 _atom_site_fract_x
 _atom_site_fract_y
 _atom_site_fract_z
 _atom_site_occupancy
  H  H0  1  0.66277314  0.52366947  0.13285429  1
  H  H1  1  0.33722686  0.02366947  0.36714571  1
  H  H2  1  0.33722686  0.47633053  0.86714571  1
  H  H3  1  0.66277314  0.97633053  0.63285429  1
  H  H4  1  0.60976573  0.71982846  0.08939566  1
  H  H5  1  0.39023427  0.21982846  0.41060434  1
  H  H6  1  0.39023427  0.28017154  0.91060434  1
  H  H7  1  0.60976573  0.78017154  0.58939566  1
  H  H8  1  0.50472130  0.60870518  0.16557587  1
  H  H9  1  0.49527870  0.10870518  0.33442413  1
  H  H10  1  0.49527870  0.39129482  0.83442413  1
  H  H11  1  0.50472130  0.89129482  0.66557587  1
  H  H12  1  0.75141199  0.34158697  0.10470105  1
  H  H13  1  0.24858801  0.84158697  0.39529895  1
  H  H14  1  0.24858801  0.65841303  0.89529895  1
  H  H15  1  0.75141199  0.15841303  0.60470105  1
  H  H16  1  0.75489905  0.40472185  0.29900084  1
  H  H17  1  0.24510095  0.90472185  0.20099916  1
  H  H18  1  0.24510095  0.59527815  0.70099916  1
  H  H19  1  0.75489905  0.09527815  0.79900084  1
  C  C20  1  0.86925336  0.54148887  0.73628542  1
  C  C21  1  0.13074664  0.04148887  0.76371458  1
  C  C22  1  0.13074664  0.45851113  0.26371458  1
  C  C23  1  0.86925336  0.95851113  0.23628542  1
  S  S24  1  0.70836597  0.47008535  0.62752423  1
  S  S25  1  0.29163403  0.97008535  0.87247577  1
  S  S26  1  0.29163403  0.52991465  0.37247577  1
  S  S27  1  0.70836597  0.02991465  0.12752423  1
  O  O28  1  0.64684545  0.59994030  0.53597793  1
  O  O29  1  0.35315455  0.09994030  0.96402207  1
  O  O30  1  0.35315455  0.40005970  0.46402207  1
  O  O31  1  0.64684545  0.90005970  0.03597793  1
  O  O32  1  0.74592351  0.35136312  0.51128890  1
  O  O33  1  0.25407649  0.85136312  0.98871110  1
  O  O34  1  0.25407649  0.64863688  0.48871110  1
  O  O35  1  0.74592351  0.14863688  0.01128890  1
  O  O36  1  0.64521899  0.41163589  0.76956886  1
  O  O37  1  0.35478101  0.91163589  0.73043114  1
  O  O38  1  0.35478101  0.58836411  0.23043114  1
  O  O39  1  0.64521899  0.08836411  0.26956886  1
  O  O40  1  0.57843119  0.61412927  0.09591777  1
  O  O41  1  0.42156881  0.11412927  0.40408223  1
  O  O42  1  0.42156881  0.38587073  0.90408223  1
  O  O43  1  0.57843119  0.88587073  0.59591777  1
  O  O44  1  0.75140487  0.43408494  0.17563096  1
  O  O45  1  0.24859513  0.93408494  0.32436904  1
  O  O46  1  0.24859513  0.56591506  0.82436904  1
  O  O47  1  0.75140487  0.06591506  0.67563096  1
  F  F48  1  0.84883065  0.65050299  0.85067154  1
  F  F49  1  0.15116935  0.15050299  0.64932846  1
  F  F50  1  0.15116935  0.34949701  0.14932846  1
  F  F51  1  0.84883065  0.84949701  0.35067154  1
  F  F52  1  0.93799246  0.42810583  0.82054107  1
  F  F53  1  0.06200754  0.92810583  0.67945893  1
  F  F54  1  0.06200754  0.57189417  0.17945893  1
  F  F55  1  0.93799246  0.07189417  0.32054107  1
  F  F56  1  0.93955502  0.60002783  0.61855933  1
  F  F57  1  0.06044498  0.10002783  0.88144067  1
  F  F58  1  0.06044498  0.39997217  0.38144067  1
  F  F59  1  0.93955502  0.89997217  0.11855933  1
