# generated using pymatgen
data_BaCu(SiO3)2
_symmetry_space_group_name_H-M   'P 1'
_cell_length_a   10.07341955
_cell_length_b   10.07340566
_cell_length_c   13.47706203
_cell_angle_alpha   111.95219599
_cell_angle_beta   111.95215484
_cell_angle_gamma   90.00089070
_symmetry_Int_Tables_number   1
_chemical_formula_structural   BaCu(SiO3)2
_chemical_formula_sum   'Ba8 Cu8 Si16 O48'
_cell_volume   1160.81681562
_cell_formula_units_Z   8
loop_
 _symmetry_equiv_pos_site_id
 _symmetry_equiv_pos_as_xyz
  1  'x, y, z'
loop_
 _atom_site_type_symbol
 _atom_site_label
 _atom_site_symmetry_multiplicity
 _atom_site_fract_x
 _atom_site_fract_y
 _atom_site_fract_z
 _atom_site_occupancy
  Ba  Ba0  1  0.51296703  0.75000344  0.50001363  1
  Ba  Ba1  1  0.98703603  0.25000210  0.49996858  1
  Ba  Ba2  1  0.01296307  0.74998137  0.50002264  1
  Ba  Ba3  1  0.48704237  0.24998433  0.49999127  1
  Ba  Ba4  1  0.25000375  0.01294951  1.00000733  1
  Ba  Ba5  1  0.24999481  0.51296729  1.00002447  1
  Ba  Ba6  1  0.75000856  0.48703162  -0.00002366  1
  Ba  Ba7  1  0.74999752  0.98703922  -0.00000897  1
  Cu  Cu8  1  0.06653678  0.31651953  0.13303173  1
  Cu  Cu9  1  0.68345379  0.93349598  0.36695463  1
  Si  Si10  1  0.09946740  0.12668409  0.75078232  1
  Si  Si11  1  0.12667298  0.65130759  0.25080383  1
  Si  Si12  1  0.37331205  0.40052966  0.74921728  1
  Si  Si13  1  0.59946692  0.62411589  0.75079096  1
  Si  Si14  1  0.62413288  0.15131035  0.25078840  1
  Si  Si15  1  0.12412456  0.09947786  0.25079210  1
  Si  Si16  1  0.90052331  0.87331385  0.24922345  1
  Si  Si17  1  0.87587744  0.90052230  0.74920396  1
  Cu  Cu18  1  0.56650035  0.81654314  0.13306836  1
  Cu  Cu19  1  0.18353198  0.43350230  0.36697074  1
  Cu  Cu20  1  0.93345193  0.68345667  0.86692731  1
  Si  Si21  1  0.87333290  0.34868796  0.74919821  1
  Si  Si22  1  0.84871613  0.37333120  0.24919971  1
  Si  Si23  1  0.15130246  0.62666160  0.75080018  1
  Cu  Cu24  1  0.81651251  0.56648822  0.63305124  1
  Si  Si25  1  0.65129265  0.12412176  0.75078244  1
  Cu  Cu26  1  0.31648096  0.06651529  0.63305242  1
  Si  Si27  1  0.40054212  0.37587604  0.24920669  1
  Si  Si28  1  0.37587284  0.84870346  0.74921588  1
  Si  Si29  1  0.62669066  0.59947564  0.25077864  1
  Si  Si30  1  0.34868844  0.87587122  0.24921341  1
  Cu  Cu31  1  0.43346922  0.18353245  0.86695537  1
  O  O32  1  0.71901064  0.74176168  0.36943617  1
  O  O33  1  0.87506531  0.96554802  0.36694976  1
  O  O34  1  0.53445059  0.62493331  0.13305349  1
  O  O35  1  0.00810062  0.53443935  0.63305510  1
  O  O36  1  0.73592671  0.48487617  0.21580469  1
  O  O37  1  0.34946335  0.87225166  0.63053741  1
  O  O38  1  0.23595113  0.73092036  0.21586796  1
  O  O39  1  0.78099344  0.37225681  0.63053762  1
  O  O40  1  0.90146594  0.87508329  0.86694993  1
  O  O41  1  0.28097594  0.25825347  0.63056075  1
  O  O42  1  0.47990853  0.23091489  0.21585266  1
  O  O43  1  0.49190438  0.90147718  0.36696356  1
  O  O44  1  0.96554882  0.49189588  0.86693880  1
  O  O45  1  0.51513093  0.52008396  0.28415461  1
  O  O46  1  0.62774300  0.15053354  0.86946111  1
  O  O47  1  0.74174557  0.65050107  0.86945520  1
  O  O48  1  0.26907940  0.02009181  0.28414788  1
  O  O49  1  0.21901953  0.62773325  0.36946226  1
  O  O50  1  0.50806177  0.09851844  0.63303965  1
  O  O51  1  0.98488013  0.23591568  0.71580038  1
  O  O52  1  0.76908546  0.26405314  0.28413173  1
  O  O53  1  0.15052665  0.24176437  0.36945817  1
  O  O54  1  0.84949034  0.75822878  0.63054345  1
  O  O55  1  0.24174110  0.21902331  0.86944001  1
  O  O56  1  0.26407466  0.51511254  0.78419575  1
  O  O57  1  0.02008864  0.01511428  0.78415519  1
  O  O58  1  0.99192688  0.46554413  0.36694323  1
  O  O59  1  0.25826555  0.34949360  0.13054093  1
  O  O60  1  0.12771547  0.71899560  0.86945786  1
  O  O61  1  0.37223089  0.84947369  0.13053708  1
  O  O62  1  0.12490154  0.03444311  0.63304844  1
  O  O63  1  0.75823731  0.78098989  0.13056688  1
  O  O64  1  0.87229968  0.28100300  0.13053990  1
  O  O65  1  0.62491534  0.59852396  0.63304906  1
  O  O66  1  0.97991952  0.98487609  0.21584640  1
  O  O67  1  0.52008839  0.76907413  0.78414759  1
  O  O68  1  0.59852222  0.00809208  0.13303971  1
  O  O69  1  0.37511383  0.40146685  0.36695496  1
  O  O70  1  0.01512042  0.76407479  0.28419665  1
  O  O71  1  0.03445844  0.50811035  0.13305335  1
  O  O72  1  0.23092867  0.73593614  0.71586636  1
  O  O73  1  0.65052865  0.12777048  0.36946681  1
  O  O74  1  0.73091990  0.97990293  0.71585081  1
  O  O75  1  0.46555463  0.37510348  0.86695420  1
  O  O76  1  0.48487957  0.47990314  0.71584179  1
  O  O77  1  0.40147600  0.99193880  0.86695746  1
  O  O78  1  0.09854195  0.12492942  0.13305114  1
  O  O79  1  0.76405617  0.26906520  0.78413155  1
