# generated using pymatgen
data_TlVH6SO9
_symmetry_space_group_name_H-M   'P 1'
_cell_length_a   6.29528008
_cell_length_b   6.75886699
_cell_length_c   10.06049760
_cell_angle_alpha   90.00000000
_cell_angle_beta   90.00000000
_cell_angle_gamma   107.75317728
_symmetry_Int_Tables_number   1
_chemical_formula_structural   TlVH6SO9
_chemical_formula_sum   'Tl2 V2 H12 S2 O18'
_cell_volume   407.67884912
_cell_formula_units_Z   2
loop_
 _symmetry_equiv_pos_site_id
 _symmetry_equiv_pos_as_xyz
  1  'x, y, z'
loop_
 _atom_site_type_symbol
 _atom_site_label
 _atom_site_symmetry_multiplicity
 _atom_site_fract_x
 _atom_site_fract_y
 _atom_site_fract_z
 _atom_site_occupancy
  Tl  Tl0  1  0.31971954  0.82029804  0.65349574  1
  Tl  Tl1  1  0.68028046  0.17970196  0.15349574  1
  V  V2  1  0.37960255  0.62082542  0.99846409  1
  V  V3  1  0.62039745  0.37917458  0.49846409  1
  H  H4  1  0.22119148  0.30869339  0.20628410  1
  H  H5  1  0.52729516  0.65337339  0.26247159  1
  H  H6  1  0.81954535  0.81905893  0.57426576  1
  H  H7  1  0.03235552  0.30839580  0.84975400  1
  H  H8  1  0.96764448  0.69160420  0.34975400  1
  H  H9  1  0.10902305  0.92606436  0.34320347  1
  H  H10  1  0.69103112  0.26304420  0.76357599  1
  H  H11  1  0.18045465  0.18094107  0.07426576  1
  H  H12  1  0.47270484  0.34662661  0.76247159  1
  H  H13  1  0.30896888  0.73695580  0.26357599  1
  H  H14  1  0.77880852  0.69130661  0.70628410  1
  H  H15  1  0.89097695  0.07393564  0.84320347  1
  S  S16  1  0.08253185  0.26585516  0.49803077  1
  S  S17  1  0.91746815  0.73414484  0.99803077  1
  O  O18  1  0.27818650  0.31022282  0.11443076  1
  O  O19  1  0.45603910  0.86206955  0.94300066  1
  O  O20  1  0.54396090  0.13793045  0.44300066  1
  O  O21  1  0.06184271  0.60241189  0.04147628  1
  O  O22  1  0.43395874  0.71639150  0.20682687  1
  O  O23  1  0.56604126  0.28360850  0.70682687  1
  O  O24  1  0.93918915  0.77776614  0.85428444  1
  O  O25  1  0.93815729  0.39758811  0.54147628  1
  O  O26  1  0.87801528  0.21336337  0.85711477  1
  O  O27  1  0.68466123  0.59134558  0.02903092  1
  O  O28  1  0.32104717  0.47370933  0.85959293  1
  O  O29  1  0.67895283  0.52629067  0.35959293  1
  O  O30  1  0.06081085  0.22223386  0.35428444  1
  O  O31  1  0.96847340  0.92382333  0.07779688  1
  O  O32  1  0.03152660  0.07617667  0.57779688  1
  O  O33  1  0.31533877  0.40865442  0.52903092  1
  O  O34  1  0.12198472  0.78663663  0.35711477  1
  O  O35  1  0.72181350  0.68977718  0.61443076  1
