# generated using pymatgen
data_VO2
_symmetry_space_group_name_H-M   'P 1'
_cell_length_a   3.83347038
_cell_length_b   6.38719838
_cell_length_c   6.44991824
_cell_angle_alpha   105.64896855
_cell_angle_beta   90.00000000
_cell_angle_gamma   107.46301950
_symmetry_Int_Tables_number   1
_chemical_formula_structural   VO2
_chemical_formula_sum   'V4 O8'
_cell_volume   144.49983661
_cell_formula_units_Z   4
loop_
 _symmetry_equiv_pos_site_id
 _symmetry_equiv_pos_as_xyz
  1  'x, y, z'
loop_
 _atom_site_type_symbol
 _atom_site_label
 _atom_site_symmetry_multiplicity
 _atom_site_fract_x
 _atom_site_fract_y
 _atom_site_fract_z
 _atom_site_occupancy
  V  V0  1  0.29487215  0.58974431  0.71409869  1
  V  V1  1  0.70512785  0.41025569  0.28590131  1
  V  V2  1  0.40272079  0.80544157  0.29637114  1
  V  V3  1  0.59727921  0.19455843  0.70362886  1
  O  O4  1  0.36207315  0.72414630  0.99036836  1
  O  O5  1  0.63792685  0.27585370  0.00963164  1
  O  O6  1  0.24419578  0.48839157  0.35619655  1
  O  O7  1  0.75580422  0.51160843  0.64380345  1
  O  O8  1  0.44577442  0.89154883  0.63703868  1
  O  O9  1  0.55422558  0.10845117  0.36296132  1
  O  O10  1  0.13718782  0.27437564  0.70546952  1
  O  O11  1  0.86281218  0.72562436  0.29453048  1
