# generated using pymatgen
data_BaMgSiO4
_symmetry_space_group_name_H-M   'P 1'
_cell_length_a   9.24189825
_cell_length_b   9.24189800
_cell_length_c   8.88308203
_cell_angle_alpha   90.00000000
_cell_angle_beta   90.00000000
_cell_angle_gamma   120.00000093
_symmetry_Int_Tables_number   1
_chemical_formula_structural   BaMgSiO4
_chemical_formula_sum   'Ba6 Mg6 Si6 O24'
_cell_volume   657.07758786
_cell_formula_units_Z   6
loop_
 _symmetry_equiv_pos_site_id
 _symmetry_equiv_pos_as_xyz
  1  'x, y, z'
loop_
 _atom_site_type_symbol
 _atom_site_label
 _atom_site_symmetry_multiplicity
 _atom_site_fract_x
 _atom_site_fract_y
 _atom_site_fract_z
 _atom_site_occupancy
  Ba  Ba0  1  0.66666700  0.33333300  0.73916682  1
  Ba  Ba1  1  0.00000000  0.00000000  0.24824047  1
  Ba  Ba2  1  0.33333300  0.66666700  0.23916682  1
  Ba  Ba3  1  0.33333300  0.66666700  0.73125573  1
  Ba  Ba4  1  0.00000000  0.00000000  0.74824047  1
  Ba  Ba5  1  0.66666700  0.33333300  0.23125573  1
  Mg  Mg6  1  0.67756586  0.66625189  0.53905953  1
  Mg  Mg7  1  0.01131398  0.67756586  0.03905953  1
  Mg  Mg8  1  0.98868602  0.32243414  0.53905953  1
  Mg  Mg9  1  0.33374811  0.01131398  0.53905953  1
  Mg  Mg10  1  0.66625189  0.98868602  0.03905953  1
  Mg  Mg11  1  0.32243414  0.33374811  0.03905953  1
  Si  Si12  1  0.32763081  0.33884555  0.43447615  1
  Si  Si13  1  0.01121474  0.67236919  0.43447615  1
  Si  Si14  1  0.66115445  0.98878526  0.43447615  1
  Si  Si15  1  0.98878526  0.32763081  0.93447615  1
  Si  Si16  1  0.67236919  0.66115445  0.93447615  1
  Si  Si17  1  0.33884555  0.01121474  0.93447615  1
  O  O18  1  0.65002897  0.94322779  0.25370568  1
  O  O19  1  0.53274381  0.09541255  0.99650130  1
  O  O20  1  0.09541255  0.56266874  0.49650130  1
  O  O21  1  0.76445637  0.90693654  0.51511918  1
  O  O22  1  0.19351040  0.43037386  0.95558383  1
  O  O23  1  0.46725619  0.90458745  0.49650130  1
  O  O24  1  0.29319882  0.34997103  0.25370568  1
  O  O25  1  0.56962614  0.76313654  0.95558383  1
  O  O26  1  0.56266874  0.46725619  0.99650130  1
  O  O27  1  0.94322779  0.29319882  0.75370568  1
  O  O28  1  0.70680118  0.65002897  0.75370568  1
  O  O29  1  0.80648960  0.56962614  0.45558383  1
  O  O30  1  0.90458745  0.43733126  0.99650130  1
  O  O31  1  0.23686346  0.80648960  0.95558383  1
  O  O32  1  0.43733126  0.53274381  0.49650130  1
  O  O33  1  0.14248016  0.23554363  0.51511918  1
  O  O34  1  0.23554363  0.09306346  0.01511918  1
  O  O35  1  0.85751984  0.76445637  0.01511918  1
  O  O36  1  0.90693654  0.14248016  0.01511918  1
  O  O37  1  0.05677221  0.70680118  0.25370568  1
  O  O38  1  0.43037386  0.23686346  0.45558383  1
  O  O39  1  0.76313654  0.19351040  0.45558383  1
  O  O40  1  0.09306346  0.85751984  0.51511918  1
  O  O41  1  0.34997103  0.05677221  0.75370568  1
