# generated using pymatgen
data_Ba2Eu3Mn2(CuO6)2
_symmetry_space_group_name_H-M   'P 1'
_cell_length_a   3.90506561
_cell_length_b   3.90506667
_cell_length_c   18.28695174
_cell_angle_alpha   96.12926168
_cell_angle_beta   96.12926331
_cell_angle_gamma   89.99999552
_symmetry_Int_Tables_number   1
_chemical_formula_structural   Ba2Eu3Mn2(CuO6)2
_chemical_formula_sum   'Ba2 Eu3 Mn2 Cu2 O12'
_cell_volume   275.67014299
_cell_formula_units_Z   1
loop_
 _symmetry_equiv_pos_site_id
 _symmetry_equiv_pos_as_xyz
  1  'x, y, z'
loop_
 _atom_site_type_symbol
 _atom_site_label
 _atom_site_symmetry_multiplicity
 _atom_site_fract_x
 _atom_site_fract_y
 _atom_site_fract_z
 _atom_site_occupancy
  Eu  Eu0  1  0.50000000  0.50000000  0.00000000  1
  Eu  Eu1  1  0.71309476  0.71309476  0.42618952  1
  Eu  Eu2  1  0.28690524  0.28690524  0.57381048  1
  Ba  Ba3  1  0.60479745  0.60479745  0.20959591  1
  Ba  Ba4  1  0.39520255  0.39520255  0.79040409  1
  Mn  Mn5  1  0.16548827  0.16548827  0.33097555  1
  Mn  Mn6  1  0.83451173  0.83451173  0.66902445  1
  Cu  Cu7  1  0.95166067  0.95166067  0.90332233  1
  Cu  Cu8  1  0.04833933  0.04833933  0.09667767  1
  O  O9  1  0.82964128  0.32964128  0.65928156  1
  O  O10  1  0.22300931  0.22300931  0.44601961  1
  O  O11  1  0.04219428  0.54219428  0.08438856  1
  O  O12  1  0.88635658  0.88635658  0.77271315  1
  O  O13  1  0.67035872  0.17035872  0.34071844  1
  O  O14  1  0.32964128  0.82964128  0.65928156  1
  O  O15  1  0.45780572  0.95780572  0.91561144  1
  O  O16  1  0.54219428  0.04219428  0.08438856  1
  O  O17  1  0.77699069  0.77699069  0.55398039  1
  O  O18  1  0.95780572  0.45780572  0.91561144  1
  O  O19  1  0.11364342  0.11364342  0.22728685  1
  O  O20  1  0.17035872  0.67035872  0.34071844  1
