# generated using pymatgen
data_ZnTe6O13
_symmetry_space_group_name_H-M   'P 1'
_cell_length_a   8.79884423
_cell_length_b   8.79884441
_cell_length_c   8.79884412
_cell_angle_alpha   71.84104810
_cell_angle_beta   71.84104776
_cell_angle_gamma   71.84104990
_symmetry_Int_Tables_number   1
_chemical_formula_structural   ZnTe6O13
_chemical_formula_sum   'Zn2 Te12 O26'
_cell_volume   597.42591730
_cell_formula_units_Z   2
loop_
 _symmetry_equiv_pos_site_id
 _symmetry_equiv_pos_as_xyz
  1  'x, y, z'
loop_
 _atom_site_type_symbol
 _atom_site_label
 _atom_site_symmetry_multiplicity
 _atom_site_fract_x
 _atom_site_fract_y
 _atom_site_fract_z
 _atom_site_occupancy
  Zn  Zn0  1  0.25735698  0.25735698  0.25735698  1
  Zn  Zn1  1  0.74264302  0.74264302  0.74264302  1
  Te  Te2  1  0.98789481  0.66623886  0.05900435  1
  Te  Te3  1  0.66623886  0.05900435  0.98789481  1
  Te  Te4  1  0.01210519  0.33376114  0.94099565  1
  Te  Te5  1  0.53080916  0.82448149  0.42130707  1
  Te  Te6  1  0.94099565  0.01210519  0.33376114  1
  Te  Te7  1  0.05900435  0.98789481  0.66623886  1
  Te  Te8  1  0.33376114  0.94099565  0.01210519  1
  Te  Te9  1  0.17551851  0.57869293  0.46919084  1
  Te  Te10  1  0.57869293  0.46919084  0.17551851  1
  Te  Te11  1  0.42130707  0.53080916  0.82448149  1
  Te  Te12  1  0.46919084  0.17551851  0.57869293  1
  Te  Te13  1  0.82448149  0.42130707  0.53080916  1
  O  O14  1  0.29869544  0.37470393  0.61426213  1
  O  O15  1  0.38573787  0.70130456  0.62529607  1
  O  O16  1  0.91249649  0.91249649  0.91249649  1
  O  O17  1  0.37470393  0.61426213  0.29869544  1
  O  O18  1  0.30313965  0.05299381  0.79900511  1
  O  O19  1  0.54424922  0.63630606  0.88401088  1
  O  O20  1  0.10288231  0.07824374  0.39734447  1
  O  O21  1  0.60265553  0.89711769  0.92175626  1
  O  O22  1  0.36369394  0.11598912  0.45575078  1
  O  O23  1  0.88401088  0.54424922  0.63630606  1
  O  O24  1  0.07824374  0.39734447  0.10288231  1
  O  O25  1  0.61426213  0.29869544  0.37470393  1
  O  O26  1  0.69686035  0.94700619  0.20099489  1
  O  O27  1  0.45575078  0.36369394  0.11598912  1
  O  O28  1  0.11598912  0.45575078  0.36369394  1
  O  O29  1  0.08750351  0.08750351  0.08750351  1
  O  O30  1  0.62529607  0.38573787  0.70130456  1
  O  O31  1  0.70130456  0.62529607  0.38573787  1
  O  O32  1  0.79900511  0.30313965  0.05299381  1
  O  O33  1  0.63630606  0.88401088  0.54424922  1
  O  O34  1  0.92175626  0.60265553  0.89711769  1
  O  O35  1  0.94700619  0.20099489  0.69686035  1
  O  O36  1  0.39734447  0.10288231  0.07824374  1
  O  O37  1  0.05299381  0.79900511  0.30313965  1
  O  O38  1  0.20099489  0.69686035  0.94700619  1
  O  O39  1  0.89711769  0.92175626  0.60265553  1
