# generated using pymatgen
data_Na2Li8U11(WO22)2
_symmetry_space_group_name_H-M   'P 1'
_cell_length_a   6.99560299
_cell_length_b   11.32338928
_cell_length_c   12.29864290
_cell_angle_alpha   99.02098008
_cell_angle_beta   106.27398851
_cell_angle_gamma   90.08317543
_symmetry_Int_Tables_number   1
_chemical_formula_structural   Na2Li8U11(WO22)2
_chemical_formula_sum   'Na2 Li8 U11 W2 O44'
_cell_volume   922.56273814
_cell_formula_units_Z   1
loop_
 _symmetry_equiv_pos_site_id
 _symmetry_equiv_pos_as_xyz
  1  'x, y, z'
loop_
 _atom_site_type_symbol
 _atom_site_label
 _atom_site_symmetry_multiplicity
 _atom_site_fract_x
 _atom_site_fract_y
 _atom_site_fract_z
 _atom_site_occupancy
  Na  Na0  1  0.99469903  0.69571932  0.00564450  1
  Na  Na1  1  0.00530097  0.30428068  0.99435550  1
  Li  Li2  1  0.51997768  0.13901680  0.98585732  1
  Li  Li3  1  0.79517153  0.26546292  0.49008329  1
  Li  Li4  1  0.81825887  0.57056307  0.50094276  1
  Li  Li5  1  0.26823534  0.11985929  0.48457693  1
  Li  Li6  1  0.18174113  0.42943693  0.49905724  1
  Li  Li7  1  0.20482847  0.73453708  0.50991671  1
  Li  Li8  1  0.48002232  0.86098320  0.01414268  1
  Li  Li9  1  0.73176466  0.88014071  0.51542307  1
  U  U10  1  0.29259198  0.23127507  0.26685017  1
  U  U11  1  0.22268386  0.64228199  0.75904267  1
  U  U12  1  0.69611801  0.14173843  0.72273676  1
  U  U13  1  0.30388199  0.85826157  0.27726324  1
  U  U14  1  0.19788591  0.95512456  0.72664026  1
  U  U15  1  0.77731614  0.35771801  0.24095733  1
  U  U16  1  0.21434950  0.27935011  0.74770256  1
  U  U17  1  0.78565050  0.72064989  0.25229744  1
  U  U18  1  0.50000000  0.50000000  0.00000000  1
  U  U19  1  0.70740802  0.76872493  0.73314983  1
  U  U20  1  0.80211409  0.04487544  0.27335974  1
  W  W21  1  0.28261798  0.54417399  0.27366548  1
  W  W22  1  0.71738202  0.45582601  0.72633452  1
  O  O23  1  0.35260685  0.68897322  0.91935927  1
  O  O24  1  0.64004822  0.01204497  0.12057300  1
  O  O25  1  0.71198474  0.52779378  0.17393219  1
  O  O26  1  0.65994904  0.72348662  0.09456855  1
  O  O27  1  0.64739315  0.31102678  0.08064073  1
  O  O28  1  0.26253553  0.19200445  0.11103431  1
  O  O29  1  0.29813346  0.05200450  0.30828850  1
  O  O30  1  0.73746447  0.80799555  0.88896569  1
  O  O31  1  0.95411684  0.19667363  0.22997833  1
  O  O32  1  0.47561134  0.66767957  0.27649701  1
  O  O33  1  0.30619828  0.28398541  0.42141359  1
  O  O34  1  0.70186654  0.94799550  0.69171150  1
  O  O35  1  0.64381071  0.89126133  0.31966563  1
  O  O36  1  0.69380172  0.71601459  0.57858641  1
  O  O37  1  0.35995178  0.98795503  0.87942700  1
  O  O38  1  0.47221845  0.42038242  0.27315847  1
  O  O39  1  0.91532084  0.58875793  0.78622060  1
  O  O40  1  0.08804640  0.65864124  0.21685334  1
  O  O41  1  0.03785531  0.91062551  0.57618056  1
  O  O42  1  0.71291010  0.49192812  0.93498521  1
  O  O43  1  0.89659977  0.41798726  0.39781762  1
  O  O44  1  0.04588316  0.80332637  0.77002167  1
  O  O45  1  0.66150481  0.14794166  0.56732675  1
  O  O46  1  0.09422235  0.30252882  0.59634935  1
  O  O47  1  0.03014912  0.11921965  0.74955585  1
  O  O48  1  0.28534263  0.56676668  0.42054346  1
  O  O49  1  0.08467916  0.41124207  0.21377940  1
  O  O50  1  0.72876898  0.15365849  0.88009716  1
  O  O51  1  0.96985088  0.88078035  0.25044415  1
  O  O52  1  0.90577765  0.69747118  0.40365065  1
  O  O53  1  0.96214469  0.08937449  0.42381944  1
  O  O54  1  0.27123102  0.84634151  0.11990284  1
  O  O55  1  0.34005096  0.27651338  0.90543145  1
  O  O56  1  0.10340023  0.58201274  0.60218238  1
  O  O57  1  0.91195360  0.34135876  0.78314666  1
  O  O58  1  0.71465737  0.43323332  0.57945654  1
  O  O59  1  0.28801526  0.47220622  0.82606781  1
  O  O60  1  0.35618929  0.10873867  0.68033437  1
  O  O61  1  0.33849519  0.85205834  0.43267325  1
  O  O62  1  0.28708990  0.50807188  0.06501479  1
  O  O63  1  0.63451302  0.21073466  0.30509715  1
  O  O64  1  0.52778155  0.57961758  0.72684153  1
  O  O65  1  0.36548698  0.78926534  0.69490285  1
  O  O66  1  0.52438866  0.33232043  0.72350299  1
