# generated using pymatgen
data_SrZnNi(PO4)2
_symmetry_space_group_name_H-M   'P 1'
_cell_length_a   5.48173131
_cell_length_b   6.95239240
_cell_length_c   9.36338884
_cell_angle_alpha   110.67820564
_cell_angle_beta   101.76320670
_cell_angle_gamma   98.15171677
_symmetry_Int_Tables_number   1
_chemical_formula_structural   SrZnNi(PO4)2
_chemical_formula_sum   'Sr2 Zn2 Ni2 P4 O16'
_cell_volume   317.82126790
_cell_formula_units_Z   2
loop_
 _symmetry_equiv_pos_site_id
 _symmetry_equiv_pos_as_xyz
  1  'x, y, z'
loop_
 _atom_site_type_symbol
 _atom_site_label
 _atom_site_symmetry_multiplicity
 _atom_site_fract_x
 _atom_site_fract_y
 _atom_site_fract_z
 _atom_site_occupancy
  Sr  Sr0  1  0.24865837  0.79897990  0.05116495  1
  Sr  Sr1  1  0.75134163  0.20102010  0.94883505  1
  Zn  Zn2  1  0.98981967  0.38414118  0.64723326  1
  Zn  Zn3  1  0.01018033  0.61585882  0.35276674  1
  Ni  Ni4  1  0.63843080  0.85270598  0.56059299  1
  Ni  Ni5  1  0.36156920  0.14729402  0.43940701  1
  P  P6  1  0.39577576  0.42438966  0.23657753  1
  P  P7  1  0.60422424  0.57561034  0.76342247  1
  P  P8  1  0.84288936  0.02402598  0.30239268  1
  P  P9  1  0.15711064  0.97597402  0.69760732  1
  O  O10  1  0.81225291  0.55433102  0.89219206  1
  O  O11  1  0.66488113  0.47470608  0.20922839  1
  O  O12  1  0.65890547  0.79834247  0.76186601  1
  O  O13  1  0.95260227  0.11539890  0.69559913  1
  O  O14  1  0.33511887  0.52529392  0.79077161  1
  O  O15  1  0.99586387  0.74820319  0.57815077  1
  O  O16  1  0.00413613  0.25179681  0.42184923  1
  O  O17  1  0.26205587  0.99677887  0.86712285  1
  O  O18  1  0.34109453  0.20165753  0.23813399  1
  O  O19  1  0.73794413  0.00322113  0.13287715  1
  O  O20  1  0.18774709  0.44566898  0.10780794  1
  O  O21  1  0.37737574  0.59157097  0.39830091  1
  O  O22  1  0.62262426  0.40842903  0.60169909  1
  O  O23  1  0.62124361  0.95381612  0.36892086  1
  O  O24  1  0.04739773  0.88460110  0.30440087  1
  O  O25  1  0.37875639  0.04618388  0.63107914  1
