# generated using pymatgen
data_CdBiS2Br
_symmetry_space_group_name_H-M   'P 1'
_cell_length_a   4.05881479
_cell_length_b   6.90901291
_cell_length_c   9.71252757
_cell_angle_alpha   91.67546345
_cell_angle_beta   90.00000000
_cell_angle_gamma   107.08159809
_symmetry_Int_Tables_number   1
_chemical_formula_structural   CdBiS2Br
_chemical_formula_sum   'Cd2 Bi2 S4 Br2'
_cell_volume   260.22617918
_cell_formula_units_Z   2
loop_
 _symmetry_equiv_pos_site_id
 _symmetry_equiv_pos_as_xyz
  1  'x, y, z'
loop_
 _atom_site_type_symbol
 _atom_site_label
 _atom_site_symmetry_multiplicity
 _atom_site_fract_x
 _atom_site_fract_y
 _atom_site_fract_z
 _atom_site_occupancy
  Cd  Cd0  1  0.00000000  0.00000000  0.50000000  1
  Cd  Cd1  1  0.00000000  0.00000000  0.00000000  1
  Bi  Bi2  1  0.28237592  0.56475184  0.69397843  1
  Bi  Bi3  1  0.71762408  0.43524816  0.30602157  1
  S  S4  1  0.35561758  0.71123516  0.44609040  1
  S  S5  1  0.91811584  0.83623167  0.74380880  1
  S  S6  1  0.64438242  0.28876484  0.55390960  1
  S  S7  1  0.08188416  0.16376833  0.25619120  1
  Br  Br8  1  0.36171655  0.72343309  0.07191057  1
  Br  Br9  1  0.63828345  0.27656691  0.92808943  1
