# generated using pymatgen
data_Pu2Ni17
_symmetry_space_group_name_H-M   'P 1'
_cell_length_a   8.25830539
_cell_length_b   8.25830573
_cell_length_c   7.98353094
_cell_angle_alpha   90.00000000
_cell_angle_beta   90.00000000
_cell_angle_gamma   119.99999868
_symmetry_Int_Tables_number   1
_chemical_formula_structural   Pu2Ni17
_chemical_formula_sum   'Pu4 Ni34'
_cell_volume   471.52806419
_cell_formula_units_Z   2
loop_
 _symmetry_equiv_pos_site_id
 _symmetry_equiv_pos_as_xyz
  1  'x, y, z'
loop_
 _atom_site_type_symbol
 _atom_site_label
 _atom_site_symmetry_multiplicity
 _atom_site_fract_x
 _atom_site_fract_y
 _atom_site_fract_z
 _atom_site_occupancy
  Pu  Pu0  1  0.00000000  0.00000000  0.75000000  1
  Pu  Pu1  1  0.66666700  0.33333300  0.25000000  1
  Pu  Pu2  1  0.00000000  0.00000000  0.25000000  1
  Pu  Pu3  1  0.33333300  0.66666700  0.75000000  1
  Ni  Ni4  1  0.04053355  0.67229387  0.25000000  1
  Ni  Ni5  1  0.66666700  0.33333300  0.90010430  1
  Ni  Ni6  1  0.50000000  0.50000000  0.50000000  1
  Ni  Ni7  1  0.83475319  0.16524681  0.47788729  1
  Ni  Ni8  1  0.33049362  0.16524681  0.02211271  1
  Ni  Ni9  1  0.16524681  0.33049362  0.52211271  1
  Ni  Ni10  1  0.63176032  0.67229387  0.25000000  1
  Ni  Ni11  1  0.83475319  0.16524681  0.02211271  1
  Ni  Ni12  1  0.33333300  0.66666700  0.40010430  1
  Ni  Ni13  1  0.66950638  0.83475319  0.52211271  1
  Ni  Ni14  1  0.32770613  0.36823968  0.25000000  1
  Ni  Ni15  1  0.95946645  0.32770613  0.75000000  1
  Ni  Ni16  1  0.63176032  0.95946645  0.25000000  1
  Ni  Ni17  1  0.95946645  0.63176032  0.75000000  1
  Ni  Ni18  1  0.16524681  0.33049362  0.97788729  1
  Ni  Ni19  1  0.83475319  0.66950638  0.47788729  1
  Ni  Ni20  1  0.33049362  0.16524681  0.47788729  1
  Ni  Ni21  1  0.83475319  0.66950638  0.02211271  1
  Ni  Ni22  1  0.66666700  0.33333300  0.59989570  1
  Ni  Ni23  1  0.50000000  0.50000000  0.00000000  1
  Ni  Ni24  1  0.32770613  0.95946645  0.25000000  1
  Ni  Ni25  1  0.36823968  0.32770613  0.75000000  1
  Ni  Ni26  1  0.66950638  0.83475319  0.97788729  1
  Ni  Ni27  1  0.50000000  0.00000000  0.00000000  1
  Ni  Ni28  1  0.67229387  0.04053355  0.75000000  1
  Ni  Ni29  1  0.16524681  0.83475319  0.97788729  1
  Ni  Ni30  1  0.33333300  0.66666700  0.09989570  1
  Ni  Ni31  1  0.67229387  0.63176032  0.75000000  1
  Ni  Ni32  1  0.00000000  0.50000000  0.00000000  1
  Ni  Ni33  1  0.04053355  0.36823968  0.25000000  1
  Ni  Ni34  1  0.16524681  0.83475319  0.52211271  1
  Ni  Ni35  1  0.36823968  0.04053355  0.75000000  1
  Ni  Ni36  1  0.00000000  0.50000000  0.50000000  1
  Ni  Ni37  1  0.50000000  0.00000000  0.50000000  1
