# generated using pymatgen
data_Hf54Os17
_symmetry_space_group_name_H-M   'P 1'
_cell_length_a   12.31234135
_cell_length_b   12.31234098
_cell_length_c   12.31234125
_cell_angle_alpha   107.15703190
_cell_angle_beta   109.88368682
_cell_angle_gamma   111.40121928
_symmetry_Int_Tables_number   1
_chemical_formula_structural   Hf54Os17
_chemical_formula_sum   'Hf54 Os17'
_cell_volume   1434.80034796
_cell_formula_units_Z   1
loop_
 _symmetry_equiv_pos_site_id
 _symmetry_equiv_pos_as_xyz
  1  'x, y, z'
loop_
 _atom_site_type_symbol
 _atom_site_label
 _atom_site_symmetry_multiplicity
 _atom_site_fract_x
 _atom_site_fract_y
 _atom_site_fract_z
 _atom_site_occupancy
  Hf  Hf0  1  0.87580700  0.08526263  0.57769907  1
  Hf  Hf1  1  0.06589796  0.59834908  0.89708153  1
  Hf  Hf2  1  0.10855550  0.27869788  0.17014238  1
  Hf  Hf3  1  0.49243645  0.70189207  0.57769907  1
  Hf  Hf4  1  0.19357932  0.12833621  0.70861358  1
  Hf  Hf5  1  0.76639029  0.37406353  0.39232676  1
  Hf  Hf6  1  0.41972263  0.48496574  0.29138642  1
  Hf  Hf7  1  0.93410204  0.83118358  0.53245112  1
  Hf  Hf8  1  0.28664859  0.17861225  0.10803634  1
  Hf  Hf9  1  0.18800113  0.10075473  0.28875587  1
  Hf  Hf10  1  0.50756355  0.29810793  0.42230093  1
  Hf  Hf11  1  0.92942409  0.82138775  0.10803634  1
  Hf  Hf12  1  0.39048879  0.39048879  0.00000000  1
  Hf  Hf13  1  0.81199887  0.10075473  0.91275360  1
  Hf  Hf14  1  0.89144450  0.72130212  0.82985762  1
  Hf  Hf15  1  0.12419300  0.91473737  0.42230093  1
  Hf  Hf16  1  0.60113514  0.93542074  0.33428560  1
  Hf  Hf17  1  0.41972263  0.12833621  0.93475689  1
  Hf  Hf18  1  0.50756355  0.08526263  0.20945562  1
  Hf  Hf19  1  0.58027737  0.87166379  0.06524311  1
  Hf  Hf20  1  0.10855550  0.93841312  0.82985762  1
  Hf  Hf21  1  0.32168159  0.40436078  0.72604236  1
  Hf  Hf22  1  0.67831841  0.59563922  0.27395764  1
  Hf  Hf23  1  0.06589796  0.16881642  0.46754888  1
  Hf  Hf24  1  0.32168159  0.59563922  0.91732081  1
  Hf  Hf25  1  0.00000000  0.64508856  0.64508856  1
  Hf  Hf26  1  0.29873245  0.40165092  0.46754888  1
  Hf  Hf27  1  0.81199887  0.89924527  0.71124413  1
  Hf  Hf28  1  0.70126755  0.16881642  0.10291847  1
  Hf  Hf29  1  0.93410204  0.40165092  0.10291847  1
  Hf  Hf30  1  0.87580700  0.29810793  0.79054438  1
  Hf  Hf31  1  1.00000000  0.35491144  0.35491144  1
  Hf  Hf32  1  0.70126755  0.59834908  0.53245112  1
  Hf  Hf33  1  0.60687714  0.00000000  0.60687714  1
  Hf  Hf34  1  0.01826323  0.62593647  0.39232676  1
  Hf  Hf35  1  0.80642068  0.51503426  0.93475689  1
  Hf  Hf36  1  0.71335141  0.82138775  0.89196366  1
  Hf  Hf37  1  0.07057591  0.17861225  0.89196366  1
  Hf  Hf38  1  0.98173677  0.37406353  0.60767324  1
  Hf  Hf39  1  0.23360971  0.62593647  0.60767324  1
  Hf  Hf40  1  0.19357932  0.48496574  0.06524311  1
  Hf  Hf41  1  0.29873245  0.83118358  0.89708153  1
  Hf  Hf42  1  0.67831841  0.40436078  0.08267919  1
  Hf  Hf43  1  0.39886486  0.06457926  0.66571440  1
  Hf  Hf44  1  0.39312286  1.00000000  0.39312286  1
  Hf  Hf45  1  0.39886486  0.73315046  0.33428560  1
  Hf  Hf46  1  0.89144450  0.06158688  0.17014238  1
  Hf  Hf47  1  0.18800113  0.89924527  0.08724640  1
  Hf  Hf48  1  0.60951121  0.60951121  1.00000000  1
  Hf  Hf49  1  0.49243645  0.91473737  0.79054438  1
  Hf  Hf50  1  0.60113514  0.26684954  0.66571440  1
  Hf  Hf51  1  0.12419300  0.70189207  0.20945562  1
  Hf  Hf52  1  0.58027737  0.51503426  0.70861358  1
  Hf  Hf53  1  0.80642068  0.87166379  0.29138642  1
  Os  Os54  1  0.69037936  0.19037936  0.50000000  1
  Os  Os55  1  0.80086595  0.13559122  0.33472527  1
  Os  Os56  1  0.66754688  0.78367468  0.45122156  1
  Os  Os57  1  0.45897438  0.67118533  0.78778905  1
  Os  Os58  1  0.66754688  0.21632532  0.88387220  1
  Os  Os59  1  0.19913405  0.53385932  0.33472527  1
  Os  Os60  1  0.80086595  0.46614068  0.66527473  1
  Os  Os61  1  0.33245312  0.21632532  0.54877844  1
  Os  Os62  1  0.88339627  0.67118533  0.21221095  1
  Os  Os63  1  0.50000000  0.66307694  0.16307694  1
  Os  Os64  1  0.50000000  0.33692306  0.83692306  1
  Os  Os65  1  0.00000000  0.00000000  0.00000000  1
  Os  Os66  1  0.30962064  0.80962064  0.50000000  1
  Os  Os67  1  0.33245312  0.78367468  0.11612780  1
  Os  Os68  1  0.54102562  0.32881467  0.21221095  1
  Os  Os69  1  0.11660373  0.32881467  0.78778905  1
  Os  Os70  1  0.19913405  0.86440878  0.66527473  1
