# generated using pymatgen
data_Li2U4W4O25
_symmetry_space_group_name_H-M   'P 1'
_cell_length_a   6.46393258
_cell_length_b   7.77273205
_cell_length_c   22.50348306
_cell_angle_alpha   98.38390391
_cell_angle_beta   89.99999997
_cell_angle_gamma   114.57023164
_symmetry_Int_Tables_number   1
_chemical_formula_structural   Li2U4W4O25
_chemical_formula_sum   'Li4 U8 W8 O50'
_cell_volume   1014.95275349
_cell_formula_units_Z   2
loop_
 _symmetry_equiv_pos_site_id
 _symmetry_equiv_pos_as_xyz
  1  'x, y, z'
loop_
 _atom_site_type_symbol
 _atom_site_label
 _atom_site_symmetry_multiplicity
 _atom_site_fract_x
 _atom_site_fract_y
 _atom_site_fract_z
 _atom_site_occupancy
  Li  Li0  1  0.56828231  0.21281007  0.44630781  1
  Li  Li1  1  0.35547224  0.78718993  0.05369219  1
  Li  Li2  1  0.43171769  0.78718993  0.55369219  1
  Li  Li3  1  0.64452776  0.21281007  0.94630781  1
  U  U4  1  0.83843705  0.58428551  0.84514759  1
  U  U5  1  0.25415254  0.41571449  0.65485241  1
  U  U6  1  0.96437551  1.00000000  0.75000000  1
  U  U7  1  0.03562449  0.00000000  0.25000000  1
  U  U8  1  0.00000000  0.00000000  0.00000000  1
  U  U9  1  0.74584746  0.58428551  0.34514759  1
  U  U10  1  0.16156295  0.41571449  0.15485241  1
  U  U11  1  0.00000000  0.00000000  0.50000000  1
  W  W12  1  0.58765354  0.16856333  0.69002742  1
  W  W13  1  0.41234646  0.83143667  0.30997258  1
  W  W14  1  0.78759288  0.56317925  0.58978948  1
  W  W15  1  0.41909021  0.83143667  0.80997258  1
  W  W16  1  0.77558637  0.56317925  0.08978948  1
  W  W17  1  0.58090979  0.16856333  0.19002742  1
  W  W18  1  0.22441363  0.43682075  0.91021052  1
  W  W19  1  0.21240712  0.43682075  0.41021052  1
  O  O20  1  0.71241886  0.97000603  0.51771424  1
  O  O21  1  0.81571833  0.77778921  0.05592060  1
  O  O22  1  0.62116700  0.38499081  0.65219736  1
  O  O23  1  0.03792811  0.22221079  0.44407940  1
  O  O24  1  0.76382381  0.38499081  0.15219736  1
  O  O25  1  0.06407283  0.22347509  0.08598676  1
  O  O26  1  0.29974416  0.17343446  0.71290917  1
  O  O27  1  0.04591761  0.53884656  0.62392422  1
  O  O28  1  0.69108928  0.78278232  0.80846926  1
  O  O29  1  0.51675374  0.01325303  0.37286510  1
  O  O30  1  0.28758114  0.02999397  0.48228576  1
  O  O31  1  0.74241183  0.02999397  0.98228576  1
  O  O32  1  0.67611564  0.38691890  0.02511240  1
  O  O33  1  0.93883705  0.81526079  0.18202420  1
  O  O34  1  0.23617619  0.61500919  0.84780264  1
  O  O35  1  0.09169304  0.78278232  0.30846926  1
  O  O36  1  0.12357627  0.18473921  0.31797580  1
  O  O37  1  0.70025584  0.82656554  0.28709083  1
  O  O38  1  0.12630970  0.82656554  0.78709083  1
  O  O39  1  0.57378280  1.00000000  0.75000000  1
  O  O40  1  0.84059773  0.77652491  0.41401324  1
  O  O41  1  0.49292895  0.53884656  0.12392422  1
  O  O42  1  0.32388436  0.61308110  0.97488760  1
  O  O43  1  0.08881110  0.60306821  0.09827657  1
  O  O44  1  0.71080326  0.38691890  0.52511240  1
  O  O45  1  0.30891072  0.21721768  0.19153074  1
  O  O46  1  0.33697639  0.59657105  0.72571157  1
  O  O47  1  0.48324626  0.98674697  0.62713490  1
  O  O48  1  0.95408239  0.46115344  0.37607578  1
  O  O49  1  0.51425711  0.60306821  0.59827657  1
  O  O50  1  0.37883300  0.61500919  0.34780264  1
  O  O51  1  0.93592717  0.77652491  0.91401324  1
  O  O52  1  0.96207189  0.77778921  0.55592060  1
  O  O53  1  0.48574289  0.39693179  0.40172343  1
  O  O54  1  0.15940227  0.22347509  0.58598676  1
  O  O55  1  0.25758817  0.97000603  0.01771424  1
  O  O56  1  0.50707105  0.46115344  0.87607578  1
  O  O57  1  0.25959466  0.59657105  0.22571157  1
  O  O58  1  0.66302361  0.40342895  0.27428843  1
  O  O59  1  0.50350172  0.98674697  0.12713490  1
  O  O60  1  0.87369030  0.17343446  0.21290917  1
  O  O61  1  0.06116295  0.18473921  0.81797580  1
  O  O62  1  0.91118890  0.39693179  0.90172343  1
  O  O63  1  0.18428167  0.22221079  0.94407940  1
  O  O64  1  0.42621720  0.00000000  0.25000000  1
  O  O65  1  0.49649828  0.01325303  0.87286510  1
  O  O66  1  0.90830696  0.21721768  0.69153074  1
  O  O67  1  0.87642373  0.81526079  0.68202420  1
  O  O68  1  0.74040534  0.40342895  0.77428843  1
  O  O69  1  0.28919674  0.61308110  0.47488760  1
