# generated using pymatgen
data_Er3Fe5O12
_symmetry_space_group_name_H-M   'P 1'
_cell_length_a   10.80663176
_cell_length_b   10.80663144
_cell_length_c   10.80663115
_cell_angle_alpha   109.47121613
_cell_angle_beta   109.47121554
_cell_angle_gamma   109.47122916
_symmetry_Int_Tables_number   1
_chemical_formula_structural   Er3Fe5O12
_chemical_formula_sum   'Er12 Fe20 O48'
_cell_volume   971.51416356
_cell_formula_units_Z   4
loop_
 _symmetry_equiv_pos_site_id
 _symmetry_equiv_pos_as_xyz
  1  'x, y, z'
loop_
 _atom_site_type_symbol
 _atom_site_label
 _atom_site_symmetry_multiplicity
 _atom_site_fract_x
 _atom_site_fract_y
 _atom_site_fract_z
 _atom_site_occupancy
  Er  Er0  1  0.37500000  0.75000000  0.12500000  1
  Er  Er1  1  0.25000000  0.37500000  0.12500000  1
  Er  Er2  1  0.25000000  0.87500000  0.62500000  1
  Er  Er3  1  0.62500000  0.25000000  0.87500000  1
  Er  Er4  1  0.12500000  0.37500000  0.75000000  1
  Er  Er5  1  0.87500000  0.75000000  0.62500000  1
  Er  Er6  1  0.12500000  0.25000000  0.37500000  1
  Er  Er7  1  0.37500000  0.12500000  0.25000000  1
  Er  Er8  1  0.62500000  0.87500000  0.75000000  1
  Er  Er9  1  0.75000000  0.12500000  0.37500000  1
  Er  Er10  1  0.87500000  0.62500000  0.25000000  1
  Er  Er11  1  0.75000000  0.62500000  0.87500000  1
  Fe  Fe12  1  0.00000000  0.00000000  0.50000000  1
  Fe  Fe13  1  0.87500000  0.12500000  0.75000000  1
  Fe  Fe14  1  0.50000000  0.50000000  0.00000000  1
  Fe  Fe15  1  0.62500000  0.75000000  0.37500000  1
  Fe  Fe16  1  0.50000000  0.50000000  0.50000000  1
  Fe  Fe17  1  0.00000000  0.00000000  0.00000000  1
  Fe  Fe18  1  0.00000000  0.50000000  0.00000000  1
  Fe  Fe19  1  0.25000000  0.62500000  0.37500000  1
  Fe  Fe20  1  0.12500000  0.75000000  0.87500000  1
  Fe  Fe21  1  0.00000000  0.50000000  0.50000000  1
  Fe  Fe22  1  0.25000000  0.12500000  0.87500000  1
  Fe  Fe23  1  0.37500000  0.25000000  0.62500000  1
  Fe  Fe24  1  0.87500000  0.25000000  0.12500000  1
  Fe  Fe25  1  0.75000000  0.37500000  0.62500000  1
  Fe  Fe26  1  0.37500000  0.62500000  0.75000000  1
  Fe  Fe27  1  0.50000000  0.00000000  0.50000000  1
  Fe  Fe28  1  0.62500000  0.37500000  0.25000000  1
  Fe  Fe29  1  0.75000000  0.87500000  0.12500000  1
  Fe  Fe30  1  0.50000000  0.00000000  0.00000000  1
  Fe  Fe31  1  0.12500000  0.87500000  0.25000000  1
  O  O32  1  0.59315538  0.17676373  0.46684766  1
  O  O33  1  0.62630772  0.41639165  0.09315538  1
  O  O34  1  0.87369228  0.96684766  0.79008393  1
  O  O35  1  0.91639165  0.29008393  0.32323627  1
  O  O36  1  0.53315234  0.40684462  0.82323627  1
  O  O37  1  0.41639165  0.82323627  0.79008393  1
  O  O38  1  0.03315234  0.32323627  0.90684462  1
  O  O39  1  0.70991607  0.53315234  0.62630772  1
  O  O40  1  0.79008393  0.41639165  0.82323627  1
  O  O41  1  0.96684766  0.67676373  0.09315538  1
  O  O42  1  0.90684462  0.37369228  0.58360835  1
  O  O43  1  0.12630772  0.03315234  0.20991607  1
  O  O44  1  0.59315538  0.91639165  0.12630772  1
  O  O45  1  0.62630772  0.70991607  0.53315234  1
  O  O46  1  0.12630772  0.59315538  0.91639165  1
  O  O47  1  0.82323627  0.53315234  0.40684462  1
  O  O48  1  0.29008393  0.32323627  0.91639165  1
  O  O49  1  0.40684462  0.08360835  0.87369228  1
  O  O50  1  0.70991607  0.67676373  0.08360835  1
  O  O51  1  0.09315538  0.96684766  0.67676373  1
  O  O52  1  0.20991607  0.12630772  0.03315234  1
  O  O53  1  0.17676373  0.20991607  0.58360835  1
  O  O54  1  0.41639165  0.09315538  0.62630772  1
  O  O55  1  0.29008393  0.46684766  0.37369228  1
  O  O56  1  0.58360835  0.17676373  0.20991607  1
  O  O57  1  0.46684766  0.59315538  0.17676373  1
  O  O58  1  0.91639165  0.12630772  0.59315538  1
  O  O59  1  0.40684462  0.82323627  0.53315234  1
  O  O60  1  0.37369228  0.29008393  0.46684766  1
  O  O61  1  0.03315234  0.20991607  0.12630772  1
  O  O62  1  0.08360835  0.87369228  0.40684462  1
  O  O63  1  0.96684766  0.79008393  0.87369228  1
  O  O64  1  0.32323627  0.91639165  0.29008393  1
  O  O65  1  0.08360835  0.70991607  0.67676373  1
  O  O66  1  0.87369228  0.40684462  0.08360835  1
  O  O67  1  0.90684462  0.03315234  0.32323627  1
  O  O68  1  0.79008393  0.87369228  0.96684766  1
  O  O69  1  0.20991607  0.58360835  0.17676373  1
  O  O70  1  0.58360835  0.90684462  0.37369228  1
  O  O71  1  0.67676373  0.09315538  0.96684766  1
  O  O72  1  0.37369228  0.58360835  0.90684462  1
  O  O73  1  0.09315538  0.62630772  0.41639165  1
  O  O74  1  0.32323627  0.90684462  0.03315234  1
  O  O75  1  0.17676373  0.46684766  0.59315538  1
  O  O76  1  0.67676373  0.08360835  0.70991607  1
  O  O77  1  0.46684766  0.37369228  0.29008393  1
  O  O78  1  0.53315234  0.62630772  0.70991607  1
  O  O79  1  0.82323627  0.79008393  0.41639165  1
