# generated using pymatgen
data_VPO5
_symmetry_space_group_name_H-M   'P 1'
_cell_length_a   4.56405434
_cell_length_b   6.24646826
_cell_length_c   6.24646826
_cell_angle_alpha   90.00000000
_cell_angle_beta   90.00000000
_cell_angle_gamma   90.00000000
_symmetry_Int_Tables_number   1
_chemical_formula_structural   VPO5
_chemical_formula_sum   'V2 P2 O10'
_cell_volume   178.08194142
_cell_formula_units_Z   2
loop_
 _symmetry_equiv_pos_site_id
 _symmetry_equiv_pos_as_xyz
  1  'x, y, z'
loop_
 _atom_site_type_symbol
 _atom_site_label
 _atom_site_symmetry_multiplicity
 _atom_site_fract_x
 _atom_site_fract_y
 _atom_site_fract_z
 _atom_site_occupancy
  V  V0  1  0.38879804  0.75000000  0.75000000  1
  V  V1  1  0.61120196  0.25000000  0.25000000  1
  P  P2  1  0.50000000  0.25000000  0.75000000  1
  P  P3  1  0.50000000  0.75000000  0.25000000  1
  O  O4  1  0.26012537  0.25000000  0.25000000  1
  O  O5  1  0.69972761  0.26686749  0.95016352  1
  O  O6  1  0.73987463  0.75000000  0.75000000  1
  O  O7  1  0.69972761  0.54983648  0.26686749  1
  O  O8  1  0.30027239  0.73313251  0.04983648  1
  O  O9  1  0.30027239  0.04983648  0.76686749  1
  O  O10  1  0.30027239  0.45016352  0.73313251  1
  O  O11  1  0.69972761  0.95016352  0.23313251  1
  O  O12  1  0.69972761  0.23313251  0.54983648  1
  O  O13  1  0.30027239  0.76686749  0.45016352  1
