# generated using pymatgen
data_EuI2
_symmetry_space_group_name_H-M   'P 1'
_cell_length_a   7.92581124
_cell_length_b   8.26041688
_cell_length_c   15.31075424
_cell_angle_alpha   90.00000000
_cell_angle_beta   90.00000000
_cell_angle_gamma   90.00000000
_symmetry_Int_Tables_number   1
_chemical_formula_structural   EuI2
_chemical_formula_sum   'Eu8 I16'
_cell_volume   1002.40281133
_cell_formula_units_Z   8
loop_
 _symmetry_equiv_pos_site_id
 _symmetry_equiv_pos_as_xyz
  1  'x, y, z'
loop_
 _atom_site_type_symbol
 _atom_site_label
 _atom_site_symmetry_multiplicity
 _atom_site_fract_x
 _atom_site_fract_y
 _atom_site_fract_z
 _atom_site_occupancy
  Eu  Eu0  1  0.22281468  0.44802032  0.60977143  1
  Eu  Eu1  1  0.27718532  0.94802032  0.39022857  1
  Eu  Eu2  1  0.77718532  0.55197968  0.39022857  1
  Eu  Eu3  1  0.22281468  0.94802032  0.89022857  1
  Eu  Eu4  1  0.72281468  0.05197968  0.60977143  1
  Eu  Eu5  1  0.72281468  0.55197968  0.89022857  1
  Eu  Eu6  1  0.27718532  0.44802032  0.10977143  1
  Eu  Eu7  1  0.77718532  0.05197968  0.10977143  1
  I  I8  1  0.66265076  0.39304582  0.20243108  1
  I  I9  1  0.99376159  0.23147144  0.46637145  1
  I  I10  1  0.50623841  0.23147144  0.96637145  1
  I  I11  1  0.50623841  0.73147144  0.53362855  1
  I  I12  1  0.16265076  0.10695418  0.20243108  1
  I  I13  1  0.16265076  0.60695418  0.29756892  1
  I  I14  1  0.83734924  0.39304582  0.70243108  1
  I  I15  1  0.99376159  0.73147144  0.03362855  1
  I  I16  1  0.49376159  0.26852856  0.46637145  1
  I  I17  1  0.49376159  0.76852856  0.03362855  1
  I  I18  1  0.33734924  0.10695418  0.70243108  1
  I  I19  1  0.66265076  0.89304582  0.29756892  1
  I  I20  1  0.00623841  0.76852856  0.53362855  1
  I  I21  1  0.00623841  0.26852856  0.96637145  1
  I  I22  1  0.33734924  0.60695418  0.79756892  1
  I  I23  1  0.83734924  0.89304582  0.79756892  1
