# generated using pymatgen
data_Ca2Fe2O5
_symmetry_space_group_name_H-M   'P 1'
_cell_length_a   5.37056953
_cell_length_b   5.51466750
_cell_length_c   8.23656653
_cell_angle_alpha   89.99975431
_cell_angle_beta   89.99878030
_cell_angle_gamma   89.99938149
_symmetry_Int_Tables_number   1
_chemical_formula_structural   Ca2Fe2O5
_chemical_formula_sum   'Ca4 Fe4 O10'
_cell_volume   243.94161042
_cell_formula_units_Z   2
loop_
 _symmetry_equiv_pos_site_id
 _symmetry_equiv_pos_as_xyz
  1  'x, y, z'
loop_
 _atom_site_type_symbol
 _atom_site_label
 _atom_site_symmetry_multiplicity
 _atom_site_fract_x
 _atom_site_fract_y
 _atom_site_fract_z
 _atom_site_occupancy
  Ca  Ca0  1  0.96232062  0.03492355  0.24999761  1
  Ca  Ca1  1  0.46231841  0.46508484  0.75000717  1
  Ca  Ca2  1  0.55678979  0.54428466  0.25000512  1
  Ca  Ca3  1  0.05679635  0.95571595  0.75000093  1
  Fe  Fe4  1  0.48853565  0.99782279  0.03011407  1
  Fe  Fe5  1  0.98853539  0.50216226  0.96989719  1
  Fe  Fe6  1  0.98853931  0.50217807  0.53010611  1
  Fe  Fe7  1  0.48853767  0.99783003  0.46989477  1
  O  O8  1  0.87674205  0.54369702  0.75000198  1
  O  O9  1  0.37674130  0.95631056  0.25000389  1
  O  O10  1  0.73197843  0.27730488  0.44004175  1
  O  O11  1  0.23197897  0.22269860  0.55996557  1
  O  O12  1  0.79487035  0.77599428  0.06268675  1
  O  O13  1  0.29486708  0.72400430  0.93731296  1
  O  O14  1  0.73195472  0.27730005  0.05995201  1
  O  O15  1  0.23196052  0.22269856  0.94005639  1
  O  O16  1  0.29487554  0.72399628  0.56267895  1
  O  O17  1  0.79487384  0.77600431  0.43731678  1
