# generated using pymatgen
data_Mg16Si8HO32
_symmetry_space_group_name_H-M   'P 1'
_cell_length_a   8.40443493
_cell_length_b   11.65746335
_cell_length_c   5.77818652
_cell_angle_alpha   90.00000330
_cell_angle_beta   90.18215366
_cell_angle_gamma   90.00007142
_symmetry_Int_Tables_number   1
_chemical_formula_structural   Mg16Si8HO32
_chemical_formula_sum   'Mg16 Si8 H1 O32'
_cell_volume   566.11145097
_cell_formula_units_Z   1
loop_
 _symmetry_equiv_pos_site_id
 _symmetry_equiv_pos_as_xyz
  1  'x, y, z'
loop_
 _atom_site_type_symbol
 _atom_site_label
 _atom_site_symmetry_multiplicity
 _atom_site_fract_x
 _atom_site_fract_y
 _atom_site_fract_z
 _atom_site_occupancy
  Mg  Mg0  1  0.78283255  0.00000710  0.25006107  1
  Mg  Mg1  1  0.21725803  0.00000765  0.74974271  1
  Mg  Mg2  1  0.24911060  0.75175759  0.75164829  1
  Mg  Mg3  1  0.24911177  0.24825671  0.75164931  1
  Mg  Mg4  1  0.99933662  0.37729676  0.99937061  1
  Mg  Mg5  1  0.99891826  0.62286729  0.50059118  1
  Mg  Mg6  1  0.99933646  0.62271182  0.99937135  1
  Mg  Mg7  1  0.99891739  0.37714201  0.50059145  1
  Mg  Mg8  1  0.27479383  0.50000663  0.75632236  1
  Mg  Mg9  1  0.72845695  0.50000670  0.24144044  1
  Mg  Mg10  1  0.75113833  0.24860111  0.24806925  1
  Mg  Mg11  1  0.75113925  0.75141260  0.24806770  1
  Mg  Mg12  1  0.50074254  0.87948083  0.50047701  1
  Mg  Mg13  1  0.50063434  0.12067930  0.99957707  1
  Mg  Mg14  1  0.50074112  0.12053272  0.50047559  1
  Mg  Mg15  1  0.50063516  0.87933827  0.99957789  1
  Si  Si16  1  0.13339376  0.13008040  0.25013611  1
  Si  Si17  1  0.13339463  0.86993193  0.25013591  1
  Si  Si18  1  0.86670017  0.86978389  0.74986297  1
  Si  Si19  1  0.86669917  0.13022726  0.74986364  1
  Si  Si20  1  0.63455069  0.63397709  0.74554781  1
  Si  Si21  1  0.63455135  0.36603673  0.74554809  1
  Si  Si22  1  0.36077054  0.35984273  0.25409736  1
  Si  Si23  1  0.36077114  0.64016867  0.25409595  1
  H  H24  1  0.49305241  0.50000152  0.46660002  1
  O  O25  1  0.03513129  0.00000583  0.24964334  1
  O  O26  1  0.96507310  0.00000628  0.75034191  1
  O  O27  1  0.53747393  0.00000747  0.24995092  1
  O  O28  1  0.46291763  0.00000762  0.75010765  1
  O  O29  1  0.00698360  0.24029211  0.24883915  1
  O  O30  1  0.00698556  0.75971923  0.24883905  1
  O  O31  1  0.99354223  0.75987663  0.75101601  1
  O  O32  1  0.99354270  0.24013482  0.75101581  1
  O  O33  1  0.26059458  0.37454156  0.01282288  1
  O  O34  1  0.25546041  0.62855541  0.49299738  1
  O  O35  1  0.74289285  0.62795615  0.50666070  1
  O  O36  1  0.73958779  0.37399819  0.98636880  1
  O  O37  1  0.73958760  0.62601303  0.98636776  1
  O  O38  1  0.74289293  0.37205836  0.50666005  1
  O  O39  1  0.25546050  0.37145884  0.49299810  1
  O  O40  1  0.26059424  0.62546882  0.01282309  1
  O  O41  1  0.53203025  0.50000590  0.72569521  1
  O  O42  1  0.46852732  0.50000354  0.28616420  1
  O  O43  1  0.03250067  0.50000441  0.75086438  1
  O  O44  1  0.96765097  0.50000429  0.24890563  1
  O  O45  1  0.50513853  0.74119921  0.74833009  1
  O  O46  1  0.50513960  0.25881357  0.74832886  1
  O  O47  1  0.49480236  0.25691507  0.25133349  1
  O  O48  1  0.49480296  0.74309617  0.25133213  1
  O  O49  1  0.75813047  0.87238717  0.51104868  1
  O  O50  1  0.75741839  0.12764143  0.98746574  1
  O  O51  1  0.24294633  0.12775062  0.01261837  1
  O  O52  1  0.24237933  0.87246767  0.48868358  1
  O  O53  1  0.24237942  0.12754848  0.48868358  1
  O  O54  1  0.24294644  0.87226137  0.01261886  1
  O  O55  1  0.75741871  0.87237063  0.98746505  1
  O  O56  1  0.75813025  0.12762483  0.51104841  1
