# generated using pymatgen
data_SiO2
_symmetry_space_group_name_H-M   'P 1'
_cell_length_a   22.50310788
_cell_length_b   13.69639430
_cell_length_c   7.03370501
_cell_angle_alpha   90.00000000
_cell_angle_beta   90.00000000
_cell_angle_gamma   90.00000000
_symmetry_Int_Tables_number   1
_chemical_formula_structural   SiO2
_chemical_formula_sum   'Si32 O64'
_cell_volume   2167.86833912
_cell_formula_units_Z   32
loop_
 _symmetry_equiv_pos_site_id
 _symmetry_equiv_pos_as_xyz
  1  'x, y, z'
loop_
 _atom_site_type_symbol
 _atom_site_label
 _atom_site_symmetry_multiplicity
 _atom_site_fract_x
 _atom_site_fract_y
 _atom_site_fract_z
 _atom_site_occupancy
  Si  Si0  1  0.08875631  0.13735206  0.44170925  1
  Si  Si1  1  0.58875631  0.86264794  0.55829075  1
  Si  Si2  1  0.91124369  0.63735206  0.55829075  1
  Si  Si3  1  0.41124369  0.36264794  0.44170925  1
  Si  Si4  1  0.91124369  0.86264794  0.55829075  1
  Si  Si5  1  0.41124369  0.13735206  0.44170925  1
  Si  Si6  1  0.08875631  0.36264794  0.44170925  1
  Si  Si7  1  0.58875631  0.63735206  0.55829075  1
  Si  Si8  1  0.18096974  0.13585031  0.10963261  1
  Si  Si9  1  0.68096974  0.86414969  0.89036739  1
  Si  Si10  1  0.81903026  0.63585031  0.89036739  1
  Si  Si11  1  0.31903026  0.36414969  0.10963261  1
  Si  Si12  1  0.81903026  0.86414969  0.89036739  1
  Si  Si13  1  0.31903026  0.13585031  0.10963261  1
  Si  Si14  1  0.18096974  0.36414969  0.10963261  1
  Si  Si15  1  0.68096974  0.63585031  0.89036739  1
  Si  Si16  1  0.99243432  0.13713353  0.12181894  1
  Si  Si17  1  0.49243432  0.86286647  0.87818106  1
  Si  Si18  1  0.00756568  0.63713353  0.87818106  1
  Si  Si19  1  0.50756568  0.36286647  0.12181894  1
  Si  Si20  1  0.00756568  0.86286647  0.87818106  1
  Si  Si21  1  0.50756568  0.13713353  0.12181894  1
  Si  Si22  1  0.99243432  0.36286647  0.12181894  1
  Si  Si23  1  0.49243432  0.63713353  0.87818106  1
  Si  Si24  1  0.08452305  0.04709124  0.84931888  1
  Si  Si25  1  0.58452305  0.95290876  0.15068112  1
  Si  Si26  1  0.91547695  0.54709124  0.15068112  1
  Si  Si27  1  0.41547695  0.45290876  0.84931888  1
  Si  Si28  1  0.91547695  0.95290876  0.15068112  1
  Si  Si29  1  0.41547695  0.04709124  0.84931888  1
  Si  Si30  1  0.08452305  0.45290876  0.84931888  1
  Si  Si31  1  0.58452305  0.54709124  0.15068112  1
  O  O32  1  0.14899003  0.12303648  0.31593761  1
  O  O33  1  0.64899003  0.87696352  0.68406239  1
  O  O34  1  0.85100997  0.62303648  0.68406239  1
  O  O35  1  0.35100997  0.37696352  0.31593761  1
  O  O36  1  0.85100997  0.87696352  0.68406239  1
  O  O37  1  0.35100997  0.12303648  0.31593761  1
  O  O38  1  0.14899003  0.37696352  0.31593761  1
  O  O39  1  0.64899003  0.62303648  0.68406239  1
  O  O40  1  0.03062054  0.11137932  0.31292408  1
  O  O41  1  0.53062054  0.88862068  0.68707592  1
  O  O42  1  0.96937946  0.61137932  0.68707592  1
  O  O43  1  0.46937946  0.38862068  0.31292408  1
  O  O44  1  0.96937946  0.88862068  0.68707592  1
  O  O45  1  0.46937946  0.11137932  0.31292408  1
  O  O46  1  0.03062054  0.38862068  0.31292408  1
  O  O47  1  0.53062054  0.61137932  0.68707592  1
  O  O48  1  0.09097224  0.06442889  0.62180725  1
  O  O49  1  0.59097224  0.93557111  0.37819275  1
  O  O50  1  0.90902776  0.56442889  0.37819275  1
  O  O51  1  0.40902776  0.43557111  0.62180725  1
  O  O52  1  0.90902776  0.93557111  0.37819275  1
  O  O53  1  0.40902776  0.06442889  0.62180725  1
  O  O54  1  0.09097224  0.43557111  0.62180725  1
  O  O55  1  0.59097224  0.56442889  0.37819275  1
  O  O56  1  0.08452682  0.25000000  0.51593561  1
  O  O57  1  0.58452682  0.75000000  0.48406439  1
  O  O58  1  0.91547318  0.75000000  0.48406439  1
  O  O59  1  0.41547318  0.25000000  0.51593561  1
  O  O60  1  0.14810929  0.06778431  0.95256127  1
  O  O61  1  0.64810929  0.93221569  0.04743873  1
  O  O62  1  0.85189071  0.56778431  0.04743873  1
  O  O63  1  0.35189071  0.43221569  0.95256127  1
  O  O64  1  0.85189071  0.93221569  0.04743873  1
  O  O65  1  0.35189071  0.06778431  0.95256127  1
  O  O66  1  0.14810929  0.43221569  0.95256127  1
  O  O67  1  0.64810929  0.56778431  0.04743873  1
  O  O68  1  0.17719671  0.25000000  0.04222567  1
  O  O69  1  0.67719671  0.75000000  0.95777433  1
  O  O70  1  0.82280329  0.75000000  0.95777433  1
  O  O71  1  0.32280329  0.25000000  0.04222567  1
  O  O72  1  0.25000000  0.10241444  0.12748337  1
  O  O73  1  0.75000000  0.89758556  0.87251663  1
  O  O74  1  0.75000000  0.60241444  0.87251663  1
  O  O75  1  0.25000000  0.39758556  0.12748337  1
  O  O76  1  0.97012372  0.25000000  0.12748729  1
  O  O77  1  0.47012372  0.75000000  0.87251271  1
  O  O78  1  0.02987628  0.75000000  0.87251271  1
  O  O79  1  0.52987628  0.25000000  0.12748729  1
  O  O80  1  0.03404389  0.12123077  0.93416327  1
  O  O81  1  0.53404389  0.87876923  0.06583673  1
  O  O82  1  0.96595611  0.62123077  0.06583673  1
  O  O83  1  0.46595611  0.37876923  0.93416327  1
  O  O84  1  0.96595611  0.87876923  0.06583673  1
  O  O85  1  0.46595611  0.12123077  0.93416327  1
  O  O86  1  0.03404389  0.37876923  0.93416327  1
  O  O87  1  0.53404389  0.62123077  0.06583673  1
  O  O88  1  0.93481493  0.06591790  0.11122007  1
  O  O89  1  0.43481493  0.93408210  0.88877993  1
  O  O90  1  0.06518507  0.56591790  0.88877993  1
  O  O91  1  0.56518507  0.43408210  0.11122007  1
  O  O92  1  0.06518507  0.93408210  0.88877993  1
  O  O93  1  0.56518507  0.06591790  0.11122007  1
  O  O94  1  0.93481493  0.43408210  0.11122007  1
  O  O95  1  0.43481493  0.56591790  0.88877993  1
