# generated using pymatgen
data_K4V3S5O23
_symmetry_space_group_name_H-M   'P 1'
_cell_length_a   8.90879473
_cell_length_b   14.64969862
_cell_length_c   16.38989279
_cell_angle_alpha   90.00000000
_cell_angle_beta   90.00000000
_cell_angle_gamma   106.54224243
_symmetry_Int_Tables_number   1
_chemical_formula_structural   K4V3S5O23
_chemical_formula_sum   'K16 V12 S20 O92'
_cell_volume   2050.52820005
_cell_formula_units_Z   4
loop_
 _symmetry_equiv_pos_site_id
 _symmetry_equiv_pos_as_xyz
  1  'x, y, z'
loop_
 _atom_site_type_symbol
 _atom_site_label
 _atom_site_symmetry_multiplicity
 _atom_site_fract_x
 _atom_site_fract_y
 _atom_site_fract_z
 _atom_site_occupancy
  K  K0  1  0.47636906  0.76170015  0.79771666  1
  K  K1  1  0.75366296  0.37720908  0.97645215  1
  K  K2  1  0.75933107  0.51345047  0.74767055  1
  K  K3  1  0.77930001  0.64399993  0.52571995  1
  K  K4  1  0.74066893  0.98654953  0.24767055  1
  K  K5  1  0.22069999  0.35600007  0.47428005  1
  K  K6  1  0.97636906  0.26170015  0.70228334  1
  K  K7  1  0.72069999  0.85600007  0.02571995  1
  K  K8  1  0.25366296  0.87720908  0.52354785  1
  K  K9  1  0.74633704  0.12279092  0.47645215  1
  K  K10  1  0.02363094  0.73829985  0.29771666  1
  K  K11  1  0.24066893  0.48654953  0.25232945  1
  K  K12  1  0.24633704  0.62279092  0.02354785  1
  K  K13  1  0.25933107  0.01345047  0.75232945  1
  K  K14  1  0.52363094  0.23829985  0.20228334  1
  K  K15  1  0.27930001  0.14399993  0.97428005  1
  V  V16  1  0.82291429  0.42017120  0.36137710  1
  V  V17  1  0.33595014  0.41200980  0.85894061  1
  V  V18  1  0.99150271  0.25364055  0.10911668  1
  V  V19  1  0.83595014  0.91200980  0.64105939  1
  V  V20  1  0.66404986  0.58799020  0.14105939  1
  V  V21  1  0.32291429  0.92017120  0.13862290  1
  V  V22  1  0.49150271  0.75364055  0.39088332  1
  V  V23  1  0.67708571  0.07982880  0.86137710  1
  V  V24  1  0.50849729  0.24635945  0.60911668  1
  V  V25  1  0.16404986  0.08799020  0.35894061  1
  V  V26  1  0.00849729  0.74635945  0.89088332  1
  V  V27  1  0.17708571  0.57982880  0.63862290  1
  S  S28  1  0.59673967  0.55897003  0.34421187  1
  S  S29  1  0.15910959  0.60092670  0.43713969  1
  S  S30  1  0.65910959  0.10092670  0.06286031  1
  S  S31  1  0.04659542  0.76450699  0.67836588  1
  S  S32  1  0.54659542  0.26450699  0.82163412  1
  S  S33  1  0.34128352  0.39868605  0.06475154  1
  S  S34  1  0.90326033  0.94102997  0.84421187  1
  S  S35  1  0.87940306  0.44427620  0.16142537  1
  S  S36  1  0.15871648  0.10131395  0.56475154  1
  S  S37  1  0.40326033  0.44102997  0.65578813  1
  S  S38  1  0.37940306  0.94427620  0.33857463  1
  S  S39  1  0.95340458  0.23549301  0.32163412  1
  S  S40  1  0.12059694  0.55572380  0.83857463  1
  S  S41  1  0.84128352  0.89868605  0.43524846  1
  S  S42  1  0.09673967  0.05897003  0.15578813  1
  S  S43  1  0.62059694  0.05572380  0.66142537  1
  S  S44  1  0.84089041  0.39907330  0.56286031  1
  S  S45  1  0.45340458  0.73549301  0.17836588  1
  S  S46  1  0.65871648  0.60131395  0.93524846  1
  S  S47  1  0.34089041  0.89907330  0.93713969  1
  O  O48  1  0.27806015  0.53910812  0.84942623  1
  O  O49  1  0.44922702  0.30910527  0.87638165  1
  O  O50  1  0.44020478  0.43958125  0.74515589  1
  O  O51  1  0.30135786  0.13776662  0.61826009  1
  O  O52  1  0.93115748  0.33109633  0.55097789  1
  O  O53  1  0.11926187  0.15699978  0.12030152  1
  O  O54  1  0.50013812  0.99581103  0.60995574  1
  O  O55  1  0.05097904  0.67770921  0.62961267  1
  O  O56  1  0.33922850  0.65237490  0.67172521  1
  O  O57  1  0.05077298  0.19089473  0.37638165  1
  O  O58  1  0.61926187  0.65699978  0.37969848  1
  O  O59  1  0.22193985  0.96089188  0.34942623  1
  O  O60  1  0.77413113  0.42262549  0.48406918  1
  O  O61  1  0.43115748  0.83109633  0.94902211  1
  O  O62  1  0.07152480  0.54026744  0.75069846  1
  O  O63  1  0.82939755  0.65908402  0.17248035  1
  O  O64  1  0.80135786  0.63776662  0.88173991  1
  O  O65  1  0.20747293  0.85952744  0.87806654  1
  O  O66  1  0.97103087  0.98702780  0.11636615  1
  O  O67  1  0.71394595  0.58202447  0.01849295  1
  O  O68  1  0.44902096  0.82229079  0.12961267  1
  O  O69  1  0.46256888  0.23380282  0.74412939  1
  O  O70  1  0.49986188  0.00418897  0.39004426  1
  O  O71  1  0.56884252  0.16890367  0.05097789  1
  O  O72  1  0.94922702  0.80910527  0.62361835  1
  O  O73  1  0.57152480  0.04026744  0.74930154  1
  O  O74  1  0.57237883  0.50821730  0.89786776  1
  O  O75  1  0.16077150  0.84762510  0.17172521  1
  O  O76  1  0.38073813  0.34300022  0.62030152  1
  O  O77  1  0.25565140  0.04409314  0.14422298  1
  O  O78  1  0.83922850  0.15237490  0.82827479  1
  O  O79  1  0.42847520  0.95973256  0.25069846  1
  O  O80  1  0.92847520  0.45973256  0.24930154  1
  O  O81  1  0.69864214  0.86223338  0.38173991  1
  O  O82  1  0.94020478  0.93958125  0.75484411  1
  O  O83  1  0.34927668  0.83992462  0.35926782  1
  O  O84  1  0.65072332  0.16007538  0.64073218  1
  O  O85  1  0.15072332  0.66007538  0.85926782  1
  O  O86  1  0.67060245  0.84091598  0.67248035  1
  O  O87  1  0.07237883  0.00821730  0.60213224  1
  O  O88  1  0.43457185  0.98995146  0.89931342  1
  O  O89  1  0.24434860  0.45590686  0.64422298  1
  O  O90  1  0.32939755  0.15908402  0.32751965  1
  O  O91  1  0.53743112  0.76619718  0.25587061  1
  O  O92  1  0.02130842  0.73752409  0.98933678  1
  O  O93  1  0.56542815  0.01004854  0.10068658  1
  O  O94  1  0.93457185  0.48995146  0.60068658  1
  O  O95  1  0.75565140  0.54409314  0.35577702  1
  O  O96  1  0.43317701  0.33063849  0.06139718  1
  O  O97  1  0.70747293  0.35952744  0.62193346  1
  O  O98  1  0.70336614  0.32935885  0.81049426  1
  O  O99  1  0.84927668  0.33992462  0.14073218  1
  O  O100  1  0.28605405  0.41797553  0.98150705  1
  O  O101  1  0.27413113  0.92262549  0.01593082  1
  O  O102  1  0.88073813  0.84300022  0.87969848  1
  O  O103  1  0.47869158  0.76247591  0.48933678  1
  O  O104  1  0.06542815  0.51004854  0.39931342  1
  O  O105  1  0.99986188  0.50418897  0.10995574  1
  O  O106  1  0.00013812  0.49581103  0.89004426  1
  O  O107  1  0.22586887  0.57737451  0.51593082  1
  O  O108  1  0.19864214  0.36223338  0.11826009  1
  O  O109  1  0.55097904  0.17770921  0.87038733  1
  O  O110  1  0.29252707  0.64047256  0.37806654  1
  O  O111  1  0.52130842  0.23752409  0.51066322  1
  O  O112  1  0.93317701  0.83063849  0.43860282  1
  O  O113  1  0.42762117  0.49178270  0.10213224  1
  O  O114  1  0.79252707  0.14047256  0.12193346  1
  O  O115  1  0.29663386  0.67064115  0.18950574  1
  O  O116  1  0.20336614  0.82935885  0.68950574  1
  O  O117  1  0.55979522  0.56041875  0.25484411  1
  O  O118  1  0.17060245  0.34091598  0.82751965  1
  O  O119  1  0.96256888  0.73380282  0.75587061  1
  O  O120  1  0.02896913  0.01297220  0.88363385  1
  O  O121  1  0.06884252  0.66890367  0.44902211  1
  O  O122  1  0.92762117  0.99178270  0.39786776  1
  O  O123  1  0.66077150  0.34762510  0.32827479  1
  O  O124  1  0.72586887  0.07737451  0.98406918  1
  O  O125  1  0.06682299  0.16936151  0.56139718  1
  O  O126  1  0.03743112  0.26619718  0.24412939  1
  O  O127  1  0.94902096  0.32229079  0.37038733  1
  O  O128  1  0.56682299  0.66936151  0.93860282  1
  O  O129  1  0.05979522  0.06041875  0.24515589  1
  O  O130  1  0.77806015  0.03910812  0.65057377  1
  O  O131  1  0.78605405  0.91797553  0.51849295  1
  O  O132  1  0.79663386  0.17064115  0.31049426  1
  O  O133  1  0.47103087  0.48702780  0.38363385  1
  O  O134  1  0.52896913  0.51297220  0.61636615  1
  O  O135  1  0.55077298  0.69089473  0.12361835  1
  O  O136  1  0.97869158  0.26247591  0.01066322  1
  O  O137  1  0.72193985  0.46089188  0.15057377  1
  O  O138  1  0.21394595  0.08202447  0.48150705  1
  O  O139  1  0.74434860  0.95590686  0.85577702  1
