# generated using pymatgen
data_Sr11(Ge2N3)2
_symmetry_space_group_name_H-M   'P 1'
_cell_length_a   7.32711959
_cell_length_b   7.32711959
_cell_length_c   18.85333081
_cell_angle_alpha   90.00000000
_cell_angle_beta   90.00000000
_cell_angle_gamma   90.00000000
_symmetry_Int_Tables_number   1
_chemical_formula_structural   Sr11(Ge2N3)2
_chemical_formula_sum   'Sr22 Ge8 N12'
_cell_volume   1012.17276615
_cell_formula_units_Z   2
loop_
 _symmetry_equiv_pos_site_id
 _symmetry_equiv_pos_as_xyz
  1  'x, y, z'
loop_
 _atom_site_type_symbol
 _atom_site_label
 _atom_site_symmetry_multiplicity
 _atom_site_fract_x
 _atom_site_fract_y
 _atom_site_fract_z
 _atom_site_occupancy
  Sr  Sr0  1  0.07792949  0.92207051  0.59904778  1
  Sr  Sr1  1  0.47113092  0.52886908  0.12983731  1
  Sr  Sr2  1  0.25000000  0.25000000  0.72615968  1
  Sr  Sr3  1  0.02886908  0.52886908  0.87016269  1
  Sr  Sr4  1  0.57792949  0.07792949  0.59904778  1
  Sr  Sr5  1  0.92207051  0.07792949  0.40095222  1
  Sr  Sr6  1  0.42207051  0.57792949  0.59904778  1
  Sr  Sr7  1  0.97113092  0.47113092  0.12983731  1
  Sr  Sr8  1  0.02886908  0.97113092  0.12983731  1
  Sr  Sr9  1  0.52886908  0.47113092  0.87016269  1
  Sr  Sr10  1  0.42207051  0.92207051  0.40095222  1
  Sr  Sr11  1  0.52886908  0.02886908  0.12983731  1
  Sr  Sr12  1  0.25000000  0.25000000  0.00000000  1
  Sr  Sr13  1  0.75000000  0.75000000  0.72615968  1
  Sr  Sr14  1  0.92207051  0.42207051  0.59904778  1
  Sr  Sr15  1  0.57792949  0.42207051  0.40095222  1
  Sr  Sr16  1  0.47113092  0.97113092  0.87016269  1
  Sr  Sr17  1  0.07792949  0.57792949  0.40095222  1
  Sr  Sr18  1  0.97113092  0.02886908  0.87016269  1
  Sr  Sr19  1  0.75000000  0.75000000  0.00000000  1
  Sr  Sr20  1  0.25000000  0.25000000  0.27384032  1
  Sr  Sr21  1  0.75000000  0.75000000  0.27384032  1
  Ge  Ge22  1  0.25000000  0.75000000  0.25840152  1
  Ge  Ge23  1  0.75000000  0.25000000  0.74159848  1
  Ge  Ge24  1  0.25000000  0.75000000  0.74159848  1
  Ge  Ge25  1  0.25000000  0.75000000  0.00000000  1
  Ge  Ge26  1  0.75000000  0.75000000  0.50000000  1
  Ge  Ge27  1  0.75000000  0.25000000  0.25840152  1
  Ge  Ge28  1  0.25000000  0.25000000  0.50000000  1
  Ge  Ge29  1  0.75000000  0.25000000  0.00000000  1
  N  N30  1  0.75000000  0.75000000  0.85603486  1
  N  N31  1  0.25000000  0.25000000  0.85603486  1
  N  N32  1  0.89455698  0.10544302  0.68299278  1
  N  N33  1  0.60544302  0.10544302  0.31700722  1
  N  N34  1  0.39455698  0.89455698  0.68299278  1
  N  N35  1  0.75000000  0.75000000  0.14396514  1
  N  N36  1  0.39455698  0.60544302  0.31700722  1
  N  N37  1  0.89455698  0.39455698  0.31700722  1
  N  N38  1  0.10544302  0.60544302  0.68299278  1
  N  N39  1  0.60544302  0.39455698  0.68299278  1
  N  N40  1  0.10544302  0.89455698  0.31700722  1
  N  N41  1  0.25000000  0.25000000  0.14396514  1
