# generated using pymatgen
data_Tl4Pd3Cl10
_symmetry_space_group_name_H-M   'P 1'
_cell_length_a   13.66442036
_cell_length_b   13.66442066
_cell_length_c   13.66442080
_cell_angle_alpha   105.95546950
_cell_angle_beta   105.95546996
_cell_angle_gamma   116.75777536
_symmetry_Int_Tables_number   1
_chemical_formula_structural   Tl4Pd3Cl10
_chemical_formula_sum   'Tl16 Pd12 Cl40'
_cell_volume   1939.93450718
_cell_formula_units_Z   4
loop_
 _symmetry_equiv_pos_site_id
 _symmetry_equiv_pos_as_xyz
  1  'x, y, z'
loop_
 _atom_site_type_symbol
 _atom_site_label
 _atom_site_symmetry_multiplicity
 _atom_site_fract_x
 _atom_site_fract_y
 _atom_site_fract_z
 _atom_site_occupancy
  Tl  Tl0  1  0.87500000  0.88274894  0.50774894  1
  Tl  Tl1  1  0.11725106  0.62500000  0.99225106  1
  Tl  Tl2  1  0.60803445  0.10803445  0.50000000  1
  Tl  Tl3  1  0.14196555  0.14196555  1.00000000  1
  Tl  Tl4  1  0.59547828  0.39877970  0.29186785  1
  Tl  Tl5  1  0.05361043  0.35691185  0.20813215  1
  Tl  Tl6  1  0.60122030  0.89308815  0.19669858  1
  Tl  Tl7  1  0.37500000  0.36725106  0.49225106  1
  Tl  Tl8  1  0.85803445  0.85803445  0.00000000  1
  Tl  Tl9  1  0.15452172  0.94638957  0.30330142  1
  Tl  Tl10  1  0.10691185  0.30361043  0.70813215  1
  Tl  Tl11  1  0.14877970  0.84547828  0.79186785  1
  Tl  Tl12  1  0.69638957  0.40452172  0.80330142  1
  Tl  Tl13  1  0.63274894  0.12500000  0.00774894  1
  Tl  Tl14  1  0.64308815  0.85122030  0.69669858  1
  Tl  Tl15  1  0.89196555  0.39196555  0.50000000  1
  Pd  Pd16  1  0.77368934  0.62500000  0.64868934  1
  Pd  Pd17  1  0.87500000  0.22631066  0.85131066  1
  Pd  Pd18  1  0.37445697  0.49463416  0.09248590  1
  Pd  Pd19  1  0.03197107  0.65214825  0.40751410  1
  Pd  Pd20  1  0.37500000  0.02368934  0.14868934  1
  Pd  Pd21  1  0.50536584  0.59785175  0.87982281  1
  Pd  Pd22  1  0.37554303  0.96802893  0.62017719  1
  Pd  Pd23  1  0.34785175  0.75536584  0.37982281  1
  Pd  Pd24  1  0.97631066  0.12500000  0.35131066  1
  Pd  Pd25  1  0.40214825  0.28197107  0.90751410  1
  Pd  Pd26  1  0.24463416  0.62445697  0.59248590  1
  Pd  Pd27  1  0.71802893  0.62554303  0.12017719  1
  Cl  Cl28  1  0.37500000  0.88220033  0.00720033  1
  Cl  Cl29  1  0.40082668  0.11206044  0.55216001  1
  Cl  Cl30  1  0.86206044  0.65082668  0.05216001  1
  Cl  Cl31  1  0.83424747  0.12500000  0.20924747  1
  Cl  Cl32  1  0.38707982  0.59446164  0.97746694  1
  Cl  Cl33  1  0.15961288  0.86699470  0.52253306  1
  Cl  Cl34  1  0.89372441  0.34472726  0.75368123  1
  Cl  Cl35  1  0.37500000  0.16575253  0.29075253  1
  Cl  Cl36  1  0.16117407  0.39113415  0.99553350  1
  Cl  Cl37  1  0.85995682  0.10627559  0.45100285  1
  Cl  Cl38  1  0.40553836  0.38300530  0.79261818  1
  Cl  Cl39  1  0.89004318  0.84104603  0.74631877  1
  Cl  Cl40  1  0.11779967  0.12500000  0.49279967  1
  Cl  Cl41  1  0.34917332  0.40133333  0.21123376  1
  Cl  Cl42  1  0.35439935  0.85886585  0.27003992  1
  Cl  Cl43  1  0.58882593  0.08435943  0.72996008  1
  Cl  Cl44  1  0.34446164  0.63707982  0.47746694  1
  Cl  Cl45  1  0.59866667  0.80990043  0.94783999  1
  Cl  Cl46  1  0.87500000  0.36779967  0.99279967  1
  Cl  Cl47  1  0.59104603  0.14004318  0.24631877  1
  Cl  Cl48  1  0.88793956  0.44009957  0.28876624  1
  Cl  Cl49  1  0.85627559  0.10995682  0.95100285  1
  Cl  Cl50  1  0.36292018  0.84038712  0.70738182  1
  Cl  Cl51  1  0.39560065  0.16564057  0.00446650  1
  Cl  Cl52  1  0.65527274  0.40895397  0.54899715  1
  Cl  Cl53  1  0.83435943  0.83882593  0.22996008  1
  Cl  Cl54  1  0.09472726  0.14372441  0.25368123  1
  Cl  Cl55  1  0.91575253  0.62500000  0.79075253  1
  Cl  Cl56  1  0.15895397  0.90527274  0.04899715  1
  Cl  Cl57  1  0.14113415  0.41117407  0.49553350  1
  Cl  Cl58  1  0.15133333  0.59917332  0.71123376  1
  Cl  Cl59  1  0.60886585  0.60439935  0.77003992  1
  Cl  Cl60  1  0.59038712  0.61292018  0.20738182  1
  Cl  Cl61  1  0.61699470  0.40961288  0.02253306  1
  Cl  Cl62  1  0.87500000  0.08424747  0.70924747  1
  Cl  Cl63  1  0.19009957  0.13793956  0.78876624  1
  Cl  Cl64  1  0.63220033  0.62500000  0.50720033  1
  Cl  Cl65  1  0.91564057  0.64560065  0.50446650  1
  Cl  Cl66  1  0.55990043  0.84866667  0.44783999  1
  Cl  Cl67  1  0.13300530  0.65553836  0.29261818  1
