# generated using pymatgen
data_Pr2P3Au
_symmetry_space_group_name_H-M   'P 1'
_cell_length_a   4.21912529
_cell_length_b   7.79056551
_cell_length_c   16.35395039
_cell_angle_alpha   90.00000000
_cell_angle_beta   90.00000000
_cell_angle_gamma   90.00000000
_symmetry_Int_Tables_number   1
_chemical_formula_structural   Pr2P3Au
_chemical_formula_sum   'Pr8 P12 Au4'
_cell_volume   537.54407849
_cell_formula_units_Z   4
loop_
 _symmetry_equiv_pos_site_id
 _symmetry_equiv_pos_as_xyz
  1  'x, y, z'
loop_
 _atom_site_type_symbol
 _atom_site_label
 _atom_site_symmetry_multiplicity
 _atom_site_fract_x
 _atom_site_fract_y
 _atom_site_fract_z
 _atom_site_occupancy
  Pr  Pr0  1  0.75000000  0.39960709  0.29722149  1
  Pr  Pr1  1  0.25000000  0.23238434  0.52430804  1
  Pr  Pr2  1  0.25000000  0.10039291  0.79722149  1
  Pr  Pr3  1  0.25000000  0.60039291  0.70277851  1
  Pr  Pr4  1  0.75000000  0.26761566  0.02430804  1
  Pr  Pr5  1  0.25000000  0.73238434  0.97569196  1
  Pr  Pr6  1  0.75000000  0.89960709  0.20277851  1
  Pr  Pr7  1  0.75000000  0.76761566  0.47569196  1
  P  P8  1  0.75000000  0.11738844  0.41249326  1
  P  P9  1  0.75000000  0.29717321  0.70149324  1
  P  P10  1  0.75000000  0.79717321  0.79850676  1
  P  P11  1  0.25000000  0.70282679  0.29850676  1
  P  P12  1  0.75000000  0.46642215  0.59355252  1
  P  P13  1  0.25000000  0.88261156  0.58750674  1
  P  P14  1  0.75000000  0.61738844  0.08750674  1
  P  P15  1  0.25000000  0.03357785  0.09355252  1
  P  P16  1  0.75000000  0.96642215  0.90644748  1
  P  P17  1  0.25000000  0.38261156  0.91249326  1
  P  P18  1  0.25000000  0.53357785  0.40644748  1
  P  P19  1  0.25000000  0.20282679  0.20149324  1
  Au  Au20  1  0.25000000  0.01132116  0.34928348  1
  Au  Au21  1  0.75000000  0.98867884  0.65071652  1
  Au  Au22  1  0.75000000  0.48867884  0.84928348  1
  Au  Au23  1  0.25000000  0.51132116  0.15071652  1
