# generated using pymatgen
data_LiCu2P5O16
_symmetry_space_group_name_H-M   'P 1'
_cell_length_a   18.54339661
_cell_length_b   6.71882446
_cell_length_c   4.96534070
_cell_angle_alpha   90.00000000
_cell_angle_beta   89.53751804
_cell_angle_gamma   90.00000000
_symmetry_Int_Tables_number   1
_chemical_formula_structural   LiCu2P5O16
_chemical_formula_sum   'Li2 Cu4 P10 O32'
_cell_volume   618.61078406
_cell_formula_units_Z   2
loop_
 _symmetry_equiv_pos_site_id
 _symmetry_equiv_pos_as_xyz
  1  'x, y, z'
loop_
 _atom_site_type_symbol
 _atom_site_label
 _atom_site_symmetry_multiplicity
 _atom_site_fract_x
 _atom_site_fract_y
 _atom_site_fract_z
 _atom_site_occupancy
  Li  Li0  1  0.47197856  0.37582844  0.73562204  1
  Li  Li1  1  0.97197856  0.62417156  0.73562204  1
  Cu  Cu2  1  0.40833105  0.82153998  0.74449410  1
  Cu  Cu3  1  0.90833105  0.17846002  0.74449410  1
  Cu  Cu4  1  0.09229499  0.82073590  0.25449996  1
  Cu  Cu5  1  0.59229499  0.17926410  0.25449996  1
  P  P6  1  0.13041430  0.53700414  0.73449699  1
  P  P7  1  0.42079016  0.12439536  0.23262678  1
  P  P8  1  0.63041430  0.46299586  0.73449699  1
  P  P9  1  0.74998837  0.24652696  0.00508079  1
  P  P10  1  0.07765071  0.12670306  0.77095852  1
  P  P11  1  0.57765071  0.87329694  0.77095852  1
  P  P12  1  0.86941551  0.46677073  0.26046285  1
  P  P13  1  0.92079016  0.87560464  0.23262678  1
  P  P14  1  0.24998837  0.75347304  0.00508079  1
  P  P15  1  0.36941551  0.53322927  0.26046285  1
  O  O16  1  0.61832905  0.43336271  0.43602429  1
  O  O17  1  0.71109474  0.40276594  0.81095398  1
  O  O18  1  0.56724507  0.93509148  0.06474037  1
  O  O19  1  0.57433718  0.36580846  0.91767736  1
  O  O20  1  0.51040297  0.77332198  0.65219198  1
  O  O21  1  0.88691473  0.04478175  0.39242629  1
  O  O22  1  0.30504111  0.86719451  0.84370692  1
  O  O23  1  0.19554598  0.87640172  0.15697555  1
  O  O24  1  0.38916913  0.55837082  0.55574112  1
  O  O25  1  0.38691473  0.95521825  0.39242629  1
  O  O26  1  0.61285428  0.03401141  0.59770010  1
  O  O27  1  0.93183534  0.91865784  0.93087471  1
  O  O28  1  0.28871005  0.60629430  0.21680154  1
  O  O29  1  0.98655313  0.77655934  0.36555490  1
  O  O30  1  0.78871005  0.39370570  0.21680154  1
  O  O31  1  0.85874241  0.70084567  0.22699556  1
  O  O32  1  0.42141843  0.61446435  0.05103998  1
  O  O33  1  0.06724507  0.06490852  0.06474037  1
  O  O34  1  0.43183534  0.08134216  0.93087471  1
  O  O35  1  0.92141843  0.38553565  0.05103998  1
  O  O36  1  0.11285428  0.96598859  0.59770010  1
  O  O37  1  0.01040297  0.22667802  0.65219198  1
  O  O38  1  0.35874241  0.29915433  0.22699556  1
  O  O39  1  0.07433718  0.63419154  0.91767736  1
  O  O40  1  0.11832905  0.56663729  0.43602429  1
  O  O41  1  0.69554598  0.12359828  0.15697555  1
  O  O42  1  0.48655313  0.22344066  0.36555490  1
  O  O43  1  0.63752675  0.69520602  0.78382432  1
  O  O44  1  0.13752675  0.30479398  0.78382432  1
  O  O45  1  0.21109474  0.59723406  0.81095398  1
  O  O46  1  0.88916913  0.44162918  0.55574112  1
  O  O47  1  0.80504111  0.13280549  0.84370692  1
