# generated using pymatgen
data_Sb6H3CCl13O10
_symmetry_space_group_name_H-M   'P 1'
_cell_length_a   13.77816534
_cell_length_b   14.98061535
_cell_length_c   14.23424242
_cell_angle_alpha   90.00000000
_cell_angle_beta   97.86746806
_cell_angle_gamma   90.00000000
_symmetry_Int_Tables_number   1
_chemical_formula_structural   Sb6H3CCl13O10
_chemical_formula_sum   'Sb24 H12 C4 Cl52 O40'
_cell_volume   2910.36981590
_cell_formula_units_Z   4
loop_
 _symmetry_equiv_pos_site_id
 _symmetry_equiv_pos_as_xyz
  1  'x, y, z'
loop_
 _atom_site_type_symbol
 _atom_site_label
 _atom_site_symmetry_multiplicity
 _atom_site_fract_x
 _atom_site_fract_y
 _atom_site_fract_z
 _atom_site_occupancy
  Sb  Sb0  1  0.90055853  0.84459449  0.91043107  1
  Sb  Sb1  1  0.40055853  0.65540551  0.41043107  1
  Sb  Sb2  1  0.09944147  0.15540551  0.08956893  1
  Sb  Sb3  1  0.59944147  0.34459449  0.58956893  1
  Sb  Sb4  1  0.83840554  0.95711706  0.10255904  1
  Sb  Sb5  1  0.33840554  0.54288294  0.60255904  1
  Sb  Sb6  1  0.16159446  0.04288294  0.89744096  1
  Sb  Sb7  1  0.66159446  0.45711706  0.39744096  1
  Sb  Sb8  1  0.16449849  0.76966281  0.94083365  1
  Sb  Sb9  1  0.66449849  0.73033719  0.44083365  1
  Sb  Sb10  1  0.83550151  0.23033719  0.05916635  1
  Sb  Sb11  1  0.33550151  0.26966281  0.55916635  1
  Sb  Sb12  1  0.11249574  0.90874505  0.10281809  1
  Sb  Sb13  1  0.61249574  0.59125495  0.60281809  1
  Sb  Sb14  1  0.88750426  0.09125495  0.89718191  1
  Sb  Sb15  1  0.38750426  0.40874505  0.39718191  1
  Sb  Sb16  1  0.04819250  0.98170658  0.30069781  1
  Sb  Sb17  1  0.54819250  0.51829342  0.80069781  1
  Sb  Sb18  1  0.95180750  0.01829342  0.69930219  1
  Sb  Sb19  1  0.45180750  0.48170658  0.19930219  1
  Sb  Sb20  1  0.91046670  0.15701491  0.27016622  1
  Sb  Sb21  1  0.41046670  0.34298509  0.77016622  1
  Sb  Sb22  1  0.08953330  0.84298509  0.72983378  1
  Sb  Sb23  1  0.58953330  0.65701491  0.22983378  1
  H  H24  1  0.71225481  0.88696409  0.95180978  1
  H  H25  1  0.21225481  0.61303591  0.45180978  1
  H  H26  1  0.28774519  0.11303591  0.04819022  1
  H  H27  1  0.78774519  0.38696409  0.54819022  1
  H  H28  1  0.43850541  0.82287031  0.77974197  1
  H  H29  1  0.93850541  0.67712969  0.27974197  1
  H  H30  1  0.56149459  0.17712969  0.22025803  1
  H  H31  1  0.06149459  0.32287031  0.72025803  1
  H  H32  1  0.56298581  0.79348003  0.76273238  1
  H  H33  1  0.06298581  0.70651997  0.26273238  1
  H  H34  1  0.43701419  0.20651997  0.23726762  1
  H  H35  1  0.93701419  0.29348003  0.73726762  1
  C  C36  1  0.51435658  0.84517357  0.78314537  1
  C  C37  1  0.01435658  0.65482643  0.28314537  1
  C  C38  1  0.48564342  0.15482643  0.21685463  1
  C  C39  1  0.98564342  0.34517357  0.71685463  1
  Cl  Cl40  1  0.79273075  0.79931668  0.77793994  1
  Cl  Cl41  1  0.29273075  0.70068332  0.27793994  1
  Cl  Cl42  1  0.20726925  0.20068332  0.22206006  1
  Cl  Cl43  1  0.70726925  0.29931668  0.72206006  1
  Cl  Cl44  1  0.89307024  0.70656500  0.98563234  1
  Cl  Cl45  1  0.39307024  0.79343500  0.48563234  1
  Cl  Cl46  1  0.10692976  0.29343500  0.01436766  1
  Cl  Cl47  1  0.60692976  0.20656500  0.51436766  1
  Cl  Cl48  1  0.67973776  0.00003029  0.12317446  1
  Cl  Cl49  1  0.17973776  0.49996971  0.62317446  1
  Cl  Cl50  1  0.32026224  -0.00003029  0.87682554  1
  Cl  Cl51  1  0.82026224  0.50003029  0.37682554  1
  Cl  Cl52  1  0.82801120  0.82441434  0.18689792  1
  Cl  Cl53  1  0.32801120  0.67558566  0.68689792  1
  Cl  Cl54  1  0.17198880  0.17558566  0.81310208  1
  Cl  Cl55  1  0.67198880  0.32441434  0.31310208  1
  Cl  Cl56  1  0.32886523  0.75861628  0.00459515  1
  Cl  Cl57  1  0.82886523  0.74138372  0.50459515  1
  Cl  Cl58  1  0.67113477  0.24138372  0.99540485  1
  Cl  Cl59  1  0.17113477  0.25861628  0.49540485  1
  Cl  Cl60  1  0.13309554  0.61908800  0.91608791  1
  Cl  Cl61  1  0.63309554  0.88091200  0.41608791  1
  Cl  Cl62  1  0.86690446  0.38091200  0.08391209  1
  Cl  Cl63  1  0.36690446  0.11908800  0.58391209  1
  Cl  Cl64  1  0.27783418  0.91719291  0.16809150  1
  Cl  Cl65  1  0.77783418  0.58280709  0.66809150  1
  Cl  Cl66  1  0.72216582  0.08280709  0.83190850  1
  Cl  Cl67  1  0.22216582  0.41719291  0.33190850  1
  Cl  Cl68  1  0.20650398  0.98288032  0.38247279  1
  Cl  Cl69  1  0.70650398  0.51711968  0.88247279  1
  Cl  Cl70  1  0.79349602  0.01711968  0.61752721  1
  Cl  Cl71  1  0.29349602  0.48288032  0.11752721  1
  Cl  Cl72  1  0.97007953  0.90755758  0.41155616  1
  Cl  Cl73  1  0.47007953  0.59244242  0.91155616  1
  Cl  Cl74  1  0.02992047  0.09244242  0.58844384  1
  Cl  Cl75  1  0.52992047  0.40755758  0.08844384  1
  Cl  Cl76  1  0.95256165  0.29893525  0.32967064  1
  Cl  Cl77  1  0.45256165  0.20106475  0.82967064  1
  Cl  Cl78  1  0.04743835  0.70106475  0.67032936  1
  Cl  Cl79  1  0.54743835  0.79893525  0.17032936  1
  Cl  Cl80  1  0.81118093  0.11341352  0.38217530  1
  Cl  Cl81  1  0.31118093  0.38658648  0.88217530  1
  Cl  Cl82  1  0.18881907  0.88658648  0.61782470  1
  Cl  Cl83  1  0.68881907  0.61341352  0.11782470  1
  Cl  Cl84  1  0.55247312  0.87130226  0.90585399  1
  Cl  Cl85  1  0.05247312  0.62869774  0.40585399  1
  Cl  Cl86  1  0.44752688  0.12869774  0.09414601  1
  Cl  Cl87  1  0.94752688  0.37130226  0.59414601  1
  Cl  Cl88  1  0.51795789  0.93846572  0.70853529  1
  Cl  Cl89  1  0.01795789  0.56153428  0.20853529  1
  Cl  Cl90  1  0.48204211  0.06153428  0.29146471  1
  Cl  Cl91  1  0.98204211  0.43846572  0.79146471  1
  O  O92  1  0.78315878  0.89571919  0.97443423  1
  O  O93  1  0.28315878  0.60428081  0.47443423  1
  O  O94  1  0.21684122  0.10428081  0.02556577  1
  O  O95  1  0.71684122  0.39571919  0.52556577  1
  O  O96  1  0.20471487  0.81096081  0.82094655  1
  O  O97  1  0.70471487  0.68903919  0.32094655  1
  O  O98  1  0.79528513  0.18903919  0.17905345  1
  O  O99  1  0.29528513  0.31096081  0.67905345  1
  O  O100  1  0.11268995  0.78254826  0.06154689  1
  O  O101  1  0.61268995  0.71745174  0.56154689  1
  O  O102  1  0.88731005  0.21745174  0.93845311  1
  O  O103  1  0.38731005  0.28254826  0.43845311  1
  O  O104  1  0.06141749  0.87643071  0.22157275  1
  O  O105  1  0.56141749  0.62356929  0.72157275  1
  O  O106  1  0.93858251  0.12356929  0.77842725  1
  O  O107  1  0.43858251  0.37643071  0.27842725  1
  O  O108  1  0.03600398  0.10859614  0.33140447  1
  O  O109  1  0.53600398  0.39140386  0.83140447  1
  O  O110  1  0.96399602  0.89140386  0.66859553  1
  O  O111  1  0.46399602  0.60859614  0.16859553  1
  O  O112  1  0.95933074  0.90914487  0.03877652  1
  O  O113  1  0.45933074  0.59085513  0.53877652  1
  O  O114  1  0.04066926  0.09085513  0.96122348  1
  O  O115  1  0.54066926  0.40914487  0.46122348  1
  O  O116  1  0.02772593  0.80900797  0.86121103  1
  O  O117  1  0.52772593  0.69099203  0.36121103  1
  O  O118  1  0.97227407  0.19099203  0.13878897  1
  O  O119  1  0.47227407  0.30900797  0.63878897  1
  O  O120  1  0.85305256  0.07057740  0.02880480  1
  O  O121  1  0.35305256  0.42942260  0.52880480  1
  O  O122  1  0.14694744  0.92942260  0.97119520  1
  O  O123  1  0.64694744  0.57057740  0.47119520  1
  O  O124  1  0.91099796  0.96618142  0.84968243  1
  O  O125  1  0.41099796  0.53381858  0.34968243  1
  O  O126  1  0.08900204  0.03381858  0.15031757  1
  O  O127  1  0.58900204  0.46618142  0.65031757  1
  O  O128  1  0.91103971  0.01843327  0.21896933  1
  O  O129  1  0.41103971  0.48156673  0.71896933  1
  O  O130  1  0.08896029  0.98156673  0.78103067  1
  O  O131  1  0.58896029  0.51843327  0.28103067  1
