# generated using pymatgen
data_P4S3I2
_symmetry_space_group_name_H-M   'P 1'
_cell_length_a   6.95894854
_cell_length_b   9.94723271
_cell_length_c   16.75924108
_cell_angle_alpha   90.00000000
_cell_angle_beta   90.00000000
_cell_angle_gamma   90.00000000
_symmetry_Int_Tables_number   1
_chemical_formula_structural   P4S3I2
_chemical_formula_sum   'P16 S12 I8'
_cell_volume   1160.11288775
_cell_formula_units_Z   4
loop_
 _symmetry_equiv_pos_site_id
 _symmetry_equiv_pos_as_xyz
  1  'x, y, z'
loop_
 _atom_site_type_symbol
 _atom_site_label
 _atom_site_symmetry_multiplicity
 _atom_site_fract_x
 _atom_site_fract_y
 _atom_site_fract_z
 _atom_site_occupancy
  P  P0  1  0.45333509  0.47837991  0.35091966  1
  P  P1  1  0.04666491  0.97837991  0.35091966  1
  P  P2  1  0.80945349  0.13267646  0.75000000  1
  P  P3  1  0.30945349  0.36732354  0.25000000  1
  P  P4  1  0.95333509  0.02162009  0.64908034  1
  P  P5  1  0.24305761  0.24413244  0.75000000  1
  P  P6  1  0.54666491  0.52162009  0.64908034  1
  P  P7  1  0.54666491  0.52162009  0.85091966  1
  P  P8  1  0.74305761  0.25586756  0.25000000  1
  P  P9  1  0.25694239  0.74413244  0.75000000  1
  P  P10  1  0.95333509  0.02162009  0.85091966  1
  P  P11  1  0.45333509  0.47837991  0.14908034  1
  P  P12  1  0.75694239  0.75586756  0.25000000  1
  P  P13  1  0.69054651  0.63267646  0.75000000  1
  P  P14  1  0.19054651  0.86732354  0.25000000  1
  P  P15  1  0.04666491  0.97837991  0.14908034  1
  S  S16  1  0.76643160  0.88928650  0.14974727  1
  S  S17  1  0.73356840  0.38928650  0.14974727  1
  S  S18  1  0.23356840  0.11071350  0.85025273  1
  S  S19  1  0.54142318  0.81815180  0.75000000  1
  S  S20  1  0.26643160  0.61071350  0.85025273  1
  S  S21  1  0.76643160  0.88928650  0.35025273  1
  S  S22  1  0.04142318  0.68184820  0.25000000  1
  S  S23  1  0.26643160  0.61071350  0.64974727  1
  S  S24  1  0.73356840  0.38928650  0.35025273  1
  S  S25  1  0.95857682  0.31815180  0.75000000  1
  S  S26  1  0.45857682  0.18184820  0.25000000  1
  S  S27  1  0.23356840  0.11071350  0.64974727  1
  I  I28  1  0.72203963  0.64551128  0.95844174  1
  I  I29  1  0.27796037  0.35448872  0.04155826  1
  I  I30  1  0.27796037  0.35448872  0.45844174  1
  I  I31  1  0.77796037  0.14551128  0.95844174  1
  I  I32  1  0.77796037  0.14551128  0.54155826  1
  I  I33  1  0.22203963  0.85448872  0.04155826  1
  I  I34  1  0.22203963  0.85448872  0.45844174  1
  I  I35  1  0.72203963  0.64551128  0.54155826  1
