# generated using pymatgen
data_TeMoCl7O
_symmetry_space_group_name_H-M   'P 1'
_cell_length_a   7.57448258
_cell_length_b   12.09657695
_cell_length_c   13.07034271
_cell_angle_alpha   90.00000000
_cell_angle_beta   90.00000000
_cell_angle_gamma   94.51727579
_symmetry_Int_Tables_number   1
_chemical_formula_structural   TeMoCl7O
_chemical_formula_sum   'Te4 Mo4 Cl28 O4'
_cell_volume   1193.85411464
_cell_formula_units_Z   4
loop_
 _symmetry_equiv_pos_site_id
 _symmetry_equiv_pos_as_xyz
  1  'x, y, z'
loop_
 _atom_site_type_symbol
 _atom_site_label
 _atom_site_symmetry_multiplicity
 _atom_site_fract_x
 _atom_site_fract_y
 _atom_site_fract_z
 _atom_site_occupancy
  Te  Te0  1  0.72527876  0.37363914  0.84801320  1
  Te  Te1  1  0.72527876  0.87363914  0.65198680  1
  Te  Te2  1  0.27472124  0.62636086  0.15198680  1
  Te  Te3  1  0.27472124  0.12636086  0.34801320  1
  Mo  Mo4  1  0.04819035  0.35950026  0.59149737  1
  Mo  Mo5  1  0.04819035  0.85950026  0.90850263  1
  Mo  Mo6  1  0.95180965  0.64049974  0.40850263  1
  Mo  Mo7  1  0.95180965  0.14049974  0.09149737  1
  Cl  Cl8  1  0.97633481  0.51006144  0.27009516  1
  Cl  Cl9  1  0.52814617  0.98609049  0.73367635  1
  Cl  Cl10  1  0.25347936  0.51902579  0.00082624  1
  Cl  Cl11  1  0.99126076  0.76173936  0.06814128  1
  Cl  Cl12  1  0.22353891  0.73742093  0.34750985  1
  Cl  Cl13  1  0.52814617  0.48609049  0.76632365  1
  Cl  Cl14  1  0.97633481  0.01006144  0.22990484  1
  Cl  Cl15  1  0.22308637  0.50152310  0.50059246  1
  Cl  Cl16  1  0.02366519  0.48993856  0.72990484  1
  Cl  Cl17  1  0.49953688  0.25844537  0.40413779  1
  Cl  Cl18  1  0.74652064  0.98097421  0.50082624  1
  Cl  Cl19  1  0.77646109  0.26257907  0.65249015  1
  Cl  Cl20  1  0.74652064  0.48097421  0.99917376  1
  Cl  Cl21  1  0.50046312  0.74155463  0.59586221  1
  Cl  Cl22  1  0.00873924  0.23826064  0.93185872  1
  Cl  Cl23  1  0.02366519  0.98993856  0.77009516  1
  Cl  Cl24  1  0.77646109  0.76257907  0.84750985  1
  Cl  Cl25  1  0.77691363  0.99847690  0.00059246  1
  Cl  Cl26  1  0.22353891  0.23742093  0.15249015  1
  Cl  Cl27  1  0.99126076  0.26173936  0.43185872  1
  Cl  Cl28  1  0.47185383  0.51390951  0.23367635  1
  Cl  Cl29  1  0.49953688  0.75844537  0.09586221  1
  Cl  Cl30  1  0.25347936  0.01902579  0.49917376  1
  Cl  Cl31  1  0.22308637  0.00152310  0.99940754  1
  Cl  Cl32  1  0.47185383  0.01390951  0.26632365  1
  Cl  Cl33  1  0.00873924  0.73826064  0.56814128  1
  Cl  Cl34  1  0.50046312  0.24155463  0.90413779  1
  Cl  Cl35  1  0.77691363  0.49847690  0.49940754  1
  O  O36  1  0.79475080  0.21772001  0.14000831  1
  O  O37  1  0.79475080  0.71772001  0.35999169  1
  O  O38  1  0.20524920  0.78227999  0.85999169  1
  O  O39  1  0.20524920  0.28227999  0.64000831  1
