# generated using pymatgen
data_KDyH2C2SO9
_symmetry_space_group_name_H-M   'P 1'
_cell_length_a   6.59708841
_cell_length_b   8.65153931
_cell_length_c   13.82967510
_cell_angle_alpha   90.00000000
_cell_angle_beta   94.18975332
_cell_angle_gamma   90.00000000
_symmetry_Int_Tables_number   1
_chemical_formula_structural   KDyH2C2SO9
_chemical_formula_sum   'K4 Dy4 H8 C8 S4 O36'
_cell_volume   787.21885481
_cell_formula_units_Z   4
loop_
 _symmetry_equiv_pos_site_id
 _symmetry_equiv_pos_as_xyz
  1  'x, y, z'
loop_
 _atom_site_type_symbol
 _atom_site_label
 _atom_site_symmetry_multiplicity
 _atom_site_fract_x
 _atom_site_fract_y
 _atom_site_fract_z
 _atom_site_occupancy
  K  K0  1  0.26744603  0.65507805  0.30419152  1
  K  K1  1  0.76744603  0.84492195  0.80419152  1
  K  K2  1  0.23255397  0.15507805  0.19580848  1
  K  K3  1  0.73255397  0.34492195  0.69580848  1
  Dy  Dy4  1  0.25427620  0.73864517  0.58885371  1
  Dy  Dy5  1  0.24572380  0.23864517  0.91114629  1
  Dy  Dy6  1  0.75427620  0.76135483  0.08885371  1
  Dy  Dy7  1  0.74572380  0.26135483  0.41114629  1
  H  H8  1  0.89184960  0.54469141  0.92667577  1
  H  H9  1  0.60815040  0.04469141  0.57332423  1
  H  H10  1  0.34485506  0.46889376  0.07810512  1
  H  H11  1  0.10815040  0.45530859  0.07332423  1
  H  H12  1  0.15514494  0.96889376  0.42189488  1
  H  H13  1  0.39184960  0.95530859  0.42667577  1
  H  H14  1  0.65514494  0.53110624  0.92189488  1
  H  H15  1  0.84485506  0.03110624  0.57810512  1
  C  C16  1  0.63630227  0.97076930  0.26788127  1
  C  C17  1  0.36369773  0.02923070  0.73211873  1
  C  C18  1  0.86811592  0.96618238  0.28021519  1
  C  C19  1  0.13188408  0.03381762  0.71978481  1
  C  C20  1  0.63188408  0.46618238  0.21978481  1
  C  C21  1  0.13630227  0.52923070  0.76788127  1
  C  C22  1  0.36811592  0.53381762  0.78021519  1
  C  C23  1  0.86369773  0.47076930  0.23211873  1
  S  S24  1  0.76572259  0.16292564  0.02228598  1
  S  S25  1  0.73427741  0.66292564  0.47771402  1
  S  S26  1  0.26572259  0.33707436  0.52228598  1
  S  S27  1  0.23427741  0.83707436  0.97771402  1
  O  O28  1  0.08898118  0.77067123  0.04432441  1
  O  O29  1  0.04805465  0.44344510  0.82684576  1
  O  O30  1  0.43825243  0.76706264  0.00172543  1
  O  O31  1  0.93825243  0.73293736  0.50172543  1
  O  O32  1  0.55005325  0.89272103  0.19944056  1
  O  O33  1  0.54805465  0.05655490  0.32684576  1
  O  O34  1  0.45262307  0.44426758  0.84456162  1
  O  O35  1  0.27060510  0.90631464  0.45045678  1
  O  O36  1  0.45194535  0.94344510  0.67315424  1
  O  O37  1  0.44994675  0.10727897  0.80055944  1
  O  O38  1  0.66623019  0.69528987  0.37600584  1
  O  O39  1  0.04241765  0.12330012  0.77488888  1
  O  O40  1  0.94994675  0.39272103  0.30055944  1
  O  O41  1  0.75360416  0.99128200  0.00611884  1
  O  O42  1  0.77060510  0.59368536  0.95045678  1
  O  O43  1  0.54241765  0.37669988  0.27488888  1
  O  O44  1  0.45758235  0.62330012  0.72511112  1
  O  O45  1  0.16623019  0.80471013  0.87600584  1
  O  O46  1  0.72939490  0.09368536  0.54954322  1
  O  O47  1  0.33376981  0.30471013  0.62399416  1
  O  O48  1  0.04737693  0.94426758  0.65543838  1
  O  O49  1  0.05005325  0.60727897  0.69944056  1
  O  O50  1  0.06174757  0.26706264  0.49827457  1
  O  O51  1  0.58898118  0.72932877  0.54432441  1
  O  O52  1  0.95262307  0.05573242  0.34456162  1
  O  O53  1  0.54737693  0.55573242  0.15543838  1
  O  O54  1  0.56174757  0.23293736  0.99827457  1
  O  O55  1  0.41101882  0.27067123  0.45567559  1
  O  O56  1  0.95758235  0.87669988  0.22511112  1
  O  O57  1  0.25360416  0.50871800  0.50611884  1
  O  O58  1  0.24639584  0.00871800  0.99388116  1
  O  O59  1  0.91101882  0.22932877  0.95567559  1
  O  O60  1  0.83376981  0.19528987  0.12399416  1
  O  O61  1  0.22939490  0.40631464  0.04954322  1
  O  O62  1  0.95194535  0.55655490  0.17315424  1
  O  O63  1  0.74639584  0.49128200  0.49388116  1
