# generated using pymatgen
data_SiO2
_symmetry_space_group_name_H-M   'P 1'
_cell_length_a   14.09493355
_cell_length_b   5.29049026
_cell_length_c   26.12041130
_cell_angle_alpha   90.00000000
_cell_angle_beta   90.00000000
_cell_angle_gamma   90.00000000
_symmetry_Int_Tables_number   1
_chemical_formula_structural   SiO2
_chemical_formula_sum   'Si32 O64'
_cell_volume   1947.77578852
_cell_formula_units_Z   32
loop_
 _symmetry_equiv_pos_site_id
 _symmetry_equiv_pos_as_xyz
  1  'x, y, z'
loop_
 _atom_site_type_symbol
 _atom_site_label
 _atom_site_symmetry_multiplicity
 _atom_site_fract_x
 _atom_site_fract_y
 _atom_site_fract_z
 _atom_site_occupancy
  Si  Si0  1  0.10833308  0.25000053  0.03467180  1
  Si  Si1  1  0.10833308  0.74999947  0.96532820  1
  Si  Si2  1  0.89166692  0.74999947  0.96532820  1
  Si  Si3  1  0.89166692  0.25000053  0.03467180  1
  Si  Si4  1  0.60833308  0.74999947  0.53467180  1
  Si  Si5  1  0.60833308  0.25000053  0.46532820  1
  Si  Si6  1  0.39166692  0.25000053  0.46532820  1
  Si  Si7  1  0.39166692  0.74999947  0.53467180  1
  Si  Si8  1  0.29000824  0.74999992  0.19124991  1
  Si  Si9  1  0.29000824  0.25000008  0.80875009  1
  Si  Si10  1  0.70999176  0.25000008  0.80875009  1
  Si  Si11  1  0.70999176  0.74999992  0.19124991  1
  Si  Si12  1  0.79000824  0.25000008  0.69124991  1
  Si  Si13  1  0.79000824  0.74999992  0.30875009  1
  Si  Si14  1  0.20999176  0.74999992  0.30875009  1
  Si  Si15  1  0.20999176  0.25000008  0.69124991  1
  Si  Si16  1  0.19774960  0.25000005  0.14274313  1
  Si  Si17  1  0.19774960  0.74999995  0.85725687  1
  Si  Si18  1  0.80225040  0.74999995  0.85725687  1
  Si  Si19  1  0.80225040  0.25000005  0.14274313  1
  Si  Si20  1  0.69774960  0.74999995  0.64274313  1
  Si  Si21  1  0.69774960  0.25000005  0.35725687  1
  Si  Si22  1  0.30225040  0.25000005  0.35725687  1
  Si  Si23  1  0.30225040  0.74999995  0.64274313  1
  Si  Si24  1  0.00000000  0.74999977  0.27414398  1
  Si  Si25  1  0.00000000  0.25000023  0.72585602  1
  Si  Si26  1  0.50000000  0.25000023  0.77414398  1
  Si  Si27  1  0.50000000  0.74999977  0.22585602  1
  Si  Si28  1  0.00000000  0.25000002  0.20342496  1
  Si  Si29  1  0.00000000  0.74999998  0.79657504  1
  Si  Si30  1  0.50000000  0.74999998  0.70342496  1
  Si  Si31  1  0.50000000  0.25000002  0.29657504  1
  O  O32  1  0.00000000  0.24999985  0.05758207  1
  O  O33  1  0.00000000  0.75000015  0.94241793  1
  O  O34  1  0.50000000  0.75000015  0.55758207  1
  O  O35  1  0.50000000  0.24999985  0.44241793  1
  O  O36  1  0.09315850  0.24999980  0.16794554  1
  O  O37  1  0.09315850  0.75000020  0.83205446  1
  O  O38  1  0.90684150  0.75000020  0.83205446  1
  O  O39  1  0.90684150  0.24999980  0.16794554  1
  O  O40  1  0.59315850  0.75000020  0.66794554  1
  O  O41  1  0.59315850  0.24999980  0.33205446  1
  O  O42  1  0.40684150  0.24999980  0.33205446  1
  O  O43  1  0.40684150  0.75000020  0.66794554  1
  O  O44  1  0.00000000  0.49988189  0.23875695  1
  O  O45  1  0.00000000  0.50011811  0.76124305  1
  O  O46  1  0.00000000  -0.00011867  0.76124304  1
  O  O47  1  0.00000000  0.00011867  0.23875696  1
  O  O48  1  0.50000000  -0.00011867  0.73875696  1
  O  O49  1  0.50000000  0.00011867  0.26124304  1
  O  O50  1  0.50000000  0.49988189  0.26124305  1
  O  O51  1  0.50000000  0.50011811  0.73875695  1
  O  O52  1  0.12424863  0.00000000  0.00000000  1
  O  O53  1  0.87575140  0.50000000  0.00000000  1
  O  O54  1  0.87575137  0.00000000  0.00000000  1
  O  O55  1  0.12424860  0.50000000  0.00000000  1
  O  O56  1  0.62424860  0.50000000  0.50000000  1
  O  O57  1  0.37575137  0.00000000  0.50000000  1
  O  O58  1  0.37575140  0.50000000  0.50000000  1
  O  O59  1  0.62424863  0.00000000  0.50000000  1
  O  O60  1  0.18568193  0.25000002  0.08071541  1
  O  O61  1  0.18568193  0.74999998  0.91928459  1
  O  O62  1  0.81431807  0.74999998  0.91928459  1
  O  O63  1  0.81431807  0.25000002  0.08071541  1
  O  O64  1  0.68568193  0.74999998  0.58071541  1
  O  O65  1  0.68568193  0.25000002  0.41928459  1
  O  O66  1  0.31431807  0.25000002  0.41928459  1
  O  O67  1  0.31431807  0.74999998  0.58071541  1
  O  O68  1  0.25000000  0.75000013  0.25000000  1
  O  O69  1  0.25000000  0.24999987  0.75000000  1
  O  O70  1  0.75000000  0.24999987  0.75000000  1
  O  O71  1  0.75000000  0.75000013  0.25000000  1
  O  O72  1  0.09449048  0.74999987  0.30960577  1
  O  O73  1  0.09449048  0.25000013  0.69039423  1
  O  O74  1  0.90550952  0.25000013  0.69039423  1
  O  O75  1  0.90550952  0.74999987  0.30960577  1
  O  O76  1  0.59449048  0.25000013  0.80960577  1
  O  O77  1  0.59449048  0.74999987  0.19039423  1
  O  O78  1  0.40550952  0.74999987  0.19039423  1
  O  O79  1  0.40550952  0.25000013  0.80960577  1
  O  O80  1  0.25451995  0.50023444  0.16104198  1
  O  O81  1  0.25451995  0.49976556  0.83895802  1
  O  O82  1  0.74548000  0.00023410  0.83895802  1
  O  O83  1  0.74548000  -0.00023410  0.16104198  1
  O  O84  1  0.74548005  0.49976556  0.83895802  1
  O  O85  1  0.74548005  0.50023444  0.16104198  1
  O  O86  1  0.25452000  -0.00023410  0.16104198  1
  O  O87  1  0.25452000  0.00023410  0.83895802  1
  O  O88  1  0.75452000  0.00023410  0.66104198  1
  O  O89  1  0.75452000  -0.00023410  0.33895802  1
  O  O90  1  0.24548005  0.50023444  0.33895802  1
  O  O91  1  0.24548005  0.49976556  0.66104198  1
  O  O92  1  0.24548000  -0.00023410  0.33895802  1
  O  O93  1  0.24548000  0.00023410  0.66104198  1
  O  O94  1  0.75451995  0.49976556  0.66104198  1
  O  O95  1  0.75451995  0.50023444  0.33895802  1
