# generated using pymatgen
data_SiO2
_symmetry_space_group_name_H-M   'P 1'
_cell_length_a   12.72915593
_cell_length_b   12.72915593
_cell_length_c   26.40793274
_cell_angle_alpha   90.00000000
_cell_angle_beta   90.00000000
_cell_angle_gamma   90.00000000
_symmetry_Int_Tables_number   1
_chemical_formula_structural   SiO2
_chemical_formula_sum   'Si64 O128'
_cell_volume   4278.91459528
_cell_formula_units_Z   64
loop_
 _symmetry_equiv_pos_site_id
 _symmetry_equiv_pos_as_xyz
  1  'x, y, z'
loop_
 _atom_site_type_symbol
 _atom_site_label
 _atom_site_symmetry_multiplicity
 _atom_site_fract_x
 _atom_site_fract_y
 _atom_site_fract_z
 _atom_site_occupancy
  Si  Si0  1  0.95319255  0.79633735  0.05526874  1
  Si  Si1  1  0.20366265  0.95319255  0.30526874  1
  Si  Si2  1  0.79633735  0.04680745  0.80526874  1
  Si  Si3  1  0.95319255  0.20366265  0.44473126  1
  Si  Si4  1  0.04680745  0.79633735  0.94473126  1
  Si  Si5  1  0.04680745  0.20366265  0.55526874  1
  Si  Si6  1  0.79633735  0.95319255  0.69473126  1
  Si  Si7  1  0.20366265  0.04680745  0.19473126  1
  Si  Si8  1  0.95395012  0.54249684  0.05542664  1
  Si  Si9  1  0.45750316  0.95395012  0.30542664  1
  Si  Si10  1  0.54249684  0.04604988  0.80542664  1
  Si  Si11  1  0.95395012  0.45750316  0.44457336  1
  Si  Si12  1  0.04604988  0.54249684  0.94457336  1
  Si  Si13  1  0.04604988  0.45750316  0.55542664  1
  Si  Si14  1  0.54249684  0.95395012  0.69457336  1
  Si  Si15  1  0.45750316  0.04604988  0.19457336  1
  Si  Si16  1  0.71441353  0.79231663  0.05847029  1
  Si  Si17  1  0.20768337  0.71441353  0.30847029  1
  Si  Si18  1  0.79231663  0.28558647  0.80847029  1
  Si  Si19  1  0.71441353  0.20768337  0.44152971  1
  Si  Si20  1  0.28558647  0.79231663  0.94152971  1
  Si  Si21  1  0.28558647  0.20768337  0.55847029  1
  Si  Si22  1  0.79231663  0.71441353  0.69152971  1
  Si  Si23  1  0.20768337  0.28558647  0.19152971  1
  Si  Si24  1  0.71523080  0.54468529  0.05919570  1
  Si  Si25  1  0.45531471  0.71523080  0.30919570  1
  Si  Si26  1  0.54468529  0.28476920  0.80919570  1
  Si  Si27  1  0.71523080  0.45531471  0.44080430  1
  Si  Si28  1  0.28476920  0.54468529  0.94080430  1
  Si  Si29  1  0.28476920  0.45531471  0.55919570  1
  Si  Si30  1  0.54468529  0.71523080  0.69080430  1
  Si  Si31  1  0.45531471  0.28476920  0.19080430  1
  Si  Si32  1  0.33207619  0.78907065  0.05899173  1
  Si  Si33  1  0.21092935  0.33207619  0.30899173  1
  Si  Si34  1  0.78907065  0.66792381  0.80899173  1
  Si  Si35  1  0.33207619  0.21092935  0.44100827  1
  Si  Si36  1  0.66792381  0.78907065  0.94100827  1
  Si  Si37  1  0.66792381  0.21092935  0.55899173  1
  Si  Si38  1  0.78907065  0.33207619  0.69100827  1
  Si  Si39  1  0.21092935  0.66792381  0.19100827  1
  Si  Si40  1  0.33304509  0.54032895  0.05814662  1
  Si  Si41  1  0.45967105  0.33304509  0.30814662  1
  Si  Si42  1  0.54032895  0.66695491  0.80814662  1
  Si  Si43  1  0.33304509  0.45967105  0.44185338  1
  Si  Si44  1  0.66695491  0.54032895  0.94185338  1
  Si  Si45  1  0.66695491  0.45967105  0.55814662  1
  Si  Si46  1  0.54032895  0.33304509  0.69185338  1
  Si  Si47  1  0.45967105  0.66695491  0.19185338  1
  Si  Si48  1  0.52722238  0.85964963  0.12548679  1
  Si  Si49  1  0.14035037  0.52722238  0.37548679  1
  Si  Si50  1  0.85964963  0.47277762  0.87548679  1
  Si  Si51  1  0.52722238  0.14035037  0.37451321  1
  Si  Si52  1  0.47277762  0.85964963  0.87451321  1
  Si  Si53  1  0.47277762  0.14035037  0.62548679  1
  Si  Si54  1  0.85964963  0.52722238  0.62451321  1
  Si  Si55  1  0.14035037  0.47277762  0.12451321  1
  Si  Si56  1  0.52740833  0.47259167  0.12500000  1
  Si  Si57  1  0.52740833  0.52740833  0.37500000  1
  Si  Si58  1  0.47259167  0.47259167  0.87500000  1
  Si  Si59  1  0.47259167  0.52740833  0.62500000  1
  Si  Si60  1  0.13890868  0.86109132  0.12500000  1
  Si  Si61  1  0.13890868  0.13890868  0.37500000  1
  Si  Si62  1  0.86109132  0.86109132  0.87500000  1
  Si  Si63  1  0.86109132  0.13890868  0.62500000  1
  O  O64  1  0.83322067  0.83959133  0.05972747  1
  O  O65  1  0.16040867  0.83322067  0.30972747  1
  O  O66  1  0.83959133  0.16677933  0.80972747  1
  O  O67  1  0.83322067  0.16040867  0.44027253  1
  O  O68  1  0.16677933  0.83959133  0.94027253  1
  O  O69  1  0.16677933  0.16040867  0.55972747  1
  O  O70  1  0.83959133  0.83322067  0.69027253  1
  O  O71  1  0.16040867  0.16677933  0.19027253  1
  O  O72  1  0.00000000  0.82724838  0.00000000  1
  O  O73  1  0.17275162  0.00000000  0.25000000  1
  O  O74  1  0.82724838  0.00000000  0.75000000  1
  O  O75  1  0.00000000  0.17275162  0.50000000  1
  O  O76  1  0.02366856  0.85070969  0.09929230  1
  O  O77  1  0.14929031  0.02366856  0.34929230  1
  O  O78  1  0.85070969  0.97633144  0.84929230  1
  O  O79  1  0.02366856  0.14929031  0.40070770  1
  O  O80  1  0.97633144  0.85070969  0.90070770  1
  O  O81  1  0.97633144  0.14929031  0.59929230  1
  O  O82  1  0.85070969  0.02366856  0.65070770  1
  O  O83  1  0.14929031  0.97633144  0.15070770  1
  O  O84  1  0.95474020  0.66944044  0.06224130  1
  O  O85  1  0.33055956  0.95474020  0.31224130  1
  O  O86  1  0.66944044  0.04525980  0.81224130  1
  O  O87  1  0.95474020  0.33055956  0.43775870  1
  O  O88  1  0.04525980  0.66944044  0.93775870  1
  O  O89  1  0.04525980  0.33055956  0.56224130  1
  O  O90  1  0.66944044  0.95474020  0.68775870  1
  O  O91  1  0.33055956  0.04525980  0.18775870  1
  O  O92  1  0.83444608  0.49845691  0.06059164  1
  O  O93  1  0.50154309  0.83444608  0.31059164  1
  O  O94  1  0.49845691  0.16555392  0.81059164  1
  O  O95  1  0.83444608  0.50154309  0.43940836  1
  O  O96  1  0.16555392  0.49845691  0.93940836  1
  O  O97  1  0.16555392  0.50154309  0.56059164  1
  O  O98  1  0.49845691  0.83444608  0.68940836  1
  O  O99  1  0.50154309  0.16555392  0.18940836  1
  O  O100  1  0.00000000  0.51170540  0.00000000  1
  O  O101  1  0.48829460  0.00000000  0.25000000  1
  O  O102  1  0.51170540  0.00000000  0.75000000  1
  O  O103  1  0.00000000  0.48829460  0.50000000  1
  O  O104  1  0.02561362  0.48861072  0.09901918  1
  O  O105  1  0.51138928  0.02561362  0.34901918  1
  O  O106  1  0.48861072  0.97438638  0.84901918  1
  O  O107  1  0.02561362  0.51138928  0.40098082  1
  O  O108  1  0.97438638  0.48861072  0.90098082  1
  O  O109  1  0.97438638  0.51138928  0.59901918  1
  O  O110  1  0.48861072  0.02561362  0.65098082  1
  O  O111  1  0.51138928  0.97438638  0.15098082  1
  O  O112  1  0.64204769  0.85575688  0.09874681  1
  O  O113  1  0.14424312  0.64204769  0.34874681  1
  O  O114  1  0.85575688  0.35795231  0.84874681  1
  O  O115  1  0.64204769  0.14424312  0.40125319  1
  O  O116  1  0.35795231  0.85575688  0.90125319  1
  O  O117  1  0.35795231  0.14424312  0.59874681  1
  O  O118  1  0.85575688  0.64204769  0.65125319  1
  O  O119  1  0.14424312  0.35795231  0.15125319  1
  O  O120  1  0.71733488  0.66874375  0.07407172  1
  O  O121  1  0.33125625  0.71733488  0.32407172  1
  O  O122  1  0.66874375  0.28266512  0.82407172  1
  O  O123  1  0.71733488  0.33125625  0.42592828  1
  O  O124  1  0.28266512  0.66874375  0.92592828  1
  O  O125  1  0.28266512  0.33125625  0.57407172  1
  O  O126  1  0.66874375  0.71733488  0.67592828  1
  O  O127  1  0.33125625  0.28266512  0.17592828  1
  O  O128  1  0.66498976  0.80418967  0.00182145  1
  O  O129  1  0.19581033  0.66498976  0.25182145  1
  O  O130  1  0.80418967  0.33501024  0.75182145  1
  O  O131  1  0.66498976  0.19581033  0.49817855  1
  O  O132  1  0.33501024  0.80418967  0.99817855  1
  O  O133  1  0.33501024  0.19581033  0.50182145  1
  O  O134  1  0.80418967  0.66498976  0.74817855  1
  O  O135  1  0.19581033  0.33501024  0.24817855  1
  O  O136  1  0.64357562  0.48282968  0.10018445  1
  O  O137  1  0.51717032  0.64357562  0.35018445  1
  O  O138  1  0.48282968  0.35642438  0.85018445  1
  O  O139  1  0.64357562  0.51717032  0.39981555  1
  O  O140  1  0.35642438  0.48282968  0.89981555  1
  O  O141  1  0.35642438  0.51717032  0.60018445  1
  O  O142  1  0.48282968  0.64357562  0.64981555  1
  O  O143  1  0.51717032  0.35642438  0.14981555  1
  O  O144  1  0.66537273  0.52896386  0.00284791  1
  O  O145  1  0.47103614  0.66537273  0.25284791  1
  O  O146  1  0.52896386  0.33462727  0.75284791  1
  O  O147  1  0.66537273  0.47103614  0.49715209  1
  O  O148  1  0.33462727  0.52896386  0.99715209  1
  O  O149  1  0.33462727  0.47103614  0.50284791  1
  O  O150  1  0.52896386  0.66537273  0.74715209  1
  O  O151  1  0.47103614  0.33462727  0.24715209  1
  O  O152  1  0.43698937  0.84063078  0.08276631  1
  O  O153  1  0.15936922  0.43698937  0.33276631  1
  O  O154  1  0.84063078  0.56301063  0.83276631  1
  O  O155  1  0.43698937  0.15936922  0.41723369  1
  O  O156  1  0.56301063  0.84063078  0.91723369  1
  O  O157  1  0.56301063  0.15936922  0.58276631  1
  O  O158  1  0.84063078  0.43698937  0.66723369  1
  O  O159  1  0.15936922  0.56301063  0.16723369  1
  O  O160  1  0.32760029  0.66451362  0.07287183  1
  O  O161  1  0.33548638  0.32760029  0.32287183  1
  O  O162  1  0.66451362  0.67239971  0.82287183  1
  O  O163  1  0.32760029  0.33548638  0.42712817  1
  O  O164  1  0.67239971  0.66451362  0.92712817  1
  O  O165  1  0.67239971  0.33548638  0.57287183  1
  O  O166  1  0.66451362  0.32760029  0.67712817  1
  O  O167  1  0.33548638  0.67239971  0.17712817  1
  O  O168  1  0.22889046  0.84710522  0.08164075  1
  O  O169  1  0.15289478  0.22889046  0.33164075  1
  O  O170  1  0.84710522  0.77110954  0.83164075  1
  O  O171  1  0.22889046  0.15289478  0.41835925  1
  O  O172  1  0.77110954  0.84710522  0.91835925  1
  O  O173  1  0.77110954  0.15289478  0.58164075  1
  O  O174  1  0.84710522  0.22889046  0.66835925  1
  O  O175  1  0.15289478  0.77110954  0.16835925  1
  O  O176  1  0.43885290  0.48833034  0.08097867  1
  O  O177  1  0.51166966  0.43885290  0.33097867  1
  O  O178  1  0.48833034  0.56114710  0.83097867  1
  O  O179  1  0.43885290  0.51166966  0.41902133  1
  O  O180  1  0.56114710  0.48833034  0.91902133  1
  O  O181  1  0.56114710  0.51166966  0.58097867  1
  O  O182  1  0.48833034  0.43885290  0.66902133  1
  O  O183  1  0.51166966  0.56114710  0.16902133  1
  O  O184  1  0.23079657  0.48060191  0.08092800  1
  O  O185  1  0.51939809  0.23079657  0.33092800  1
  O  O186  1  0.48060191  0.76920343  0.83092800  1
  O  O187  1  0.23079657  0.51939809  0.41907200  1
  O  O188  1  0.76920343  0.48060191  0.91907200  1
  O  O189  1  0.76920343  0.51939809  0.58092800  1
  O  O190  1  0.48060191  0.23079657  0.66907200  1
  O  O191  1  0.51939809  0.76920343  0.16907200  1
