# generated using pymatgen
data_U2PbSe5
_symmetry_space_group_name_H-M   'P 1'
_cell_length_a   7.85108193
_cell_length_b   8.62426635
_cell_length_c   12.29625804
_cell_angle_alpha   89.87689762
_cell_angle_beta   90.00000000
_cell_angle_gamma   90.00000000
_symmetry_Int_Tables_number   1
_chemical_formula_structural   U2PbSe5
_chemical_formula_sum   'U8 Pb4 Se20'
_cell_volume   832.57551780
_cell_formula_units_Z   4
loop_
 _symmetry_equiv_pos_site_id
 _symmetry_equiv_pos_as_xyz
  1  'x, y, z'
loop_
 _atom_site_type_symbol
 _atom_site_label
 _atom_site_symmetry_multiplicity
 _atom_site_fract_x
 _atom_site_fract_y
 _atom_site_fract_z
 _atom_site_occupancy
  U  U0  1  0.48027073  0.50148427  0.31835351  1
  U  U1  1  0.01972927  0.50148427  0.81835351  1
  U  U2  1  0.07946076  0.74513261  0.50859439  1
  U  U3  1  0.57946076  0.25486739  0.99140561  1
  U  U4  1  0.42053924  0.74513261  0.00859439  1
  U  U5  1  0.51972927  0.49851573  0.68164649  1
  U  U6  1  0.98027073  0.49851573  0.18164649  1
  U  U7  1  0.92053924  0.25486739  0.49140561  1
  Pb  Pb8  1  0.48158655  0.98985163  0.32002619  1
  Pb  Pb9  1  0.51841345  0.01014837  0.67997381  1
  Pb  Pb10  1  0.01841345  0.98985163  0.82002619  1
  Pb  Pb11  1  0.98158655  0.01014837  0.17997381  1
  Se  Se12  1  0.83556116  0.54991453  0.40260682  1
  Se  Se13  1  0.66443884  0.54991453  0.90260682  1
  Se  Se14  1  0.16354796  0.04215332  0.58607147  1
  Se  Se15  1  0.83303274  0.72334559  0.68273278  1
  Se  Se16  1  0.66354796  0.95784668  0.91392853  1
  Se  Se17  1  0.04293185  0.71990642  0.00167860  1
  Se  Se18  1  0.33556116  0.45008547  0.09739318  1
  Se  Se19  1  0.30399505  0.73228445  0.78177115  1
  Se  Se20  1  0.83645204  0.95784668  0.41392853  1
  Se  Se21  1  0.54293185  0.28009358  0.49832140  1
  Se  Se22  1  0.33303274  0.27665441  0.81726722  1
  Se  Se23  1  0.80399505  0.26771555  0.71822885  1
  Se  Se24  1  0.66696726  0.72334559  0.18273278  1
  Se  Se25  1  0.33645204  0.04215332  0.08607147  1
  Se  Se26  1  0.95706815  0.28009358  0.99832140  1
  Se  Se27  1  0.45706815  0.71990642  0.50167860  1
  Se  Se28  1  0.16443884  0.45008547  0.59739318  1
  Se  Se29  1  0.16696726  0.27665441  0.31726722  1
  Se  Se30  1  0.69600495  0.26771555  0.21822885  1
  Se  Se31  1  0.19600495  0.73228445  0.28177115  1
