# generated using pymatgen
data_SiO2
_symmetry_space_group_name_H-M   'P 1'
_cell_length_a   5.28549354
_cell_length_b   22.71336462
_cell_length_c   14.08334374
_cell_angle_alpha   90.00000000
_cell_angle_beta   90.00000000
_cell_angle_gamma   90.00000000
_symmetry_Int_Tables_number   1
_chemical_formula_structural   SiO2
_chemical_formula_sum   'Si28 O56'
_cell_volume   1690.72431542
_cell_formula_units_Z   28
loop_
 _symmetry_equiv_pos_site_id
 _symmetry_equiv_pos_as_xyz
  1  'x, y, z'
loop_
 _atom_site_type_symbol
 _atom_site_label
 _atom_site_symmetry_multiplicity
 _atom_site_fract_x
 _atom_site_fract_y
 _atom_site_fract_z
 _atom_site_occupancy
  Si  Si0  1  0.75000000  0.75000000  0.14361244  1
  Si  Si1  1  0.25000000  0.25000000  0.85638756  1
  Si  Si2  1  0.25000000  0.75000000  0.01097422  1
  Si  Si3  1  0.75000000  0.25000000  0.98902578  1
  Si  Si4  1  0.75000000  0.62163045  0.22713693  1
  Si  Si5  1  0.25000000  0.37836955  0.77286307  1
  Si  Si6  1  0.25000000  0.12163045  0.77286307  1
  Si  Si7  1  0.75000000  0.87836955  0.22713693  1
  Si  Si8  1  0.75000000  0.54979757  0.40544237  1
  Si  Si9  1  0.25000000  0.45020243  0.59455763  1
  Si  Si10  1  0.25000000  0.04979757  0.59455763  1
  Si  Si11  1  0.75000000  0.95020243  0.40544237  1
  Si  Si12  1  0.75000000  0.37802690  0.07876793  1
  Si  Si13  1  0.25000000  0.62197310  0.92123207  1
  Si  Si14  1  0.25000000  0.87802690  0.92123207  1
  Si  Si15  1  0.75000000  0.12197310  0.07876793  1
  Si  Si16  1  0.25000000  0.47053133  0.38376626  1
  Si  Si17  1  0.75000000  0.52946867  0.61623374  1
  Si  Si18  1  0.75000000  0.97053133  0.61623374  1
  Si  Si19  1  0.25000000  0.02946867  0.38376626  1
  Si  Si20  1  0.25000000  0.42754708  0.17754941  1
  Si  Si21  1  0.75000000  0.57245292  0.82245059  1
  Si  Si22  1  0.75000000  0.92754708  0.82245059  1
  Si  Si23  1  0.25000000  0.07245292  0.17754941  1
  Si  Si24  1  0.25000000  0.56593770  0.12973893  1
  Si  Si25  1  0.75000000  0.43406230  0.87026107  1
  Si  Si26  1  0.75000000  0.06593770  0.87026107  1
  Si  Si27  1  0.25000000  0.93406230  0.12973893  1
  O  O28  1  0.75000000  0.80788065  0.21107481  1
  O  O29  1  0.25000000  0.19211935  0.78892519  1
  O  O30  1  0.25000000  0.30788065  0.78892519  1
  O  O31  1  0.75000000  0.69211935  0.21107481  1
  O  O32  1  -0.00004116  0.75000000  0.07745450  1
  O  O33  1  0.49995884  0.25000000  0.92254550  1
  O  O34  1  0.00004116  0.25000000  0.92254550  1
  O  O35  1  0.50004116  0.75000000  0.07745450  1
  O  O36  1  0.25000000  0.69193013  0.94424588  1
  O  O37  1  0.75000000  0.30806987  0.05575412  1
  O  O38  1  0.75000000  0.19193013  0.05575412  1
  O  O39  1  0.25000000  0.80806987  0.94424588  1
  O  O40  1  0.75000000  0.60913631  0.34125741  1
  O  O41  1  0.25000000  0.39086369  0.65874259  1
  O  O42  1  0.25000000  0.10913631  0.65874259  1
  O  O43  1  0.75000000  0.89086369  0.34125741  1
  O  O44  1  -0.00032139  0.59250676  0.18012134  1
  O  O45  1  0.49967861  0.40749324  0.81987866  1
  O  O46  1  0.00032139  0.09250676  0.81987866  1
  O  O47  1  0.50032139  0.90749324  0.18012134  1
  O  O48  1  0.00032139  0.40749324  0.81987866  1
  O  O49  1  0.50032139  0.59250676  0.18012134  1
  O  O50  1  -0.00032139  0.90749324  0.18012134  1
  O  O51  1  0.49967861  0.09250676  0.81987866  1
  O  O52  1  0.75000000  0.56727828  0.51769867  1
  O  O53  1  0.25000000  0.43272172  0.48230133  1
  O  O54  1  0.25000000  0.06727828  0.48230133  1
  O  O55  1  0.75000000  0.93272172  0.51769867  1
  O  O56  1  0.99984132  0.51168294  0.37970023  1
  O  O57  1  0.49984132  0.48831706  0.62029977  1
  O  O58  1  0.00015868  0.01168294  0.62029977  1
  O  O59  1  0.50015868  0.98831706  0.37970023  1
  O  O60  1  0.00015868  0.48831706  0.62029977  1
  O  O61  1  0.50015868  0.51168294  0.37970023  1
  O  O62  1  0.99984132  0.98831706  0.37970023  1
  O  O63  1  0.49984132  0.01168294  0.62029977  1
  O  O64  1  0.75000000  0.41649633  0.98157560  1
  O  O65  1  0.25000000  0.58350367  0.01842440  1
  O  O66  1  0.25000000  0.91649633  0.01842440  1
  O  O67  1  0.75000000  0.08350367  0.98157560  1
  O  O68  1  0.49989102  0.39358558  0.14030521  1
  O  O69  1  -0.00010898  0.60641442  0.85969479  1
  O  O70  1  0.50010898  0.89358558  0.85969479  1
  O  O71  1  0.00010898  0.10641442  0.14030521  1
  O  O72  1  0.50010898  0.60641442  0.85969479  1
  O  O73  1  0.00010898  0.39358558  0.14030521  1
  O  O74  1  0.49989102  0.10641442  0.14030521  1
  O  O75  1  -0.00010898  0.89358558  0.85969479  1
  O  O76  1  0.25000000  0.42647477  0.29348991  1
  O  O77  1  0.75000000  0.57352523  0.70651009  1
  O  O78  1  0.75000000  0.92647477  0.70651009  1
  O  O79  1  0.25000000  0.07352523  0.29348991  1
  O  O80  1  0.25000000  0.49493000  0.13875329  1
  O  O81  1  0.75000000  0.50507000  0.86124671  1
  O  O82  1  0.75000000  0.99493000  0.86124671  1
  O  O83  1  0.25000000  0.00507000  0.13875329  1
