# generated using pymatgen
data_SiO2
_symmetry_space_group_name_H-M   'P 1'
_cell_length_a   5.27925787
_cell_length_b   12.12581789
_cell_length_c   13.02734865
_cell_angle_alpha   108.84074438
_cell_angle_beta   101.69033287
_cell_angle_gamma   90.00000212
_symmetry_Int_Tables_number   1
_chemical_formula_structural   SiO2
_chemical_formula_sum   'Si14 O28'
_cell_volume   770.96617982
_cell_formula_units_Z   14
loop_
 _symmetry_equiv_pos_site_id
 _symmetry_equiv_pos_as_xyz
  1  'x, y, z'
loop_
 _atom_site_type_symbol
 _atom_site_label
 _atom_site_symmetry_multiplicity
 _atom_site_fract_x
 _atom_site_fract_y
 _atom_site_fract_z
 _atom_site_occupancy
  Si  Si0  1  0.63024598  0.28927135  0.26049196  1
  Si  Si1  1  0.28194554  0.47834712  0.56389109  1
  Si  Si2  1  0.71805446  0.52165288  0.43610891  1
  Si  Si3  1  0.27944596  0.21039634  0.55889191  1
  Si  Si4  1  0.06264052  0.90935898  0.12528103  1
  Si  Si5  1  0.36975402  0.71072865  0.73950804  1
  Si  Si6  1  0.61938477  0.87879908  0.23876953  1
  Si  Si7  1  0.38061523  0.12120092  0.76123047  1
  Si  Si8  1  0.92938618  0.83464836  0.85877237  1
  Si  Si9  1  0.93735948  0.09064102  0.87471897  1
  Si  Si10  1  0.70877105  0.13685807  0.41754210  1
  Si  Si11  1  0.29122895  0.86314193  0.58245790  1
  Si  Si12  1  0.72055404  0.78960366  0.44110809  1
  Si  Si13  1  0.07061382  0.16535164  0.14122763  1
  O  O14  1  0.09244954  0.05212706  0.18489907  1
  O  O15  1  0.34234515  0.98485396  0.68469030  1
  O  O16  1  0.90755046  0.94787294  0.81510093  1
  O  O17  1  0.99735873  0.14370481  0.49304308  1
  O  O18  1  0.65426970  0.43163395  0.30853939  1
  O  O19  1  0.00380370  0.12124429  0.00760740  1
  O  O20  1  0.84202416  0.24386566  0.18524946  1
  O  O21  1  0.34209987  0.20436187  0.68419975  1
  O  O22  1  0.68367636  0.24370987  0.36735273  1
  O  O23  1  0.99619630  0.87875571  0.99239260  1
  O  O24  1  0.65765485  0.01514604  0.31530970  1
  O  O25  1  0.65677471  0.75613434  0.81475054  1
  O  O26  1  0.82947628  0.85157993  0.15984182  1
  O  O27  1  0.34322529  0.24386566  0.18524946  1
  O  O28  1  0.15797584  0.75613434  0.81475054  1
  O  O29  1  0.33036555  0.85157993  0.15984182  1
  O  O30  1  0.66963445  0.14842007  0.84015818  1
  O  O31  1  0.00000000  0.50000000  0.50000000  1
  O  O32  1  0.71669508  0.65381493  0.43339016  1
  O  O33  1  0.00264127  0.85629519  0.50695692  1
  O  O34  1  0.50431565  0.85629519  0.50695692  1
  O  O35  1  0.28330492  0.34618507  0.56660984  1
  O  O36  1  0.65790013  0.79563813  0.31580025  1
  O  O37  1  0.50000000  0.50000000  0.50000000  1
  O  O38  1  0.49568435  0.14370481  0.49304308  1
  O  O39  1  0.17052372  0.14842007  0.84015818  1
  O  O40  1  0.31632364  0.75629013  0.63264727  1
  O  O41  1  0.34573030  0.56836605  0.69146061  1
