# generated using pymatgen
data_Ce2In5Pd4
_symmetry_space_group_name_H-M   'P 1'
_cell_length_a   4.66742314
_cell_length_b   9.72280737
_cell_length_c   10.64051313
_cell_angle_alpha   102.69756895
_cell_angle_beta   90.00000000
_cell_angle_gamma   90.00000000
_symmetry_Int_Tables_number   1
_chemical_formula_structural   Ce2In5Pd4
_chemical_formula_sum   'Ce4 In10 Pd8'
_cell_volume   471.06217536
_cell_formula_units_Z   2
loop_
 _symmetry_equiv_pos_site_id
 _symmetry_equiv_pos_as_xyz
  1  'x, y, z'
loop_
 _atom_site_type_symbol
 _atom_site_label
 _atom_site_symmetry_multiplicity
 _atom_site_fract_x
 _atom_site_fract_y
 _atom_site_fract_z
 _atom_site_occupancy
  Ce  Ce0  1  0.25000000  0.67374103  0.70336752  1
  Ce  Ce1  1  0.75000000  0.32625897  0.29663248  1
  Ce  Ce2  1  0.25000000  0.77556387  0.11084191  1
  Ce  Ce3  1  0.75000000  0.22443613  0.88915809  1
  In  In4  1  0.75000000  0.91739341  0.65311583  1
  In  In5  1  0.25000000  0.16710747  0.64991909  1
  In  In6  1  0.75000000  0.57742844  0.92102551  1
  In  In7  1  0.75000000  0.83289253  0.35008091  1
  In  In8  1  0.75000000  0.40599254  0.64012588  1
  In  In9  1  0.25000000  0.11807954  0.07498116  1
  In  In10  1  0.25000000  0.42257156  0.07897449  1
  In  In11  1  0.25000000  0.08260659  0.34688417  1
  In  In12  1  0.75000000  0.88192046  0.92501884  1
  In  In13  1  0.25000000  0.59400746  0.35987412  1
  Pd  Pd14  1  0.25000000  0.98321981  0.81510012  1
  Pd  Pd15  1  0.25000000  0.87724920  0.50355701  1
  Pd  Pd16  1  0.75000000  0.57382178  0.18388629  1
  Pd  Pd17  1  0.75000000  0.12275080  0.49644299  1
  Pd  Pd18  1  0.75000000  0.01678019  0.18489988  1
  Pd  Pd19  1  0.75000000  0.62896105  0.51270108  1
  Pd  Pd20  1  0.25000000  0.42617822  0.81611371  1
  Pd  Pd21  1  0.25000000  0.37103895  0.48729892  1
