# generated using pymatgen
data_UVAgO6
_symmetry_space_group_name_H-M   'P 1'
_cell_length_a   6.17337733
_cell_length_b   8.40583258
_cell_length_c   10.49321405
_cell_angle_alpha   90.00000000
_cell_angle_beta   96.86690882
_cell_angle_gamma   90.00000000
_symmetry_Int_Tables_number   1
_chemical_formula_structural   UVAgO6
_chemical_formula_sum   'U4 V4 Ag4 O24'
_cell_volume   540.61174695
_cell_formula_units_Z   4
loop_
 _symmetry_equiv_pos_site_id
 _symmetry_equiv_pos_as_xyz
  1  'x, y, z'
loop_
 _atom_site_type_symbol
 _atom_site_label
 _atom_site_symmetry_multiplicity
 _atom_site_fract_x
 _atom_site_fract_y
 _atom_site_fract_z
 _atom_site_occupancy
  U  U0  1  0.01522620  0.97965264  0.81703949  1
  U  U1  1  0.98477380  0.02034736  0.18296051  1
  U  U2  1  0.01522620  0.52034736  0.31703949  1
  U  U3  1  0.98477380  0.47965264  0.68296051  1
  V  V4  1  0.86858351  0.85023076  0.45908815  1
  V  V5  1  0.13141649  0.14976924  0.54091185  1
  V  V6  1  0.13141649  0.35023076  0.04091185  1
  V  V7  1  0.86858351  0.64976924  0.95908815  1
  Ag  Ag8  1  0.54228131  0.27555195  0.83382464  1
  Ag  Ag9  1  0.45771869  0.77555195  0.66617536  1
  Ag  Ag10  1  0.54228131  0.22444805  0.33382464  1
  Ag  Ag11  1  0.45771869  0.72444805  0.16617536  1
  O  O12  1  0.70053092  0.41428890  0.64823970  1
  O  O13  1  0.94356798  0.43693818  0.89786138  1
  O  O14  1  0.29946908  0.58571110  0.35176030  1
  O  O15  1  0.38623959  0.14153390  0.50813469  1
  O  O16  1  0.73042955  0.45139572  0.27723965  1
  O  O17  1  0.73042955  0.04860428  0.77723965  1
  O  O18  1  0.61376041  0.85846610  0.49186531  1
  O  O19  1  0.87515339  0.78980431  0.28922105  1
  O  O20  1  0.87515339  0.71019569  0.78922105  1
  O  O21  1  0.26957045  0.95139572  0.22276035  1
  O  O22  1  0.04447252  0.15040171  0.99194749  1
  O  O23  1  0.29946908  0.91428890  0.85176030  1
  O  O24  1  0.95552748  0.84959829  0.00805251  1
  O  O25  1  0.05643202  0.56306182  0.10213862  1
  O  O26  1  0.26957045  0.54860428  0.72276035  1
  O  O27  1  0.04447252  0.34959829  0.49194749  1
  O  O28  1  0.05643202  0.93693818  0.60213862  1
  O  O29  1  0.61376041  0.64153390  0.99186531  1
  O  O30  1  0.70053092  0.08571110  0.14823970  1
  O  O31  1  0.94356798  0.06306182  0.39786138  1
  O  O32  1  0.38623959  0.35846610  0.00813469  1
  O  O33  1  0.95552748  0.65040171  0.50805251  1
  O  O34  1  0.12484661  0.28980431  0.21077895  1
  O  O35  1  0.12484661  0.21019569  0.71077895  1
