# generated using pymatgen
data_Li2VPO6
_symmetry_space_group_name_H-M   'P 1'
_cell_length_a   4.70241168
_cell_length_b   8.65141249
_cell_length_c   10.50593515
_cell_angle_alpha   90.00000000
_cell_angle_beta   90.00000000
_cell_angle_gamma   90.00000000
_symmetry_Int_Tables_number   1
_chemical_formula_structural   Li2VPO6
_chemical_formula_sum   'Li8 V4 P4 O24'
_cell_volume   427.40773974
_cell_formula_units_Z   4
loop_
 _symmetry_equiv_pos_site_id
 _symmetry_equiv_pos_as_xyz
  1  'x, y, z'
loop_
 _atom_site_type_symbol
 _atom_site_label
 _atom_site_symmetry_multiplicity
 _atom_site_fract_x
 _atom_site_fract_y
 _atom_site_fract_z
 _atom_site_occupancy
  Li  Li0  1  0.97837983  0.82557229  0.91267191  1
  Li  Li1  1  0.02162017  0.32557229  0.08732809  1
  Li  Li2  1  0.47837983  0.32557229  0.58732809  1
  Li  Li3  1  0.52162017  0.82557229  0.41267191  1
  Li  Li4  1  0.46604072  0.12269711  0.86614450  1
  Li  Li5  1  0.53395928  0.62269711  0.13385550  1
  Li  Li6  1  0.96604072  0.62269711  0.63385550  1
  Li  Li7  1  0.03395928  0.12269711  0.36614450  1
  V  V8  1  0.48263182  0.00494771  0.11086832  1
  V  V9  1  0.51736818  0.50494771  0.88913168  1
  V  V10  1  0.98263182  0.50494771  0.38913168  1
  V  V11  1  0.01736818  0.00494771  0.61086832  1
  P  P12  1  0.41518498  0.80775104  0.71848598  1
  P  P13  1  0.58481502  0.30775104  0.28151402  1
  P  P14  1  0.91518498  0.30775104  0.78151402  1
  P  P15  1  0.08481502  0.80775104  0.21848598  1
  O  O16  1  0.31176745  0.65198094  0.77976728  1
  O  O17  1  0.68823255  0.15198094  0.22023272  1
  O  O18  1  0.81176745  0.15198094  0.72023272  1
  O  O19  1  0.18823255  0.65198094  0.27976728  1
  O  O20  1  0.26541007  0.81427056  0.58371606  1
  O  O21  1  0.73458993  0.31427056  0.41628394  1
  O  O22  1  0.76541007  0.31427056  0.91628394  1
  O  O23  1  0.23458993  0.81427056  0.08371606  1
  O  O24  1  0.76123286  0.81706414  0.21522958  1
  O  O25  1  0.23876714  0.31706414  0.78477042  1
  O  O26  1  0.26123286  0.31706414  0.28477042  1
  O  O27  1  0.73876714  0.81706414  0.71522958  1
  O  O28  1  0.26136393  0.94395473  0.78663238  1
  O  O29  1  0.73863607  0.44395473  0.21336762  1
  O  O30  1  0.76136393  0.44395473  0.71336762  1
  O  O31  1  0.23863607  0.94395473  0.28663238  1
  O  O32  1  0.70265150  0.97459123  0.98855820  1
  O  O33  1  0.29734850  0.47459123  0.01144180  1
  O  O34  1  0.20265150  0.47459123  0.51144180  1
  O  O35  1  0.79734850  0.97459123  0.48855820  1
  O  O36  1  0.25509793  0.13181025  0.04916137  1
  O  O37  1  0.74490207  0.63181025  0.95083863  1
  O  O38  1  0.75509793  0.63181025  0.45083863  1
  O  O39  1  0.24490207  0.13181025  0.54916137  1
