# generated using pymatgen
data_H4SO5
_symmetry_space_group_name_H-M   'P 1'
_cell_length_a   8.38609855
_cell_length_b   6.93861319
_cell_length_c   7.16583926
_cell_angle_alpha   90.39569577
_cell_angle_beta   103.57339757
_cell_angle_gamma   89.88166663
_symmetry_Int_Tables_number   1
_chemical_formula_structural   H4SO5
_chemical_formula_sum   'H16 S4 O20'
_cell_volume   405.30958227
_cell_formula_units_Z   4
loop_
 _symmetry_equiv_pos_site_id
 _symmetry_equiv_pos_as_xyz
  1  'x, y, z'
loop_
 _atom_site_type_symbol
 _atom_site_label
 _atom_site_symmetry_multiplicity
 _atom_site_fract_x
 _atom_site_fract_y
 _atom_site_fract_z
 _atom_site_occupancy
  H  H0  1  0.95467602  0.34100941  0.05137520  1
  H  H1  1  0.38943815  0.17106704  0.38901502  1
  H  H2  1  0.09902662  0.67514089  0.60197321  1
  H  H3  1  0.60278913  0.82007391  0.60445739  1
  H  H4  1  0.85822869  0.34768035  0.65853446  1
  H  H5  1  0.79347518  0.14022554  0.72733919  1
  H  H6  1  0.70024236  0.36721129  0.75968712  1
  H  H7  1  0.59677673  0.81628505  0.10108773  1
  H  H8  1  0.69540246  0.66339357  0.26966187  1
  H  H9  1  0.77901207  0.88552172  0.23717113  1
  H  H10  1  0.09213454  0.69115267  0.10746570  1
  H  H11  1  0.20554223  0.84418139  0.26404453  1
  H  H12  1  0.27773594  0.61725129  0.22492985  1
  H  H13  1  0.23861333  0.11508853  0.78305579  1
  H  H14  1  0.41945068  0.20549902  0.91142152  1
  H  H15  1  0.29959311  0.33024548  0.72474566  1
  S  S16  1  0.53271616  0.34790326  0.24124676  1
  S  S17  1  0.96360707  0.83625780  0.76622593  1
  S  S18  1  0.45854087  0.65795358  0.75460587  1
  S  S19  1  0.05036356  0.15884551  0.29308766  1
  O  O20  1  0.54028941  0.20001128  0.09444614  1
  O  O21  1  0.96099621  0.68212567  0.90470179  1
  O  O22  1  0.47065328  0.81246045  0.89723827  1
  O  O23  1  0.06405969  0.31015890  0.12957136  1
  O  O24  1  0.49986532  0.23954126  0.42189260  1
  O  O25  1  0.98671686  0.73608837  0.57508171  1
  O  O26  1  0.49464876  0.75239651  0.56710096  1
  O  O27  1  0.02813146  0.26602784  0.45976065  1
  O  O28  1  0.39921030  0.48405434  0.16820127  1
  O  O29  1  0.09351748  0.97636386  0.83188289  1
  O  O30  1  0.57901222  0.50419419  0.81899827  1
  O  O31  1  0.92006894  0.02485957  0.20553874  1
  O  O32  1  0.69058790  0.44346057  0.31959672  1
  O  O33  1  0.79934253  0.93017823  0.70030231  1
  O  O34  1  0.29184718  0.57826499  0.68533381  1
  O  O35  1  0.21439764  0.06311164  0.32676723  1
  O  O36  1  0.80580868  0.29055446  0.75454379  1
  O  O37  1  0.67599282  0.80640361  0.23318356  1
  O  O38  1  0.17846000  0.70169676  0.23310768  1
  O  O39  1  0.33465641  0.19872817  0.77633468  1
