# generated using pymatgen
data_H5IO6
_symmetry_space_group_name_H-M   'P 1'
_cell_length_a   5.36255761
_cell_length_b   18.78902097
_cell_length_c   5.01790692
_cell_angle_alpha   89.98895057
_cell_angle_beta   108.77795028
_cell_angle_gamma   90.02757607
_symmetry_Int_Tables_number   1
_chemical_formula_structural   H5IO6
_chemical_formula_sum   'H20 I4 O24'
_cell_volume   478.67928445
_cell_formula_units_Z   4
loop_
 _symmetry_equiv_pos_site_id
 _symmetry_equiv_pos_as_xyz
  1  'x, y, z'
loop_
 _atom_site_type_symbol
 _atom_site_label
 _atom_site_symmetry_multiplicity
 _atom_site_fract_x
 _atom_site_fract_y
 _atom_site_fract_z
 _atom_site_occupancy
  H  H0  1  0.16244944  0.49886318  0.83389616  1
  H  H1  1  0.66158777  0.00100757  0.33393037  1
  H  H2  1  0.84379744  0.49889974  0.17347723  1
  H  H3  1  0.34323118  0.00102905  0.67376945  1
  H  H4  1  0.33001963  0.55691509  0.50499176  1
  H  H5  1  0.82981481  0.94310176  0.00539072  1
  H  H6  1  0.68156046  0.43861328  0.50363084  1
  H  H7  1  0.18095164  0.06132474  0.00362038  1
  H  H8  1  0.29155808  0.72705059  0.33425456  1
  H  H9  1  0.79207441  0.77328525  0.83677320  1
  H  H10  1  0.74832027  0.26328930  0.71410944  1
  H  H11  1  0.24860657  0.23662665  0.21414694  1
  H  H12  1  0.61767168  0.62967509  0.04640014  1
  H  H13  1  0.11690204  0.87027920  0.54699603  1
  H  H14  1  0.39298523  0.36750214  0.96567399  1
  H  H15  1  0.89286144  0.13240117  0.46572677  1
  H  H16  1  0.03125866  0.68312969  0.60388698  1
  H  H17  1  0.53030464  0.81668538  0.10502641  1
  H  H18  1  0.97816895  0.31423877  0.41529388  1
  H  H19  1  0.47825009  0.18566116  0.91527135  1
  I  I20  1  0.16293339  0.61771468  0.05143700  1
  I  I21  1  0.66224207  0.88224984  0.55215808  1
  I  I22  1  0.84758805  0.37888981  0.96180939  1
  I  I23  1  0.34737898  0.12100987  0.46182815  1
  O  O24  1  0.18995815  0.54972540  0.77353712  1
  O  O25  1  0.68906086  0.95012684  0.27375756  1
  O  O26  1  0.81530972  0.44815510  0.23320989  1
  O  O27  1  0.31477080  0.05177519  0.73328673  1
  O  O28  1  0.86403619  0.57952283  0.09351436  1
  O  O29  1  0.36339015  0.92036387  0.59410880  1
  O  O30  1  0.14398320  0.41801081  0.91685330  1
  O  O31  1  0.64352965  0.08186211  0.41683966  1
  O  O32  1  0.39580679  0.55941625  0.33920443  1
  O  O33  1  0.89526140  0.94069472  0.83934674  1
  O  O34  1  0.61164701  0.43456425  0.66615004  1
  O  O35  1  0.11111377  0.06536501  0.16620681  1
  O  O36  1  0.15254637  0.69131644  0.32358455  1
  O  O37  1  0.65246647  0.80880234  0.82530004  1
  O  O38  1  0.86790089  0.30324149  0.70365216  1
  O  O39  1  0.36799710  0.19667415  0.20370781  1
  O  O40  1  0.46325795  0.66485071  0.00992378  1
  O  O41  1  0.96237218  0.83509558  0.51063723  1
  O  O42  1  0.54783583  0.33246668  0.00747051  1
  O  O43  1  0.04780433  0.16744583  0.50759724  1
  O  O44  1  0.95200243  0.68029941  0.76014650  1
  O  O45  1  0.45112474  0.81950650  0.26132117  1
  O  O46  1  0.06122010  0.31887606  0.26255476  1
  O  O47  1  0.56131803  0.18100245  0.76260861  1
