# generated using pymatgen
data_Na3CuSnSe4
_symmetry_space_group_name_H-M   'P 1'
_cell_length_a   6.90717718
_cell_length_b   10.32011212
_cell_length_c   13.15246696
_cell_angle_alpha   90.00000000
_cell_angle_beta   90.48046938
_cell_angle_gamma   90.00000000
_symmetry_Int_Tables_number   1
_chemical_formula_structural   Na3CuSnSe4
_chemical_formula_sum   'Na12 Cu4 Sn4 Se16'
_cell_volume   937.51227207
_cell_formula_units_Z   4
loop_
 _symmetry_equiv_pos_site_id
 _symmetry_equiv_pos_as_xyz
  1  'x, y, z'
loop_
 _atom_site_type_symbol
 _atom_site_label
 _atom_site_symmetry_multiplicity
 _atom_site_fract_x
 _atom_site_fract_y
 _atom_site_fract_z
 _atom_site_occupancy
  Na  Na0  1  0.77450886  0.89674801  0.51678270  1
  Na  Na1  1  0.54952797  0.36051302  0.37621816  1
  Na  Na2  1  0.72549114  0.39674801  0.98321730  1
  Na  Na3  1  0.45047203  0.63948698  0.62378184  1
  Na  Na4  1  0.48763950  0.88284141  0.87533263  1
  Na  Na5  1  0.98763950  0.61715859  0.37533263  1
  Na  Na6  1  0.27450886  0.60325199  0.01678270  1
  Na  Na7  1  0.01236050  0.38284141  0.62466737  1
  Na  Na8  1  0.04952797  0.13948698  0.87621816  1
  Na  Na9  1  0.95047203  0.86051302  0.12378184  1
  Na  Na10  1  0.51236050  0.11715859  0.12466737  1
  Na  Na11  1  0.22549114  0.10325199  0.48321730  1
  Cu  Cu12  1  0.59281330  0.60226860  0.21395733  1
  Cu  Cu13  1  0.90718670  0.10226860  0.28604267  1
  Cu  Cu14  1  0.40718670  0.39773140  0.78604267  1
  Cu  Cu15  1  0.09281330  0.89773140  0.71395733  1
  Sn  Sn16  1  0.41526136  0.86134133  0.30476604  1
  Sn  Sn17  1  0.91526136  0.63865867  0.80476604  1
  Sn  Sn18  1  0.08473864  0.36134133  0.19523396  1
  Sn  Sn19  1  0.58473864  0.13865867  0.69523396  1
  Se  Se20  1  0.95831300  0.15846578  0.10202784  1
  Se  Se21  1  0.41232350  0.92791770  0.64271364  1
  Se  Se22  1  0.05432624  0.89737972  0.34076532  1
  Se  Se23  1  0.99563513  0.68100509  0.61698997  1
  Se  Se24  1  0.91232350  0.57208230  0.14271364  1
  Se  Se25  1  0.54168700  0.65846578  0.39797216  1
  Se  Se26  1  0.94567376  0.10262028  0.65923468  1
  Se  Se27  1  0.58767650  0.07208230  0.35728636  1
  Se  Se28  1  0.00436487  0.31899491  0.38301003  1
  Se  Se29  1  0.08767650  0.42791770  0.85728636  1
  Se  Se30  1  0.55432624  0.60262028  0.84076532  1
  Se  Se31  1  0.44567376  0.39737972  0.15923468  1
  Se  Se32  1  0.45831300  0.34153422  0.60202784  1
  Se  Se33  1  0.50436487  0.18100509  0.88301003  1
  Se  Se34  1  0.04168700  0.84153422  0.89797216  1
  Se  Se35  1  0.49563513  0.81899491  0.11698997  1
