# generated using pymatgen
data_Sc(HO)3
_symmetry_space_group_name_H-M   'P 1'
_cell_length_a   6.84709256
_cell_length_b   6.90167781
_cell_length_c   6.90167781
_cell_angle_alpha   109.63087912
_cell_angle_beta   109.31108635
_cell_angle_gamma   109.31108635
_symmetry_Int_Tables_number   1
_chemical_formula_structural   Sc(HO)3
_chemical_formula_sum   'Sc4 H12 O12'
_cell_volume   251.56379629
_cell_formula_units_Z   4
loop_
 _symmetry_equiv_pos_site_id
 _symmetry_equiv_pos_as_xyz
  1  'x, y, z'
loop_
 _atom_site_type_symbol
 _atom_site_label
 _atom_site_symmetry_multiplicity
 _atom_site_fract_x
 _atom_site_fract_y
 _atom_site_fract_z
 _atom_site_occupancy
  Sc  Sc0  1  0.50000000  0.00000000  0.00000000  1
  Sc  Sc1  1  0.00000000  0.00000000  0.50000000  1
  Sc  Sc2  1  0.00000000  0.50000000  0.00000000  1
  Sc  Sc3  1  0.50000000  0.50000000  0.50000000  1
  H  H4  1  0.30572470  0.25672505  0.95139523  1
  H  H5  1  0.69427530  0.74327495  0.04860477  1
  H  H6  1  0.44293382  0.62250599  0.17940362  1
  H  H7  1  0.55706618  0.37749401  0.82059638  1
  H  H8  1  0.95100035  0.30532982  0.25672505  1
  H  H9  1  0.04899965  0.69467018  0.74327495  1
  H  H10  1  0.17957217  0.44310237  0.62250599  1
  H  H11  1  0.82042783  0.55689763  0.37749401  1
  H  H12  1  0.26353020  0.82059638  0.44310237  1
  H  H13  1  0.73646980  0.17940362  0.55689763  1
  H  H14  1  0.35432947  0.04860477  0.30532982  1
  H  H15  1  0.64567053  0.95139523  0.69467018  1
  O  O16  1  0.31012855  0.13711927  0.82572640  1
  O  O17  1  0.68987145  0.86288073  0.17427360  1
  O  O18  1  0.31694396  0.49455316  0.17334672  1
  O  O19  1  0.68305604  0.50544684  0.82665328  1
  O  O20  1  0.82699072  0.31139287  0.13711927  1
  O  O21  1  0.17300928  0.68860713  0.86288073  1
  O  O22  1  0.17760920  0.32120644  0.49455316  1
  O  O23  1  0.82239080  0.67879356  0.50544684  1
  O  O24  1  0.14359724  0.82665328  0.32120644  1
  O  O25  1  0.85640276  0.17334672  0.67879356  1
  O  O26  1  0.48440215  0.17427360  0.31139287  1
  O  O27  1  0.51559785  0.82572640  0.68860713  1
