# generated using pymatgen
data_Rb9Na2Al11Si13O48
_symmetry_space_group_name_H-M   'P 1'
_cell_length_a   12.57806684
_cell_length_b   12.19473669
_cell_length_c   12.25967736
_cell_angle_alpha   90.94578056
_cell_angle_beta   89.85010230
_cell_angle_gamma   88.70418324
_symmetry_Int_Tables_number   1
_chemical_formula_structural   Rb9Na2Al11Si13O48
_chemical_formula_sum   'Rb9 Na2 Al11 Si13 O48'
_cell_volume   1879.72005040
_cell_formula_units_Z   1
loop_
 _symmetry_equiv_pos_site_id
 _symmetry_equiv_pos_as_xyz
  1  'x, y, z'
loop_
 _atom_site_type_symbol
 _atom_site_label
 _atom_site_symmetry_multiplicity
 _atom_site_fract_x
 _atom_site_fract_y
 _atom_site_fract_z
 _atom_site_occupancy
  Rb  Rb0  1  0.02265114  0.54765346  0.49756309  1
  Rb  Rb1  1  0.25145891  0.73564085  0.23847482  1
  Rb  Rb2  1  0.52770389  0.46970686  0.00041182  1
  Rb  Rb3  1  0.57488246  0.00491591  0.50230184  1
  Rb  Rb4  1  0.73457771  0.24264555  0.25655245  1
  Rb  Rb5  1  0.72782272  0.25218066  0.75090112  1
  Rb  Rb6  1  0.67534984  0.66238290  0.20190392  1
  Rb  Rb7  1  0.54064372  0.70967120  0.77661355  1
  Rb  Rb8  1  0.07212583  0.05752295  0.86460718  1
  Na  Na9  1  0.82991379  0.86451977  0.15213546  1
  Na  Na10  1  0.80764683  0.81850041  0.83316557  1
  Al  Al11  1  0.99657753  0.62606539  0.18512859  1
  Al  Al12  1  0.37237896  0.80372300  0.99211831  1
  Al  Al13  1  0.61592701  0.99658332  0.19487391  1
  Al  Al14  1  0.60487085  0.19273351  0.00789681  1
  Al  Al15  1  0.61095254  0.01214378  0.80281659  1
  Al  Al16  1  0.62196368  0.81758835  0.99129563  1
  Al  Al17  1  0.82938109  0.99308765  0.36973431  1
  Al  Al18  1  0.82449765  0.99963790  0.63864108  1
  Al  Al19  1  0.81380525  0.36629089  0.00663537  1
  Al  Al20  1  0.83256148  0.63768042  0.99631544  1
  Al  Al21  1  0.00406324  0.81903961  0.63652920  1
  Si  Si22  1  0.99280845  0.36824945  0.18869651  1
  Si  Si23  1  0.00257794  0.19028289  0.62213435  1
  Si  Si24  1  0.00838308  0.81522056  0.37155613  1
  Si  Si25  1  0.18707131  0.00125622  0.37816205  1
  Si  Si26  1  0.18749234  0.00335070  0.62187064  1
  Si  Si27  1  0.17373490  0.36177163  0.00516879  1
  Si  Si28  1  0.18663014  0.60921389  0.99282891  1
  Si  Si29  1  0.37210763  0.99242906  0.19025678  1
  Si  Si30  1  0.36320110  0.17759620  0.00959900  1
  Si  Si31  1  0.36866684  0.99655183  0.81004869  1
  Si  Si32  1  0.00459467  0.18599616  0.37457250  1
  Si  Si33  1  0.99507389  0.36711841  0.82003378  1
  Si  Si34  1  0.01454545  0.62326033  0.81027378  1
  O  O35  1  0.01210835  0.29128126  0.29586427  1
  O  O36  1  0.99716146  0.24226512  0.49928743  1
  O  O37  1  0.01324891  0.29482221  0.70698231  1
  O  O38  1  0.03675711  0.70211726  0.30231931  1
  O  O39  1  0.99035199  0.78116202  0.49704726  1
  O  O40  1  0.99090347  0.49368597  0.77716154  1
  O  O41  1  0.02175703  0.68829315  0.69710827  1
  O  O42  1  0.11549510  0.11289765  0.36440590  1
  O  O43  1  0.10221454  0.36046396  0.11550817  1
  O  O44  1  0.11188539  0.11583703  0.63015221  1
  O  O45  1  0.10606076  0.62853310  0.09488927  1
  O  O46  1  0.09969157  0.34286674  0.89646858  1
  O  O47  1  0.11686429  0.89066072  0.36310766  1
  O  O48  1  0.12933657  0.62448947  0.87400676  1
  O  O49  1  0.11915937  0.89771368  0.64731296  1
  O  O50  1  0.24388713  0.99960278  0.49974543  1
  O  O51  1  0.23507946  0.47976073  0.99704294  1
  O  O52  1  0.27832579  0.99320861  0.28570435  1
  O  O53  1  0.25721471  0.26006113  0.00962850  1
  O  O54  1  0.27457214  0.01907031  0.71843967  1
  O  O55  1  0.28492158  0.69161332  0.00342996  1
  O  O56  1  0.35356215  0.10438317  0.12009229  1
  O  O57  1  0.35121294  0.09773495  0.90079636  1
  O  O58  1  0.35111907  0.88537147  0.11219843  1
  O  O59  1  0.35031227  0.88055719  0.87159121  1
  O  O60  1  0.48524096  0.98617669  0.25359885  1
  O  O61  1  0.46929238  0.24988217  0.01076795  1
  O  O62  1  0.48054653  -0.00001971  0.74453201  1
  O  O63  1  0.50087082  0.74407487  0.99111436  1
  O  O64  1  0.62229040  0.11708996  0.12404872  1
  O  O65  1  0.62026210  0.12783434  0.88349335  1
  O  O66  1  0.64986702  0.87700194  0.11841051  1
  O  O67  1  0.63586008  0.88967068  0.87028362  1
  O  O68  1  0.71038793  0.00408365  0.29941059  1
  O  O69  1  0.69879641  0.02763720  0.69384958  1
  O  O70  1  0.68872968  0.30739842  0.01216579  1
  O  O71  1  0.71958391  0.71531159  0.96776682  1
  O  O72  1  0.80184053  0.97230519  0.50341410  1
  O  O73  1  0.78985066  0.50594630  0.01165008  1
  O  O74  1  0.90187520  0.11522955  0.34663332  1
  O  O75  1  0.89344215  0.32192085  0.11920286  1
  O  O76  1  0.88877050  0.33134133  0.88343305  1
  O  O77  1  0.91038763  0.88217550  0.31537743  1
  O  O78  1  0.90050608  0.12291532  0.65718835  1
  O  O79  1  0.88368387  0.68412122  0.12420159  1
  O  O80  1  0.91964729  0.67190729  0.88814047  1
  O  O81  1  0.89952488  0.89298637  0.69996860  1
  O  O82  1  0.97689595  0.49314467  0.23703901  1
