# generated using pymatgen
data_FeHO2
_symmetry_space_group_name_H-M   'P 1'
_cell_length_a   10.11774659
_cell_length_b   3.07310922
_cell_length_c   4.65158022
_cell_angle_alpha   90.00000000
_cell_angle_beta   90.00000000
_cell_angle_gamma   90.00000000
_symmetry_Int_Tables_number   1
_chemical_formula_structural   FeHO2
_chemical_formula_sum   'Fe4 H4 O8'
_cell_volume   144.63130623
_cell_formula_units_Z   4
loop_
 _symmetry_equiv_pos_site_id
 _symmetry_equiv_pos_as_xyz
  1  'x, y, z'
loop_
 _atom_site_type_symbol
 _atom_site_label
 _atom_site_symmetry_multiplicity
 _atom_site_fract_x
 _atom_site_fract_y
 _atom_site_fract_z
 _atom_site_occupancy
  Fe  Fe0  1  0.64490591  0.24298631  0.54170280  1
  Fe  Fe1  1  0.14490591  0.25701369  0.95829720  1
  Fe  Fe2  1  0.35509409  0.74298631  0.45829720  1
  Fe  Fe3  1  0.85509409  0.75701369  0.04170280  1
  H  H4  1  0.41637654  0.23192463  0.90738476  1
  H  H5  1  0.91637654  0.26807537  0.59261524  1
  H  H6  1  0.58362346  0.73192463  0.09261524  1
  H  H7  1  0.08362346  0.76807537  0.40738476  1
  O  O8  1  0.30486398  0.24332887  0.20800599  1
  O  O9  1  0.80486398  0.25667113  0.29199401  1
  O  O10  1  0.69513602  0.74332887  0.79199401  1
  O  O11  1  0.19513602  0.75667113  0.70800599  1
  O  O12  1  0.44595322  0.23976217  0.70199254  1
  O  O13  1  0.94595322  0.26023783  0.79800746  1
  O  O14  1  0.55404678  0.73976217  0.29800746  1
  O  O15  1  0.05404678  0.76023783  0.20199254  1
