# generated using pymatgen
data_Ce2InCuSe5
_symmetry_space_group_name_H-M   'P 1'
_cell_length_a   4.09403935
_cell_length_b   12.11952704
_cell_length_c   17.35050794
_cell_angle_alpha   90.00000000
_cell_angle_beta   90.00000000
_cell_angle_gamma   90.00000000
_symmetry_Int_Tables_number   1
_chemical_formula_structural   Ce2InCuSe5
_chemical_formula_sum   'Ce8 In4 Cu4 Se20'
_cell_volume   860.89439038
_cell_formula_units_Z   4
loop_
 _symmetry_equiv_pos_site_id
 _symmetry_equiv_pos_as_xyz
  1  'x, y, z'
loop_
 _atom_site_type_symbol
 _atom_site_label
 _atom_site_symmetry_multiplicity
 _atom_site_fract_x
 _atom_site_fract_y
 _atom_site_fract_z
 _atom_site_occupancy
  Ce  Ce0  1  0.25000000  0.63664868  0.90555803  1
  Ce  Ce1  1  0.75000000  0.52434176  0.32060278  1
  Ce  Ce2  1  0.25000000  0.13664868  0.59444197  1
  Ce  Ce3  1  0.75000000  0.86335132  0.40555803  1
  Ce  Ce4  1  0.25000000  0.97565824  0.82060278  1
  Ce  Ce5  1  0.25000000  0.47565824  0.67939722  1
  Ce  Ce6  1  0.75000000  0.36335132  0.09444197  1
  Ce  Ce7  1  0.75000000  0.02434176  0.17939722  1
  In  In8  1  0.25000000  0.19089175  0.36060178  1
  In  In9  1  0.75000000  0.30910825  0.86060178  1
  In  In10  1  0.75000000  0.80910825  0.63939822  1
  In  In11  1  0.25000000  0.69089175  0.13939822  1
  Cu  Cu12  1  0.25000000  0.57933918  0.50466925  1
  Cu  Cu13  1  0.25000000  0.07933918  0.99533075  1
  Cu  Cu14  1  0.75000000  0.92066082  0.00466925  1
  Cu  Cu15  1  0.75000000  0.42066082  0.49533075  1
  Se  Se16  1  0.75000000  0.60667656  0.03570457  1
  Se  Se17  1  0.75000000  0.76324364  0.23197340  1
  Se  Se18  1  0.75000000  0.01811699  0.69563243  1
  Se  Se19  1  0.25000000  0.18316656  0.11374434  1
  Se  Se20  1  0.25000000  0.39332344  0.96429543  1
  Se  Se21  1  0.75000000  0.81683344  0.88625566  1
  Se  Se22  1  0.25000000  0.73675636  0.73197340  1
  Se  Se23  1  0.75000000  0.59895020  0.57935511  1
  Se  Se24  1  0.25000000  0.98188301  0.30436757  1
  Se  Se25  1  0.25000000  0.90104980  0.07935511  1
  Se  Se26  1  0.75000000  0.10667656  0.46429543  1
  Se  Se27  1  0.75000000  0.51811699  0.80436757  1
  Se  Se28  1  0.25000000  0.68316656  0.38625566  1
  Se  Se29  1  0.25000000  0.40104980  0.42064489  1
  Se  Se30  1  0.25000000  0.23675636  0.76802660  1
  Se  Se31  1  0.75000000  0.09895020  0.92064489  1
  Se  Se32  1  0.75000000  0.31683344  0.61374434  1
  Se  Se33  1  0.75000000  0.26324364  0.26802660  1
  Se  Se34  1  0.25000000  0.48188301  0.19563243  1
  Se  Se35  1  0.25000000  0.89332344  0.53570457  1
