# generated using pymatgen
data_H10S(NO2)2
_symmetry_space_group_name_H-M   'P 1'
_cell_length_a   6.35448496
_cell_length_b   8.18748731
_cell_length_c   15.26043190
_cell_angle_alpha   90.00000000
_cell_angle_beta   100.48877623
_cell_angle_gamma   90.00000000
_symmetry_Int_Tables_number   1
_chemical_formula_structural   H10S(NO2)2
_chemical_formula_sum   'H40 S4 N8 O16'
_cell_volume   780.69195265
_cell_formula_units_Z   4
loop_
 _symmetry_equiv_pos_site_id
 _symmetry_equiv_pos_as_xyz
  1  'x, y, z'
loop_
 _atom_site_type_symbol
 _atom_site_label
 _atom_site_symmetry_multiplicity
 _atom_site_fract_x
 _atom_site_fract_y
 _atom_site_fract_z
 _atom_site_occupancy
  H  H0  1  0.36707644  0.63798059  0.11814068  1
  H  H1  1  0.63292356  0.13798059  0.38185932  1
  H  H2  1  0.63292356  0.36201941  0.88185932  1
  H  H3  1  0.36707644  0.86201941  0.61814068  1
  H  H4  1  0.22490033  0.59439704  0.19731759  1
  H  H5  1  0.77509967  0.09439704  0.30268241  1
  H  H6  1  0.77509967  0.40560296  0.80268241  1
  H  H7  1  0.22490033  0.90560296  0.69731759  1
  H  H8  1  0.36404777  0.77596846  0.20091929  1
  H  H9  1  0.63595223  0.27596846  0.29908071  1
  H  H10  1  0.63595223  0.22403154  0.79908071  1
  H  H11  1  0.36404777  0.72403154  0.70091929  1
  H  H12  1  0.50356248  0.57709006  0.22353028  1
  H  H13  1  0.49643752  0.07709006  0.27646972  1
  H  H14  1  0.49643752  0.42290994  0.77646972  1
  H  H15  1  0.50356248  0.92290994  0.72353028  1
  H  H16  1  0.39084312  0.26626262  0.11462136  1
  H  H17  1  0.60915688  0.76626262  0.38537864  1
  H  H18  1  0.60915688  0.73373738  0.88537864  1
  H  H19  1  0.39084312  0.23373738  0.61462136  1
  H  H20  1  0.15039519  0.32193300  0.13264831  1
  H  H21  1  0.84960481  0.82193300  0.36735169  1
  H  H22  1  0.84960481  0.67806700  0.86735169  1
  H  H23  1  0.15039519  0.17806700  0.63264831  1
  H  H24  1  0.28573365  0.03998309  0.17147550  1
  H  H25  1  0.71426635  0.53998309  0.32852450  1
  H  H26  1  0.71426635  0.96001691  0.82852450  1
  H  H27  1  0.28573365  0.46001691  0.67147550  1
  H  H28  1  0.20105146  0.29875829  0.02937305  1
  H  H29  1  0.79894854  0.79875829  0.47062695  1
  H  H30  1  0.79894854  0.70124171  0.97062695  1
  H  H31  1  0.20105146  0.20124171  0.52937305  1
  H  H32  1  0.87665214  0.91430705  0.21678340  1
  H  H33  1  0.12334786  0.41430705  0.28321660  1
  H  H34  1  0.12334786  0.08569295  0.78321660  1
  H  H35  1  0.87665214  0.58569295  0.71678340  1
  H  H36  1  0.11815123  0.96139055  0.25708678  1
  H  H37  1  0.88184877  0.46139055  0.24291322  1
  H  H38  1  0.88184877  0.03860945  0.74291322  1
  H  H39  1  0.11815123  0.53860945  0.75708678  1
  S  S40  1  0.20730848  0.89927480  0.97634120  1
  S  S41  1  0.79269152  0.39927480  0.52365880  1
  S  S42  1  0.79269152  0.10072520  0.02365880  1
  S  S43  1  0.20730848  0.60072520  0.47634120  1
  N  N44  1  0.36542431  0.64863641  0.18478944  1
  N  N45  1  0.63457569  0.14863641  0.31521056  1
  N  N46  1  0.63457569  0.35136359  0.81521056  1
  N  N47  1  0.36542431  0.85136359  0.68478944  1
  N  N48  1  0.22977139  0.25255433  0.09250148  1
  N  N49  1  0.77022861  0.75255433  0.40749852  1
  N  N50  1  0.77022861  0.74744567  0.90749852  1
  N  N51  1  0.22977139  0.24744567  0.59250148  1
  O  O52  1  0.30814857  0.76088239  0.47664228  1
  O  O53  1  0.69185143  0.26088239  0.02335772  1
  O  O54  1  0.69185143  0.23911761  0.52335772  1
  O  O55  1  0.30814857  0.73911761  0.97664228  1
  O  O56  1  0.96439688  0.94826453  0.27301826  1
  O  O57  1  0.03560312  0.44826453  0.22698174  1
  O  O58  1  0.03560312  0.05173547  0.72698174  1
  O  O59  1  0.96439688  0.55173547  0.77301826  1
  O  O60  1  0.32805625  0.97277350  0.22490683  1
  O  O61  1  0.67194375  0.47277350  0.27509317  1
  O  O62  1  0.67194375  0.02722650  0.77509317  1
  O  O63  1  0.32805625  0.52722650  0.72490683  1
  O  O64  1  0.72602002  0.97728515  0.08122933  1
  O  O65  1  0.27397998  0.47728515  0.41877067  1
  O  O66  1  0.27397998  0.02271485  0.91877067  1
  O  O67  1  0.72602002  0.52271485  0.58122933  1
