# generated using pymatgen
data_Mn(HO)2
_symmetry_space_group_name_H-M   'P 1'
_cell_length_a   3.36648474
_cell_length_b   3.34844525
_cell_length_c   4.74757763
_cell_angle_alpha   90.00000000
_cell_angle_beta   94.74864904
_cell_angle_gamma   119.82289875
_symmetry_Int_Tables_number   1
_chemical_formula_structural   Mn(HO)2
_chemical_formula_sum   'Mn1 H2 O2'
_cell_volume   46.21772721
_cell_formula_units_Z   1
loop_
 _symmetry_equiv_pos_site_id
 _symmetry_equiv_pos_as_xyz
  1  'x, y, z'
loop_
 _atom_site_type_symbol
 _atom_site_label
 _atom_site_symmetry_multiplicity
 _atom_site_fract_x
 _atom_site_fract_y
 _atom_site_fract_z
 _atom_site_occupancy
  Mn  Mn0  1  0.00000000  0.02952047  1.00000000  1
  H  H1  1  0.58961656  0.42090278  0.57261774  1
  H  H2  1  0.41038344  0.83128622  0.42738226  1
  O  O3  1  0.61696419  0.33618586  0.76769373  1
  O  O4  1  0.38303581  0.71922166  0.23230627  1
