# generated using pymatgen
data_Eu2Ge2Se5
_symmetry_space_group_name_H-M   'P 1'
_cell_length_a   8.51483897
_cell_length_b   9.20849560
_cell_length_c   12.33542766
_cell_angle_alpha   90.00000000
_cell_angle_beta   90.00000000
_cell_angle_gamma   94.43800631
_symmetry_Int_Tables_number   1
_chemical_formula_structural   Eu2Ge2Se5
_chemical_formula_sum   'Eu8 Ge8 Se20'
_cell_volume   964.30675361
_cell_formula_units_Z   4
loop_
 _symmetry_equiv_pos_site_id
 _symmetry_equiv_pos_as_xyz
  1  'x, y, z'
loop_
 _atom_site_type_symbol
 _atom_site_label
 _atom_site_symmetry_multiplicity
 _atom_site_fract_x
 _atom_site_fract_y
 _atom_site_fract_z
 _atom_site_occupancy
  Eu  Eu0  1  0.45663468  0.47085541  0.66234699  1
  Eu  Eu1  1  0.04336532  0.02914459  0.16234699  1
  Eu  Eu2  1  0.94319386  0.47903819  0.80399097  1
  Eu  Eu3  1  0.54336532  0.52914459  0.33765301  1
  Eu  Eu4  1  0.55680614  0.02096181  0.30399097  1
  Eu  Eu5  1  0.95663468  0.97085541  0.83765301  1
  Eu  Eu6  1  0.05680614  0.52096181  0.19600903  1
  Eu  Eu7  1  0.44319386  0.97903819  0.69600903  1
  Ge  Ge8  1  0.20056656  0.68612679  0.51956150  1
  Ge  Ge9  1  0.99021578  0.83459724  0.44983578  1
  Ge  Ge10  1  0.79943344  0.31387321  0.48043850  1
  Ge  Ge11  1  0.29943344  0.81387321  0.01956150  1
  Ge  Ge12  1  0.49021578  0.33459724  0.05016422  1
  Ge  Ge13  1  0.00978422  0.16540276  0.55016422  1
  Ge  Ge14  1  0.50978422  0.66540276  0.94983578  1
  Ge  Ge15  1  0.70056656  0.18612679  0.98043850  1
  Se  Se16  1  0.53094220  0.21485968  0.50695451  1
  Se  Se17  1  0.33916872  0.44080114  0.90552277  1
  Se  Se18  1  0.03094220  0.71485968  0.99304549  1
  Se  Se19  1  0.66245529  0.72280378  0.79010421  1
  Se  Se20  1  0.20742293  0.45265092  0.43943082  1
  Se  Se21  1  0.18952124  0.70670016  0.71647224  1
  Se  Se22  1  0.83754471  0.77719622  0.29010421  1
  Se  Se23  1  0.70742293  0.95265092  0.06056918  1
  Se  Se24  1  0.29257707  0.04734908  0.93943082  1
  Se  Se25  1  0.83916872  0.94080114  0.59447723  1
  Se  Se26  1  0.33754471  0.27719622  0.20989579  1
  Se  Se27  1  0.81047876  0.29329984  0.28352776  1
  Se  Se28  1  0.68952124  0.20670016  0.78352776  1
  Se  Se29  1  0.16245529  0.22280378  0.70989579  1
  Se  Se30  1  0.66083128  0.55919886  0.09447723  1
  Se  Se31  1  0.31047876  0.79329984  0.21647224  1
  Se  Se32  1  0.96905780  0.28514032  0.00695451  1
  Se  Se33  1  0.79257707  0.54734908  0.56056918  1
  Se  Se34  1  0.46905780  0.78514032  0.49304549  1
  Se  Se35  1  0.16083128  0.05919886  0.40552277  1
