# generated using pymatgen
data_Tl2V8O21
_symmetry_space_group_name_H-M   'P 1'
_cell_length_a   3.62872486
_cell_length_b   7.98061676
_cell_length_c   15.28381719
_cell_angle_alpha   89.91738264
_cell_angle_beta   90.00000000
_cell_angle_gamma   103.14087821
_symmetry_Int_Tables_number   1
_chemical_formula_structural   Tl2V8O21
_chemical_formula_sum   'Tl2 V8 O21'
_cell_volume   431.02044754
_cell_formula_units_Z   1
loop_
 _symmetry_equiv_pos_site_id
 _symmetry_equiv_pos_as_xyz
  1  'x, y, z'
loop_
 _atom_site_type_symbol
 _atom_site_label
 _atom_site_symmetry_multiplicity
 _atom_site_fract_x
 _atom_site_fract_y
 _atom_site_fract_z
 _atom_site_occupancy
  Tl  Tl0  1  0.52603301  0.05206602  0.68750284  1
  Tl  Tl1  1  0.47396699  0.94793398  0.31249716  1
  V  V2  1  0.82869772  0.65739545  0.52510347  1
  V  V3  1  0.90733182  0.81466364  0.92811908  1
  V  V4  1  0.68851735  0.37703469  0.92894427  1
  V  V5  1  0.80794611  0.61589222  0.73365215  1
  V  V6  1  0.09266818  0.18533636  0.07188092  1
  V  V7  1  0.19205389  0.38410778  0.26634785  1
  V  V8  1  0.17130228  0.34260455  0.47489653  1
  V  V9  1  0.31148265  0.62296531  0.07105573  1
  O  O10  1  0.09487610  0.18975221  0.54858174  1
  O  O11  1  0.66642545  0.33285089  0.25679150  1
  O  O12  1  0.80587977  0.61175954  0.03338682  1
  O  O13  1  0.61281776  0.22563552  0.85626849  1
  O  O14  1  0.33357455  0.66714911  0.74320850  1
  O  O15  1  0.61835159  0.23670317  0.04529023  1
  O  O16  1  0.19412023  0.38824046  0.96661318  1
  O  O17  1  0.28800252  0.57600505  0.30890176  1
  O  O18  1  0.28947171  0.57894341  0.52901735  1
  O  O19  1  0.88050767  0.76101534  0.62825311  1
  O  O20  1  0.90512390  0.81024779  0.45141826  1
  O  O21  1  0.00000000  0.00000000  0.00000000  1
  O  O22  1  0.78538254  0.57076508  0.86179798  1
  O  O23  1  0.38164841  0.76329683  0.95470977  1
  O  O24  1  0.04995518  0.09991035  0.17049257  1
  O  O25  1  0.11949233  0.23898466  0.37174689  1
  O  O26  1  0.71052829  0.42105659  0.47098265  1
  O  O27  1  0.21461746  0.42923492  0.13820202  1
  O  O28  1  0.38718224  0.77436448  0.14373151  1
  O  O29  1  0.95004482  0.90008965  0.82950743  1
  O  O30  1  0.71199748  0.42399495  0.69109824  1
