# generated using pymatgen
data_H4SO5
_symmetry_space_group_name_H-M   'P 1'
_cell_length_a   8.20916717
_cell_length_b   7.16268448
_cell_length_c   7.29362340
_cell_angle_alpha   81.00041820
_cell_angle_beta   96.87616533
_cell_angle_gamma   92.19814059
_symmetry_Int_Tables_number   1
_chemical_formula_structural   H4SO5
_chemical_formula_sum   'H16 S4 O20'
_cell_volume   420.45217381
_cell_formula_units_Z   4
loop_
 _symmetry_equiv_pos_site_id
 _symmetry_equiv_pos_as_xyz
  1  'x, y, z'
loop_
 _atom_site_type_symbol
 _atom_site_label
 _atom_site_symmetry_multiplicity
 _atom_site_fract_x
 _atom_site_fract_y
 _atom_site_fract_z
 _atom_site_occupancy
  H  H0  1  0.42096448  0.14599631  0.12581097  1
  H  H1  1  0.11493583  0.69814823  0.62164464  1
  H  H2  1  0.49116918  0.94833582  0.51320422  1
  H  H3  1  0.90366253  0.28307754  0.38403971  1
  H  H4  1  0.91121624  0.30660604  0.90407031  1
  H  H5  1  0.72997487  0.37940334  0.77421140  1
  H  H6  1  0.80812848  0.16436265  0.75802359  1
  H  H7  1  0.79098975  0.85484505  0.25952120  1
  H  H8  1  0.72113725  0.62056380  0.29141147  1
  H  H9  1  0.62737950  0.77911056  0.38207904  1
  H  H10  1  0.18676075  0.82454268  0.22889664  1
  H  H11  1  0.08091163  0.68815999  0.07829336  1
  H  H12  1  0.26091560  0.61176511  0.21770221  1
  H  H13  1  0.22215603  0.13770678  0.74446469  1
  H  H14  1  0.29086248  0.37538205  0.70622490  1
  H  H15  1  0.39324829  0.20876943  0.63891596  1
  S  S16  1  0.54329138  0.31261001  0.32085193  1
  S  S17  1  0.97049181  0.85621177  0.76768099  1
  S  S18  1  0.45609399  0.68229911  0.70600658  1
  S  S19  1  0.03849844  0.14231192  0.21527731  1
  O  O20  1  0.53538382  0.18840750  0.15712506  1
  O  O21  1  0.95682443  0.69851157  0.92283293  1
  O  O22  1  0.46324900  0.81145759  0.83913572  1
  O  O23  1  0.04250661  0.30376565  0.06340182  1
  O  O24  1  0.52091628  0.17998776  0.49435803  1
  O  O25  1  0.00561671  0.76491776  0.59300723  1
  O  O26  1  0.48028258  0.80958553  0.50314670  1
  O  O27  1  0.01506337  0.22590327  0.39930568  1
  O  O28  1  0.41969374  0.45599907  0.27458344  1
  O  O29  1  0.10869683  0.98203733  0.81722575  1
  O  O30  1  0.58072727  0.53921612  0.73005010  1
  O  O31  1  0.89939343  0.01437330  0.17591751  1
  O  O32  1  0.71291918  0.39031496  0.32640714  1
  O  O33  1  0.81635924  0.95484984  0.70296651  1
  O  O34  1  0.28944348  0.59205554  0.66931086  1
  O  O35  1  0.19682784  0.04689336  0.26273183  1
  O  O36  1  0.82927582  0.30014893  0.78342205  1
  O  O37  1  0.69611750  0.75917864  0.28062778  1
  O  O38  1  0.16140473  0.69000283  0.20518052  1
  O  O39  1  0.31883560  0.23368922  0.73280020  1
