# generated using pymatgen
data_Mo2P2O11
_symmetry_space_group_name_H-M   'P 1'
_cell_length_a   6.39413981
_cell_length_b   10.67116716
_cell_length_c   12.78104074
_cell_angle_alpha   90.00000000
_cell_angle_beta   90.00000000
_cell_angle_gamma   90.00000000
_symmetry_Int_Tables_number   1
_chemical_formula_structural   Mo2P2O11
_chemical_formula_sum   'Mo8 P8 O44'
_cell_volume   872.08791894
_cell_formula_units_Z   4
loop_
 _symmetry_equiv_pos_site_id
 _symmetry_equiv_pos_as_xyz
  1  'x, y, z'
loop_
 _atom_site_type_symbol
 _atom_site_label
 _atom_site_symmetry_multiplicity
 _atom_site_fract_x
 _atom_site_fract_y
 _atom_site_fract_z
 _atom_site_occupancy
  Mo  Mo0  1  0.75000000  0.51175281  0.25037388  1
  Mo  Mo1  1  0.75000000  0.78128396  0.00612074  1
  Mo  Mo2  1  0.25000000  0.48824719  0.74962612  1
  Mo  Mo3  1  0.25000000  0.01175281  0.24962612  1
  Mo  Mo4  1  0.25000000  0.28128396  0.49387926  1
  Mo  Mo5  1  0.75000000  0.98824719  0.75037388  1
  Mo  Mo6  1  0.25000000  0.21871604  0.99387926  1
  Mo  Mo7  1  0.75000000  0.71871604  0.50612074  1
  P  P8  1  0.25000000  0.68939023  0.97687769  1
  P  P9  1  0.25000000  0.81060977  0.47687769  1
  P  P10  1  0.25000000  0.50463033  0.15819565  1
  P  P11  1  0.75000000  0.18939023  0.52312231  1
  P  P12  1  0.75000000  0.49536967  0.84180435  1
  P  P13  1  0.25000000  0.99536967  0.65819565  1
  P  P14  1  0.75000000  0.31060977  0.02312231  1
  P  P15  1  0.75000000  0.00463033  0.34180435  1
  O  O16  1  0.75000000  0.13064645  0.40882694  1
  O  O17  1  0.75000000  0.41467920  0.10319600  1
  O  O18  1  0.25000000  0.91467920  0.39680400  1
  O  O19  1  0.55655972  0.22558531  0.02675366  1
  O  O20  1  0.25000000  0.36534368  0.65723888  1
  O  O21  1  0.44335646  0.98100234  0.72850300  1
  O  O22  1  0.44344028  0.72558531  0.47324634  1
  O  O23  1  0.25000000  0.31382745  0.88164103  1
  O  O24  1  0.05655972  0.72558531  0.47324634  1
  O  O25  1  0.55655972  0.27441469  0.52675366  1
  O  O26  1  0.94335646  0.01899766  0.27149700  1
  O  O27  1  0.25000000  0.18617255  0.38164103  1
  O  O28  1  0.25000000  0.39144444  0.09026308  1
  O  O29  1  0.55664354  0.01899766  0.27149700  1
  O  O30  1  0.75000000  0.57035992  0.55576624  1
  O  O31  1  0.25000000  0.10855556  0.59026308  1
  O  O32  1  0.25000000  0.61780330  0.67273597  1
  O  O33  1  0.25000000  0.42964008  0.44423376  1
  O  O34  1  0.75000000  0.86534368  0.84276112  1
  O  O35  1  0.94335646  0.48100234  0.77149700  1
  O  O36  1  0.05655972  0.77441469  0.97324634  1
  O  O37  1  0.44344028  0.77441469  0.97324634  1
  O  O38  1  0.44335646  0.51899766  0.22850300  1
  O  O39  1  0.25000000  0.58532080  0.89680400  1
  O  O40  1  0.75000000  0.60855556  0.90973692  1
  O  O41  1  0.75000000  0.08532080  0.60319600  1
  O  O42  1  0.25000000  0.13465632  0.15723888  1
  O  O43  1  0.55664354  0.48100234  0.77149700  1
  O  O44  1  0.05664354  0.98100234  0.72850300  1
  O  O45  1  0.25000000  0.63064645  0.09117306  1
  O  O46  1  0.75000000  0.63465632  0.34276112  1
  O  O47  1  0.75000000  0.81382745  0.61835897  1
  O  O48  1  0.75000000  0.89144444  0.40973692  1
  O  O49  1  0.94344028  0.27441469  0.52675366  1
  O  O50  1  0.75000000  0.38219670  0.32726403  1
  O  O51  1  0.94344028  0.22558531  0.02675366  1
  O  O52  1  0.05664354  0.51899766  0.22850300  1
  O  O53  1  0.75000000  0.11780330  0.82726403  1
  O  O54  1  0.25000000  0.88219670  0.17273597  1
  O  O55  1  0.75000000  0.68617255  0.11835897  1
  O  O56  1  0.75000000  0.92964008  0.05576624  1
  O  O57  1  0.75000000  0.36935355  0.90882694  1
  O  O58  1  0.25000000  0.86935355  0.59117306  1
  O  O59  1  0.25000000  0.07035992  0.94423376  1
