# generated using pymatgen
data_Mn3Cu3O8
_symmetry_space_group_name_H-M   'P 1'
_cell_length_a   8.43833709
_cell_length_b   8.43833709
_cell_length_c   8.43833709
_cell_angle_alpha   90.00000000
_cell_angle_beta   90.00000000
_cell_angle_gamma   90.00000000
_symmetry_Int_Tables_number   1
_chemical_formula_structural   Mn3Cu3O8
_chemical_formula_sum   'Mn12 Cu12 O32'
_cell_volume   600.85628881
_cell_formula_units_Z   4
loop_
 _symmetry_equiv_pos_site_id
 _symmetry_equiv_pos_as_xyz
  1  'x, y, z'
loop_
 _atom_site_type_symbol
 _atom_site_label
 _atom_site_symmetry_multiplicity
 _atom_site_fract_x
 _atom_site_fract_y
 _atom_site_fract_z
 _atom_site_occupancy
  O  O0  1  0.86336444  0.86336444  0.86336444  1
  O  O1  1  0.61336444  0.88663556  0.11336444  1
  O  O2  1  0.88663556  0.11336444  0.61336444  1
  O  O3  1  0.11336444  0.61336444  0.88663556  1
  O  O4  1  0.36336444  0.63663556  0.13663556  1
  O  O5  1  0.63663556  0.13663556  0.36336444  1
  O  O6  1  0.13663556  0.36336444  0.63663556  1
  O  O7  1  0.38663556  0.38663556  0.38663556  1
  O  O8  1  0.10979395  0.12079581  0.38926249  1
  O  O9  1  0.60979395  0.37920419  0.61073751  1
  O  O10  1  0.12079581  0.38926249  0.10979395  1
  O  O11  1  0.87920419  0.88926249  0.39020605  1
  O  O12  1  0.38926249  0.10979395  0.12079581  1
  O  O13  1  0.11073751  0.89020605  0.62079581  1
  O  O14  1  0.35979395  0.13926249  0.62920419  1
  O  O15  1  0.85979395  0.36073751  0.37079581  1
  O  O16  1  0.64020605  0.63926249  0.87079581  1
  O  O17  1  0.36073751  0.37079581  0.85979395  1
  O  O18  1  0.87079581  0.64020605  0.63926249  1
  O  O19  1  0.37079581  0.85979395  0.36073751  1
  O  O20  1  0.13926249  0.62920419  0.35979395  1
  O  O21  1  0.62920419  0.35979395  0.13926249  1
  O  O22  1  0.63926249  0.87079581  0.64020605  1
  O  O23  1  0.86073751  0.12920419  0.14020605  1
  O  O24  1  0.14020605  0.86073751  0.12920419  1
  O  O25  1  0.89020605  0.62079581  0.11073751  1
  O  O26  1  0.39020605  0.87920419  0.88926249  1
  O  O27  1  0.37920419  0.61073751  0.60979395  1
  O  O28  1  0.62079581  0.11073751  0.89020605  1
  O  O29  1  0.88926249  0.39020605  0.87920419  1
  O  O30  1  0.61073751  0.60979395  0.37920419  1
  O  O31  1  0.12920419  0.14020605  0.86073751  1
  Mn  Mn32  1  0.62500000  0.12515898  0.12484102  1
  Mn  Mn33  1  0.62484102  0.87500000  0.87484102  1
  Mn  Mn34  1  0.62515898  0.37515898  0.37500000  1
  Mn  Mn35  1  0.37484102  0.87515898  0.12500000  1
  Mn  Mn36  1  0.87515898  0.12500000  0.37484102  1
  Mn  Mn37  1  0.12484102  0.62500000  0.12515898  1
  Mn  Mn38  1  0.37515898  0.37500000  0.62515898  1
  Mn  Mn39  1  0.87484102  0.62484102  0.87500000  1
  Mn  Mn40  1  0.12515898  0.12484102  0.62500000  1
  Mn  Mn41  1  0.37500000  0.62515898  0.37515898  1
  Mn  Mn42  1  0.87500000  0.87484102  0.62484102  1
  Mn  Mn43  1  0.12500000  0.37484102  0.87515898  1
  Cu  Cu44  1  0.12500000  0.87500000  0.37500000  1
  Cu  Cu45  1  0.87500000  0.37500000  0.12500000  1
  Cu  Cu46  1  0.37500000  0.12500000  0.87500000  1
  Cu  Cu47  1  0.62500000  0.62500000  0.62500000  1
  Cu  Cu48  1  0.24796452  0.24796452  0.24796452  1
  Cu  Cu49  1  0.99796452  0.50203548  0.49796452  1
  Cu  Cu50  1  0.50203548  0.49796452  0.99796452  1
  Cu  Cu51  1  0.49796452  0.99796452  0.50203548  1
  Cu  Cu52  1  0.74796452  0.25203548  0.75203548  1
  Cu  Cu53  1  0.25203548  0.75203548  0.74796452  1
  Cu  Cu54  1  0.75203548  0.74796452  0.25203548  1
  Cu  Cu55  1  0.00203548  0.00203548  0.00203548  1
