# generated using pymatgen
data_CoH12(BrO7)2
_symmetry_space_group_name_H-M   'P 1'
_cell_length_a   7.95926012
_cell_length_b   7.96245366
_cell_length_c   5.87332025
_cell_angle_alpha   90.00000003
_cell_angle_beta   89.97775565
_cell_angle_gamma   120.01327402
_symmetry_Int_Tables_number   1
_chemical_formula_structural   CoH12(BrO7)2
_chemical_formula_sum   'Co1 H12 Br2 O14'
_cell_volume   322.31148429
_cell_formula_units_Z   1
loop_
 _symmetry_equiv_pos_site_id
 _symmetry_equiv_pos_as_xyz
  1  'x, y, z'
loop_
 _atom_site_type_symbol
 _atom_site_label
 _atom_site_symmetry_multiplicity
 _atom_site_fract_x
 _atom_site_fract_y
 _atom_site_fract_z
 _atom_site_occupancy
  Co  Co0  1  0.00000000  0.00000000  0.00000000  1
  H  H1  1  0.33125594  0.26504806  0.78139227  1
  H  H2  1  0.93390726  0.66875171  0.78142213  1
  H  H3  1  0.73517112  0.06620919  0.78148529  1
  H  H4  1  0.33125594  0.06620787  0.78139227  1
  H  H5  1  0.73517112  0.66896193  0.78148529  1
  H  H6  1  0.93390726  0.26515555  0.78142213  1
  H  H7  1  0.66874406  0.73495194  0.21860773  1
  H  H8  1  0.06609274  0.33124829  0.21857787  1
  H  H9  1  0.26482888  0.93379081  0.21851471  1
  H  H10  1  0.66874406  0.93379213  0.21860773  1
  H  H11  1  0.26482888  0.33103807  0.21851471  1
  H  H12  1  0.06609274  0.73484445  0.21857787  1
  Br  Br13  1  0.66675515  0.33337757  0.32331375  1
  Br  Br14  1  0.33324485  0.66662243  0.67668625  1
  O  O15  1  0.66659012  0.33329506  0.60312862  1
  O  O16  1  0.33340988  0.66670494  0.39687138  1
  O  O17  1  0.55398804  0.10805925  0.22447769  1
  O  O18  1  0.55398804  0.44592879  0.22447769  1
  O  O19  1  0.89183919  0.44591959  0.22444562  1
  O  O20  1  0.44601196  0.89194075  0.77552231  1
  O  O21  1  0.44601196  0.55407121  0.77552231  1
  O  O22  1  0.10816081  0.55408041  0.77555438  1
  O  O23  1  0.24786105  0.12393052  0.79172348  1
  O  O24  1  0.87584479  0.75224308  0.79162145  1
  O  O25  1  0.87584479  0.12360170  0.79162145  1
  O  O26  1  0.75213895  0.87606948  0.20827652  1
  O  O27  1  0.12415521  0.24775692  0.20837855  1
  O  O28  1  0.12415521  0.87639830  0.20837855  1
