# generated using pymatgen
data_P4Se3I2
_symmetry_space_group_name_H-M   'P 1'
_cell_length_a   7.23927616
_cell_length_b   10.51602070
_cell_length_c   16.71371364
_cell_angle_alpha   90.00000000
_cell_angle_beta   90.00000000
_cell_angle_gamma   90.00000000
_symmetry_Int_Tables_number   1
_chemical_formula_structural   P4Se3I2
_chemical_formula_sum   'P16 Se12 I8'
_cell_volume   1272.38790896
_cell_formula_units_Z   4
loop_
 _symmetry_equiv_pos_site_id
 _symmetry_equiv_pos_as_xyz
  1  'x, y, z'
loop_
 _atom_site_type_symbol
 _atom_site_label
 _atom_site_symmetry_multiplicity
 _atom_site_fract_x
 _atom_site_fract_y
 _atom_site_fract_z
 _atom_site_occupancy
  P  P0  1  0.94986510  0.02579378  0.64928681  1
  P  P1  1  0.44986510  0.47420622  0.14928681  1
  P  P2  1  0.55013490  0.52579378  0.85071319  1
  P  P3  1  0.18104842  0.86780166  0.25000000  1
  P  P4  1  0.05013490  0.97420622  0.14928681  1
  P  P5  1  0.74644084  0.75537350  0.25000000  1
  P  P6  1  0.25355916  0.24462650  0.75000000  1
  P  P7  1  0.31895158  0.36780166  0.25000000  1
  P  P8  1  0.44986510  0.47420622  0.35071319  1
  P  P9  1  0.75355916  0.25537350  0.25000000  1
  P  P10  1  0.81895158  0.13219834  0.75000000  1
  P  P11  1  0.05013490  0.97420622  0.35071319  1
  P  P12  1  0.55013490  0.52579378  0.64928681  1
  P  P13  1  0.24644084  0.74462650  0.75000000  1
  P  P14  1  0.94986510  0.02579378  0.85071319  1
  P  P15  1  0.68104842  0.63219834  0.75000000  1
  Se  Se16  1  0.25668924  0.60946323  0.85746061  1
  Se  Se17  1  0.74331076  0.39053677  0.35746061  1
  Se  Se18  1  0.53638364  0.82396289  0.75000000  1
  Se  Se19  1  0.46361636  0.17603711  0.25000000  1
  Se  Se20  1  0.24331076  0.10946323  0.85746061  1
  Se  Se21  1  0.96361636  0.32396289  0.75000000  1
  Se  Se22  1  0.75668924  0.89053677  0.14253939  1
  Se  Se23  1  0.25668924  0.60946323  0.64253939  1
  Se  Se24  1  0.24331076  0.10946323  0.64253939  1
  Se  Se25  1  0.03638364  0.67603711  0.25000000  1
  Se  Se26  1  0.74331076  0.39053677  0.14253939  1
  Se  Se27  1  0.75668924  0.89053677  0.35746061  1
  I  I28  1  0.28167631  0.35582745  0.45795611  1
  I  I29  1  0.78167631  0.14417255  0.54204389  1
  I  I30  1  0.71832369  0.64417255  0.95795611  1
  I  I31  1  0.28167631  0.35582745  0.04204389  1
  I  I32  1  0.21832369  0.85582745  0.04204389  1
  I  I33  1  0.78167631  0.14417255  0.95795611  1
  I  I34  1  0.71832369  0.64417255  0.54204389  1
  I  I35  1  0.21832369  0.85582745  0.45795611  1
