# generated using pymatgen
data_UAg3(AsO4)3
_symmetry_space_group_name_H-M   'P 1'
_cell_length_a   9.09617054
_cell_length_b   9.34947720
_cell_length_c   27.97557365
_cell_angle_alpha   90.00000000
_cell_angle_beta   90.00000000
_cell_angle_gamma   104.99154087
_symmetry_Int_Tables_number   1
_chemical_formula_structural   UAg3(AsO4)3
_chemical_formula_sum   'U8 Ag24 As24 O96'
_cell_volume   2298.18970958
_cell_formula_units_Z   8
loop_
 _symmetry_equiv_pos_site_id
 _symmetry_equiv_pos_as_xyz
  1  'x, y, z'
loop_
 _atom_site_type_symbol
 _atom_site_label
 _atom_site_symmetry_multiplicity
 _atom_site_fract_x
 _atom_site_fract_y
 _atom_site_fract_z
 _atom_site_occupancy
  U  U0  1  0.61110651  0.85880848  0.85731805  1
  U  U1  1  0.10618358  0.32926969  0.86257932  1
  U  U2  1  0.11110651  0.35880848  0.64268195  1
  U  U3  1  0.60618358  0.82926969  0.63742068  1
  U  U4  1  0.88889349  0.64119152  0.35731805  1
  U  U5  1  0.39381642  0.17073031  0.36257932  1
  U  U6  1  0.38889349  0.14119152  0.14268195  1
  U  U7  1  0.89381642  0.67073031  0.13742068  1
  Ag  Ag8  1  0.09315065  0.78513108  0.68663885  1
  Ag  Ag9  1  0.90684935  0.21486892  0.31336115  1
  Ag  Ag10  1  0.36029448  0.58893779  0.75577377  1
  Ag  Ag11  1  0.40684935  0.71486892  0.18663885  1
  Ag  Ag12  1  0.03182544  0.02548901  0.43535309  1
  Ag  Ag13  1  0.70619835  0.21654651  0.94007175  1
  Ag  Ag14  1  0.96817456  0.97451099  0.56464691  1
  Ag  Ag15  1  0.27996993  0.80224958  0.42756816  1
  Ag  Ag16  1  0.13970552  0.91106221  0.25577377  1
  Ag  Ag17  1  0.22003007  0.69775042  0.92756816  1
  Ag  Ag18  1  0.63970552  0.41106221  0.24422623  1
  Ag  Ag19  1  0.41851800  0.66380827  0.31345825  1
  Ag  Ag20  1  0.79380165  0.28345349  0.44007175  1
  Ag  Ag21  1  0.46817456  0.47451099  0.93535309  1
  Ag  Ag22  1  0.20619835  0.71654651  0.55992825  1
  Ag  Ag23  1  0.86029448  0.08893779  0.74422623  1
  Ag  Ag24  1  0.29380165  0.78345349  0.05992825  1
  Ag  Ag25  1  0.08148200  0.83619173  0.81345825  1
  Ag  Ag26  1  0.91851800  0.16380827  0.18654175  1
  Ag  Ag27  1  0.59315065  0.28513108  0.81336115  1
  Ag  Ag28  1  0.53182544  0.52548901  0.06464691  1
  Ag  Ag29  1  0.72003007  0.19775042  0.57243184  1
  Ag  Ag30  1  0.58148200  0.33619173  0.68654175  1
  Ag  Ag31  1  0.77996993  0.30224958  0.07243184  1
  As  As32  1  0.59372437  0.83657520  0.50631126  1
  As  As33  1  0.90627563  0.66342480  0.00631126  1
  As  As34  1  0.75611091  0.80690756  0.24839098  1
  As  As35  1  0.74388909  0.69309244  0.74839098  1
  As  As36  1  0.81967808  0.56404514  0.89321320  1
  As  As37  1  0.66526223  0.84810695  0.98979289  1
  As  As38  1  0.24388909  0.19309244  0.75160902  1
  As  As39  1  0.31967808  0.06404514  0.60678680  1
  As  As40  1  0.04305344  0.52997482  0.24692538  1
  As  As41  1  0.83099688  0.55769758  0.59852927  1
  As  As42  1  0.33099688  0.05769758  0.90147073  1
  As  As43  1  0.18032192  0.43595486  0.10678680  1
  As  As44  1  0.54305344  0.02997482  0.25307462  1
  As  As45  1  0.25611091  0.30690756  0.25160902  1
  As  As46  1  0.66900312  0.94230242  0.09852927  1
  As  As47  1  0.16526223  0.34810695  0.51020711  1
  As  As48  1  0.09372437  0.33657520  0.99368874  1
  As  As49  1  0.83473777  0.65189305  0.48979289  1
  As  As50  1  0.45694656  0.97002518  0.74692538  1
  As  As51  1  0.33473777  0.15189305  0.01020711  1
  As  As52  1  0.95694656  0.47002518  0.75307462  1
  As  As53  1  0.68032192  0.93595486  0.39321320  1
  As  As54  1  0.40627563  0.16342480  0.49368874  1
  As  As55  1  0.16900312  0.44230242  0.40147073  1
  O  O56  1  0.57817167  0.11279413  0.19836568  1
  O  O57  1  0.74208423  0.50050154  0.32776943  1
  O  O58  1  0.45229604  0.69523017  0.60830046  1
  O  O59  1  0.20276451  0.27174434  0.39756120  1
  O  O60  1  0.53910238  0.28469021  0.11286899  1
  O  O61  1  0.09280967  0.16711850  0.25141184  1
  O  O62  1  0.17791083  0.42938307  0.94404481  1
  O  O63  1  0.50787960  0.96185077  0.37782815  1
  O  O64  1  0.18259433  0.44442280  0.56201296  1
  O  O65  1  0.80895533  0.09239384  0.11441909  1
  O  O66  1  0.16563804  0.91673364  0.61649652  1
  O  O67  1  0.64479052  0.66553349  0.50211366  1
  O  O68  1  0.35520948  0.33446651  0.49788634  1
  O  O69  1  0.19397737  0.44135664  0.04163922  1
  O  O70  1  0.14479052  0.16553349  0.99788634  1
  O  O71  1  0.76249333  0.97104232  0.66278163  1
  O  O72  1  0.83436196  0.08326636  0.38350348  1
  O  O73  1  0.19104467  0.90760616  0.88558091  1
  O  O74  1  0.03910238  0.78469021  0.38713101  1
  O  O75  1  0.69397737  0.94135664  0.45836078  1
  O  O76  1  0.02753735  0.18868602  0.50488592  1
  O  O77  1  0.31740567  0.05557720  0.06201296  1
  O  O78  1  0.11206637  0.20411337  0.70892167  1
  O  O79  1  0.49212040  0.03814923  0.62217185  1
  O  O80  1  0.79723549  0.72825566  0.60243880  1
  O  O81  1  0.98860338  0.43153605  0.38047435  1
  O  O82  1  0.95229604  0.19523017  0.89169954  1
  O  O83  1  0.90398719  0.29900839  0.99894406  1
  O  O84  1  0.23750667  0.02895768  0.33721837  1
  O  O85  1  0.00787960  0.46185077  0.12217185  1
  O  O86  1  0.34070279  0.34682065  0.30632560  1
  O  O87  1  0.15929721  0.15317935  0.80632560  1
  O  O88  1  0.69104467  0.40760616  0.61441909  1
  O  O89  1  0.73750667  0.52895768  0.16278163  1
  O  O90  1  0.89534052  0.37473322  0.24472880  1
  O  O91  1  0.92182833  0.38720587  0.69836568  1
  O  O92  1  0.61206637  0.70411337  0.79107833  1
  O  O93  1  0.30895533  0.59239384  0.38558091  1
  O  O94  1  0.33436196  0.58326636  0.11649652  1
  O  O95  1  0.01139662  0.56846395  0.61952565  1
  O  O96  1  0.52753735  0.68868602  0.99511408  1
  O  O97  1  0.10465948  0.62526678  0.75527120  1
  O  O98  1  0.59280967  0.66711850  0.24858816  1
  O  O99  1  0.25791577  0.49949846  0.67223057  1
  O  O100  1  0.66563804  0.41673364  0.88350348  1
  O  O101  1  0.99212040  0.53814923  0.87782815  1
  O  O102  1  0.85405205  0.52347299  0.53455806  1
  O  O103  1  0.90719033  0.83288150  0.74858816  1
  O  O104  1  0.09601281  0.70099161  0.00105594  1
  O  O105  1  0.96089762  0.21530979  0.61286899  1
  O  O106  1  0.54854732  0.16107871  0.29643740  1
  O  O107  1  0.48860338  0.93153605  0.11952565  1
  O  O108  1  0.70276451  0.77174434  0.10243880  1
  O  O109  1  0.88793363  0.79588663  0.29107833  1
  O  O110  1  0.69943947  0.76651958  0.37646138  1
  O  O111  1  0.60465948  0.12526678  0.74472880  1
  O  O112  1  0.29723549  0.22825566  0.89756120  1
  O  O113  1  0.85520948  0.83446651  0.00211366  1
  O  O114  1  0.78400683  0.52197833  0.76764292  1
  O  O115  1  0.26249333  0.47104232  0.83721837  1
  O  O116  1  0.32208917  0.07061693  0.44404481  1
  O  O117  1  0.39534052  0.87473322  0.25527120  1
  O  O118  1  0.46089762  0.71530979  0.88713101  1
  O  O119  1  0.65929721  0.65317935  0.69367440  1
  O  O120  1  0.42182833  0.88720587  0.80163432  1
  O  O121  1  0.54770396  0.30476983  0.39169954  1
  O  O122  1  0.71599317  0.97802167  0.26764292  1
  O  O123  1  0.40719033  0.33288150  0.75141184  1
  O  O124  1  0.24208423  0.00050154  0.17223057  1
  O  O125  1  0.51139662  0.06846395  0.88047435  1
  O  O126  1  0.21599317  0.47802167  0.23235708  1
  O  O127  1  0.40398719  0.79900839  0.50105594  1
  O  O128  1  0.81740567  0.55557720  0.43798704  1
  O  O129  1  0.38793363  0.29588663  0.20892167  1
  O  O130  1  0.82208917  0.57061693  0.05595519  1
  O  O131  1  0.80602263  0.55864336  0.95836078  1
  O  O132  1  0.14594795  0.47652701  0.46544194  1
  O  O133  1  0.04770396  0.80476983  0.10830046  1
  O  O134  1  0.64594795  0.97652701  0.03455806  1
  O  O135  1  0.75791577  0.99949846  0.82776943  1
  O  O136  1  0.35405205  0.02347299  0.96544194  1
  O  O137  1  0.30602263  0.05864336  0.54163922  1
  O  O138  1  0.95145268  0.33892129  0.79643740  1
  O  O139  1  0.47246265  0.31131398  0.00488592  1
  O  O140  1  0.45145268  0.83892129  0.70356260  1
  O  O141  1  0.19943947  0.26651958  0.12353862  1
  O  O142  1  0.84070279  0.84682065  0.19367440  1
  O  O143  1  0.30056053  0.23348042  0.62353862  1
  O  O144  1  0.80056053  0.73348042  0.87646138  1
  O  O145  1  0.04854732  0.66107871  0.20356260  1
  O  O146  1  0.97246265  0.81131398  0.49511408  1
  O  O147  1  0.67791083  0.92938307  0.55595519  1
  O  O148  1  0.68259433  0.94442280  0.93798704  1
  O  O149  1  0.59601281  0.20099161  0.49894406  1
  O  O150  1  0.07817167  0.61279413  0.30163432  1
  O  O151  1  0.28400683  0.02197833  0.73235708  1
