# generated using pymatgen
data_MnO2
_symmetry_space_group_name_H-M   'P 1'
_cell_length_a   2.93249456
_cell_length_b   4.66662134
_cell_length_c   6.93761514
_cell_angle_alpha   85.39368220
_cell_angle_beta   102.20132805
_cell_angle_gamma   90.00000000
_symmetry_Int_Tables_number   1
_chemical_formula_structural   MnO2
_chemical_formula_sum   'Mn3 O6'
_cell_volume   92.48179617
_cell_formula_units_Z   3
loop_
 _symmetry_equiv_pos_site_id
 _symmetry_equiv_pos_as_xyz
  1  'x, y, z'
loop_
 _atom_site_type_symbol
 _atom_site_label
 _atom_site_symmetry_multiplicity
 _atom_site_fract_x
 _atom_site_fract_y
 _atom_site_fract_z
 _atom_site_occupancy
  Mn  Mn0  1  0.00000000  0.00000000  0.00000000  1
  Mn  Mn1  1  0.65753303  0.46307764  0.31506606  1
  Mn  Mn2  1  0.34246697  0.53692236  0.68493394  1
  O  O3  1  0.91274888  0.35139370  0.82549775  1
  O  O4  1  0.08725112  0.64860630  0.17450225  1
  O  O5  1  0.57443647  0.14199942  0.14887293  1
  O  O6  1  0.42556353  0.85800058  0.85112707  1
  O  O7  1  0.76482288  0.71276254  0.52964576  1
  O  O8  1  0.23517712  0.28723746  0.47035424  1
