# generated using pymatgen
data_Na2Al2S3(Cl4O3)2
_symmetry_space_group_name_H-M   'P 1'
_cell_length_a   6.44801713
_cell_length_b   10.16800910
_cell_length_c   31.94693209
_cell_angle_alpha   90.00000000
_cell_angle_beta   93.61947126
_cell_angle_gamma   90.00000000
_symmetry_Int_Tables_number   1
_chemical_formula_structural   Na2Al2S3(Cl4O3)2
_chemical_formula_sum   'Na8 Al8 S12 Cl32 O24'
_cell_volume   2090.37464565
_cell_formula_units_Z   4
loop_
 _symmetry_equiv_pos_site_id
 _symmetry_equiv_pos_as_xyz
  1  'x, y, z'
loop_
 _atom_site_type_symbol
 _atom_site_label
 _atom_site_symmetry_multiplicity
 _atom_site_fract_x
 _atom_site_fract_y
 _atom_site_fract_z
 _atom_site_occupancy
  Na  Na0  1  0.20473861  0.15997477  0.05897530  1
  Na  Na1  1  0.70473861  0.34002523  0.55897530  1
  Na  Na2  1  0.11960285  0.51174063  0.79778450  1
  Na  Na3  1  0.88039715  0.48825937  0.20221550  1
  Na  Na4  1  0.38039715  0.01174063  0.70221550  1
  Na  Na5  1  0.61960285  0.98825937  0.29778450  1
  Na  Na6  1  0.29526139  0.65997477  0.44102470  1
  Na  Na7  1  0.79526139  0.84002523  0.94102470  1
  Al  Al8  1  0.89576727  0.28820381  0.69740942  1
  Al  Al9  1  0.39576727  0.21179619  0.19740942  1
  Al  Al10  1  0.85095769  0.72879975  0.53588633  1
  Al  Al11  1  0.60423273  0.78820381  0.80259058  1
  Al  Al12  1  0.14904231  0.27120025  0.46411367  1
  Al  Al13  1  0.10423273  0.71179619  0.30259058  1
  Al  Al14  1  0.64904231  0.22879975  0.96411367  1
  Al  Al15  1  0.35095769  0.77120025  0.03588633  1
  S  S16  1  0.09249482  0.52638847  0.91725068  1
  S  S17  1  0.39814865  0.53746287  0.63378967  1
  S  S18  1  0.62136913  0.32216620  0.81505022  1
  S  S19  1  0.89814865  0.96253713  0.13378967  1
  S  S20  1  0.90750518  0.47361153  0.08274932  1
  S  S21  1  0.40750518  0.02638847  0.58274932  1
  S  S22  1  0.59249482  0.97361153  0.41725068  1
  S  S23  1  0.60185135  0.46253713  0.36621033  1
  S  S24  1  0.12136913  0.17783380  0.31505022  1
  S  S25  1  0.37863087  0.67783380  0.18494978  1
  S  S26  1  0.10185135  0.03746287  0.86621033  1
  S  S27  1  0.87863087  0.82216620  0.68494978  1
  Cl  Cl28  1  0.97220111  0.22985654  0.63529907  1
  Cl  Cl29  1  0.98903592  0.49066687  0.70868628  1
  Cl  Cl30  1  0.43645955  0.72503357  0.29536817  1
  Cl  Cl31  1  0.87746963  0.87824521  0.58409959  1
  Cl  Cl32  1  0.37746963  0.62175479  0.08409959  1
  Cl  Cl33  1  0.02718233  0.81887096  0.02238015  1
  Cl  Cl34  1  0.51075826  0.30584187  0.01897496  1
  Cl  Cl35  1  0.94326672  0.83212826  0.25546017  1
  Cl  Cl36  1  0.50665383  0.94860578  0.05878710  1
  Cl  Cl37  1  0.48924174  0.69415813  0.98102504  1
  Cl  Cl38  1  0.12253037  0.12175479  0.41590041  1
  Cl  Cl39  1  0.44326672  0.66787174  0.75546017  1
  Cl  Cl40  1  0.47281767  0.31887096  0.47761985  1
  Cl  Cl41  1  0.97281767  0.18112904  0.97761985  1
  Cl  Cl42  1  0.02779889  0.77014346  0.36470093  1
  Cl  Cl43  1  0.99334617  0.44860578  0.44121290  1
  Cl  Cl44  1  0.62253037  0.37824521  0.91590041  1
  Cl  Cl45  1  0.05673328  0.16787174  0.74453983  1
  Cl  Cl46  1  0.01096408  0.50933313  0.29131372  1
  Cl  Cl47  1  0.06354045  0.22503357  0.20463183  1
  Cl  Cl48  1  0.52718233  0.68112904  0.52238015  1
  Cl  Cl49  1  0.52779889  0.72985654  0.86470093  1
  Cl  Cl50  1  0.00665383  0.55139422  0.55878710  1
  Cl  Cl51  1  0.47220111  0.27014346  0.13529907  1
  Cl  Cl52  1  0.98924174  0.80584187  0.48102504  1
  Cl  Cl53  1  0.93645955  0.77496643  0.79536817  1
  Cl  Cl54  1  0.01075826  0.19415813  0.51897496  1
  Cl  Cl55  1  0.56354045  0.27496643  0.70463183  1
  Cl  Cl56  1  0.51096408  0.99066687  0.79131372  1
  Cl  Cl57  1  0.49334617  0.05139422  0.94121290  1
  Cl  Cl58  1  0.48903592  0.00933313  0.20868628  1
  Cl  Cl59  1  0.55673328  0.33212826  0.24453983  1
  O  O60  1  0.97886781  0.83081462  0.14080336  1
  O  O61  1  0.38316439  0.00872201  0.62723877  1
  O  O62  1  0.71965797  0.91933439  0.69205092  1
  O  O63  1  0.59289441  0.63360488  0.18901897  1
  O  O64  1  0.40710559  0.36639512  0.81098103  1
  O  O65  1  0.28034203  0.08066561  0.30794908  1
  O  O66  1  0.51485099  0.14368841  0.57031975  1
  O  O67  1  0.61683561  0.99127799  0.37276123  1
  O  O68  1  0.48803944  0.54908310  0.39278142  1
  O  O69  1  0.78034203  0.41933439  0.80794908  1
  O  O70  1  0.48514901  0.85631159  0.42968025  1
  O  O71  1  0.09289441  0.86639512  0.68901897  1
  O  O72  1  0.88316439  0.49127799  0.12723877  1
  O  O73  1  0.01196056  0.04908310  0.10721858  1
  O  O74  1  0.21965797  0.58066561  0.19205092  1
  O  O75  1  0.90710559  0.13360488  0.31098103  1
  O  O76  1  0.47886781  0.66918538  0.64080336  1
  O  O77  1  0.02113219  0.16918538  0.85919664  1
  O  O78  1  0.98803944  0.95091690  0.89278142  1
  O  O79  1  0.98514901  0.64368841  0.92968025  1
  O  O80  1  0.51196056  0.45091690  0.60721858  1
  O  O81  1  0.52113219  0.33081462  0.35919664  1
  O  O82  1  0.11683561  0.50872201  0.87276123  1
  O  O83  1  0.01485099  0.35631159  0.07031975  1
