# generated using pymatgen
data_Rb2Cr3O10
_symmetry_space_group_name_H-M   'P 1'
_cell_length_a   9.48481739
_cell_length_b   11.67183830
_cell_length_c   19.25821909
_cell_angle_alpha   90.00000000
_cell_angle_beta   90.00000000
_cell_angle_gamma   90.00000000
_symmetry_Int_Tables_number   1
_chemical_formula_structural   Rb2Cr3O10
_chemical_formula_sum   'Rb16 Cr24 O80'
_cell_volume   2131.98605291
_cell_formula_units_Z   8
loop_
 _symmetry_equiv_pos_site_id
 _symmetry_equiv_pos_as_xyz
  1  'x, y, z'
loop_
 _atom_site_type_symbol
 _atom_site_label
 _atom_site_symmetry_multiplicity
 _atom_site_fract_x
 _atom_site_fract_y
 _atom_site_fract_z
 _atom_site_occupancy
  Rb  Rb0  1  0.78133730  0.22453000  0.31761726  1
  Rb  Rb1  1  0.71866270  0.72453000  0.68238274  1
  Rb  Rb2  1  0.21866270  0.77547000  0.68238274  1
  Rb  Rb3  1  0.84770907  0.04781624  0.58389455  1
  Rb  Rb4  1  0.28133730  0.27547000  0.31761726  1
  Rb  Rb5  1  0.15229093  0.95218376  0.41610545  1
  Rb  Rb6  1  0.71866270  0.22453000  0.81761726  1
  Rb  Rb7  1  0.34770907  0.95218376  0.91610545  1
  Rb  Rb8  1  0.78133730  0.72453000  0.18238274  1
  Rb  Rb9  1  0.15229093  0.45218376  0.08389455  1
  Rb  Rb10  1  0.65229093  0.04781624  0.08389455  1
  Rb  Rb11  1  0.65229093  0.54781624  0.41610545  1
  Rb  Rb12  1  0.34770907  0.45218376  0.58389455  1
  Rb  Rb13  1  0.84770907  0.54781624  0.91610545  1
  Rb  Rb14  1  0.28133730  0.77547000  0.18238274  1
  Rb  Rb15  1  0.21866270  0.27547000  0.81761726  1
  Cr  Cr16  1  0.29188175  0.12815920  0.61219775  1
  Cr  Cr17  1  0.51158183  0.49601370  0.23289374  1
  Cr  Cr18  1  0.20811825  0.62815920  0.38780225  1
  Cr  Cr19  1  0.98841817  0.99601370  0.76710626  1
  Cr  Cr20  1  0.20811825  0.12815920  0.11219775  1
  Cr  Cr21  1  0.48841817  0.00398630  0.73289374  1
  Cr  Cr22  1  0.70811825  0.37184080  0.11219775  1
  Cr  Cr23  1  0.29188175  0.62815920  0.88780225  1
  Cr  Cr24  1  0.48841817  0.50398630  0.76710626  1
  Cr  Cr25  1  0.70811825  0.87184080  0.38780225  1
  Cr  Cr26  1  0.51158183  0.99601370  0.26710626  1
  Cr  Cr27  1  0.00986018  0.69397955  0.52614441  1
  Cr  Cr28  1  0.98841817  0.49601370  0.73289374  1
  Cr  Cr29  1  0.50986018  0.30602045  0.97385559  1
  Cr  Cr30  1  0.79188175  0.87184080  0.88780225  1
  Cr  Cr31  1  0.49013982  0.19397955  0.47385559  1
  Cr  Cr32  1  0.01158183  0.00398630  0.23289374  1
  Cr  Cr33  1  0.50986018  0.80602045  0.52614441  1
  Cr  Cr34  1  0.79188175  0.37184080  0.61219775  1
  Cr  Cr35  1  0.00986018  0.19397955  0.97385559  1
  Cr  Cr36  1  0.49013982  0.69397955  0.02614441  1
  Cr  Cr37  1  0.99013982  0.80602045  0.02614441  1
  Cr  Cr38  1  0.99013982  0.30602045  0.47385559  1
  Cr  Cr39  1  0.01158183  0.50398630  0.26710626  1
  O  O40  1  0.34969460  0.35565737  0.97625250  1
  O  O41  1  0.50880260  0.67599951  0.55702379  1
  O  O42  1  0.49119740  0.82400049  0.05702379  1
  O  O43  1  0.72891331  0.27602769  0.66347392  1
  O  O44  1  0.66763425  0.42389030  0.56473696  1
  O  O45  1  0.66763425  0.92389030  0.93526304  1
  O  O46  1  0.44574187  0.59346871  0.70537656  1
  O  O47  1  0.33236575  0.57610970  0.43526304  1
  O  O48  1  0.41925524  0.19671127  0.56225848  1
  O  O49  1  0.91925524  0.80328873  0.93774152  1
  O  O50  1  0.55425813  0.40653129  0.29462344  1
  O  O51  1  0.97550163  0.12796555  0.74033977  1
  O  O52  1  0.34969460  0.85565737  0.52374750  1
  O  O53  1  0.08074476  0.19671127  0.06225848  1
  O  O54  1  0.10994870  0.11301416  0.92582773  1
  O  O55  1  0.64895604  0.53004166  0.79205188  1
  O  O56  1  0.05425813  0.09346871  0.29462344  1
  O  O57  1  0.05425813  0.59346871  0.20537656  1
  O  O58  1  0.13572108  0.51683932  0.33932923  1
  O  O59  1  0.63572108  0.48316068  0.16067077  1
  O  O60  1  0.16763425  0.07610970  0.56473696  1
  O  O61  1  0.58074476  0.30328873  0.06225848  1
  O  O62  1  0.85104396  0.03004166  0.20794812  1
  O  O63  1  0.60994870  0.38698584  0.92582773  1
  O  O64  1  0.99119740  0.17599951  0.44297621  1
  O  O65  1  0.39005130  0.61301416  0.07417227  1
  O  O66  1  0.13572108  0.01683932  0.16067077  1
  O  O67  1  0.41925524  0.69671127  0.93774152  1
  O  O68  1  0.36427892  0.01683932  0.66067077  1
  O  O69  1  0.22891331  0.72397231  0.83652608  1
  O  O70  1  0.77108669  0.27602769  0.16347392  1
  O  O71  1  0.65030540  0.64434263  0.02374750  1
  O  O72  1  0.15030540  0.85565737  0.02374750  1
  O  O73  1  0.86427892  0.98316068  0.83932923  1
  O  O74  1  0.52449837  0.62796555  0.25966023  1
  O  O75  1  0.94574187  0.40653129  0.79462344  1
  O  O76  1  0.00880260  0.32400049  0.94297621  1
  O  O77  1  0.85104396  0.53004166  0.29205188  1
  O  O78  1  0.63572108  0.98316068  0.33932923  1
  O  O79  1  0.14895604  0.46995834  0.70794812  1
  O  O80  1  0.97550163  0.62796555  0.75966023  1
  O  O81  1  0.94574187  0.90653129  0.70537656  1
  O  O82  1  0.02449837  0.37203445  0.24033977  1
  O  O83  1  0.89005130  0.38698584  0.42582773  1
  O  O84  1  0.00880260  0.82400049  0.55702379  1
  O  O85  1  0.65030540  0.14434263  0.47625250  1
  O  O86  1  0.27108669  0.22397231  0.16347392  1
  O  O87  1  0.99119740  0.67599951  0.05702379  1
  O  O88  1  0.33236575  0.07610970  0.06473696  1
  O  O89  1  0.91925524  0.30328873  0.56225848  1
  O  O90  1  0.77108669  0.77602769  0.33652608  1
  O  O91  1  0.10994870  0.61301416  0.57417227  1
  O  O92  1  0.35104396  0.96995834  0.29205188  1
  O  O93  1  0.47550163  0.37203445  0.74033977  1
  O  O94  1  0.64895604  0.03004166  0.70794812  1
  O  O95  1  0.16763425  0.57610970  0.93526304  1
  O  O96  1  0.22891331  0.22397231  0.66347392  1
  O  O97  1  0.72891331  0.77602769  0.83652608  1
  O  O98  1  0.02449837  0.87203445  0.25966023  1
  O  O99  1  0.50880260  0.17599951  0.94297621  1
  O  O100  1  0.83236575  0.92389030  0.43526304  1
  O  O101  1  0.36427892  0.51683932  0.83932923  1
  O  O102  1  0.08074476  0.69671127  0.43774152  1
  O  O103  1  0.52449837  0.12796555  0.24033977  1
  O  O104  1  0.39005130  0.11301416  0.42582773  1
  O  O105  1  0.27108669  0.72397231  0.33652608  1
  O  O106  1  0.84969460  0.64434263  0.52374750  1
  O  O107  1  0.15030540  0.35565737  0.47625250  1
  O  O108  1  0.14895604  0.96995834  0.79205188  1
  O  O109  1  0.86427892  0.48316068  0.66067077  1
  O  O110  1  0.35104396  0.46995834  0.20794812  1
  O  O111  1  0.83236575  0.42389030  0.06473696  1
  O  O112  1  0.55425813  0.90653129  0.20537656  1
  O  O113  1  0.58074476  0.80328873  0.43774152  1
  O  O114  1  0.44574187  0.09346871  0.79462344  1
  O  O115  1  0.84969460  0.14434263  0.97625250  1
  O  O116  1  0.49119740  0.32400049  0.44297621  1
  O  O117  1  0.60994870  0.88698584  0.57417227  1
  O  O118  1  0.47550163  0.87203445  0.75966023  1
  O  O119  1  0.89005130  0.88698584  0.07417227  1
