# generated using pymatgen
data_CaAl2Si(HO2)4
_symmetry_space_group_name_H-M   'P 1'
_cell_length_a   12.21553281
_cell_length_b   12.21553281
_cell_length_c   12.21553281
_cell_angle_alpha   156.37115932
_cell_angle_beta   156.37115932
_cell_angle_gamma   33.66197335
_symmetry_Int_Tables_number   1
_chemical_formula_structural   CaAl2Si(HO2)4
_chemical_formula_sum   'Ca2 Al4 Si2 H8 O16'
_cell_volume   292.54910557
_cell_formula_units_Z   2
loop_
 _symmetry_equiv_pos_site_id
 _symmetry_equiv_pos_as_xyz
  1  'x, y, z'
loop_
 _atom_site_type_symbol
 _atom_site_label
 _atom_site_symmetry_multiplicity
 _atom_site_fract_x
 _atom_site_fract_y
 _atom_site_fract_z
 _atom_site_occupancy
  Ca  Ca0  1  0.87500000  0.62500000  0.25000000  1
  Ca  Ca1  1  0.12500000  0.37500000  0.75000000  1
  Al  Al2  1  0.03462632  0.78462632  0.25000000  1
  Al  Al3  1  0.28462632  0.53462632  0.75000000  1
  Al  Al4  1  0.96537368  0.21537368  0.75000000  1
  Al  Al5  1  0.71537368  0.46537368  0.25000000  1
  Si  Si6  1  0.37500000  0.12500000  0.25000000  1
  Si  Si7  1  0.62500000  0.87500000  0.75000000  1
  H  H8  1  0.41380004  0.09298577  0.93848581  1
  H  H9  1  0.65449996  0.47531423  0.56151419  1
  H  H10  1  0.97531423  0.91380004  0.82081427  1
  H  H11  1  0.59298577  0.15449996  0.67918573  1
  H  H12  1  0.58619996  0.90701423  0.06151419  1
  H  H13  1  0.34550004  0.52468577  0.43848581  1
  H  H14  1  0.02468577  0.08619996  0.17918573  1
  H  H15  1  0.40701423  0.84550004  0.32081427  1
  O  O16  1  0.46925728  0.84299256  0.13919433  1
  O  O17  1  0.20379823  0.33006295  0.36080567  1
  O  O18  1  0.83006295  0.96925728  0.12626472  1
  O  O19  1  0.34299256  0.70379823  0.37373528  1
  O  O20  1  0.53074272  0.15700744  0.86080567  1
  O  O21  1  0.79620177  0.66993705  0.63919433  1
  O  O22  1  0.16993705  0.03074272  0.87373528  1
  O  O23  1  0.65700744  0.29620177  0.62626472  1
  O  O24  1  0.21663780  0.10726681  0.76353008  1
  O  O25  1  0.84373673  0.45310772  0.73646992  1
  O  O26  1  0.95310772  0.71663780  0.60937099  1
  O  O27  1  0.60726681  0.34373673  0.89062901  1
  O  O28  1  0.78336220  0.89273319  0.23646992  1
  O  O29  1  0.15626327  0.54689228  0.26353008  1
  O  O30  1  0.04689228  0.28336220  0.39062901  1
  O  O31  1  0.39273319  0.65626327  0.10937099  1
