# generated using pymatgen
data_ZnH16C6S2(N2Cl)2
_symmetry_space_group_name_H-M   'P 1'
_cell_length_a   8.04047637
_cell_length_b   8.04047637
_cell_length_c   12.64437030
_cell_angle_alpha   76.04193623
_cell_angle_beta   103.95806377
_cell_angle_gamma   111.02103396
_symmetry_Int_Tables_number   1
_chemical_formula_structural   ZnH16C6S2(N2Cl)2
_chemical_formula_sum   'Zn2 H32 C12 S4 N8 Cl4'
_cell_volume   729.64028744
_cell_formula_units_Z   2
loop_
 _symmetry_equiv_pos_site_id
 _symmetry_equiv_pos_as_xyz
  1  'x, y, z'
loop_
 _atom_site_type_symbol
 _atom_site_label
 _atom_site_symmetry_multiplicity
 _atom_site_fract_x
 _atom_site_fract_y
 _atom_site_fract_z
 _atom_site_occupancy
  Zn  Zn0  1  0.84955946  0.84955946  0.75000000  1
  Zn  Zn1  1  0.15044054  0.15044054  0.25000000  1
  H  H2  1  0.14860126  0.62154524  0.15513987  1
  H  H3  1  0.62154524  0.14860126  0.34486013  1
  H  H4  1  0.85139874  0.37845476  0.84486013  1
  H  H5  1  0.37845476  0.85139874  0.65513987  1
  H  H6  1  0.79497993  0.74253221  0.96942604  1
  H  H7  1  0.74253221  0.79497993  0.53057396  1
  H  H8  1  0.20502007  0.25746779  0.03057396  1
  H  H9  1  0.25746779  0.20502007  0.46942604  1
  H  H10  1  0.38991604  0.74789859  0.99191747  1
  H  H11  1  0.74789859  0.38991604  0.50808253  1
  H  H12  1  0.61008396  0.25210141  0.00808253  1
  H  H13  1  0.25210141  0.61008396  0.49191747  1
  H  H14  1  0.45156134  0.89230981  0.09260119  1
  H  H15  1  0.89230981  0.45156134  0.40739881  1
  H  H16  1  0.54843866  0.10769019  0.90739881  1
  H  H17  1  0.10769019  0.54843866  0.59260119  1
  H  H18  1  0.43246190  0.65830782  0.13578043  1
  H  H19  1  0.65830782  0.43246190  0.36421957  1
  H  H20  1  0.56753810  0.34169218  0.86421957  1
  H  H21  1  0.34169218  0.56753810  0.63578043  1
  H  H22  1  0.86781202  0.46209209  0.15099986  1
  H  H23  1  0.46209209  0.86781202  0.34900014  1
  H  H24  1  0.13218798  0.53790791  0.84900014  1
  H  H25  1  0.53790791  0.13218798  0.65099986  1
  H  H26  1  0.90196779  0.66493958  0.20087935  1
  H  H27  1  0.66493958  0.90196779  0.29912065  1
  H  H28  1  0.09803221  0.33506042  0.79912065  1
  H  H29  1  0.33506042  0.09803221  0.70087935  1
  H  H30  1  0.68931736  0.55456331  0.12374095  1
  H  H31  1  0.55456331  0.68931736  0.37625905  1
  H  H32  1  0.31068264  0.44543669  0.87625905  1
  H  H33  1  0.44543669  0.31068264  0.62374095  1
  C  C34  1  0.05827641  0.75654666  0.00702168  1
  C  C35  1  0.75654666  0.05827641  0.49297832  1
  C  C36  1  0.94172359  0.24345334  0.99297832  1
  C  C37  1  0.24345334  0.94172359  0.50702168  1
  C  C38  1  0.37580156  0.75513279  0.07475825  1
  C  C39  1  0.75513279  0.37580156  0.42524175  1
  C  C40  1  0.62419844  0.24486721  0.92524175  1
  C  C41  1  0.24486721  0.62419844  0.57475825  1
  C  C42  1  0.83572827  0.58965005  0.13158956  1
  C  C43  1  0.58965005  0.83572827  0.36841044  1
  C  C44  1  0.16427173  0.41034995  0.86841044  1
  C  C45  1  0.41034995  0.16427173  0.63158956  1
  S  S46  1  0.11491799  0.89720437  0.88518473  1
  S  S47  1  0.89720437  0.11491799  0.61481527  1
  S  S48  1  0.88508201  0.10279563  0.11481527  1
  S  S49  1  0.10279563  0.88508201  0.38518473  1
  N  N50  1  0.18622731  0.70480192  0.08363898  1
  N  N51  1  0.70480192  0.18622731  0.41636102  1
  N  N52  1  0.81377269  0.29519808  0.91636102  1
  N  N53  1  0.29519808  0.81377269  0.58363898  1
  N  N54  1  0.88924391  0.69753727  0.02803828  1
  N  N55  1  0.69753727  0.88924391  0.47196172  1
  N  N56  1  0.11075609  0.30246273  0.97196172  1
  N  N57  1  0.30246273  0.11075609  0.52803828  1
  Cl  Cl58  1  0.59341524  0.80379685  0.82051016  1
  Cl  Cl59  1  0.80379685  0.59341524  0.67948984  1
  Cl  Cl60  1  0.40658476  0.19620315  0.17948984  1
  Cl  Cl61  1  0.19620315  0.40658476  0.32051016  1
