# generated using pymatgen
data_Nb3(BiO3)5
_symmetry_space_group_name_H-M   'P 1'
_cell_length_a   5.59827820
_cell_length_b   5.52565934
_cell_length_c   22.12209987
_cell_angle_alpha   89.99964129
_cell_angle_beta   90.00193141
_cell_angle_gamma   89.99669633
_symmetry_Int_Tables_number   1
_chemical_formula_structural   Nb3(BiO3)5
_chemical_formula_sum   'Nb6 Bi10 O30'
_cell_volume   684.32897929
_cell_formula_units_Z   2
loop_
 _symmetry_equiv_pos_site_id
 _symmetry_equiv_pos_as_xyz
  1  'x, y, z'
loop_
 _atom_site_type_symbol
 _atom_site_label
 _atom_site_symmetry_multiplicity
 _atom_site_fract_x
 _atom_site_fract_y
 _atom_site_fract_z
 _atom_site_occupancy
  Nb  Nb0  1  0.53885469  -0.00003153  0.49997869  1
  Nb  Nb1  1  0.02092778  0.00179950  0.89150166  1
  Nb  Nb2  1  0.02103525  0.99814678  0.10846305  1
  Nb  Nb3  1  0.03885388  0.50002453  0.49997787  1
  Nb  Nb4  1  0.52101917  0.50177758  0.10849738  1
  Nb  Nb5  1  0.52094243  0.49816886  0.89154681  1
  Bi  Bi6  1  0.51873713  0.01188251  0.74136607  1
  Bi  Bi7  1  0.97817936  0.97522430  0.62384072  1
  Bi  Bi8  1  0.97821023  0.02473981  0.37610907  1
  Bi  Bi9  1  0.01873963  0.48810425  0.74136507  1
  Bi  Bi10  1  0.47817509  0.52474495  0.62383908  1
  Bi  Bi11  1  0.51871071  0.98810203  0.25859758  1
  Bi  Bi12  1  0.01870397  0.51189961  0.25859710  1
  Bi  Bi13  1  0.47820575  0.47524382  0.37610773  1
  Bi  Bi14  1  0.94442051  0.49987881  0.00006060  1
  Bi  Bi15  1  0.44442577  0.99968499  0.00001166  1
  O  O16  1  0.33327412  0.74481426  0.47754819  1
  O  O17  1  0.27307456  0.74216732  0.30942067  1
  O  O18  1  0.83041414  0.70663227  0.09018410  1
  O  O19  1  0.05914341  0.00008445  0.00004128  1
  O  O20  1  0.10583918  0.60542891  0.58571239  1
  O  O21  1  0.83038884  0.29336761  0.90987979  1
  O  O22  1  0.76947593  0.77005502  0.91114606  1
  O  O23  1  0.26954046  0.27006263  0.08893933  1
  O  O24  1  0.77307468  0.75781293  0.30942452  1
  O  O25  1  0.60584864  0.89453826  0.58571055  1
  O  O26  1  0.10579941  0.39461651  0.41427686  1
  O  O27  1  0.02715980  0.00649266  0.80973690  1
  O  O28  1  0.02717906  0.99348581  0.19021445  1
  O  O29  1  0.60579061  0.10537030  0.41427563  1
  O  O30  1  0.33323390  0.25521125  0.52243175  1
  O  O31  1  0.27308592  0.25781017  0.69056552  1
  O  O32  1  0.26949707  0.73010325  0.91118272  1
  O  O33  1  0.77308761  0.24216147  0.69056875  1
  O  O34  1  0.52720923  0.50651803  0.19024037  1
  O  O35  1  0.27663408  0.24429216  0.30764154  1
  O  O36  1  0.33043349  0.79339525  0.09017011  1
  O  O37  1  0.27666408  0.75571081  0.69233330  1
  O  O38  1  0.55914223  0.50020165  0.00003808  1
  O  O39  1  0.77662310  0.25570882  0.30764200  1
  O  O40  1  0.83323675  0.24480299  0.52242369  1
  O  O41  1  0.76956218  0.23005566  0.08889973  1
  O  O42  1  0.77667112  0.74428445  0.69233518  1
  O  O43  1  0.83326981  0.75519821  0.47754032  1
  O  O44  1  0.52713461  0.49352534  0.80974915  1
  O  O45  1  0.33037065  0.20670076  0.90986691  1
