# generated using pymatgen
data_BaCo2P2H2O9
_symmetry_space_group_name_H-M   'P 1'
_cell_length_a   5.27447957
_cell_length_b   5.27447957
_cell_length_c   8.37987751
_cell_angle_alpha   88.53828418
_cell_angle_beta   91.46171582
_cell_angle_gamma   123.68583727
_symmetry_Int_Tables_number   1
_chemical_formula_structural   BaCo2P2H2O9
_chemical_formula_sum   'Ba1 Co2 P2 H2 O9'
_cell_volume   193.90365652
_cell_formula_units_Z   1
loop_
 _symmetry_equiv_pos_site_id
 _symmetry_equiv_pos_as_xyz
  1  'x, y, z'
loop_
 _atom_site_type_symbol
 _atom_site_label
 _atom_site_symmetry_multiplicity
 _atom_site_fract_x
 _atom_site_fract_y
 _atom_site_fract_z
 _atom_site_occupancy
  Ba  Ba0  1  0.22465770  0.22465770  0.50000000  1
  Co  Co1  1  0.49888841  0.83293324  0.85236723  1
  Co  Co2  1  0.83293324  0.49888841  0.14763277  1
  P  P3  1  0.88846290  0.57849238  0.76203364  1
  P  P4  1  0.57849238  0.88846290  0.23796636  1
  H  H5  1  0.23086767  0.35280447  0.06634038  1
  H  H6  1  0.35280447  0.23086767  0.93365962  1
  O  O7  1  0.40504845  0.40504845  0.00000000  1
  O  O8  1  0.67297681  0.03900916  0.06662627  1
  O  O9  1  0.03900916  0.67297681  0.93337373  1
  O  O10  1  0.77858368  0.78920878  0.70869652  1
  O  O11  1  0.78920878  0.77858368  0.29130348  1
  O  O12  1  0.15213460  0.63889081  0.65527604  1
  O  O13  1  0.63889081  0.15213460  0.34472396  1
  O  O14  1  0.60735373  0.24688723  0.75355356  1
  O  O15  1  0.24688723  0.60735373  0.24644644  1
