# generated using pymatgen
data_Yb(HoS2)2
_symmetry_space_group_name_H-M   'P 1'
_cell_length_a   7.19842254
_cell_length_b   7.19842229
_cell_length_c   7.19842187
_cell_angle_alpha   109.39705393
_cell_angle_beta   109.61964339
_cell_angle_gamma   109.39705938
_symmetry_Int_Tables_number   1
_chemical_formula_structural   Yb(HoS2)2
_chemical_formula_sum   'Yb2 Ho4 S8'
_cell_volume   287.13617654
_cell_formula_units_Z   2
loop_
 _symmetry_equiv_pos_site_id
 _symmetry_equiv_pos_as_xyz
  1  'x, y, z'
loop_
 _atom_site_type_symbol
 _atom_site_label
 _atom_site_symmetry_multiplicity
 _atom_site_fract_x
 _atom_site_fract_y
 _atom_site_fract_z
 _atom_site_occupancy
  Yb  Yb0  1  0.12500000  0.75000000  0.87500000  1
  Yb  Yb1  1  0.37500000  0.25000000  0.62500000  1
  Ho  Ho2  1  0.25000000  0.62720255  0.37720255  1
  Ho  Ho3  1  0.75000000  0.87279745  0.12279745  1
  Ho  Ho4  1  0.62279745  0.37279745  0.25000000  1
  Ho  Ho5  1  0.87720255  0.12720255  0.75000000  1
  S  S6  1  0.99407333  0.85263556  0.49427016  1
  S  S7  1  0.14143777  0.14736444  0.14163460  1
  S  S8  1  0.50572984  0.99980317  0.35836540  1
  S  S9  1  0.35856223  0.50019683  0.00592667  1
  S  S10  1  0.64163460  0.64736444  0.64143777  1
  S  S11  1  0.50592667  0.00019683  0.85856223  1
  S  S12  1  0.85836540  0.49980317  0.00572984  1
  S  S13  1  0.99427016  0.35263556  0.49407333  1
