# generated using pymatgen
data_Dy5Mg24
_symmetry_space_group_name_H-M   'P 1'
_cell_length_a   9.75579811
_cell_length_b   9.75578158
_cell_length_c   9.75579886
_cell_angle_alpha   109.47228535
_cell_angle_beta   109.47223998
_cell_angle_gamma   109.47207077
_symmetry_Int_Tables_number   1
_chemical_formula_structural   Dy5Mg24
_chemical_formula_sum   'Dy5 Mg24'
_cell_volume   714.74329896
_cell_formula_units_Z   1
loop_
 _symmetry_equiv_pos_site_id
 _symmetry_equiv_pos_as_xyz
  1  'x, y, z'
loop_
 _atom_site_type_symbol
 _atom_site_label
 _atom_site_symmetry_multiplicity
 _atom_site_fract_x
 _atom_site_fract_y
 _atom_site_fract_z
 _atom_site_occupancy
  Dy  Dy0  1  0.00000159  0.36946324  0.00000196  1
  Dy  Dy1  1  0.00000086  0.00000052  0.00000092  1
  Dy  Dy2  1  0.00000030  0.00000158  0.36946327  1
  Dy  Dy3  1  0.36946306  0.00000237  0.00000171  1
  Dy  Dy4  1  0.63053665  0.63053837  0.63053794  1
  Mg  Mg5  1  0.67943523  0.67943414  0.28633011  1
  Mg  Mg6  1  0.37217078  0.37217145  0.18099168  1
  Mg  Mg7  1  0.00000009  0.62782863  0.80881872  1
  Mg  Mg8  1  0.32056413  0.00000046  0.60689645  1
  Mg  Mg9  1  0.39310429  0.71366935  0.39310555  1
  Mg  Mg10  1  0.00000042  0.60689631  0.32056600  1
  Mg  Mg11  1  0.71366901  0.39310330  0.39310324  1
  Mg  Mg12  1  0.99999947  0.80881770  0.62782709  1
  Mg  Mg13  1  0.39310192  0.39310291  0.71366846  1
  Mg  Mg14  1  0.62782716  0.80881718  0.99999724  1
  Mg  Mg15  1  0.28633036  0.67943347  0.67943499  1
  Mg  Mg16  1  0.67943317  0.28633022  0.67943385  1
  Mg  Mg17  1  0.81901038  0.19118282  0.19118180  1
  Mg  Mg18  1  0.19118445  0.19118417  0.81900841  1
  Mg  Mg19  1  0.60689605  0.32056325  0.99999987  1
  Mg  Mg20  1  0.80881666  0.99999856  0.62782715  1
  Mg  Mg21  1  0.19118404  0.81901025  0.19118309  1
  Mg  Mg22  1  0.37217199  0.18099116  0.37217067  1
  Mg  Mg23  1  0.32056586  0.60689514  0.00000003  1
  Mg  Mg24  1  0.62782825  -0.00000007  0.80881831  1
  Mg  Mg25  1  0.99999964  0.32056487  0.60689628  1
  Mg  Mg26  1  0.60689603  0.99999983  0.32056549  1
  Mg  Mg27  1  0.80881608  0.62782633  0.99999786  1
  Mg  Mg28  1  0.18099205  0.37217250  0.37217185  1
