# generated using pymatgen
data_Sr2Pb3
_symmetry_space_group_name_H-M   'P 1'
_cell_length_a   4.99975434
_cell_length_b   8.41849605
_cell_length_c   8.41849605
_cell_angle_alpha   90.00000000
_cell_angle_beta   90.00000000
_cell_angle_gamma   90.00000000
_symmetry_Int_Tables_number   1
_chemical_formula_structural   Sr2Pb3
_chemical_formula_sum   'Sr4 Pb6'
_cell_volume   354.33796853
_cell_formula_units_Z   2
loop_
 _symmetry_equiv_pos_site_id
 _symmetry_equiv_pos_as_xyz
  1  'x, y, z'
loop_
 _atom_site_type_symbol
 _atom_site_label
 _atom_site_symmetry_multiplicity
 _atom_site_fract_x
 _atom_site_fract_y
 _atom_site_fract_z
 _atom_site_occupancy
  Sr  Sr0  1  0.00000000  0.17307584  0.67307584  1
  Sr  Sr1  1  0.00000000  0.32692416  0.17307584  1
  Sr  Sr2  1  0.00000000  0.67307584  0.82692416  1
  Sr  Sr3  1  0.00000000  0.82692416  0.32692416  1
  Pb  Pb4  1  0.50000000  0.62889962  0.12889962  1
  Pb  Pb5  1  0.50000000  0.37110038  0.87110038  1
  Pb  Pb6  1  0.50000000  0.87110038  0.62889962  1
  Pb  Pb7  1  0.50000000  0.00000000  0.00000000  1
  Pb  Pb8  1  0.50000000  0.12889962  0.37110038  1
  Pb  Pb9  1  0.50000000  0.50000000  0.50000000  1
