# generated using pymatgen
data_Dy(FeSn)6
_symmetry_space_group_name_H-M   'P 1'
_cell_length_a   5.41841518
_cell_length_b   8.98063980
_cell_length_c   23.62104308
_cell_angle_alpha   90.00000000
_cell_angle_beta   96.58601291
_cell_angle_gamma   90.00000000
_symmetry_Int_Tables_number   1
_chemical_formula_structural   Dy(FeSn)6
_chemical_formula_sum   'Dy5 Fe30 Sn30'
_cell_volume   1141.83442348
_cell_formula_units_Z   5
loop_
 _symmetry_equiv_pos_site_id
 _symmetry_equiv_pos_as_xyz
  1  'x, y, z'
loop_
 _atom_site_type_symbol
 _atom_site_label
 _atom_site_symmetry_multiplicity
 _atom_site_fract_x
 _atom_site_fract_y
 _atom_site_fract_z
 _atom_site_occupancy
  Dy  Dy0  1  0.80040102  0.00000000  0.60080204  1
  Dy  Dy1  1  0.19959898  0.00000000  0.39919796  1
  Dy  Dy2  1  0.39944024  0.50000000  0.79888048  1
  Dy  Dy3  1  0.60055976  0.50000000  0.20111952  1
  Dy  Dy4  1  -0.00000000  0.50000000  0.00000000  1
  Fe  Fe5  1  0.20027359  0.25268149  0.89989133  1
  Fe  Fe6  1  0.79972641  0.25268149  0.10010867  1
  Fe  Fe7  1  0.30038226  0.74731851  0.10010867  1
  Fe  Fe8  1  0.69961774  0.74731851  0.89989133  1
  Fe  Fe9  1  0.79972641  0.74731851  0.10010867  1
  Fe  Fe10  1  0.20027359  0.74731851  0.89989133  1
  Fe  Fe11  1  0.69961774  0.25268149  0.89989133  1
  Fe  Fe12  1  0.30038226  0.25268149  0.10010867  1
  Fe  Fe13  1  0.10029726  0.25000953  0.69992724  1
  Fe  Fe14  1  0.89970274  0.25000953  0.30007276  1
  Fe  Fe15  1  0.40037002  0.74999047  0.30007276  1
  Fe  Fe16  1  0.59962998  0.74999047  0.69992724  1
  Fe  Fe17  1  0.89970274  0.74999047  0.30007276  1
  Fe  Fe18  1  0.10029726  0.74999047  0.69992724  1
  Fe  Fe19  1  0.59962998  0.25000953  0.69992724  1
  Fe  Fe20  1  0.40037002  0.25000953  0.30007276  1
  Fe  Fe21  1  -0.00000000  0.24735347  0.50000000  1
  Fe  Fe22  1  0.50000000  0.75264653  0.50000000  1
  Fe  Fe23  1  -0.00000000  0.75264653  0.50000000  1
  Fe  Fe24  1  0.50000000  0.24735347  0.50000000  1
  Fe  Fe25  1  0.29998270  0.24823806  0.59996540  1
  Fe  Fe26  1  0.70001730  0.24823806  0.40003460  1
  Fe  Fe27  1  0.70001730  0.75176194  0.40003460  1
  Fe  Fe28  1  0.29998270  0.75176194  0.59996540  1
  Fe  Fe29  1  0.89993355  0.25176156  0.79986711  1
  Fe  Fe30  1  0.10006645  0.25176156  0.20013289  1
  Fe  Fe31  1  0.10006645  0.74823844  0.20013289  1
  Fe  Fe32  1  0.89993355  0.74823844  0.79986711  1
  Fe  Fe33  1  0.50000000  0.25269402  0.00000000  1
  Fe  Fe34  1  0.50000000  0.74730598  0.00000000  1
  Sn  Sn35  1  0.40010703  0.16314406  0.80021406  1
  Sn  Sn36  1  0.59989297  0.16314406  0.19978594  1
  Sn  Sn37  1  0.59989297  0.83685594  0.19978594  1
  Sn  Sn38  1  0.40010703  0.83685594  0.80021406  1
  Sn  Sn39  1  0.79984000  0.33701841  0.59968000  1
  Sn  Sn40  1  0.20016000  0.33701841  0.40032000  1
  Sn  Sn41  1  0.20016000  0.66298159  0.40032000  1
  Sn  Sn42  1  0.79984000  0.66298159  0.59968000  1
  Sn  Sn43  1  -0.00000000  0.16327526  0.00000000  1
  Sn  Sn44  1  -0.00000000  0.83672474  0.00000000  1
  Sn  Sn45  1  0.46677231  0.00000000  0.93354461  1
  Sn  Sn46  1  0.53322769  0.00000000  0.06645539  1
  Sn  Sn47  1  0.46672115  0.50000000  0.93344229  1
  Sn  Sn48  1  0.53327885  0.50000000  0.06655771  1
  Sn  Sn49  1  0.93344800  0.00000000  0.86689601  1
  Sn  Sn50  1  0.06655200  0.00000000  0.13310399  1
  Sn  Sn51  1  0.93300032  0.50000000  0.86600063  1
  Sn  Sn52  1  0.06699968  0.50000000  0.13399937  1
  Sn  Sn53  1  0.86724558  0.00000000  0.73449117  1
  Sn  Sn54  1  0.13275442  0.00000000  0.26550883  1
  Sn  Sn55  1  0.86599844  0.50000000  0.73199688  1
  Sn  Sn56  1  0.13400156  0.50000000  0.26800312  1
  Sn  Sn57  1  0.33364831  0.00000000  0.66729661  1
  Sn  Sn58  1  0.66635169  0.00000000  0.33270339  1
  Sn  Sn59  1  0.33246989  0.50000000  0.66493977  1
  Sn  Sn60  1  0.66753011  0.50000000  0.33506023  1
  Sn  Sn61  1  0.26685080  0.00000000  0.53370161  1
  Sn  Sn62  1  0.73314920  0.00000000  0.46629839  1
  Sn  Sn63  1  0.26650025  0.50000000  0.53300049  1
  Sn  Sn64  1  0.73349975  0.50000000  0.46699951  1
