# generated using pymatgen
data_Sr2NdCu3(PbO4)2
_symmetry_space_group_name_H-M   'P 1'
_cell_length_a   3.86715539
_cell_length_b   3.86715594
_cell_length_c   16.05067698
_cell_angle_alpha   90.00000000
_cell_angle_beta   90.00000000
_cell_angle_gamma   90.07305926
_symmetry_Int_Tables_number   1
_chemical_formula_structural   Sr2NdCu3(PbO4)2
_chemical_formula_sum   'Sr2 Nd1 Cu3 Pb2 O8'
_cell_volume   240.03596041
_cell_formula_units_Z   1
loop_
 _symmetry_equiv_pos_site_id
 _symmetry_equiv_pos_as_xyz
  1  'x, y, z'
loop_
 _atom_site_type_symbol
 _atom_site_label
 _atom_site_symmetry_multiplicity
 _atom_site_fract_x
 _atom_site_fract_y
 _atom_site_fract_z
 _atom_site_occupancy
  Sr  Sr0  1  0.00000000  0.00000000  0.22261879  1
  Sr  Sr1  1  0.00000000  0.00000000  0.77738121  1
  Nd  Nd2  1  0.00000000  0.00000000  0.00000000  1
  Cu  Cu3  1  0.50000000  0.50000000  0.89116627  1
  Cu  Cu4  1  0.50000000  0.50000000  0.10883373  1
  Cu  Cu5  1  0.00000000  0.00000000  0.50000000  1
  Pb  Pb6  1  0.50000000  0.50000000  0.61291154  1
  Pb  Pb7  1  0.50000000  0.50000000  0.38708846  1
  O  O8  1  0.00000000  0.00000000  0.61592254  1
  O  O9  1  0.00000000  0.50000000  0.09782969  1
  O  O10  1  0.50000000  0.00000000  0.90217031  1
  O  O11  1  0.50000000  0.50000000  0.25159666  1
  O  O12  1  0.00000000  0.50000000  0.90217031  1
  O  O13  1  0.50000000  0.00000000  0.09782969  1
  O  O14  1  0.00000000  0.00000000  0.38407746  1
  O  O15  1  0.50000000  0.50000000  0.74840334  1
