# generated using pymatgen
data_CdH18Se4(N2O7)2
_symmetry_space_group_name_H-M   'P 1'
_cell_length_a   5.85879895
_cell_length_b   7.46654902
_cell_length_c   10.96187697
_cell_angle_alpha   90.01465585
_cell_angle_beta   105.25551141
_cell_angle_gamma   112.60963506
_symmetry_Int_Tables_number   1
_chemical_formula_structural   CdH18Se4(N2O7)2
_chemical_formula_sum   'Cd1 H18 Se4 N4 O14'
_cell_volume   424.29687176
_cell_formula_units_Z   1
loop_
 _symmetry_equiv_pos_site_id
 _symmetry_equiv_pos_as_xyz
  1  'x, y, z'
loop_
 _atom_site_type_symbol
 _atom_site_label
 _atom_site_symmetry_multiplicity
 _atom_site_fract_x
 _atom_site_fract_y
 _atom_site_fract_z
 _atom_site_occupancy
  Cd  Cd0  1  0.00000000  0.00000000  0.00000000  1
  H  H1  1  0.86896284  0.42949305  0.19065737  1
  H  H2  1  0.13103716  0.57050695  0.80934263  1
  H  H3  1  0.71855290  0.35731153  0.03211550  1
  H  H4  1  0.28144710  0.64268847  0.96788450  1
  H  H5  1  0.62027597  0.48978171  0.11576051  1
  H  H6  1  0.37972403  0.51021829  0.88423949  1
  H  H7  1  0.90956321  0.59517482  0.08632266  1
  H  H8  1  0.09043679  0.40482518  0.91367734  1
  H  H9  1  0.15554340  0.87813485  0.40617466  1
  H  H10  1  0.84445660  0.12186515  0.59382534  1
  H  H11  1  0.11335146  0.63825171  0.40611650  1
  H  H12  1  0.88664854  0.36174829  0.59388350  1
  H  H13  1  0.01930913  0.73646411  0.51186296  1
  H  H14  1  0.98069087  0.26353589  0.48813704  1
  H  H15  1  0.33615918  0.80555359  0.52673795  1
  H  H16  1  0.66384082  0.19444641  0.47326205  1
  H  H17  1  0.41226845  0.26769468  0.67454251  1
  H  H18  1  0.58773155  0.73230532  0.32545749  1
  Se  Se19  1  0.45141906  0.04694359  0.82360177  1
  Se  Se20  1  0.54858094  0.95305641  0.17639823  1
  Se  Se21  1  0.30392473  0.33799113  0.29589514  1
  Se  Se22  1  0.69607527  0.66200887  0.70410486  1
  N  N23  1  0.77771215  0.46736069  0.10526275  1
  N  N24  1  0.22228785  0.53263931  0.89473725  1
  N  N25  1  0.15384804  0.76553096  0.46165623  1
  N  N26  1  0.84615196  0.23446904  0.53834377  1
  O  O27  1  0.33611321  0.14773959  0.36579792  1
  O  O28  1  0.66388679  0.85226041  0.63420208  1
  O  O29  1  0.58849430  0.52946930  0.34251500  1
  O  O30  1  0.41150570  0.47053070  0.65748500  1
  O  O31  1  0.06905539  0.38786415  0.33144277  1
  O  O32  1  0.93094461  0.61213585  0.66855723  1
  O  O33  1  0.22520106  0.29565751  0.13610916  1
  O  O34  1  0.77479894  0.70434249  0.86389084  1
  O  O35  1  0.77274077  0.18336800  0.90049011  1
  O  O36  1  0.22725923  0.81663200  0.09950989  1
  O  O37  1  0.30705513  0.15895107  0.89466564  1
  O  O38  1  0.69294487  0.84104893  0.10533436  1
  O  O39  1  0.40114089  0.12620128  0.66913159  1
  O  O40  1  0.59885911  0.87379872  0.33086841  1
