# generated using pymatgen
data_Ce9DyO20
_symmetry_space_group_name_H-M   'P 1'
_cell_length_a   7.70709195
_cell_length_b   19.30093596
_cell_length_c   10.21101741
_cell_angle_alpha   19.06684560
_cell_angle_beta   55.46885282
_cell_angle_gamma   59.93640264
_symmetry_Int_Tables_number   1
_chemical_formula_structural   Ce9DyO20
_chemical_formula_sum   'Ce9 Dy1 O20'
_cell_volume   405.33991698
_cell_formula_units_Z   1
loop_
 _symmetry_equiv_pos_site_id
 _symmetry_equiv_pos_as_xyz
  1  'x, y, z'
loop_
 _atom_site_type_symbol
 _atom_site_label
 _atom_site_symmetry_multiplicity
 _atom_site_fract_x
 _atom_site_fract_y
 _atom_site_fract_z
 _atom_site_occupancy
  Ce  Ce0  1  0.00009374  0.19923615  0.99982320  1
  Ce  Ce1  1  0.50000000  0.00000000  0.00000000  1
  Ce  Ce2  1  0.99986127  0.40057739  0.00037675  1
  Ce  Ce3  1  0.50209915  0.19942948  0.99935077  1
  Ce  Ce4  1  0.49803598  0.39814715  0.00456312  1
  Ce  Ce5  1  0.99990626  0.80076385  0.00017680  1
  Ce  Ce6  1  0.50196402  0.60185285  0.99543688  1
  Ce  Ce7  1  0.49790085  0.80057052  0.00064923  1
  Ce  Ce8  1  0.00013873  0.59942261  0.99962325  1
  Dy  Dy9  1  0.00000000  0.00000000  0.00000000  1
  O  O10  1  0.12553878  0.14992860  0.24975968  1
  O  O11  1  0.12622205  0.35199031  0.24544301  1
  O  O12  1  0.37736682  0.05035210  0.74826357  1
  O  O13  1  0.62469174  0.14964698  0.25054269  1
  O  O14  1  0.12549007  0.55023072  0.24946838  1
  O  O15  1  0.62451962  0.35057108  0.24920527  1
  O  O16  1  0.37533416  0.25066513  0.74861196  1
  O  O17  1  0.12581446  0.74865875  0.25111284  1
  O  O18  1  0.62450173  0.55039115  0.24951008  1
  O  O19  1  0.87427663  0.05008999  0.74872904  1
  O  O20  1  0.37549827  0.44960885  0.75048992  1
  O  O21  1  0.12572337  0.94991001  0.25127096  1
  O  O22  1  0.62466584  0.74933487  0.25138804  1
  O  O23  1  0.87418554  0.25134125  0.74888716  1
  O  O24  1  0.37548038  0.64942892  0.75079473  1
  O  O25  1  0.62263318  0.94964790  0.25173643  1
  O  O26  1  0.87450993  0.44976928  0.75053162  1
  O  O27  1  0.37530826  0.85035302  0.74945731  1
  O  O28  1  0.87377795  0.64800969  0.75455699  1
  O  O29  1  0.87446122  0.85007140  0.75024032  1
