# generated using pymatgen
data_Ho6Mn23
_symmetry_space_group_name_H-M   'P 1'
_cell_length_a   8.50622138
_cell_length_b   8.50622103
_cell_length_c   8.50622149
_cell_angle_alpha   59.99999826
_cell_angle_beta   59.99999962
_cell_angle_gamma   59.99999840
_symmetry_Int_Tables_number   1
_chemical_formula_structural   Ho6Mn23
_chemical_formula_sum   'Ho6 Mn23'
_cell_volume   435.20614806
_cell_formula_units_Z   1
loop_
 _symmetry_equiv_pos_site_id
 _symmetry_equiv_pos_as_xyz
  1  'x, y, z'
loop_
 _atom_site_type_symbol
 _atom_site_label
 _atom_site_symmetry_multiplicity
 _atom_site_fract_x
 _atom_site_fract_y
 _atom_site_fract_z
 _atom_site_occupancy
  Ho  Ho0  1  0.79566842  0.20433158  0.20433158  1
  Ho  Ho1  1  0.79566842  0.79566842  0.20433158  1
  Ho  Ho2  1  0.20433158  0.79566842  0.79566842  1
  Ho  Ho3  1  0.79566842  0.20433158  0.79566842  1
  Ho  Ho4  1  0.20433158  0.20433158  0.79566842  1
  Ho  Ho5  1  0.20433158  0.79566842  0.20433158  1
  Mn  Mn6  1  0.82290666  0.53128003  0.82290666  1
  Mn  Mn7  1  0.17709334  0.46871997  0.17709334  1
  Mn  Mn8  1  0.00000000  0.00000000  0.50000000  1
  Mn  Mn9  1  0.37817862  0.37817862  0.37817862  1
  Mn  Mn10  1  0.53128003  0.82290666  0.82290666  1
  Mn  Mn11  1  0.13453586  0.62182138  0.62182138  1
  Mn  Mn12  1  0.17709334  0.17709334  0.46871997  1
  Mn  Mn13  1  0.82290666  0.82290666  0.82290666  1
  Mn  Mn14  1  0.62182138  0.13453586  0.62182138  1
  Mn  Mn15  1  0.00000000  0.50000000  0.50000000  1
  Mn  Mn16  1  0.46871997  0.17709334  0.17709334  1
  Mn  Mn17  1  0.86546414  0.37817862  0.37817862  1
  Mn  Mn18  1  0.17709334  0.17709334  0.17709334  1
  Mn  Mn19  1  0.00000000  0.50000000  0.00000000  1
  Mn  Mn20  1  0.50000000  0.00000000  0.00000000  1
  Mn  Mn21  1  0.62182138  0.62182138  0.13453586  1
  Mn  Mn22  1  0.82290666  0.82290666  0.53128003  1
  Mn  Mn23  1  0.62182138  0.62182138  0.62182138  1
  Mn  Mn24  1  0.37817862  0.86546414  0.37817862  1
  Mn  Mn25  1  0.37817862  0.37817862  0.86546414  1
  Mn  Mn26  1  0.50000000  0.00000000  0.50000000  1
  Mn  Mn27  1  0.50000000  0.50000000  0.50000000  1
  Mn  Mn28  1  0.50000000  0.50000000  0.00000000  1
