# generated using pymatgen
data_Mn11Ge8
_symmetry_space_group_name_H-M   'P 1'
_cell_length_a   5.00442446
_cell_length_b   12.96860822
_cell_length_c   15.68556830
_cell_angle_alpha   90.00000000
_cell_angle_beta   90.00000000
_cell_angle_gamma   90.00000000
_symmetry_Int_Tables_number   1
_chemical_formula_structural   Mn11Ge8
_chemical_formula_sum   'Mn44 Ge32'
_cell_volume   1017.99997356
_cell_formula_units_Z   4
loop_
 _symmetry_equiv_pos_site_id
 _symmetry_equiv_pos_as_xyz
  1  'x, y, z'
loop_
 _atom_site_type_symbol
 _atom_site_label
 _atom_site_symmetry_multiplicity
 _atom_site_fract_x
 _atom_site_fract_y
 _atom_site_fract_z
 _atom_site_occupancy
  Mn  Mn0  1  0.75000000  0.13486260  0.34294312  1
  Mn  Mn1  1  0.25000000  0.36513740  0.84294312  1
  Mn  Mn2  1  0.75000000  0.63486260  0.15705688  1
  Mn  Mn3  1  0.25000000  0.13044707  0.45830230  1
  Mn  Mn4  1  0.25000000  0.69490856  0.74780114  1
  Mn  Mn5  1  0.75000000  0.30509144  0.25219886  1
  Mn  Mn6  1  0.99883246  0.93975516  0.37918166  1
  Mn  Mn7  1  0.49273715  0.36496175  0.67550787  1
  Mn  Mn8  1  0.25000000  0.75199515  0.46924730  1
  Mn  Mn9  1  0.99273715  0.63503825  0.32449213  1
  Mn  Mn10  1  0.25000000  0.87702378  0.99481984  1
  Mn  Mn11  1  0.50116754  0.43975516  0.12081834  1
  Mn  Mn12  1  0.25000000  0.25199515  0.03075270  1
  Mn  Mn13  1  0.50726285  0.63503825  0.32449213  1
  Mn  Mn14  1  0.00116754  0.06024484  0.62081834  1
  Mn  Mn15  1  0.49883246  0.06024484  0.62081834  1
  Mn  Mn16  1  0.75000000  0.12297622  0.00518016  1
  Mn  Mn17  1  0.25000000  0.43315848  0.30567867  1
  Mn  Mn18  1  0.75000000  0.80509144  0.24780114  1
  Mn  Mn19  1  0.99273715  0.13503825  0.17550787  1
  Mn  Mn20  1  0.75000000  0.06684152  0.80567867  1
  Mn  Mn21  1  0.00116754  0.56024484  0.87918166  1
  Mn  Mn22  1  0.50116754  0.93975516  0.37918166  1
  Mn  Mn23  1  0.75000000  0.36955293  0.95830230  1
  Mn  Mn24  1  0.25000000  0.37702378  0.50518016  1
  Mn  Mn25  1  0.25000000  0.63044707  0.04169770  1
  Mn  Mn26  1  0.25000000  0.19490856  0.75219886  1
  Mn  Mn27  1  0.50726285  0.13503825  0.17550787  1
  Mn  Mn28  1  0.75000000  0.56684152  0.69432133  1
  Mn  Mn29  1  0.75000000  0.74800485  0.96924730  1
  Mn  Mn30  1  0.00726285  0.36496175  0.67550787  1
  Mn  Mn31  1  0.25000000  0.54635666  0.59356480  1
  Mn  Mn32  1  0.00726285  0.86496175  0.82449213  1
  Mn  Mn33  1  0.25000000  0.04635666  0.90643520  1
  Mn  Mn34  1  0.75000000  0.24800485  0.53075270  1
  Mn  Mn35  1  0.25000000  0.86513740  0.65705688  1
  Mn  Mn36  1  0.99883246  0.43975516  0.12081834  1
  Mn  Mn37  1  0.75000000  0.45364334  0.40643520  1
  Mn  Mn38  1  0.75000000  0.95364334  0.09356480  1
  Mn  Mn39  1  0.49273715  0.86496175  0.82449213  1
  Mn  Mn40  1  0.25000000  0.93315848  0.19432133  1
  Mn  Mn41  1  0.75000000  0.62297622  0.49481984  1
  Mn  Mn42  1  0.49883246  0.56024484  0.87918166  1
  Mn  Mn43  1  0.75000000  0.86955293  0.54169770  1
  Ge  Ge44  1  0.25000000  0.79504225  0.30446297  1
  Ge  Ge45  1  0.75000000  0.05595473  0.48348320  1
  Ge  Ge46  1  0.75000000  0.49104457  0.25537764  1
  Ge  Ge47  1  0.75000000  0.44834316  0.56321959  1
  Ge  Ge48  1  0.25000000  0.22594385  0.59630829  1
  Ge  Ge49  1  0.50326921  0.21358431  0.88786295  1
  Ge  Ge50  1  0.75000000  0.20495775  0.69553703  1
  Ge  Ge51  1  0.75000000  0.41545826  0.80385842  1
  Ge  Ge52  1  0.25000000  0.55165684  0.43678041  1
  Ge  Ge53  1  0.25000000  0.00895543  0.75537764  1
  Ge  Ge54  1  0.99673079  0.21358431  0.88786295  1
  Ge  Ge55  1  0.75000000  0.91545826  0.69614158  1
  Ge  Ge56  1  0.75000000  0.77405615  0.40369171  1
  Ge  Ge57  1  0.75000000  0.27405615  0.09630829  1
  Ge  Ge58  1  0.25000000  0.08454174  0.30385842  1
  Ge  Ge59  1  0.75000000  0.99104457  0.24462236  1
  Ge  Ge60  1  0.75000000  0.70495775  0.80446297  1
  Ge  Ge61  1  0.75000000  0.55595473  0.01651680  1
  Ge  Ge62  1  0.25000000  0.94404527  0.51651680  1
  Ge  Ge63  1  0.00326921  0.28641569  0.38786295  1
  Ge  Ge64  1  0.00326921  0.78641569  0.11213705  1
  Ge  Ge65  1  0.25000000  0.29504225  0.19553703  1
  Ge  Ge66  1  0.25000000  0.05165684  0.06321959  1
  Ge  Ge67  1  0.25000000  0.58454174  0.19614158  1
  Ge  Ge68  1  0.50326921  0.71358431  0.61213705  1
  Ge  Ge69  1  0.75000000  0.94834316  0.93678041  1
  Ge  Ge70  1  0.49673079  0.78641569  0.11213705  1
  Ge  Ge71  1  0.25000000  0.72594385  0.90369171  1
  Ge  Ge72  1  0.49673079  0.28641569  0.38786295  1
  Ge  Ge73  1  0.25000000  0.44404527  0.98348320  1
  Ge  Ge74  1  0.99673079  0.71358431  0.61213705  1
  Ge  Ge75  1  0.25000000  0.50895543  0.74462236  1
