# generated using pymatgen
data_Nb17Ir3Se40
_symmetry_space_group_name_H-M   'P 1'
_cell_length_a   3.53312236
_cell_length_b   34.99570123
_cell_length_c   22.30607194
_cell_angle_alpha   37.10436447
_cell_angle_beta   113.32723807
_cell_angle_gamma   120.31766001
_symmetry_Int_Tables_number   1
_chemical_formula_structural   Nb17Ir3Se40
_chemical_formula_sum   'Nb17 Ir3 Se40'
_cell_volume   1436.16344669
_cell_formula_units_Z   1
loop_
 _symmetry_equiv_pos_site_id
 _symmetry_equiv_pos_as_xyz
  1  'x, y, z'
loop_
 _atom_site_type_symbol
 _atom_site_label
 _atom_site_symmetry_multiplicity
 _atom_site_fract_x
 _atom_site_fract_y
 _atom_site_fract_z
 _atom_site_occupancy
  Nb  Nb0  1  0.94486020  0.93590093  0.50614222  1
  Nb  Nb1  1  0.00000000  0.85000000  0.50000000  1
  Nb  Nb2  1  0.05513980  0.76409907  0.49385778  1
  Nb  Nb3  1  0.97623400  0.89591565  0.99866229  1
  Nb  Nb4  1  0.02376600  0.80408435  0.00133771  1
  Nb  Nb5  1  0.05337252  0.56083804  0.49967293  1
  Nb  Nb6  1  0.03860274  0.70687399  0.00169312  1
  Nb  Nb7  1  0.93523984  0.43724713  0.49960168  1
  Nb  Nb8  1  0.96163936  0.59314858  -0.00164141  1
  Nb  Nb9  1  -0.00094295  0.49933638  0.00095006  1
  Nb  Nb10  1  0.06476016  0.26275287  0.50039832  1
  Nb  Nb11  1  0.03789072  0.40737371  0.00040887  1
  Nb  Nb12  1  0.94662748  0.13916196  0.50032707  1
  Nb  Nb13  1  0.96210928  0.29262629  -0.00040887  1
  Nb  Nb14  1  0.00094295  0.20066362  0.99904994  1
  Nb  Nb15  1  0.03836064  0.10685142  0.00164141  1
  Nb  Nb16  1  0.96139726  0.99312601  0.99830688  1
  Ir  Ir17  1  0.95575244  0.63833667  0.50562764  1
  Ir  Ir18  1  0.00000000  0.35000000  0.50000000  1
  Ir  Ir19  1  0.04424756  0.06166333  0.49437236  1
  Se  Se20  1  0.65751764  -0.00417354  0.87135334  1
  Se  Se21  1  0.34434639  0.97062345  0.59649245  1
  Se  Se22  1  0.66293925  0.89710165  0.87097160  1
  Se  Se23  1  0.32261217  0.84663868  0.63576831  1
  Se  Se24  1  0.67916965  0.79867148  0.87432410  1
  Se  Se25  1  0.33274188  0.75142033  0.63025690  1
  Se  Se26  1  0.66725812  0.94857967  0.36974310  1
  Se  Se27  1  0.67305145  0.69161212  0.88599555  1
  Se  Se28  1  0.31860776  0.66227175  0.60290039  1
  Se  Se29  1  0.67738783  0.85336132  0.36423169  1
  Se  Se30  1  0.32083035  0.90132852  0.12567590  1
  Se  Se31  1  0.65792664  0.59604360  0.87108265  1
  Se  Se32  1  0.33690585  0.55193667  0.63088980  1
  Se  Se33  1  0.65565361  0.72937655  0.40350755  1
  Se  Se34  1  0.33706075  0.80289835  0.12902840  1
  Se  Se35  1  0.67380788  0.49919536  0.87113163  1
  Se  Se36  1  0.31831252  0.45979949  0.60772684  1
  Se  Se37  1  0.34248236  0.70417354  0.12864666  1
  Se  Se38  1  0.67570057  0.65035562  0.36956818  1
  Se  Se39  1  0.67231207  0.39143430  0.88605543  1
  Se  Se40  1  0.32911694  0.60835303  0.11494151  1
  Se  Se41  1  0.31340379  0.34764091  0.63008049  1
  Se  Se42  1  0.66069450  0.29740549  0.86946602  1
  Se  Se43  1  0.66040383  0.53593145  0.39229784  1
  Se  Se44  1  0.36419304  0.26005520  0.62556762  1
  Se  Se45  1  0.32851583  0.50172459  0.12795795  1
  Se  Se46  1  0.63580696  0.43994480  0.37443238  1
  Se  Se47  1  0.67148417  0.19827541  0.87204205  1
  Se  Se48  1  0.33959617  0.16406855  0.60770216  1
  Se  Se49  1  0.33930550  0.40259451  0.13053398  1
  Se  Se50  1  0.68659621  0.35235909  0.36991951  1
  Se  Se51  1  0.67088306  0.09164697  0.88505849  1
  Se  Se52  1  0.32768793  0.30856570  0.11394457  1
  Se  Se53  1  0.32429943  0.04964438  0.63043182  1
  Se  Se54  1  0.68168748  0.24020051  0.39227316  1
  Se  Se55  1  0.32619212  0.20080464  0.12886837  1
  Se  Se56  1  0.66309415  0.14806333  0.36911020  1
  Se  Se57  1  0.34207336  0.10395640  0.12891735  1
  Se  Se58  1  0.68139224  0.03772825  0.39709961  1
  Se  Se59  1  0.32694855  0.00838788  0.11400445  1
