# generated using pymatgen
data_LiSb(PO3)4
_symmetry_space_group_name_H-M   'P 1'
_cell_length_a   7.35897995
_cell_length_b   13.17352347
_cell_length_c   9.76410942
_cell_angle_alpha   90.00000000
_cell_angle_beta   87.55398590
_cell_angle_gamma   90.00000000
_symmetry_Int_Tables_number   1
_chemical_formula_structural   LiSb(PO3)4
_chemical_formula_sum   'Li4 Sb4 P16 O48'
_cell_volume   945.70640712
_cell_formula_units_Z   4
loop_
 _symmetry_equiv_pos_site_id
 _symmetry_equiv_pos_as_xyz
  1  'x, y, z'
loop_
 _atom_site_type_symbol
 _atom_site_label
 _atom_site_symmetry_multiplicity
 _atom_site_fract_x
 _atom_site_fract_y
 _atom_site_fract_z
 _atom_site_occupancy
  Li  Li0  1  0.56070733  0.77945465  0.07219792  1
  Li  Li1  1  0.93929267  0.27945465  0.42780208  1
  Li  Li2  1  0.06070733  0.72054535  0.57219792  1
  Li  Li3  1  0.43929267  0.22054535  0.92780208  1
  Sb  Sb4  1  0.98247169  0.21360759  0.00822855  1
  Sb  Sb5  1  0.01752831  0.78639241  0.99177145  1
  Sb  Sb6  1  0.51752831  0.71360759  0.49177145  1
  Sb  Sb7  1  0.48247169  0.28639241  0.50822855  1
  P  P8  1  0.23676447  0.39722864  0.27605918  1
  P  P9  1  0.70814500  0.58722715  0.21136837  1
  P  P10  1  0.79185500  0.08722715  0.28863163  1
  P  P11  1  0.40032681  0.11374447  0.22390484  1
  P  P12  1  0.26323553  0.89722864  0.22394082  1
  P  P13  1  0.09967319  0.61374447  0.27609516  1
  P  P14  1  0.76323553  0.60277136  0.72394082  1
  P  P15  1  0.29185500  0.41277285  0.78863163  1
  P  P16  1  0.20814500  0.91277285  0.71136837  1
  P  P17  1  0.37777039  0.63103391  0.80772532  1
  P  P18  1  0.12222961  0.13103391  0.69227468  1
  P  P19  1  0.87777039  0.86896609  0.30772532  1
  P  P20  1  0.73676447  0.10277136  0.77605918  1
  P  P21  1  0.59967319  0.88625553  0.77609516  1
  P  P22  1  0.90032681  0.38625553  0.72390484  1
  P  P23  1  0.62222961  0.36896609  0.19227468  1
  O  O24  1  0.59426333  0.62838522  0.82821351  1
  O  O25  1  0.05858545  0.90133556  0.82109784  1
  O  O26  1  0.19596970  0.21221782  0.59750726  1
  O  O27  1  0.31117284  0.52218886  0.86401690  1
  O  O28  1  0.92599930  0.66615283  0.75093249  1
  O  O29  1  0.94141455  0.09866444  0.17890216  1
  O  O30  1  0.84246646  0.86241561  0.15596482  1
  O  O31  1  0.18882716  0.02218886  0.63598310  1
  O  O32  1  0.89407838  0.57235321  0.28930824  1
  O  O33  1  0.34424496  0.14847224  0.08671314  1
  O  O34  1  0.72271280  0.66455271  0.09973149  1
  O  O35  1  0.68882716  0.47781114  0.13598310  1
  O  O36  1  0.27728720  0.33544729  0.90026851  1
  O  O37  1  0.84424496  0.35152776  0.58671314  1
  O  O38  1  0.87707526  0.31495518  0.84413735  1
  O  O39  1  0.70824750  0.98761800  0.73055177  1
  O  O40  1  0.07400070  0.33384717  0.24906751  1
  O  O41  1  0.55858545  0.59866444  0.32109784  1
  O  O42  1  0.15753354  0.13758439  0.84403518  1
  O  O43  1  0.39407838  0.92764679  0.78930824  1
  O  O44  1  0.37707526  0.18504482  0.34413735  1
  O  O45  1  0.30031650  0.39232062  0.42371689  1
  O  O46  1  0.77728720  0.16455271  0.40026851  1
  O  O47  1  0.69596970  0.28778218  0.09750726  1
  O  O48  1  0.12292474  0.68504482  0.15586265  1
  O  O49  1  0.42599930  0.83384717  0.25093249  1
  O  O50  1  0.34246646  0.63758439  0.65596482  1
  O  O51  1  0.65575504  0.85152776  0.91328686  1
  O  O52  1  0.09426333  0.87161478  0.32821351  1
  O  O53  1  0.69968350  0.60767938  0.57628311  1
  O  O54  1  0.15575504  0.64847224  0.41328686  1
  O  O55  1  0.79175250  0.48761800  0.76944823  1
  O  O56  1  0.20824750  0.51238200  0.23055177  1
  O  O57  1  0.44141455  0.40133556  0.67890216  1
  O  O58  1  0.80403030  0.78778218  0.40249274  1
  O  O59  1  0.10592162  0.42764679  0.71069176  1
  O  O60  1  0.22271280  0.83544729  0.59973149  1
  O  O61  1  0.62292474  0.81495518  0.65586265  1
  O  O62  1  0.29175250  0.01238200  0.26944823  1
  O  O63  1  0.81117284  0.97781114  0.36401690  1
  O  O64  1  0.40573667  0.37161478  0.17178649  1
  O  O65  1  0.60592162  0.07235321  0.21069176  1
  O  O66  1  0.19968350  0.89232062  0.07628311  1
  O  O67  1  0.65753354  0.36241561  0.34403518  1
  O  O68  1  0.80031650  0.10767938  0.92371689  1
  O  O69  1  0.90573667  0.12838522  0.67178649  1
  O  O70  1  0.57400070  0.16615283  0.74906751  1
  O  O71  1  0.30403030  0.71221782  0.90249274  1
