# generated using pymatgen
data_Sr4NdNb2Al3O15
_symmetry_space_group_name_H-M   'P 1'
_cell_length_a   5.52837815
_cell_length_b   5.52837776
_cell_length_c   27.68157430
_cell_angle_alpha   60.04740933
_cell_angle_beta   60.04741168
_cell_angle_gamma   60.00000354
_symmetry_Int_Tables_number   1
_chemical_formula_structural   Sr4NdNb2Al3O15
_chemical_formula_sum   'Sr8 Nd2 Nb4 Al6 O30'
_cell_volume   598.66256197
_cell_formula_units_Z   2
loop_
 _symmetry_equiv_pos_site_id
 _symmetry_equiv_pos_as_xyz
  1  'x, y, z'
loop_
 _atom_site_type_symbol
 _atom_site_label
 _atom_site_symmetry_multiplicity
 _atom_site_fract_x
 _atom_site_fract_y
 _atom_site_fract_z
 _atom_site_occupancy
  Sr  Sr0  1  0.26028113  0.26028113  0.04383132  1
  Sr  Sr1  1  0.25071598  0.25071598  0.24957041  1
  Sr  Sr2  1  0.75123871  0.75123871  0.14925677  1
  Sr  Sr3  1  0.24999266  0.24999266  0.45000441  1
  Sr  Sr4  1  0.75000734  0.75000734  0.34999559  1
  Sr  Sr5  1  0.24876129  0.24876129  0.65074323  1
  Sr  Sr6  1  0.74928402  0.74928402  0.55042959  1
  Sr  Sr7  1  0.73971887  0.73971887  0.75616868  1
  Nd  Nd8  1  0.23775233  0.23775233  0.85734860  1
  Nd  Nd9  1  0.76224767  0.76224767  0.94265140  1
  Nb  Nb10  1  0.50222783  0.50222783  0.09866330  1
  Nb  Nb11  1  0.50031213  0.50031213  0.29981272  1
  Nb  Nb12  1  0.49968787  0.49968787  0.50018728  1
  Nb  Nb13  1  0.49777217  0.49777217  0.70133670  1
  Al  Al14  1  0.00564606  0.00564606  0.99661236  1
  Al  Al15  1  0.00165277  0.00165277  0.19900834  1
  Al  Al16  1  0.00000000  0.00000000  0.40000000  1
  Al  Al17  1  0.99834723  0.99834723  0.60099166  1
  Al  Al18  1  0.99435394  0.99435394  0.80338764  1
  Al  Al19  1  0.50000000  0.50000000  0.90000000  1
  O  O20  1  0.24673557  0.24673557  0.15002658  1
  O  O21  1  0.25246787  0.76017592  0.04543606  1
  O  O22  1  0.76017592  0.25246787  0.04543606  1
  O  O23  1  0.24673557  0.75639595  0.15002658  1
  O  O24  1  0.24451330  0.75627048  0.24858915  1
  O  O25  1  0.24441324  0.24441324  0.35110424  1
  O  O26  1  0.75639595  0.24673557  0.15002658  1
  O  O27  1  0.76017592  0.76017592  0.04543606  1
  O  O28  1  0.75627048  0.24451330  0.24858915  1
  O  O29  1  0.24441324  0.75565233  0.35110424  1
  O  O30  1  0.24434767  0.75558676  0.44889576  1
  O  O31  1  0.24372952  0.24372952  0.55141085  1
  O  O32  1  0.75627048  0.75627048  0.24858915  1
  O  O33  1  0.75565233  0.24441324  0.35110424  1
  O  O34  1  0.75558676  0.24434767  0.44889576  1
  O  O35  1  0.24372952  0.75548670  0.55141085  1
  O  O36  1  0.24360405  0.75326443  0.64997342  1
  O  O37  1  0.23982408  0.23982408  0.75456394  1
  O  O38  1  0.75558676  0.75558676  0.44889576  1
  O  O39  1  0.75548670  0.24372952  0.55141085  1
  O  O40  1  0.75326443  0.24360405  0.64997342  1
  O  O41  1  0.23982408  0.74753213  0.75456394  1
  O  O42  1  0.23738037  0.74733433  0.85359019  1
  O  O43  1  0.25266567  0.25266567  0.94640981  1
  O  O44  1  0.74753213  0.23982408  0.75456394  1
  O  O45  1  0.75326443  0.75326443  0.64997342  1
  O  O46  1  0.74733433  0.23738037  0.85359019  1
  O  O47  1  0.25266567  0.76261963  0.94640981  1
  O  O48  1  0.74733433  0.74733433  0.85359019  1
  O  O49  1  0.76261963  0.25266567  0.94640981  1
