# generated using pymatgen
data_K2YbSn(PO4)3
_symmetry_space_group_name_H-M   'P 1'
_cell_length_a   10.40382118
_cell_length_b   10.40382118
_cell_length_c   10.40382118
_cell_angle_alpha   90.00000000
_cell_angle_beta   90.00000000
_cell_angle_gamma   90.00000000
_symmetry_Int_Tables_number   1
_chemical_formula_structural   K2YbSn(PO4)3
_chemical_formula_sum   'K8 Yb4 Sn4 P12 O48'
_cell_volume   1126.10435211
_cell_formula_units_Z   4
loop_
 _symmetry_equiv_pos_site_id
 _symmetry_equiv_pos_as_xyz
  1  'x, y, z'
loop_
 _atom_site_type_symbol
 _atom_site_label
 _atom_site_symmetry_multiplicity
 _atom_site_fract_x
 _atom_site_fract_y
 _atom_site_fract_z
 _atom_site_occupancy
  Yb  Yb0  1  0.08326264  0.91673736  0.41673736  1
  Yb  Yb1  1  0.41673736  0.08326264  0.91673736  1
  Yb  Yb2  1  0.58326264  0.58326264  0.58326264  1
  Yb  Yb3  1  0.91673736  0.41673736  0.08326264  1
  K  K4  1  0.07166409  0.07166409  0.07166409  1
  K  K5  1  0.20829226  0.70829226  0.79170774  1
  K  K6  1  0.29170774  0.29170774  0.29170774  1
  K  K7  1  0.42833591  0.92833591  0.57166409  1
  K  K8  1  0.57166409  0.42833591  0.92833591  1
  K  K9  1  0.70829226  0.79170774  0.20829226  1
  K  K10  1  0.79170774  0.20829226  0.70829226  1
  K  K11  1  0.92833591  0.57166409  0.42833591  1
  Sn  Sn12  1  0.15349069  0.34650931  0.65349069  1
  Sn  Sn13  1  0.34650931  0.65349069  0.15349069  1
  Sn  Sn14  1  0.65349069  0.15349069  0.34650931  1
  Sn  Sn15  1  0.84650931  0.84650931  0.84650931  1
  P  P16  1  0.03902747  0.73923940  0.11751790  1
  P  P17  1  0.11751790  0.03902747  0.73923940  1
  P  P18  1  0.23923940  0.38248210  0.96097253  1
  P  P19  1  0.26076060  0.61751790  0.46097253  1
  P  P20  1  0.38248210  0.96097253  0.23923940  1
  P  P21  1  0.46097253  0.26076060  0.61751790  1
  P  P22  1  0.53902747  0.76076060  0.88248210  1
  P  P23  1  0.61751790  0.46097253  0.26076060  1
  P  P24  1  0.73923940  0.11751790  0.03902747  1
  P  P25  1  0.76076060  0.88248210  0.53902747  1
  P  P26  1  0.88248210  0.53902747  0.76076060  1
  P  P27  1  0.96097253  0.23923940  0.38248210  1
  O  O28  1  0.00050361  0.60250793  0.15185288  1
  O  O29  1  0.01308924  0.82881318  0.23078522  1
  O  O30  1  0.00060868  0.96220818  0.79278171  1
  O  O31  1  0.03779182  0.29278171  0.49939132  1
  O  O32  1  0.07579126  0.18594486  0.74476452  1
  O  O33  1  0.10250793  0.34814712  0.99949639  1
  O  O34  1  0.15185288  0.00050361  0.60250793  1
  O  O35  1  0.17118682  0.73078522  0.48691076  1
  O  O36  1  0.18594486  0.74476452  0.07579126  1
  O  O37  1  0.20721829  0.50060868  0.53779182  1
  O  O38  1  0.23078522  0.01308924  0.82881318  1
  O  O39  1  0.25523548  0.57579126  0.31405514  1
  O  O40  1  0.24476452  0.42420874  0.81405514  1
  O  O41  1  0.26921478  0.98691076  0.32881318  1
  O  O42  1  0.29278171  0.49939132  0.03779182  1
  O  O43  1  0.31405514  0.25523548  0.57579126  1
  O  O44  1  0.32881318  0.26921478  0.98691076  1
  O  O45  1  0.34814712  0.99949639  0.10250793  1
  O  O46  1  0.39749207  0.65185288  0.49949639  1
  O  O47  1  0.42420874  0.81405514  0.24476452  1
  O  O48  1  0.46220818  0.70721829  0.99939132  1
  O  O49  1  0.49939132  0.03779182  0.29278171  1
  O  O50  1  0.49949639  0.39749207  0.65185288  1
  O  O51  1  0.48691076  0.17118682  0.73078522  1
  O  O52  1  0.51308924  0.67118682  0.76921478  1
  O  O53  1  0.50050361  0.89749207  0.84814712  1
  O  O54  1  0.50060868  0.53779182  0.20721829  1
  O  O55  1  0.53779182  0.20721829  0.50060868  1
  O  O56  1  0.57579126  0.31405514  0.25523548  1
  O  O57  1  0.60250793  0.15185288  0.00050361  1
  O  O58  1  0.65185288  0.49949639  0.39749207  1
  O  O59  1  0.67118682  0.76921478  0.51308924  1
  O  O60  1  0.68594486  0.75523548  0.92420874  1
  O  O61  1  0.70721829  0.99939132  0.46220818  1
  O  O62  1  0.73078522  0.48691076  0.17118682  1
  O  O63  1  0.75523548  0.92420874  0.68594486  1
  O  O64  1  0.74476452  0.07579126  0.18594486  1
  O  O65  1  0.76921478  0.51308924  0.67118682  1
  O  O66  1  0.79278171  0.00060868  0.96220818  1
  O  O67  1  0.81405514  0.24476452  0.42420874  1
  O  O68  1  0.82881318  0.23078522  0.01308924  1
  O  O69  1  0.84814712  0.50050361  0.89749207  1
  O  O70  1  0.89749207  0.84814712  0.50050361  1
  O  O71  1  0.92420874  0.68594486  0.75523548  1
  O  O72  1  0.96220818  0.79278171  0.00060868  1
  O  O73  1  0.99939132  0.46220818  0.70721829  1
  O  O74  1  0.99949639  0.10250793  0.34814712  1
  O  O75  1  0.98691076  0.32881318  0.26921478  1
