# generated using pymatgen
data_Tb6In23Pt12
_symmetry_space_group_name_H-M   'P 1'
_cell_length_a   4.46694683
_cell_length_b   14.52334699
_cell_length_c   14.98154419
_cell_angle_alpha   112.05876978
_cell_angle_beta   90.00000000
_cell_angle_gamma   98.84633901
_symmetry_Int_Tables_number   1
_chemical_formula_structural   Tb6In23Pt12
_chemical_formula_sum   'Tb6 In23 Pt12'
_cell_volume   888.29471677
_cell_formula_units_Z   1
loop_
 _symmetry_equiv_pos_site_id
 _symmetry_equiv_pos_as_xyz
  1  'x, y, z'
loop_
 _atom_site_type_symbol
 _atom_site_label
 _atom_site_symmetry_multiplicity
 _atom_site_fract_x
 _atom_site_fract_y
 _atom_site_fract_z
 _atom_site_occupancy
  Tb  Tb0  1  0.54589818  0.09179635  0.69859696  1
  Tb  Tb1  1  0.83413023  0.66826046  0.46929008  1
  Tb  Tb2  1  0.17809166  0.35618332  0.07795380  1
  Tb  Tb3  1  0.82190834  0.64381668  0.92204620  1
  Tb  Tb4  1  0.16586977  0.33173954  0.53070992  1
  Tb  Tb5  1  0.45410182  0.90820365  0.30140304  1
  In  In6  1  0.40789667  0.81579333  0.04975996  1
  In  In7  1  0.94382927  0.88765854  0.93852614  1
  In  In8  1  0.14573137  0.29146273  0.27941399  1
  In  In9  1  0.72732465  0.45464931  0.24431248  1
  In  In10  1  0.95459524  0.90919048  0.66663609  1
  In  In11  1  0.04540476  0.09080952  0.33336391  1
  In  In12  1  0.76215950  0.52431900  0.08357702  1
  In  In13  1  0.87658056  0.75316112  0.17055344  1
  In  In14  1  0.12341944  0.24683888  0.82944656  1
  In  In15  1  0.47128803  0.94257607  0.82545377  1
  In  In16  1  0.59210333  0.18420667  0.95024004  1
  In  In17  1  0.05617073  0.11234146  0.06147386  1
  In  In18  1  0.42460776  0.84921551  0.49398771  1
  In  In19  1  0.32641343  0.65282687  0.28181649  1
  In  In20  1  0.00000000  0.00000000  0.50000000  1
  In  In21  1  0.52871197  0.05742393  0.17454623  1
  In  In22  1  0.28665545  0.57331089  0.56539417  1
  In  In23  1  0.67358657  0.34717313  0.71818351  1
  In  In24  1  0.23784050  0.47568100  0.91642298  1
  In  In25  1  0.27267535  0.54535069  0.75568752  1
  In  In26  1  0.71334455  0.42668911  0.43460583  1
  In  In27  1  0.85426863  0.70853727  0.72058601  1
  In  In28  1  0.57539224  0.15078449  0.50601229  1
  Pt  Pt29  1  0.90054170  0.80108341  0.36548597  1
  Pt  Pt30  1  0.32061877  0.64123754  0.08916405  1
  Pt  Pt31  1  0.38100060  0.76200120  0.85070086  1
  Pt  Pt32  1  0.03262727  0.06525454  0.85757923  1
  Pt  Pt33  1  0.09945830  0.19891659  0.63451403  1
  Pt  Pt34  1  0.60936663  0.21873325  0.35903149  1
  Pt  Pt35  1  0.25321548  0.50643096  0.36411289  1
  Pt  Pt36  1  0.67938123  0.35876246  0.91083595  1
  Pt  Pt37  1  0.96737273  0.93474546  0.14242077  1
  Pt  Pt38  1  0.39063337  0.78126675  0.64096851  1
  Pt  Pt39  1  0.61899940  0.23799880  0.14929914  1
  Pt  Pt40  1  0.74678452  0.49356904  0.63588711  1
