# generated using pymatgen
data_LiMgAl3(SO4)6
_symmetry_space_group_name_H-M   'P 1'
_cell_length_a   8.67471644
_cell_length_b   17.37444664
_cell_length_c   15.26550594
_cell_angle_alpha   28.52621843
_cell_angle_beta   51.76766804
_cell_angle_gamma   56.95177119
_symmetry_Int_Tables_number   1
_chemical_formula_structural   LiMgAl3(SO4)6
_chemical_formula_sum   'Li2 Mg2 Al6 S12 O48'
_cell_volume   863.08314010
_cell_formula_units_Z   2
loop_
 _symmetry_equiv_pos_site_id
 _symmetry_equiv_pos_as_xyz
  1  'x, y, z'
loop_
 _atom_site_type_symbol
 _atom_site_label
 _atom_site_symmetry_multiplicity
 _atom_site_fract_x
 _atom_site_fract_y
 _atom_site_fract_z
 _atom_site_occupancy
  Li  Li0  1  0.18843300  0.34867097  0.73621765  1
  Li  Li1  1  0.81156700  0.65132903  0.26378235  1
  Mg  Mg2  1  0.36303249  0.50098344  0.35289220  1
  Mg  Mg3  1  0.63696751  0.49901656  0.64710780  1
  Al  Al4  1  0.14100119  0.99501680  0.15825230  1
  Al  Al5  1  0.35870697  0.99614965  0.35961281  1
  Al  Al6  1  0.15714074  0.49979375  0.14249013  1
  Al  Al7  1  0.64129303  0.00385035  0.64038719  1
  Al  Al8  1  0.84285926  0.50020625  0.85750987  1
  Al  Al9  1  0.85899881  0.00498320  0.84174770  1
  S  S10  1  0.03843041  0.14551478  0.45801308  1
  S  S11  1  0.74733165  0.20710569  0.04494825  1
  S  S12  1  0.54203435  0.35075273  0.25150740  1
  S  S13  1  0.03805996  0.64631508  0.46352192  1
  S  S14  1  0.45872997  0.13331263  0.76361746  1
  S  S15  1  0.76126976  0.71244827  0.03406293  1
  S  S16  1  0.23873024  0.28755173  0.96593707  1
  S  S17  1  0.54127003  0.86668737  0.23638254  1
  S  S18  1  0.96194004  0.35368492  0.53647808  1
  S  S19  1  0.45796565  0.64924727  0.74849260  1
  S  S20  1  0.25266835  0.79289431  0.95505175  1
  S  S21  1  0.96156959  0.85448522  0.54198692  1
  O  O22  1  0.29048588  0.18267570  0.12719917  1
  O  O23  1  0.03598081  0.32031465  0.30344742  1
  O  O24  1  0.02051973  0.04874285  0.64264027  1
  O  O25  1  0.22695298  0.10029123  0.39590216  1
  O  O26  1  0.60293136  0.07622329  0.23888204  1
  O  O27  1  0.35725174  0.36149171  0.25374984  1
  O  O28  1  0.11154918  0.38356548  0.51994311  1
  O  O29  1  0.74011703  0.31016401  0.02391775  1
  O  O30  1  0.95034766  0.13628246  0.03403668  1
  O  O31  1  0.29064757  0.70262930  0.11193124  1
  O  O32  1  0.60160335  0.17860639  0.40213666  1
  O  O33  1  0.69599903  0.45027757  0.05630748  1
  O  O34  1  0.03016011  0.81881852  0.31715887  1
  O  O35  1  0.51714861  0.40827550  0.29189839  1
  O  O36  1  0.00606610  0.54087021  0.66071924  1
  O  O37  1  0.23418182  0.59475170  0.41682179  1
  O  O38  1  0.48796354  0.08757534  0.70650910  1
  O  O39  1  0.30802653  0.02731206  0.96191996  1
  O  O40  1  0.38910060  0.30194696  0.62550385  1
  O  O41  1  0.61932023  0.58597704  0.22575387  1
  O  O42  1  0.04046213  0.35553349  0.98290576  1
  O  O43  1  0.23785912  0.19038901  0.97878700  1
  O  O44  1  0.87312825  0.11122825  0.49059669  1
  O  O45  1  0.35332819  0.87335560  0.24679537  1
  O  O46  1  0.64667181  0.12664440  0.75320463  1
  O  O47  1  0.12687175  0.88877175  0.50940331  1
  O  O48  1  0.76214088  0.80961099  0.02121300  1
  O  O49  1  0.95953787  0.64446651  0.01709424  1
  O  O50  1  0.38067977  0.41402296  0.77424613  1
  O  O51  1  0.61089940  0.69805304  0.37449615  1
  O  O52  1  0.69197347  0.97268794  0.03808004  1
  O  O53  1  0.51203646  0.91242466  0.29349090  1
  O  O54  1  0.76581818  0.40524830  0.58317821  1
  O  O55  1  0.99393390  0.45912979  0.33928076  1
  O  O56  1  0.48285139  0.59172450  0.70810161  1
  O  O57  1  0.96983989  0.18118148  0.68284113  1
  O  O58  1  0.30400097  0.54972243  0.94369252  1
  O  O59  1  0.39839665  0.82139361  0.59786334  1
  O  O60  1  0.70935243  0.29737070  0.88806876  1
  O  O61  1  0.04965234  0.86371754  0.96596332  1
  O  O62  1  0.25988297  0.68983599  0.97608225  1
  O  O63  1  0.88845082  0.61643452  0.48005689  1
  O  O64  1  0.64274826  0.63850829  0.74625016  1
  O  O65  1  0.39706864  0.92377671  0.76111796  1
  O  O66  1  0.77304702  0.89970877  0.60409784  1
  O  O67  1  0.97948027  0.95125715  0.35735973  1
  O  O68  1  0.96401919  0.67968535  0.69655258  1
  O  O69  1  0.70951412  0.81732430  0.87280083  1
