# generated using pymatgen
data_K2SO4
_symmetry_space_group_name_H-M   'P 1'
_cell_length_a   5.92677670
_cell_length_b   6.07310088
_cell_length_c   7.94976716
_cell_angle_alpha   89.89681456
_cell_angle_beta   90.05286647
_cell_angle_gamma   120.82011173
_symmetry_Int_Tables_number   1
_chemical_formula_structural   K2SO4
_chemical_formula_sum   'K4 S2 O8'
_cell_volume   245.73371204
_cell_formula_units_Z   2
loop_
 _symmetry_equiv_pos_site_id
 _symmetry_equiv_pos_as_xyz
  1  'x, y, z'
loop_
 _atom_site_type_symbol
 _atom_site_label
 _atom_site_symmetry_multiplicity
 _atom_site_fract_x
 _atom_site_fract_y
 _atom_site_fract_z
 _atom_site_occupancy
  K  K0  1  0.35087817  0.67543959  0.75000000  1
  K  K1  1  0.00000000  0.00000000  0.00000000  1
  K  K2  1  0.00000000  0.00000000  0.50000000  1
  K  K3  1  0.64912183  0.32456041  0.25000000  1
  S  S4  1  0.33129747  0.66564924  0.25000000  1
  S  S5  1  0.66870253  0.33435076  0.75000000  1
  O  O6  1  0.15846355  0.77978669  0.24638686  1
  O  O7  1  0.50061612  0.75535704  0.40206394  1
  O  O8  1  0.50061612  0.74526008  0.09793606  1
  O  O9  1  0.15846355  0.37867687  0.25361314  1
  O  O10  1  0.84153645  0.62132313  0.74638686  1
  O  O11  1  0.49938388  0.24464296  0.59793606  1
  O  O12  1  0.49938388  0.25473992  0.90206394  1
  O  O13  1  0.84153645  0.22021331  0.75361314  1
