# generated using pymatgen
data_La5YbS8
_symmetry_space_group_name_H-M   'P 1'
_cell_length_a   7.52613498
_cell_length_b   7.52613485
_cell_length_c   7.52613471
_cell_angle_alpha   109.51084258
_cell_angle_beta   109.39201238
_cell_angle_gamma   109.51083486
_symmetry_Int_Tables_number   1
_chemical_formula_structural   La5YbS8
_chemical_formula_sum   'Yb1 La5 S8'
_cell_volume   328.16592108
_cell_formula_units_Z   1
loop_
 _symmetry_equiv_pos_site_id
 _symmetry_equiv_pos_as_xyz
  1  'x, y, z'
loop_
 _atom_site_type_symbol
 _atom_site_label
 _atom_site_symmetry_multiplicity
 _atom_site_fract_x
 _atom_site_fract_y
 _atom_site_fract_z
 _atom_site_occupancy
  Yb  Yb0  1  0.12500000  0.75000000  0.87500000  1
  La  La1  1  0.24792245  0.62732506  0.37387771  1
  La  La2  1  0.37500000  0.25000000  0.62500000  1
  La  La3  1  0.74655265  0.87267494  0.12059739  1
  La  La4  1  0.62612229  0.37404475  0.25344735  1
  La  La5  1  0.87940261  0.12595525  0.75207755  1
  S  S6  1  0.00399542  0.35593639  0.50512523  1
  S  S7  1  0.14918884  0.14406361  0.14805902  1
  S  S8  1  0.35024367  0.49972504  0.00049594  1
  S  S9  1  0.64948136  0.65025226  0.64975633  1
  S  S10  1  0.49487477  0.99887018  0.85081116  1
  S  S11  1  0.50077090  0.00027496  0.35051864  1
  S  S12  1  -0.00049594  0.84974774  0.49922910  1
  S  S13  1  0.85194098  0.50112982  0.99600458  1
