# generated using pymatgen
data_SrLaTiMnO6
_symmetry_space_group_name_H-M   'P 1'
_cell_length_a   5.59358143
_cell_length_b   22.27312371
_cell_length_c   9.63208220
_cell_angle_alpha   30.12799553
_cell_angle_beta   55.00791702
_cell_angle_gamma   60.26481775
_symmetry_Int_Tables_number   1
_chemical_formula_structural   SrLaTiMnO6
_chemical_formula_sum   'Sr4 La4 Ti4 Mn4 O24'
_cell_volume   493.45085432
_cell_formula_units_Z   4
loop_
 _symmetry_equiv_pos_site_id
 _symmetry_equiv_pos_as_xyz
  1  'x, y, z'
loop_
 _atom_site_type_symbol
 _atom_site_label
 _atom_site_symmetry_multiplicity
 _atom_site_fract_x
 _atom_site_fract_y
 _atom_site_fract_z
 _atom_site_occupancy
  Sr  Sr0  1  0.25000000  0.99960182  0.25079635  1
  Sr  Sr1  1  0.25000000  0.25194058  0.24611884  1
  Sr  Sr2  1  0.75000000  0.99805942  0.75388116  1
  Sr  Sr3  1  0.75000000  0.25039818  0.74920365  1
  La  La4  1  0.25000000  0.49944556  0.25110887  1
  La  La5  1  0.25000000  0.74775484  0.25449032  1
  La  La6  1  0.75000000  0.50224516  0.74550968  1
  La  La7  1  0.75000000  0.75055444  0.74889113  1
  Ti  Ti8  1  0.99435683  0.00022769  0.00086308  1
  Ti  Ti9  1  0.00564317  0.24977231  0.99913692  1
  Ti  Ti10  1  0.50564317  0.00022769  0.49822615  1
  Ti  Ti11  1  0.49435683  0.24977231  0.50177385  1
  Mn  Mn12  1  0.00280386  0.49914488  0.00100501  1
  Mn  Mn13  1  0.99719614  0.75085512  -0.00100501  1
  Mn  Mn14  1  0.49719614  0.49914488  0.50241549  1
  Mn  Mn15  1  0.50280386  0.75085512  0.49758451  1
  O  O16  1  0.21198001  0.11492498  0.29129778  1
  O  O17  1  0.75000000  0.01964840  0.21070320  1
  O  O18  1  0.21194971  0.36300450  0.29881627  1
  O  O19  1  0.71198001  0.13507502  0.25099771  1
  O  O20  1  0.28801999  0.11492498  0.74900229  1
  O  O21  1  0.25000000  0.23035160  0.78929680  1
  O  O22  1  0.75000000  0.27672172  0.19655656  1
  O  O23  1  0.19305912  0.61146838  0.30338400  1
  O  O24  1  0.68682887  0.38856900  0.24720042  1
  O  O25  1  0.28805029  0.36300450  0.74916575  1
  O  O26  1  0.78801999  0.13507502  0.70870222  1
  O  O27  1  0.25000000  0.48181112  0.78637777  1
  O  O28  1  0.75000000  0.53024951  0.18950098  1
  O  O29  1  0.18682887  0.86143100  0.30147642  1
  O  O30  1  0.69305912  0.63853162  0.24925751  1
  O  O31  1  0.30694088  0.61146838  0.75074249  1
  O  O32  1  0.81317113  0.38856900  0.69852358  1
  O  O33  1  0.25000000  0.71975049  0.81049902  1
  O  O34  1  0.75000000  0.76818888  0.21362223  1
  O  O35  1  0.71194971  0.88699550  0.25083425  1
  O  O36  1  0.31317113  0.86143100  0.75279958  1
  O  O37  1  0.80694088  0.63853162  0.69661600  1
  O  O38  1  0.25000000  0.97327828  0.80344344  1
  O  O39  1  0.78805029  0.88699550  0.70118373  1
