# generated using pymatgen
data_SmH12(NO5)3
_symmetry_space_group_name_H-M   'P 1'
_cell_length_a   9.94094109
_cell_length_b   11.95611921
_cell_length_c   7.18382980
_cell_angle_alpha   97.27276647
_cell_angle_beta   110.13724471
_cell_angle_gamma   105.89065512
_symmetry_Int_Tables_number   1
_chemical_formula_structural   SmH12(NO5)3
_chemical_formula_sum   'Sm2 H24 N6 O30'
_cell_volume   747.59000217
_cell_formula_units_Z   2
loop_
 _symmetry_equiv_pos_site_id
 _symmetry_equiv_pos_as_xyz
  1  'x, y, z'
loop_
 _atom_site_type_symbol
 _atom_site_label
 _atom_site_symmetry_multiplicity
 _atom_site_fract_x
 _atom_site_fract_y
 _atom_site_fract_z
 _atom_site_occupancy
  Sm  Sm0  1  0.62400800  0.78585294  0.88510366  1
  Sm  Sm1  1  0.37599200  0.21414706  0.11489634  1
  H  H2  1  0.60823833  -0.00630418  0.72081327  1
  H  H3  1  0.39176167  0.00630418  0.27918673  1
  H  H4  1  0.45947793  0.98242174  0.76303044  1
  H  H5  1  0.54052207  0.01757826  0.23696956  1
  H  H6  1  0.21803384  0.52553860  0.82880776  1
  H  H7  1  0.78196616  0.47446140  0.17119224  1
  H  H8  1  0.55837246  0.55408848  0.65888956  1
  H  H9  1  0.44162754  0.44591152  0.34111044  1
  H  H10  1  0.89211149  0.77346281  0.72334885  1
  H  H11  1  0.10788851  0.22653719  0.27665115  1
  H  H12  1  0.70938523  0.83718387  0.56557997  1
  H  H13  1  0.29061477  0.16281613  0.43442003  1
  H  H14  1  0.15116071  0.93252315  0.20605274  1
  H  H15  1  0.84883929  0.06747685  0.79394726  1
  H  H16  1  0.34981918  0.57392655  0.44963202  1
  H  H17  1  0.65018082  0.42607345  0.55036798  1
  H  H18  1  0.15376766  0.90378977  0.44972674  1
  H  H19  1  0.84623234  0.09621023  0.55027326  1
  H  H20  1  0.16901903  0.80430816  0.22484770  1
  H  H21  1  0.83098097  0.19569184  0.77515230  1
  H  H22  1  0.14882916  0.34893995  0.41117918  1
  H  H23  1  0.85117084  0.65106005  0.58882082  1
  H  H24  1  0.17462507  0.50833220  0.29566872  1
  H  H25  1  0.82537493  0.49166780  0.70433128  1
  N  N26  1  0.80342211  0.66660441  0.15394627  1
  N  N27  1  0.19657789  0.33339559  0.84605373  1
  N  N28  1  0.82206032  0.00814143  0.27275261  1
  N  N29  1  0.17793968  0.99185857  0.72724739  1
  N  N30  1  0.27914826  0.69759544  0.96275792  1
  N  N31  1  0.72085174  0.30240456  0.03724208  1
  O  O32  1  0.53092712  0.94073813  0.75677976  1
  O  O33  1  0.46907288  0.05926187  0.24322024  1
  O  O34  1  0.93824960  0.71197652  0.69945688  1
  O  O35  1  0.06175040  0.28802348  0.30054312  1
  O  O36  1  0.76216974  0.86537201  0.71378200  1
  O  O37  1  0.23783026  0.13462799  0.28621800  1
  O  O38  1  0.51637798  0.61891111  0.65948940  1
  O  O39  1  0.48362202  0.38108889  0.34051060  1
  O  O40  1  0.20197784  0.88931241  0.30046690  1
  O  O41  1  0.79802216  0.11068759  0.69953310  1
  O  O42  1  0.27687574  0.54651518  0.30249532  1
  O  O43  1  0.72312426  0.45348482  0.69750468  1
  O  O44  1  0.66573262  0.64305894  0.13212515  1
  O  O45  1  0.33426738  0.35694106  0.86787485  1
  O  O46  1  0.86320285  0.75859127  0.09813499  1
  O  O47  1  0.13679715  0.24140873  0.90186501  1
  O  O48  1  0.88063699  0.60238596  0.22375608  1
  O  O49  1  0.11936301  0.39761404  0.77624392  1
  O  O50  1  0.68813942  0.94503604  0.24651326  1
  O  O51  1  0.31186058  0.05496396  0.75348674  1
  O  O52  1  0.87538266  0.99447009  0.14404136  1
  O  O53  1  0.12461734  0.00552991  0.85595864  1
  O  O54  1  0.90728035  0.09045941  0.44393561  1
  O  O55  1  0.09271965  0.90954059  0.55606439  1
  O  O56  1  0.37981963  0.79766607  0.00027208  1
  O  O57  1  0.62018037  0.20233393  0.99972792  1
  O  O58  1  0.29604188  0.60927020  0.84519781  1
  O  O59  1  0.70395812  0.39072980  0.15480219  1
  O  O60  1  0.17603941  0.67721687  0.02158924  1
  O  O61  1  0.82396059  0.32278313  -0.02158924  1
