# generated using pymatgen
data_Ba6Nb5S17
_symmetry_space_group_name_H-M   'P 1'
_cell_length_a   20.54970183
_cell_length_b   12.04785303
_cell_length_c   8.99025470
_cell_angle_alpha   48.46524933
_cell_angle_beta   39.98854188
_cell_angle_gamma   29.97997717
_symmetry_Int_Tables_number   1
_chemical_formula_structural   Ba6Nb5S17
_chemical_formula_sum   'Ba6 Nb5 S17'
_cell_volume   714.75541811
_cell_formula_units_Z   1
loop_
 _symmetry_equiv_pos_site_id
 _symmetry_equiv_pos_as_xyz
  1  'x, y, z'
loop_
 _atom_site_type_symbol
 _atom_site_label
 _atom_site_symmetry_multiplicity
 _atom_site_fract_x
 _atom_site_fract_y
 _atom_site_fract_z
 _atom_site_occupancy
  Ba  Ba0  1  0.24707544  0.34439702  0.25327292  1
  Ba  Ba1  1  0.09440443  0.64638920  0.74969684  1
  Ba  Ba2  1  0.57848032  0.31843952  0.26410536  1
  Ba  Ba3  1  0.41519379  0.66961045  0.77339864  1
  Ba  Ba4  1  0.91280620  0.34836288  0.23775337  1
  Ba  Ba5  1  0.76001169  0.66578499  0.72607166  1
  Nb  Nb6  1  0.00221944  0.99955116  0.00818779  1
  Nb  Nb7  1  0.13419148  0.03111640  0.50037401  1
  Nb  Nb8  1  0.66479256  0.99434793  0.00870178  1
  Nb  Nb9  1  0.48077029  0.00076462  0.55706362  1
  Nb  Nb10  1  0.82588073  0.00879530  0.50214611  1
  S  S11  1  0.08871747  0.32813121  0.25937830  1
  S  S12  1  0.10623012  0.14112599  0.72464160  1
  S  S13  1  0.24499221  0.17360300  0.74389827  1
  S  S14  1  0.08387039  0.83998979  0.25630732  1
  S  S15  1  0.41648226  0.33261568  0.24779697  1
  S  S16  1  0.25967227  0.81631850  0.25883139  1
  S  S17  1  0.42306975  0.16560884  0.74307641  1
  S  S18  1  0.25930489  0.67837605  0.72958441  1
  S  S19  1  0.57505130  0.17911660  0.74573804  1
  S  S20  1  0.73888060  0.35013407  0.24154396  1
  S  S21  1  0.57426525  0.84218934  0.24257348  1
  S  S22  1  0.75414195  0.16299352  0.74596664  1
  S  S23  1  0.59700638  0.65404172  0.73571225  1
  S  S24  1  0.89962362  0.17629322  0.76874163  1
  S  S25  1  0.75801913  0.82139127  0.24357428  1
  S  S26  1  0.92392353  0.82598801  0.23998663  1
  S  S27  1  0.92098950  0.66112373  0.74187634  1
