# generated using pymatgen
data_Tl2In3Se5
_symmetry_space_group_name_H-M   'P 1'
_cell_length_a   6.79885429
_cell_length_b   6.79885402
_cell_length_c   67.78742927
_cell_angle_alpha   105.19293524
_cell_angle_beta   105.20992782
_cell_angle_gamma   118.49778033
_symmetry_Int_Tables_number   1
_chemical_formula_structural   Tl2In3Se5
_chemical_formula_sum   'Tl16 In24 Se40'
_cell_volume   2364.09309025
_cell_formula_units_Z   8
loop_
 _symmetry_equiv_pos_site_id
 _symmetry_equiv_pos_as_xyz
  1  'x, y, z'
loop_
 _atom_site_type_symbol
 _atom_site_label
 _atom_site_symmetry_multiplicity
 _atom_site_fract_x
 _atom_site_fract_y
 _atom_site_fract_z
 _atom_site_occupancy
  Tl  Tl0  1  0.25017966  0.25014212  0.90002826  1
  Tl  Tl1  1  0.25020185  0.25018646  0.80002296  1
  Tl  Tl2  1  0.24995682  0.24997221  0.69997704  1
  Tl  Tl3  1  0.24985948  0.24989701  0.59997174  1
  Tl  Tl4  1  0.24976055  0.24985436  0.49995934  1
  Tl  Tl5  1  0.24998173  0.24993757  0.39998895  1
  Tl  Tl6  1  0.75001524  0.74993364  0.49999747  1
  Tl  Tl7  1  0.24992955  0.24989949  0.29998927  1
  Tl  Tl8  1  0.74994340  0.75001378  0.39999655  1
  Tl  Tl9  1  0.25000683  0.25003689  0.20001073  1
  Tl  Tl10  1  0.75005031  0.75004664  0.30001073  1
  Tl  Tl11  1  0.25004805  0.25009221  0.10001105  1
  Tl  Tl12  1  0.74993932  0.74994299  0.19998927  1
  Tl  Tl13  1  0.25026099  0.25016719  0.00004066  1
  Tl  Tl14  1  0.75004830  0.74997792  0.10000345  1
  Tl  Tl15  1  0.74995896  0.75004056  0.00000253  1
  In  In16  1  0.24990397  0.74960251  0.95002139  1
  In  In17  1  0.24952562  0.74945659  0.84998611  1
  In  In18  1  0.24960032  0.74960032  0.75000000  1
  In  In19  1  0.75057288  0.75054048  0.90010118  1
  In  In20  1  0.75042767  0.25046947  0.95002035  1
  In  In21  1  0.24959545  0.74966449  0.65001389  1
  In  In22  1  0.74995821  0.75007346  0.80002832  1
  In  In23  1  0.75025147  0.25026911  0.84998287  1
  In  In24  1  0.24938857  0.74969002  0.54997861  1
  In  In25  1  0.74979023  0.74967498  0.69997168  1
  In  In26  1  0.75050435  0.25050435  0.75000000  1
  In  In27  1  0.24964988  0.74956280  0.45000396  1
  In  In28  1  0.74952866  0.74956106  0.59989882  1
  In  In29  1  0.75044039  0.25042274  0.65001713  1
  In  In30  1  0.24941597  0.74948766  0.34997469  1
  In  In31  1  0.75026600  0.25022420  0.54997965  1
  In  In32  1  0.24970601  0.74970601  0.25000000  1
  In  In33  1  0.75048099  0.25045294  0.45001483  1
  In  In34  1  0.24974078  0.74966909  0.15002531  1
  In  In35  1  0.75045568  0.25042062  0.34999659  1
  In  In36  1  0.24952320  0.74961028  0.04999604  1
  In  In37  1  0.75034762  0.25034762  0.25000000  1
  In  In38  1  0.75045467  0.25048973  0.15000341  1
  In  In39  1  0.75030467  0.25033272  0.04998517  1
  Se  Se40  1  0.16957400  0.32734626  0.94982191  1
  Se  Se41  1  0.32808365  0.82810807  0.91561961  1
  Se  Se42  1  0.17126851  0.32885227  0.85001715  1
  Se  Se43  1  0.32798497  0.82798741  0.81561049  1
  Se  Se44  1  0.67166651  0.17167725  0.98434342  1
  Se  Se45  1  0.82876665  0.67092305  0.94982303  1
  Se  Se46  1  0.17125220  0.32880495  0.75000336  1
  Se  Se47  1  0.32790203  0.82800684  0.71559120  1
  Se  Se48  1  0.67196672  0.17199319  0.88440091  1
  Se  Se49  1  0.82884693  0.67126967  0.85001487  1
  Se  Se50  1  0.17112100  0.32869827  0.64998513  1
  Se  Se51  1  0.32798409  0.82795761  0.61559909  1
  Se  Se52  1  0.67209488  0.17199007  0.78440880  1
  Se  Se53  1  0.82877131  0.67121856  0.74999664  1
  Se  Se54  1  0.17269276  0.33053636  0.55017697  1
  Se  Se55  1  0.32824307  0.82823234  0.51565658  1
  Se  Se56  1  0.67188247  0.17188003  0.68438951  1
  Se  Se57  1  0.82868078  0.67109701  0.64998285  1
  Se  Se58  1  0.17090108  0.32903535  0.44999607  1
  Se  Se59  1  0.32824602  0.82824914  0.41565542  1
  Se  Se60  1  0.67191199  0.17188757  0.58438039  1
  Se  Se61  1  0.82912712  0.67135486  0.55017809  1
  Se  Se62  1  0.17099829  0.32907670  0.35000384  1
  Se  Se63  1  0.32830807  0.82835431  0.31566451  1
  Se  Se64  1  0.67173776  0.17172076  0.48434293  1
  Se  Se65  1  0.82908749  0.67089497  0.44998724  1
  Se  Se66  1  0.17100016  0.32903853  0.24999443  1
  Se  Se67  1  0.32830144  0.82832266  0.21565461  1
  Se  Se68  1  0.67169121  0.17160770  0.38434617  1
  Se  Se69  1  0.82902340  0.67099349  0.34999323  1
  Se  Se70  1  0.17106123  0.32909115  0.15000677  1
  Se  Se71  1  0.32814601  0.82822953  0.11565383  1
  Se  Se72  1  0.67177655  0.17175534  0.28434539  1
  Se  Se73  1  0.82909422  0.67105586  0.25000557  1
  Se  Se74  1  0.17102260  0.32921512  0.05001276  1
  Se  Se75  1  0.32829146  0.82830846  0.01565707  1
  Se  Se76  1  0.67170923  0.17166298  0.18433549  1
  Se  Se77  1  0.82903825  0.67095985  0.14999616  1
  Se  Se78  1  0.67169494  0.17169182  0.08434458  1
  Se  Se79  1  0.82907465  0.67094038  0.05000393  1
