# generated using pymatgen
data_Ba3LiTi5Nb3O21
_symmetry_space_group_name_H-M   'P 1'
_cell_length_a   9.27432254
_cell_length_b   9.31242541
_cell_length_c   11.67655097
_cell_angle_alpha   90.00709770
_cell_angle_beta   90.14045263
_cell_angle_gamma   120.36682210
_symmetry_Int_Tables_number   1
_chemical_formula_structural   Ba3LiTi5Nb3O21
_chemical_formula_sum   'Ba6 Li2 Ti10 Nb6 O42'
_cell_volume   870.10400726
_cell_formula_units_Z   2
loop_
 _symmetry_equiv_pos_site_id
 _symmetry_equiv_pos_as_xyz
  1  'x, y, z'
loop_
 _atom_site_type_symbol
 _atom_site_label
 _atom_site_symmetry_multiplicity
 _atom_site_fract_x
 _atom_site_fract_y
 _atom_site_fract_z
 _atom_site_occupancy
  Ba  Ba0  1  0.00582612  0.60137556  0.25233111  1
  Ba  Ba1  1  0.39775144  0.39859805  0.24596029  1
  Ba  Ba2  1  0.59759332  0.59785890  0.75706830  1
  Ba  Ba3  1  0.39361609  0.99179265  0.74710356  1
  Ba  Ba4  1  0.59728648  0.00414708  0.25629019  1
  Ba  Ba5  1  -0.00016084  0.40371620  0.75032668  1
  Li  Li6  1  0.01066374  0.01283104  0.26129525  1
  Li  Li7  1  0.99740917  0.98892845  0.75382081  1
  Ti  Ti8  1  0.01212835  0.74574041  0.90906965  1
  Ti  Ti9  1  0.99710186  0.73906952  0.59049399  1
  Ti  Ti10  1  0.00854662  0.26824408  0.40924201  1
  Ti  Ti11  1  0.32738923  0.67270801  0.50491510  1
  Ti  Ti12  1  0.25142698  0.24880006  0.91341455  1
  Ti  Ti13  1  0.25655921  0.99654556  0.09032588  1
  Ti  Ti14  1  0.24713864  0.98627005  0.41003768  1
  Ti  Ti15  1  0.76380710  0.74692620  0.09021503  1
  Ti  Ti16  1  0.74078903  0.00413495  0.58976713  1
  Ti  Ti17  1  0.00023938  0.25316624  0.09219915  1
  Nb  Nb18  1  0.33640227  0.65964264  0.00544879  1
  Nb  Nb19  1  0.25099700  0.25613335  0.58815979  1
  Nb  Nb20  1  0.73850236  0.74657517  0.41126380  1
  Nb  Nb21  1  0.66513749  0.32888275  0.49543009  1
  Nb  Nb22  1  0.66826959  0.33776537  0.00041374  1
  Nb  Nb23  1  0.74670567  0.00113125  0.91164731  1
  O  O24  1  0.20557102  0.99691030  0.92882494  1
  O  O25  1  0.16713493  0.68004835  0.89709109  1
  O  O26  1  0.17275359  0.68678058  0.60070383  1
  O  O27  1  0.31491907  0.83109232  0.39909713  1
  O  O28  1  0.31909544  0.83316457  0.09918519  1
  O  O29  1  0.99383217  0.20595513  0.92762929  1
  O  O30  1  0.00313498  0.21818916  0.57038818  1
  O  O31  1  0.17148276  0.48371154  0.10707432  1
  O  O32  1  0.16676158  0.48826360  0.40094294  1
  O  O33  1  0.30963136  0.47717116  0.90053731  1
  O  O34  1  0.32265887  0.49069379  0.59944814  1
  O  O35  1  0.19355804  0.19751796  0.75044438  1
  O  O36  1  0.19970599  0.20500833  0.07143938  1
  O  O37  1  0.20150845  0.20782575  0.42228818  1
  O  O38  1  0.51316013  0.82805964  0.89147971  1
  O  O39  1  0.51840798  0.83585635  0.59442497  1
  O  O40  1  0.52403069  0.68404990  0.09462266  1
  O  O41  1  0.51118721  0.68201426  0.39153043  1
  O  O42  1  0.20317279  0.99572630  0.24864917  1
  O  O43  1  0.20956166  0.00583517  0.57110900  1
  O  O44  1  0.48806274  0.32125163  0.60327643  1
  O  O45  1  0.47784380  0.31512477  0.89982130  1
  O  O46  1  0.47886712  0.16551459  0.40113391  1
  O  O47  1  0.48241293  0.16822879  0.10157582  1
  O  O48  1  0.79888424  0.80607131  0.92948130  1
  O  O49  1  0.78806936  0.77713573  0.57596251  1
  O  O50  1  0.80820196  0.80596978  0.24823987  1
  O  O51  1  0.68385907  0.51278406  0.39385249  1
  O  O52  1  0.68488802  0.51841880  0.10489735  1
  O  O53  1  0.83860827  0.51482194  0.59777734  1
  O  O54  1  0.82675965  0.52019068  0.89770878  1
  O  O55  1  0.00428293  0.79276670  0.74909806  1
  O  O56  1  0.99612326  0.78343372  0.07130060  1
  O  O57  1  0.00373567  0.79500354  0.42896298  1
  O  O58  1  0.68431596  0.16895180  0.60358230  1
  O  O59  1  0.67889463  0.16932742  0.89454191  1
  O  O60  1  0.83770423  0.32276907  0.09587896  1
  O  O61  1  0.82625785  0.30915387  0.39457102  1
  O  O62  1  0.78784631  0.00706905  0.07748170  1
  O  O63  1  0.79279454  0.99433311  0.43153295  1
  O  O64  1  0.80144546  0.00014577  0.74644276  1
  O  O65  1  0.99774700  0.20667618  0.24972956  1
