# generated using pymatgen
data_TiNiO3
_symmetry_space_group_name_H-M   'P 1'
_cell_length_a   5.49684669
_cell_length_b   5.51488288
_cell_length_c   16.43675279
_cell_angle_alpha   55.00064895
_cell_angle_beta   55.15789186
_cell_angle_gamma   54.68067640
_symmetry_Int_Tables_number   1
_chemical_formula_structural   TiNiO3
_chemical_formula_sum   'Ti6 Ni6 O18'
_cell_volume   310.88110444
_cell_formula_units_Z   6
loop_
 _symmetry_equiv_pos_site_id
 _symmetry_equiv_pos_as_xyz
  1  'x, y, z'
loop_
 _atom_site_type_symbol
 _atom_site_label
 _atom_site_symmetry_multiplicity
 _atom_site_fract_x
 _atom_site_fract_y
 _atom_site_fract_z
 _atom_site_occupancy
  Ti  Ti0  1  0.35200120  0.36902800  0.10802931  1
  Ti  Ti1  1  0.13818549  0.14236771  0.38263770  1
  Ti  Ti2  1  0.14307429  0.13854485  0.71551546  1
  Ti  Ti3  1  0.86122717  0.85743781  0.28191091  1
  Ti  Ti4  1  0.85617818  0.85355573  0.61948229  1
  Ti  Ti5  1  0.82858895  0.87330672  0.95067200  1
  Ni  Ni6  1  0.14768468  0.14207279  0.04879020  1
  Ni  Ni7  1  0.35087420  0.34744572  0.44974266  1
  Ni  Ni8  1  0.64755332  0.64334685  0.21806105  1
  Ni  Ni9  1  0.35134825  0.34672886  0.78461199  1
  Ni  Ni10  1  0.64893845  0.65031535  0.54912890  1
  Ni  Ni11  1  0.64428204  0.65267535  0.88240782  1
  O  O12  1  0.06737848  0.72153829  0.15035624  1
  O  O13  1  0.43305259  0.06846176  0.24929638  1
  O  O14  1  0.72739029  0.43876637  0.02449454  1
  O  O15  1  0.22840610  0.56389539  0.31533348  1
  O  O16  1  0.56757508  0.94676776  0.07928831  1
  O  O17  1  0.05378562  0.77099259  0.47705464  1
  O  O18  1  0.94684612  0.22524740  0.18974844  1
  O  O19  1  0.43736476  0.05189317  0.58940092  1
  O  O20  1  0.76497640  0.43580058  0.35267381  1
  O  O21  1  0.23066852  0.56136041  0.64879601  1
  O  O22  1  0.56396368  0.94540953  0.40724048  1
  O  O23  1  0.06038892  0.76437211  0.81235292  1
  O  O24  1  0.94902485  0.22839517  0.51924241  1
  O  O25  1  0.46056189  0.04600329  0.91602885  1
  O  O26  1  0.77187246  0.43963508  0.68257817  1
  O  O27  1  0.22389138  0.56260189  0.98602559  1
  O  O28  1  0.56376996  0.94786480  0.74216777  1
  O  O29  1  0.94284670  0.22786868  0.85483078  1
