# generated using pymatgen
data_Na3Zr2Si2PO12
_symmetry_space_group_name_H-M   'P 1'
_cell_length_a   9.36501479
_cell_length_b   9.40210615
_cell_length_c   18.81389888
_cell_angle_alpha   58.79739264
_cell_angle_beta   58.95137758
_cell_angle_gamma   59.02955786
_symmetry_Int_Tables_number   1
_chemical_formula_structural   Na3Zr2Si2PO12
_chemical_formula_sum   'Na12 Zr8 Si8 P4 O48'
_cell_volume   1142.66256001
_cell_formula_units_Z   4
loop_
 _symmetry_equiv_pos_site_id
 _symmetry_equiv_pos_as_xyz
  1  'x, y, z'
loop_
 _atom_site_type_symbol
 _atom_site_label
 _atom_site_symmetry_multiplicity
 _atom_site_fract_x
 _atom_site_fract_y
 _atom_site_fract_z
 _atom_site_occupancy
  Na  Na0  1  0.19371669  0.82702403  0.02259571  1
  Na  Na1  1  0.30526648  0.46326947  0.33437512  1
  Na  Na2  1  0.75116690  0.12677974  0.18635770  1
  Na  Na3  1  0.25057059  0.89566287  0.31560008  1
  Na  Na4  1  0.64205305  0.24779971  0.44143440  1
  Na  Na5  1  0.86042078  0.61142134  0.12532272  1
  Na  Na6  1  0.35879382  0.74872057  0.55346620  1
  Na  Na7  1  0.75609631  0.10555699  0.68200255  1
  Na  Na8  1  0.47202297  0.48805427  0.76307936  1
  Na  Na9  1  0.24318269  0.88674818  0.80862914  1
  Na  Na10  1  0.63125254  0.24580235  0.94810560  1
  Na  Na11  1  0.89409641  0.64595974  0.62359062  1
  Zr  Zr12  1  0.14888607  0.14926784  0.06593539  1
  Zr  Zr13  1  0.35358855  0.36525525  0.17382226  1
  Zr  Zr14  1  0.14339889  0.15029827  0.56668904  1
  Zr  Zr15  1  0.34604669  0.35688568  0.68117165  1
  Zr  Zr16  1  0.64822488  0.64632885  0.32644739  1
  Zr  Zr17  1  0.85539970  0.84627620  0.42491471  1
  Zr  Zr18  1  0.65046675  0.64793888  0.82717168  1
  Zr  Zr19  1  0.85287197  0.84508870  0.92742504  1
  Si  Si20  1  0.04054244  0.74993824  0.23136404  1
  Si  Si21  1  0.46402815  0.03916233  0.37278292  1
  Si  Si22  1  0.75136366  0.45691119  0.02152420  1
  Si  Si23  1  0.25254137  0.54141696  0.48047970  1
  Si  Si24  1  0.04615643  0.74693192  0.73253841  1
  Si  Si25  1  0.46321653  0.04014518  0.87396069  1
  Si  Si26  1  0.74203266  0.46128445  0.52295594  1
  Si  Si27  1  0.25577304  0.54105005  0.97520330  1
  P  P28  1  0.53587888  0.96331996  0.12706183  1
  P  P29  1  0.96307769  0.24704004  0.26607275  1
  P  P30  1  0.53489186  0.95931106  0.62688635  1
  P  P31  1  0.95321229  0.25287019  0.76713196  1
  O  O32  1  0.13843162  0.25999793  0.24674663  1
  O  O33  1  0.28762561  0.51688848  0.05934498  1
  O  O34  1  0.06472136  0.92410203  0.14312408  1
  O  O35  1  0.52048046  0.12543289  0.13661950  1
  O  O36  1  0.21047224  0.57263245  0.21805302  1
  O  O37  1  0.02478230  0.76658675  0.31829496  1
  O  O38  1  0.30026117  0.05517448  0.46518669  1
  O  O39  1  0.42988056  0.21691646  0.28789387  1
  O  O40  1  0.58070671  0.42280414  0.10993730  1
  O  O41  1  0.23196797  0.36332131  0.49574318  1
  O  O42  1  0.07376703  0.71515051  0.46995729  1
  O  O43  1  0.36299234  0.99745139  0.12043440  1
  O  O44  1  0.64607648  0.00999705  0.37911247  1
  O  O45  1  0.11974173  0.28119388  0.74943345  1
  O  O46  1  0.92100004  0.27921878  0.03789472  1
  O  O47  1  0.78206263  0.62781701  0.00774105  1
  O  O48  1  0.41936924  0.56877597  0.38646996  1
  O  O49  1  0.28415495  0.51310035  0.56539442  1
  O  O50  1  0.56894467  0.79280099  0.20757934  1
  O  O51  1  0.06980205  0.92270757  0.64460189  1
  O  O52  1  0.70071638  0.93518425  0.04313465  1
  O  O53  1  0.50816544  0.11667594  0.64501383  1
  O  O54  1  0.22757300  0.57871625  0.71595498  1
  O  O55  1  0.01777305  0.77596599  0.81805606  1
  O  O56  1  0.97464744  0.22683819  0.18665296  1
  O  O57  1  0.80108881  0.41560409  0.28101493  1
  O  O58  1  0.48471724  0.86459486  0.36309560  1
  O  O59  1  0.28967229  0.05879199  0.96193947  1
  O  O60  1  0.93279189  0.08632138  0.35251874  1
  O  O61  1  0.44638839  0.21441144  0.78499346  1
  O  O62  1  0.70596677  0.48455626  0.44020647  1
  O  O63  1  0.56998506  0.43388421  0.61352327  1
  O  O64  1  0.22978946  0.36353778  0.99661646  1
  O  O65  1  0.08443187  0.72609666  0.96416814  1
  O  O66  1  0.86154561  0.72812964  0.24849837  1
  O  O67  1  0.36387070  0.98809808  0.62029312  1
  O  O68  1  0.63959094  0.00617815  0.88646787  1
  O  O69  1  0.91268418  0.28484034  0.54059276  1
  O  O70  1  0.76382144  0.64012857  0.50548607  1
  O  O71  1  0.42731481  0.56543288  0.88245477  1
  O  O72  1  0.57275695  0.78202026  0.70504058  1
  O  O73  1  0.69767782  0.94461181  0.54137302  1
  O  O74  1  0.98080892  0.22349562  0.68694966  1
  O  O75  1  0.78584708  0.42071470  0.77784766  1
  O  O76  1  0.48695708  0.87042332  0.85802096  1
  O  O77  1  0.92748413  0.09291816  0.85359275  1
  O  O78  1  0.71940985  0.48815079  0.93526328  1
  O  O79  1  0.87324451  0.71968741  0.74466843  1
