# generated using pymatgen
data_Na6CaZr(SiO3)6
_symmetry_space_group_name_H-M   'P 1'
_cell_length_a   10.75608870
_cell_length_b   10.75608895
_cell_length_c   10.75608871
_cell_angle_alpha   58.06675629
_cell_angle_beta   58.06675559
_cell_angle_gamma   58.06675747
_symmetry_Int_Tables_number   1
_chemical_formula_structural   Na6CaZr(SiO3)6
_chemical_formula_sum   'Na12 Ca2 Zr2 Si12 O36'
_cell_volume   840.92237374
_cell_formula_units_Z   2
loop_
 _symmetry_equiv_pos_site_id
 _symmetry_equiv_pos_as_xyz
  1  'x, y, z'
loop_
 _atom_site_type_symbol
 _atom_site_label
 _atom_site_symmetry_multiplicity
 _atom_site_fract_x
 _atom_site_fract_y
 _atom_site_fract_z
 _atom_site_occupancy
  Na  Na0  1  0.01606164  0.43698895  0.02472932  1
  Na  Na1  1  0.02472932  0.01606164  0.43698895  1
  Na  Na2  1  0.43698895  0.02472932  0.01606164  1
  Na  Na3  1  0.52472932  0.93698895  0.51606164  1
  Na  Na4  1  0.51606164  0.52472932  0.93698895  1
  Na  Na5  1  0.24097916  0.77729439  0.23204076  1
  Na  Na6  1  0.23204076  0.24097916  0.77729439  1
  Na  Na7  1  0.77729439  0.23204076  0.24097916  1
  Na  Na8  1  0.27729439  0.74097916  0.73204076  1
  Na  Na9  1  0.74097916  0.73204076  0.27729439  1
  Na  Na10  1  0.73204076  0.27729439  0.74097916  1
  Na  Na11  1  0.93698895  0.51606164  0.52472932  1
  Ca  Ca12  1  0.37719598  0.37719598  0.37719598  1
  Ca  Ca13  1  0.87719598  0.87719598  0.87719598  1
  Zr  Zr14  1  0.00411184  0.00411184  0.00411184  1
  Zr  Zr15  1  0.50411184  0.50411184  0.50411184  1
  Si  Si16  1  0.13176632  0.13379387  0.58835424  1
  Si  Si17  1  0.13379387  0.58835424  0.13176632  1
  Si  Si18  1  0.58835424  0.13176632  0.13379387  1
  Si  Si19  1  0.08835424  0.63379387  0.63176632  1
  Si  Si20  1  0.63176632  0.08835424  0.63379387  1
  Si  Si21  1  0.63379387  0.63176632  0.08835424  1
  Si  Si22  1  0.36379952  0.36791651  0.91785457  1
  Si  Si23  1  0.36791651  0.91785457  0.36379952  1
  Si  Si24  1  0.91785457  0.36379952  0.36791651  1
  Si  Si25  1  0.41785457  0.86791651  0.86379952  1
  Si  Si26  1  0.86379952  0.41785457  0.86791651  1
  Si  Si27  1  0.86791651  0.86379952  0.41785457  1
  O  O28  1  0.00273892  0.49920407  0.25074251  1
  O  O29  1  0.04815136  0.03531545  0.76923233  1
  O  O30  1  0.03531545  0.76923233  0.04815136  1
  O  O31  1  0.25074251  0.00273892  0.49920407  1
  O  O32  1  0.49920407  0.25074251  0.00273892  1
  O  O33  1  0.22265118  0.22973070  0.56315851  1
  O  O34  1  0.22973070  0.56315851  0.22265118  1
  O  O35  1  0.01511012  0.75328436  0.48750466  1
  O  O36  1  0.56315851  0.22265118  0.22973070  1
  O  O37  1  0.76923233  0.04815136  0.03531545  1
  O  O38  1  0.06315851  0.72973070  0.72265118  1
  O  O39  1  0.26923233  0.53531545  0.54815136  1
  O  O40  1  0.48750466  0.01511012  0.75328436  1
  O  O41  1  0.26913828  0.27905519  0.94245062  1
  O  O42  1  0.27905519  0.94245062  0.26913828  1
  O  O43  1  0.54815136  0.26923233  0.53531545  1
  O  O44  1  0.53531545  0.54815136  0.26923233  1
  O  O45  1  0.75328436  0.48750466  0.01511012  1
  O  O46  1  0.25328436  0.51511012  0.98750466  1
  O  O47  1  0.46060329  0.44991400  0.73582639  1
  O  O48  1  0.44991400  0.73582639  0.46060329  1
  O  O49  1  0.72265118  0.06315851  0.72973070  1
  O  O50  1  0.72973070  0.72265118  0.06315851  1
  O  O51  1  0.51511012  0.98750466  0.25328436  1
  O  O52  1  0.73582639  0.46060329  0.44991400  1
  O  O53  1  0.94245062  0.26913828  0.27905519  1
  O  O54  1  0.23582639  0.94991400  0.96060329  1
  O  O55  1  0.44245062  0.77905519  0.76913828  1
  O  O56  1  0.98750466  0.25328436  0.51511012  1
  O  O57  1  0.76913828  0.44245062  0.77905519  1
  O  O58  1  0.77905519  0.76913828  0.44245062  1
  O  O59  1  0.50273892  0.75074251  0.99920407  1
  O  O60  1  0.75074251  0.99920407  0.50273892  1
  O  O61  1  0.96060329  0.23582639  0.94991400  1
  O  O62  1  0.94991400  0.96060329  0.23582639  1
  O  O63  1  0.99920407  0.50273892  0.75074251  1
