# generated using pymatgen
data_Mn3(P2O7)2
_symmetry_space_group_name_H-M   'P 1'
_cell_length_a   7.21341032
_cell_length_b   8.21627435
_cell_length_c   9.53371679
_cell_angle_alpha   90.00000000
_cell_angle_beta   110.04071325
_cell_angle_gamma   90.00000000
_symmetry_Int_Tables_number   1
_chemical_formula_structural   Mn3(P2O7)2
_chemical_formula_sum   'Mn6 P8 O28'
_cell_volume   530.82477747
_cell_formula_units_Z   2
loop_
 _symmetry_equiv_pos_site_id
 _symmetry_equiv_pos_as_xyz
  1  'x, y, z'
loop_
 _atom_site_type_symbol
 _atom_site_label
 _atom_site_symmetry_multiplicity
 _atom_site_fract_x
 _atom_site_fract_y
 _atom_site_fract_z
 _atom_site_occupancy
  Mn  Mn0  1  0.19410161  0.86889816  0.02520972  1
  Mn  Mn1  1  0.19410161  0.63110184  0.52520972  1
  Mn  Mn2  1  0.80589839  0.13110184  0.97479028  1
  Mn  Mn3  1  0.80589839  0.36889816  0.47479028  1
  Mn  Mn4  1  0.00000000  0.00000000  0.50000000  1
  Mn  Mn5  1  0.00000000  0.50000000  0.00000000  1
  P  P6  1  0.40150462  0.53953087  0.29353201  1
  P  P7  1  0.89267748  0.71418313  0.69897496  1
  P  P8  1  0.89267748  0.78581687  0.19897496  1
  P  P9  1  0.10732252  0.28581687  0.30102504  1
  P  P10  1  0.40150462  0.96046913  0.79353201  1
  P  P11  1  0.10732252  0.21418313  0.80102504  1
  P  P12  1  0.59849538  0.46046913  0.70646799  1
  P  P13  1  0.59849538  0.03953087  0.20646799  1
  O  O14  1  0.13924340  0.37742091  0.87567477  1
  O  O15  1  0.01924072  0.08861270  0.88370171  1
  O  O16  1  0.28398932  0.60874179  0.13938600  1
  O  O17  1  0.37582447  0.64633864  0.41818313  1
  O  O18  1  0.68467337  0.64032397  0.69278461  1
  O  O19  1  0.62417553  0.14633864  0.08181687  1
  O  O20  1  0.99153106  0.28113608  0.12964987  1
  O  O21  1  0.61959237  0.99314782  0.81774939  1
  O  O22  1  0.98075928  0.58861270  0.61629829  1
  O  O23  1  0.38040763  0.00685218  0.18225061  1
  O  O24  1  0.37582447  0.85366136  0.91818313  1
  O  O25  1  0.31532663  0.14032397  0.80721539  1
  O  O26  1  0.13924340  0.12257909  0.37567477  1
  O  O27  1  0.86075660  0.62257909  0.12432523  1
  O  O28  1  0.86075660  0.87742091  0.62432523  1
  O  O29  1  0.00846894  0.71886392  0.87035013  1
  O  O30  1  0.38040763  0.49314782  0.68225061  1
  O  O31  1  0.68467337  0.85967603  0.19278461  1
  O  O32  1  0.31532663  0.35967603  0.30721539  1
  O  O33  1  0.71601068  0.10874179  0.36061400  1
  O  O34  1  0.61959237  0.50685218  0.31774939  1
  O  O35  1  0.98075928  0.91138730  0.11629829  1
  O  O36  1  0.62417553  0.35366136  0.58181687  1
  O  O37  1  0.01924072  0.41138730  0.38370171  1
  O  O38  1  0.00846894  0.78113608  0.37035013  1
  O  O39  1  0.28398932  0.89125821  0.63938600  1
  O  O40  1  0.99153106  0.21886392  0.62964987  1
  O  O41  1  0.71601068  0.39125821  0.86061400  1
