# generated using pymatgen
data_Na5Ca6Nd5Zr16O48
_symmetry_space_group_name_H-M   'P 1'
_cell_length_a   5.67136323
_cell_length_b   5.85752544
_cell_length_c   32.66822185
_cell_angle_alpha   90.00000000
_cell_angle_beta   90.00000000
_cell_angle_gamma   90.11680797
_symmetry_Int_Tables_number   1
_chemical_formula_structural   Na5Ca6Nd5Zr16O48
_chemical_formula_sum   'Na5 Ca6 Nd5 Zr16 O48'
_cell_volume   1085.24111851
_cell_formula_units_Z   1
loop_
 _symmetry_equiv_pos_site_id
 _symmetry_equiv_pos_as_xyz
  1  'x, y, z'
loop_
 _atom_site_type_symbol
 _atom_site_label
 _atom_site_symmetry_multiplicity
 _atom_site_fract_x
 _atom_site_fract_y
 _atom_site_fract_z
 _atom_site_occupancy
  Na  Na0  1  0.01220470  0.02826631  0.06288077  1
  Na  Na1  1  0.01220470  0.02826631  0.56211923  1
  Na  Na2  1  0.48797828  0.52836221  0.81250000  1
  Na  Na3  1  0.50397244  0.47663277  0.44284464  1
  Na  Na4  1  0.50397244  0.47663277  0.18215536  1
  Ca  Ca5  1  0.51263256  0.45220481  0.68628387  1
  Ca  Ca6  1  0.51263256  0.45220481  0.93871613  1
  Ca  Ca7  1  0.98858349  0.94786360  0.18286334  1
  Ca  Ca8  1  0.98488122  0.95163067  0.68886901  1
  Ca  Ca9  1  0.98488122  0.95163067  0.93613099  1
  Ca  Ca10  1  0.98858349  0.94786360  0.44213666  1
  Nd  Nd11  1  0.01058947  0.05010505  0.31250000  1
  Nd  Nd12  1  0.01189640  0.06077038  0.81250000  1
  Nd  Nd13  1  0.48448700  0.56425855  0.06234538  1
  Nd  Nd14  1  0.48858260  0.55745516  0.31250000  1
  Nd  Nd15  1  0.48448700  0.56425855  0.56265462  1
  Zr  Zr16  1  0.50217386  0.01285577  0.12417612  1
  Zr  Zr17  1  0.50116981  0.00413341  0.37838177  1
  Zr  Zr18  1  0.49943143  0.00575251  0.62550039  1
  Zr  Zr19  1  0.49802962  0.99448723  0.87549513  1
  Zr  Zr20  1  0.49943143  0.00575251  0.99949961  1
  Zr  Zr21  1  0.50116981  0.00413341  0.24661823  1
  Zr  Zr22  1  0.49802962  0.99448723  0.74950487  1
  Zr  Zr23  1  0.50217386  0.01285577  0.50082388  1
  Zr  Zr24  1  0.99528696  0.49525662  0.12440374  1
  Zr  Zr25  1  0.99557256  0.49659886  0.37844883  1
  Zr  Zr26  1  0.00019577  0.49523550  0.62586247  1
  Zr  Zr27  1  0.99893187  0.50430054  0.87514890  1
  Zr  Zr28  1  0.00019577  0.49523550  0.99913753  1
  Zr  Zr29  1  0.99557256  0.49659886  0.24655117  1
  Zr  Zr30  1  0.99893187  0.50430054  0.74985110  1
  Zr  Zr31  1  0.99528696  0.49525662  0.50059626  1
  O  O32  1  0.08869439  0.54431757  0.18785448  1
  O  O33  1  0.10838818  0.54114708  0.68779990  1
  O  O34  1  0.10838818  0.54114708  0.93720010  1
  O  O35  1  0.08869439  0.54431757  0.43714552  1
  O  O36  1  0.22121102  0.78378787  0.11226309  1
  O  O37  1  0.21678913  0.78479872  0.01379834  1
  O  O38  1  0.20922766  0.78408451  0.35860532  1
  O  O39  1  0.21678913  0.78479872  0.61120166  1
  O  O40  1  0.20922766  0.78408451  0.26639468  1
  O  O41  1  0.22121102  0.78378787  0.51273691  1
  O  O42  1  0.18359446  0.81029541  0.86229495  1
  O  O43  1  0.18359446  0.81029541  0.76270505  1
  O  O44  1  0.30748251  0.30768394  0.11034237  1
  O  O45  1  0.31489380  0.31194641  0.01210639  1
  O  O46  1  0.29361596  0.28550837  0.35770826  1
  O  O47  1  0.31489380  0.31194641  0.61289361  1
  O  O48  1  0.29361596  0.28550837  0.26729174  1
  O  O49  1  0.30748251  0.30768394  0.51465763  1
  O  O50  1  0.28181254  0.28404797  0.86133332  1
  O  O51  1  0.28181254  0.28404797  0.76366668  1
  O  O52  1  0.38960353  0.03235241  0.43715814  1
  O  O53  1  0.38992860  0.04015671  0.68753901  1
  O  O54  1  0.38960353  0.03235241  0.18784186  1
  O  O55  1  0.38992860  0.04015671  0.93746099  1
  O  O56  1  0.59287035  0.96927185  0.06197245  1
  O  O57  1  0.60261647  0.96363073  0.31250000  1
  O  O58  1  0.60543293  0.96665751  0.81250000  1
  O  O59  1  0.59287035  0.96927185  0.56302755  1
  O  O60  1  0.71467503  0.71724071  0.13541114  1
  O  O61  1  0.69100925  0.68919263  0.24124934  1
  O  O62  1  0.69100925  0.68919263  0.38375066  1
  O  O63  1  0.71467503  0.71724071  0.48958886  1
  O  O64  1  0.70269629  0.70291158  0.63737771  1
  O  O65  1  0.69947789  0.70539352  0.73295038  1
  O  O66  1  0.70269629  0.70291158  0.98762229  1
  O  O67  1  0.69947789  0.70539352  0.89204962  1
  O  O68  1  0.82517435  0.17216869  0.24034748  1
  O  O69  1  0.80426538  0.20341356  0.14029160  1
  O  O70  1  0.79631962  0.20109286  0.73800414  1
  O  O71  1  0.80426538  0.20341356  0.48470840  1
  O  O72  1  0.79631962  0.20109286  0.88699586  1
  O  O73  1  0.82517435  0.17216869  0.38465252  1
  O  O74  1  0.79927473  0.20608181  0.64245945  1
  O  O75  1  0.79927473  0.20608181  0.98254055  1
  O  O76  1  0.88981057  0.46946403  0.06188413  1
  O  O77  1  0.89137910  0.45577874  0.31250000  1
  O  O78  1  0.88981057  0.46946403  0.56311587  1
  O  O79  1  0.90478371  0.46557253  0.81250000  1
