# generated using pymatgen
data_HfP2(H3O5)2
_symmetry_space_group_name_H-M   'P 1'
_cell_length_a   5.41369219
_cell_length_b   6.63638291
_cell_length_c   12.53117748
_cell_angle_alpha   90.00000000
_cell_angle_beta   98.92555090
_cell_angle_gamma   90.00000000
_symmetry_Int_Tables_number   1
_chemical_formula_structural   HfP2(H3O5)2
_chemical_formula_sum   'Hf2 P4 H12 O20'
_cell_volume   444.76008653
_cell_formula_units_Z   2
loop_
 _symmetry_equiv_pos_site_id
 _symmetry_equiv_pos_as_xyz
  1  'x, y, z'
loop_
 _atom_site_type_symbol
 _atom_site_label
 _atom_site_symmetry_multiplicity
 _atom_site_fract_x
 _atom_site_fract_y
 _atom_site_fract_z
 _atom_site_occupancy
  Hf  Hf0  1  0.20059668  0.75020693  0.87483676  1
  Hf  Hf1  1  0.79940332  0.25020693  0.12516324  1
  P  P2  1  0.75985869  0.75068485  0.05831707  1
  P  P3  1  0.24014131  0.25068485  0.94168293  1
  P  P4  1  0.65256639  0.67192262  0.69840799  1
  P  P5  1  0.34743361  0.17192262  0.30159201  1
  H  H6  1  0.51106574  0.35571998  0.67306634  1
  H  H7  1  0.48893426  0.85571998  0.32693366  1
  H  H8  1  0.40379025  0.71319917  0.55049991  1
  H  H9  1  0.59620975  0.21319917  0.44950009  1
  H  H10  1  0.83318315  0.68656938  0.28912075  1
  H  H11  1  0.16681685  0.18656938  0.71087925  1
  H  H12  1  0.04781500  0.67130031  0.59858808  1
  H  H13  1  0.95218500  0.17130031  0.40141192  1
  H  H14  1  0.86711520  0.84694367  0.38436977  1
  H  H15  1  0.13288480  0.34694367  0.61563023  1
  H  H16  1  0.99124749  0.11105309  0.52475053  1
  H  H17  1  0.00875251  0.61105309  0.47524947  1
  O  O18  1  0.93959611  0.74871822  0.97392877  1
  O  O19  1  0.06040389  0.24871822  0.02607123  1
  O  O20  1  0.80523506  0.56406153  0.13298800  1
  O  O21  1  0.19476494  0.06406153  0.86701200  1
  O  O22  1  0.80408070  0.94018880  0.12907590  1
  O  O23  1  0.19591930  0.44018880  0.87092410  1
  O  O24  1  0.48749975  0.74897231  0.99952226  1
  O  O25  1  0.51250025  0.24897231  0.00047774  1
  O  O26  1  0.92076696  0.74420603  0.73389143  1
  O  O27  1  0.07923304  0.24420603  0.26610857  1
  O  O28  1  0.46246794  0.73833163  0.76916228  1
  O  O29  1  0.53753206  0.23833163  0.23083772  1
  O  O30  1  0.66942020  0.43414594  0.69281987  1
  O  O31  1  0.33057980  0.93414594  0.30718013  1
  O  O32  1  0.57741230  0.76055023  0.58124820  1
  O  O33  1  0.42258770  0.26055023  0.41875180  1
  O  O34  1  0.79107822  0.71572444  0.36107062  1
  O  O35  1  0.20892178  0.21572444  0.63892938  1
  O  O36  1  0.87429531  0.09750087  0.45570102  1
  O  O37  1  0.12570469  0.59750087  0.54429898  1
