# generated using pymatgen
data_YSeF
_symmetry_space_group_name_H-M   'P 1'
_cell_length_a   10.02729249
_cell_length_b   13.18603888
_cell_length_c   4.12969205
_cell_angle_alpha   90.00000000
_cell_angle_beta   90.00000000
_cell_angle_gamma   104.95529941
_symmetry_Int_Tables_number   1
_chemical_formula_structural   YSeF
_chemical_formula_sum   'Y8 Se8 F8'
_cell_volume   527.53360105
_cell_formula_units_Z   8
loop_
 _symmetry_equiv_pos_site_id
 _symmetry_equiv_pos_as_xyz
  1  'x, y, z'
loop_
 _atom_site_type_symbol
 _atom_site_label
 _atom_site_symmetry_multiplicity
 _atom_site_fract_x
 _atom_site_fract_y
 _atom_site_fract_z
 _atom_site_occupancy
  Y  Y0  1  0.45547200  0.12649841  0.25000000  1
  Y  Y1  1  0.54452800  0.87350159  0.75000000  1
  Y  Y2  1  0.96256915  0.12158015  0.25000000  1
  Y  Y3  1  0.03743085  0.87841985  0.75000000  1
  Y  Y4  1  0.11651350  0.63696617  0.25000000  1
  Y  Y5  1  0.88348650  0.36303383  0.75000000  1
  Y  Y6  1  0.62236140  0.61445675  0.25000000  1
  Y  Y7  1  0.37763860  0.38554325  0.75000000  1
  Se  Se8  1  0.24464669  0.23594783  0.25000000  1
  Se  Se9  1  0.75535331  0.76405217  0.75000000  1
  Se  Se10  1  0.67145107  0.01843346  0.25000000  1
  Se  Se11  1  0.32854893  0.98156654  0.75000000  1
  Se  Se12  1  0.41438432  0.73109385  0.25000000  1
  Se  Se13  1  0.58561568  0.26890615  0.75000000  1
  Se  Se14  1  0.83964224  0.51236810  0.25000000  1
  Se  Se15  1  0.16035776  0.48763190  0.75000000  1
  F  F16  1  0.90483640  0.29363529  0.25000000  1
  F  F17  1  0.09516360  0.70636471  0.75000000  1
  F  F18  1  0.44539369  0.45779284  0.25000000  1
  F  F19  1  0.55460631  0.54220716  0.75000000  1
  F  F20  1  0.06321017  0.79501951  0.25000000  1
  F  F21  1  0.93678983  0.20498049  0.75000000  1
  F  F22  1  0.01438778  0.96061517  0.25000000  1
  F  F23  1  0.98561222  0.03938483  0.75000000  1
