# generated using pymatgen
data_ZnH16C3N8O7
_symmetry_space_group_name_H-M   'P 1'
_cell_length_a   8.21034895
_cell_length_b   8.21034895
_cell_length_c   10.52835628
_cell_angle_alpha   67.70202173
_cell_angle_beta   112.29797827
_cell_angle_gamma   96.91078828
_symmetry_Int_Tables_number   1
_chemical_formula_structural   ZnH16C3N8O7
_chemical_formula_sum   'Zn2 H32 C6 N16 O14'
_cell_volume   607.31093845
_cell_formula_units_Z   2
loop_
 _symmetry_equiv_pos_site_id
 _symmetry_equiv_pos_as_xyz
  1  'x, y, z'
loop_
 _atom_site_type_symbol
 _atom_site_label
 _atom_site_symmetry_multiplicity
 _atom_site_fract_x
 _atom_site_fract_y
 _atom_site_fract_z
 _atom_site_occupancy
  Zn  Zn0  1  0.08362455  0.07475716  -0.00418321  1
  Zn  Zn1  1  0.92524284  0.91637545  0.49581679  1
  H  H2  1  0.98399882  0.38287247  0.99686071  1
  H  H3  1  0.61712753  0.01600118  0.49686071  1
  H  H4  1  0.90217188  0.23093456  0.10862139  1
  H  H5  1  0.76906544  0.09782812  0.60862139  1
  H  H6  1  0.65494666  0.35572588  0.89304516  1
  H  H7  1  0.64427412  0.34505334  0.39304516  1
  H  H8  1  0.86312953  0.85495981  0.11003842  1
  H  H9  1  0.14504019  0.13687047  0.61003842  1
  H  H10  1  0.05310564  0.83495138  0.25407560  1
  H  H11  1  0.16504862  0.94689436  0.75407560  1
  H  H12  1  0.97450754  0.58474835  0.15878461  1
  H  H13  1  0.41525165  0.02549246  0.65878461  1
  H  H14  1  0.40595280  0.96737440  0.21665982  1
  H  H15  1  0.03262560  0.59404720  0.71665982  1
  H  H16  1  0.33492685  0.13945728  0.23409468  1
  H  H17  1  0.86054272  0.66507315  0.73409468  1
  H  H18  1  0.55743612  0.24541586  0.13681267  1
  H  H19  1  0.75458414  0.44256388  0.63681267  1
  H  H20  1  0.51101266  0.93631365  0.98221398  1
  H  H21  1  0.06368635  0.48898734  0.48221398  1
  H  H22  1  0.60749950  0.81649455  0.16128445  1
  H  H23  1  0.18350545  0.39250050  0.66128445  1
  H  H24  1  0.55712623  0.68715963  0.93241216  1
  H  H25  1  0.31284037  0.44287377  0.43241216  1
  H  H26  1  0.62503058  0.57202766  0.11350498  1
  H  H27  1  0.42797234  0.37496942  0.61350498  1
  H  H28  1  0.40775628  0.65049923  0.01724648  1
  H  H29  1  0.34950077  0.59224372  0.51724648  1
  H  H30  1  0.75773593  0.87010583  0.81463217  1
  H  H31  1  0.12989417  0.24226407  0.31463217  1
  H  H32  1  0.61242558  0.78337807  0.71291289  1
  H  H33  1  0.21662193  0.38757442  0.21291289  1
  C  C34  1  0.71603233  0.18795722  0.80993612  1
  C  C35  1  0.81204278  0.28396767  0.30993612  1
  C  C36  1  0.12991639  0.71295406  0.03603917  1
  C  C37  1  0.28704594  0.87008361  0.53603917  1
  C  C38  1  0.35699314  0.31501975  0.93308619  1
  C  C39  1  0.68498025  0.64300686  0.43308619  1
  N  N40  1  0.92178221  0.26430381  0.01076925  1
  N  N41  1  0.73569619  0.07821779  0.51076925  1
  N  N42  1  0.75692539  0.28976033  0.89387025  1
  N  N43  1  0.71023967  0.24307461  0.39387025  1
  N  N44  1  -0.00095510  0.84586374  0.14567163  1
  N  N45  1  0.15413626  0.00095510  0.64567163  1
  N  N46  1  0.04855942  0.69444113  0.13367163  1
  N  N47  1  0.30555887  0.95144058  0.63367163  1
  N  N48  1  0.34351277  0.08924095  0.15997233  1
  N  N49  1  0.91075905  0.65648723  0.65997233  1
  N  N50  1  0.44314664  0.20190519  0.07776573  1
  N  N51  1  0.79809481  0.55685336  0.57776573  1
  N  N52  1  0.53877115  0.67775286  0.02713199  1
  N  N53  1  0.32224714  0.46122885  0.52713199  1
  N  N54  1  0.60139612  0.83648790  0.05685411  1
  N  N55  1  0.16351210  0.39860388  0.55685411  1
  O  O56  1  0.83657047  0.08994201  0.82194852  1
  O  O57  1  0.91005799  0.16342953  0.32194852  1
  O  O58  1  0.55801213  0.20107416  0.71812271  1
  O  O59  1  0.79892584  0.44198787  0.21812271  1
  O  O60  1  0.17044317  0.86718701  0.96315487  1
  O  O61  1  0.13281299  0.82955683  0.46315487  1
  O  O62  1  0.16819177  0.57171678  0.02773518  1
  O  O63  1  0.42828322  0.83180823  0.52773518  1
  O  O64  1  0.19427550  0.28608400  0.86807721  1
  O  O65  1  0.71391600  0.80572450  0.36807721  1
  O  O66  1  0.44827666  0.43299615  0.87477593  1
  O  O67  1  0.56700385  0.55172334  0.37477593  1
  O  O68  1  0.71132784  0.75486240  0.80929023  1
  O  O69  1  0.24513760  0.28867216  0.30929023  1
