# generated using pymatgen
data_K4Ti2H2O5F8
_symmetry_space_group_name_H-M   'P 1'
_cell_length_a   9.29117321
_cell_length_b   9.29117321
_cell_length_c   12.59588425
_cell_angle_alpha   63.32122341
_cell_angle_beta   116.67877659
_cell_angle_gamma   138.32742403
_symmetry_Int_Tables_number   1
_chemical_formula_structural   K4Ti2H2O5F8
_chemical_formula_sum   'K8 Ti4 H4 O10 F16'
_cell_volume   634.06064778
_cell_formula_units_Z   2
loop_
 _symmetry_equiv_pos_site_id
 _symmetry_equiv_pos_as_xyz
  1  'x, y, z'
loop_
 _atom_site_type_symbol
 _atom_site_label
 _atom_site_symmetry_multiplicity
 _atom_site_fract_x
 _atom_site_fract_y
 _atom_site_fract_z
 _atom_site_occupancy
  K  K0  1  0.04367185  0.40973394  0.17115335  1
  K  K1  1  0.40973394  0.04367185  0.32884665  1
  K  K2  1  0.95632815  0.59026606  0.82884665  1
  K  K3  1  0.59026606  0.95632815  0.67115335  1
  K  K4  1  0.17512597  0.31478111  0.86441851  1
  K  K5  1  0.31478111  0.17512597  0.63558149  1
  K  K6  1  0.82487403  0.68521889  0.13558149  1
  K  K7  1  0.68521889  0.82487403  0.36441851  1
  Ti  Ti8  1  0.99933483  0.65926344  0.53194183  1
  Ti  Ti9  1  0.65926344  0.99933483  0.96805817  1
  Ti  Ti10  1  0.00066517  0.34073656  0.46805817  1
  Ti  Ti11  1  0.34073656  0.00066517  0.03194183  1
  H  H12  1  0.54272853  0.59577229  0.67990205  1
  H  H13  1  0.59577229  0.54272853  0.82009795  1
  H  H14  1  0.45727147  0.40422771  0.32009795  1
  H  H15  1  0.40422771  0.45727147  0.17990205  1
  O  O16  1  0.47131118  0.25935411  0.07220376  1
  O  O17  1  0.25935411  0.47131118  0.42779624  1
  O  O18  1  0.52868882  0.74064589  0.92779624  1
  O  O19  1  0.74064589  0.52868882  0.57220376  1
  O  O20  1  0.23526580  0.07683216  0.07615783  1
  O  O21  1  0.07683216  0.23526580  0.42384217  1
  O  O22  1  0.76473420  0.92316784  0.92384217  1
  O  O23  1  0.92316784  0.76473420  0.57615783  1
  O  O24  1  0.65793940  0.65793940  0.75000000  1
  O  O25  1  0.34206060  0.34206060  0.25000000  1
  F  F26  1  0.28156427  0.09467431  0.86184461  1
  F  F27  1  0.09467431  0.28156427  0.63815539  1
  F  F28  1  0.71843573  0.90532569  0.13815539  1
  F  F29  1  0.90532569  0.71843573  0.36184461  1
  F  F30  1  0.03225902  0.71806347  0.02195663  1
  F  F31  1  0.71806347  0.03225902  0.47804337  1
  F  F32  1  0.96774098  0.28193653  0.97804337  1
  F  F33  1  0.28193653  0.96774098  0.52195663  1
  F  F34  1  0.40103625  0.87360579  0.19379500  1
  F  F35  1  0.87360579  0.40103625  0.30620500  1
  F  F36  1  0.59896375  0.12639421  0.80620500  1
  F  F37  1  0.12639421  0.59896375  0.69379500  1
  F  F38  1  0.65398122  0.19192474  0.01467168  1
  F  F39  1  0.19192474  0.65398122  0.48532832  1
  F  F40  1  0.34601878  0.80807526  0.98532832  1
  F  F41  1  0.80807526  0.34601878  0.51467168  1
