# generated using pymatgen
data_H2C3(N2Cl)2
_symmetry_space_group_name_H-M   'P 1'
_cell_length_a   8.47781900
_cell_length_b   12.39284143
_cell_length_c   14.19902567
_cell_angle_alpha   90.00000000
_cell_angle_beta   122.75373683
_cell_angle_gamma   90.00000000
_symmetry_Int_Tables_number   1
_chemical_formula_structural   H2C3(N2Cl)2
_chemical_formula_sum   'H16 C24 N32 Cl16'
_cell_volume   1254.61795553
_cell_formula_units_Z   8
loop_
 _symmetry_equiv_pos_site_id
 _symmetry_equiv_pos_as_xyz
  1  'x, y, z'
loop_
 _atom_site_type_symbol
 _atom_site_label
 _atom_site_symmetry_multiplicity
 _atom_site_fract_x
 _atom_site_fract_y
 _atom_site_fract_z
 _atom_site_occupancy
  H  H0  1  0.29246296  0.03761593  0.83133741  1
  H  H1  1  0.70753704  0.53761593  0.66866259  1
  H  H2  1  0.70753704  0.96238407  0.16866259  1
  H  H3  1  0.29246296  0.46238407  0.33133741  1
  H  H4  1  0.08234269  0.04601952  0.83203939  1
  H  H5  1  0.91765731  0.54601952  0.66796061  1
  H  H6  1  0.91765731  0.95398048  0.16796061  1
  H  H7  1  0.08234269  0.45398048  0.33203939  1
  H  H8  1  0.90319578  0.12177192  0.94890722  1
  H  H9  1  0.09680422  0.62177192  0.55109278  1
  H  H10  1  0.09680422  0.87822808  0.05109278  1
  H  H11  1  0.90319578  0.37822808  0.44890722  1
  H  H12  1  0.68932481  0.11140730  0.94451336  1
  H  H13  1  0.31067519  0.61140730  0.55548664  1
  H  H14  1  0.31067519  0.88859270  0.05548664  1
  H  H15  1  0.68932481  0.38859270  0.44451336  1
  C  C16  1  0.30743716  0.13299053  0.95203242  1
  C  C17  1  0.69256284  0.63299053  0.54796758  1
  C  C18  1  0.69256284  0.86700947  0.04796758  1
  C  C19  1  0.30743716  0.36700947  0.45203242  1
  C  C20  1  0.56862982  0.22209428  0.08208387  1
  C  C21  1  0.43137018  0.72209428  0.41791613  1
  C  C22  1  0.43137018  0.77790572  0.91791613  1
  C  C23  1  0.56862982  0.27790572  0.58208387  1
  C  C24  1  0.31023999  0.23668828  0.08356608  1
  C  C25  1  0.68976001  0.73668828  0.41643392  1
  C  C26  1  0.68976001  0.76331172  0.91643392  1
  C  C27  1  0.31023999  0.26331172  0.58356608  1
  C  C28  1  0.69453850  0.03272602  0.82072674  1
  C  C29  1  0.30546150  0.53272602  0.67927326  1
  C  C30  1  0.30546150  0.96727398  0.17927326  1
  C  C31  1  0.69453850  0.46727398  0.32072674  1
  C  C32  1  0.44717762  0.94175531  0.68072462  1
  C  C33  1  0.55282238  0.44175531  0.81927538  1
  C  C34  1  0.55282238  0.05824469  0.31927538  1
  C  C35  1  0.44717762  0.55824469  0.18072462  1
  C  C36  1  0.70618893  0.95696046  0.68010974  1
  C  C37  1  0.29381107  0.45696046  0.81989026  1
  C  C38  1  0.29381107  0.04303954  0.31989026  1
  C  C39  1  0.70618893  0.54303954  0.18010974  1
  N  N40  1  0.21085760  0.17156567  0.99685685  1
  N  N41  1  0.78914240  0.67156567  0.50314315  1
  N  N42  1  0.78914240  0.82843433  0.00314315  1
  N  N43  1  0.21085760  0.32843433  0.49685685  1
  N  N44  1  0.49178458  0.15610268  0.99485695  1
  N  N45  1  0.50821542  0.65610268  0.50514305  1
  N  N46  1  0.50821542  0.84389732  0.00514305  1
  N  N47  1  0.49178458  0.34389732  0.49485695  1
  N  N48  1  0.48843024  0.26763589  0.13130591  1
  N  N49  1  0.51156976  0.76763589  0.36869409  1
  N  N50  1  0.51156976  0.73236411  0.86869409  1
  N  N51  1  0.48843024  0.23236411  0.63130591  1
  N  N52  1  0.79808128  0.01119443  0.77560697  1
  N  N53  1  0.20191872  0.51119443  0.72439303  1
  N  N54  1  0.20191872  0.98880557  0.22439303  1
  N  N55  1  0.79808128  0.48880557  0.27560697  1
  N  N56  1  0.51564829  0.99551969  0.77568059  1
  N  N57  1  0.48435171  0.49551969  0.72431941  1
  N  N58  1  0.48435171  0.00448031  0.22431941  1
  N  N59  1  0.51564829  0.50448031  0.27568059  1
  N  N60  1  0.53072178  0.91963676  0.62568870  1
  N  N61  1  0.46927822  0.41963676  0.87431130  1
  N  N62  1  0.46927822  0.08036324  0.37431130  1
  N  N63  1  0.53072178  0.58036324  0.12568870  1
  N  N64  1  0.21826658  0.06909480  0.86248864  1
  N  N65  1  0.78173342  0.56909480  0.63751136  1
  N  N66  1  0.78173342  0.93090520  0.13751136  1
  N  N67  1  0.21826658  0.43090520  0.36248864  1
  N  N68  1  0.77073606  0.09118717  0.91411297  1
  N  N69  1  0.22926394  0.59118717  0.58588703  1
  N  N70  1  0.22926394  0.90881283  0.08588703  1
  N  N71  1  0.77073606  0.40881283  0.41411297  1
  Cl  Cl72  1  0.80246958  0.25119668  0.14147780  1
  Cl  Cl73  1  0.19753042  0.75119668  0.35852220  1
  Cl  Cl74  1  0.19753042  0.74880332  0.85852220  1
  Cl  Cl75  1  0.80246958  0.24880332  0.64147780  1
  Cl  Cl76  1  0.19616624  0.28848830  0.14433719  1
  Cl  Cl77  1  0.80383376  0.78848830  0.35566281  1
  Cl  Cl78  1  0.80383376  0.71151170  0.85566281  1
  Cl  Cl79  1  0.19616624  0.21151170  0.64433719  1
  Cl  Cl80  1  0.22159373  0.89298431  0.61877418  1
  Cl  Cl81  1  0.77840627  0.39298431  0.88122582  1
  Cl  Cl82  1  0.77840627  0.10701569  0.38122582  1
  Cl  Cl83  1  0.22159373  0.60701569  0.11877418  1
  Cl  Cl84  1  0.83002736  0.93067952  0.61833206  1
  Cl  Cl85  1  0.16997264  0.43067952  0.88166794  1
  Cl  Cl86  1  0.16997264  0.06932048  0.38166794  1
  Cl  Cl87  1  0.83002736  0.56932048  0.11833206  1
