# generated using pymatgen
data_Ca13Si10H12(O17F5)2
_symmetry_space_group_name_H-M   'P 1'
_cell_length_a   13.50381745
_cell_length_b   13.50389674
_cell_length_c   13.50354038
_cell_angle_alpha   41.05815649
_cell_angle_beta   41.05814492
_cell_angle_gamma   41.05704639
_symmetry_Int_Tables_number   1
_chemical_formula_structural   Ca13Si10H12(O17F5)2
_chemical_formula_sum   'Ca13 Si10 H12 O34 F10'
_cell_volume   959.14981126
_cell_formula_units_Z   1
loop_
 _symmetry_equiv_pos_site_id
 _symmetry_equiv_pos_as_xyz
  1  'x, y, z'
loop_
 _atom_site_type_symbol
 _atom_site_label
 _atom_site_symmetry_multiplicity
 _atom_site_fract_x
 _atom_site_fract_y
 _atom_site_fract_z
 _atom_site_occupancy
  Ca  Ca0  1  0.00000000  0.00000000  -0.00000000  1
  Ca  Ca1  1  0.70292932  0.42087679  0.83765262  1
  Ca  Ca2  1  0.42086190  0.83771468  0.70294604  1
  Ca  Ca3  1  0.83765211  0.70294475  0.42091783  1
  Ca  Ca4  1  0.29707068  0.57912321  0.16234738  1
  Ca  Ca5  1  0.57913810  0.16228532  0.29705396  1
  Ca  Ca6  1  0.16234789  0.29705525  0.57908217  1
  Ca  Ca7  1  0.80044625  0.37173332  0.54116373  1
  Ca  Ca8  1  0.37170779  0.54131571  0.80034759  1
  Ca  Ca9  1  0.54124252  0.80047386  0.37164027  1
  Ca  Ca10  1  0.19955375  0.62826668  0.45883627  1
  Ca  Ca11  1  0.62829221  0.45868429  0.19965241  1
  Ca  Ca12  1  0.45875748  0.19952614  0.62835973  1
  Si  Si13  1  0.88389796  0.88389892  0.88382761  1
  Si  Si14  1  0.11610204  0.11610108  0.11617239  1
  Si  Si15  1  0.62565947  0.14348092  0.01235893  1
  Si  Si16  1  0.14344458  0.01245545  0.62560682  1
  Si  Si17  1  0.01241529  0.62570573  0.14342531  1
  Si  Si18  1  0.37434053  0.85651908  0.98764107  1
  Si  Si19  1  0.85655542  0.98754455  0.37439318  1
  Si  Si20  1  0.98758471  0.37429427  0.85657469  1
  Si  Si21  1  0.26778482  0.26780660  0.26773896  1
  Si  Si22  1  0.73221518  0.73219340  0.73226104  1
  H  H23  1  0.81429163  0.22720862  0.44830400  1
  H  H24  1  0.22729760  0.44833574  0.81420936  1
  H  H25  1  0.44835490  0.81425435  0.22720493  1
  H  H26  1  0.18570837  0.77279138  0.55169600  1
  H  H27  1  0.77270240  0.55166426  0.18579064  1
  H  H28  1  0.55164510  0.18574565  0.77279507  1
  H  H29  1  0.98743934  0.24049806  0.29425355  1
  H  H30  1  0.24049216  0.29435495  0.98739195  1
  H  H31  1  0.29436375  0.98746136  0.24039721  1
  H  H32  1  0.01256066  0.75950194  0.70574645  1
  H  H33  1  0.75950784  0.70564505  0.01260805  1
  H  H34  1  0.70563625  0.01253864  0.75960279  1
  O  O35  1  0.84073929  0.84058691  0.84067738  1
  O  O36  1  0.15926071  0.15941309  0.15932262  1
  O  O37  1  0.95879634  0.02587428  0.71808296  1
  O  O38  1  0.02586276  0.71823221  0.95874283  1
  O  O39  1  0.71809583  0.95887105  0.02574189  1
  O  O40  1  0.04120366  0.97412572  0.28191704  1
  O  O41  1  0.97413724  0.28176779  0.04125717  1
  O  O42  1  0.28190417  0.04112895  0.97425811  1
  O  O43  1  0.14532372  0.17146841  0.43818966  1
  O  O44  1  0.17140589  0.43828188  0.14531675  1
  O  O45  1  0.43823135  0.14538153  0.17135367  1
  O  O46  1  0.85467628  0.82853159  0.56181034  1
  O  O47  1  0.82859411  0.56171812  0.85468325  1
  O  O48  1  0.56176865  0.85461847  0.82864733  1
  O  O49  1  0.61469314  0.29917446  0.83677300  1
  O  O50  1  0.29910523  0.83688511  0.61459035  1
  O  O51  1  0.83681603  0.61473989  0.29903953  1
  O  O52  1  0.38530686  0.70082554  0.16322700  1
  O  O53  1  0.70089477  0.16311489  0.38540965  1
  O  O54  1  0.16318397  0.38526011  0.70096047  1
  O  O55  1  0.31132472  0.31126069  0.31127229  1
  O  O56  1  0.68867528  0.68873931  0.68872771  1
  O  O57  1  0.14497533  0.04674435  0.71703093  1
  O  O58  1  0.04672083  0.71706570  0.14500939  1
  O  O59  1  0.71708190  0.14493147  0.04672055  1
  O  O60  1  0.85502467  0.95325565  0.28296907  1
  O  O61  1  0.95327917  0.28293430  0.85499061  1
  O  O62  1  0.28291810  0.85506853  0.95327945  1
  O  O63  1  0.87311513  0.29469250  0.37215050  1
  O  O64  1  0.29474020  0.37218255  0.87307837  1
  O  O65  1  0.37220232  0.87314444  0.29462784  1
  O  O66  1  0.12688487  0.70530750  0.62784950  1
  O  O67  1  0.70525980  0.62781845  0.12692163  1
  O  O68  1  0.62779768  0.12685556  0.70537216  1
  F  F69  1  0.92132844  0.40801820  0.57901137  1
  F  F70  1  0.40797768  0.57910394  0.92129834  1
  F  F71  1  0.57902589  0.92131775  0.40802505  1
  F  F72  1  0.07867156  0.59198180  0.42098863  1
  F  F73  1  0.59202232  0.42089606  0.07870166  1
  F  F74  1  0.42097411  0.07868225  0.59197495  1
  F  F75  1  0.61497983  0.61500027  0.61495211  1
  F  F76  1  0.38502017  0.38499973  0.38504789  1
  F  F77  1  0.54394984  0.54397417  0.54387164  1
  F  F78  1  0.45605016  0.45602583  0.45612836  1
