# generated using pymatgen
data_Ba2Nd2Fe4O11
_symmetry_space_group_name_H-M   'P 1'
_cell_length_a   3.96157936
_cell_length_b   8.08613674
_cell_length_c   8.88909053
_cell_angle_alpha   117.05431023
_cell_angle_beta   90.00000000
_cell_angle_gamma   90.00000000
_symmetry_Int_Tables_number   1
_chemical_formula_structural   Ba2Nd2Fe4O11
_chemical_formula_sum   'Ba2 Nd2 Fe4 O11'
_cell_volume   253.59323010
_cell_formula_units_Z   1
loop_
 _symmetry_equiv_pos_site_id
 _symmetry_equiv_pos_as_xyz
  1  'x, y, z'
loop_
 _atom_site_type_symbol
 _atom_site_label
 _atom_site_symmetry_multiplicity
 _atom_site_fract_x
 _atom_site_fract_y
 _atom_site_fract_z
 _atom_site_occupancy
  Ba  Ba0  1  0.50000000  0.50000000  0.50000000  1
  Ba  Ba1  1  0.50000000  0.00000000  0.50000000  1
  Nd  Nd2  1  0.50000000  0.73193554  0.00000000  1
  Nd  Nd3  1  0.50000000  0.26806446  -0.00000000  1
  Fe  Fe4  1  0.00000000  0.87446898  0.74893796  1
  Fe  Fe5  1  0.00000000  0.12553102  0.25106204  1
  Fe  Fe6  1  -0.00000000  0.62278237  0.24556473  1
  Fe  Fe7  1  -0.00000000  0.37721763  0.75443527  1
  O  O8  1  0.00000000  0.65564837  0.79152380  1
  O  O9  1  0.00000000  0.13587543  0.79152380  1
  O  O10  1  0.00000000  0.34435163  0.20847620  1
  O  O11  1  0.00000000  0.86412457  0.20847620  1
  O  O12  1  0.50000000  0.90866355  0.81732710  1
  O  O13  1  0.50000000  0.09133645  0.18267290  1
  O  O14  1  0.50000000  0.61848434  0.23696867  1
  O  O15  1  0.50000000  0.38151566  0.76303133  1
  O  O16  1  0.00000000  0.75241989  0.50483978  1
  O  O17  1  0.00000000  0.24758011  0.49516022  1
  O  O18  1  0.00000000  0.50000000  0.00000000  1
