# generated using pymatgen
data_CdH2SeO4
_symmetry_space_group_name_H-M   'P 1'
_cell_length_a   13.43150145
_cell_length_b   6.04475729
_cell_length_c   5.11912787
_cell_angle_alpha   90.00000000
_cell_angle_beta   90.00000000
_cell_angle_gamma   90.00000000
_symmetry_Int_Tables_number   1
_chemical_formula_structural   CdH2SeO4
_chemical_formula_sum   'Cd4 H8 Se4 O16'
_cell_volume   415.62284310
_cell_formula_units_Z   4
loop_
 _symmetry_equiv_pos_site_id
 _symmetry_equiv_pos_as_xyz
  1  'x, y, z'
loop_
 _atom_site_type_symbol
 _atom_site_label
 _atom_site_symmetry_multiplicity
 _atom_site_fract_x
 _atom_site_fract_y
 _atom_site_fract_z
 _atom_site_occupancy
  Cd  Cd0  1  0.77197088  0.25000000  0.09801039  1
  Cd  Cd1  1  0.27197088  0.25000000  0.40198961  1
  Cd  Cd2  1  0.22802912  0.75000000  0.90198961  1
  Cd  Cd3  1  0.72802912  0.75000000  0.59801039  1
  H  H4  1  0.88937267  0.12114161  0.53723302  1
  H  H5  1  0.38937267  0.37885839  0.96276698  1
  H  H6  1  0.11062733  0.62114161  0.46276698  1
  H  H7  1  0.61062733  0.87885839  0.03723302  1
  H  H8  1  0.11062733  0.87885839  0.46276698  1
  H  H9  1  0.61062733  0.62114161  0.03723302  1
  H  H10  1  0.88937267  0.37885839  0.53723302  1
  H  H11  1  0.38937267  0.12114161  0.96276698  1
  Se  Se12  1  0.90722284  0.75000000  0.01021435  1
  Se  Se13  1  0.40722284  0.75000000  0.48978565  1
  Se  Se14  1  0.09277716  0.25000000  0.98978565  1
  Se  Se15  1  0.59277716  0.25000000  0.51021435  1
  O  O16  1  0.63506796  0.25000000  0.82090561  1
  O  O17  1  0.13506796  0.25000000  0.67909439  1
  O  O18  1  0.36493204  0.75000000  0.17909439  1
  O  O19  1  0.86493204  0.75000000  0.32090561  1
  O  O20  1  0.84128344  0.53207626  0.85740388  1
  O  O21  1  0.34128344  0.96792374  0.64259612  1
  O  O22  1  0.15871656  0.03207626  0.14259612  1
  O  O23  1  0.65871656  0.46792374  0.35740388  1
  O  O24  1  0.15871656  0.46792374  0.14259612  1
  O  O25  1  0.65871656  0.03207626  0.35740388  1
  O  O26  1  0.84128344  0.96792374  0.85740388  1
  O  O27  1  0.34128344  0.53207626  0.64259612  1
  O  O28  1  0.89770090  0.25000000  0.42066241  1
  O  O29  1  0.39770090  0.25000000  0.07933759  1
  O  O30  1  0.10229910  0.75000000  0.57933759  1
  O  O31  1  0.60229910  0.75000000  0.92066241  1
