# generated using pymatgen
data_VAg2O3F
_symmetry_space_group_name_H-M   'P 1'
_cell_length_a   5.70818747
_cell_length_b   10.62738203
_cell_length_c   12.72044982
_cell_angle_alpha   90.00000000
_cell_angle_beta   90.08323362
_cell_angle_gamma   90.00000000
_symmetry_Int_Tables_number   1
_chemical_formula_structural   VAg2O3F
_chemical_formula_sum   'V8 Ag16 O24 F8'
_cell_volume   771.66096502
_cell_formula_units_Z   8
loop_
 _symmetry_equiv_pos_site_id
 _symmetry_equiv_pos_as_xyz
  1  'x, y, z'
loop_
 _atom_site_type_symbol
 _atom_site_label
 _atom_site_symmetry_multiplicity
 _atom_site_fract_x
 _atom_site_fract_y
 _atom_site_fract_z
 _atom_site_occupancy
  V  V0  1  0.28692736  0.23161967  0.41402458  1
  V  V1  1  0.77497839  0.48448281  0.71445669  1
  V  V2  1  0.78692736  0.26838033  0.91402458  1
  V  V3  1  0.22502161  0.51551719  0.28554331  1
  V  V4  1  0.27497839  0.01551719  0.21445669  1
  V  V5  1  0.71307264  0.76838033  0.58597542  1
  V  V6  1  0.21307264  0.73161967  0.08597542  1
  V  V7  1  0.72502161  0.98448281  0.78554331  1
  Ag  Ag8  1  0.26829663  0.05323427  0.93521599  1
  Ag  Ag9  1  0.75813672  0.02651608  0.40346590  1
  Ag  Ag10  1  0.73170337  0.94676573  0.06478401  1
  Ag  Ag11  1  0.30382414  0.29620261  0.08304925  1
  Ag  Ag12  1  0.19617586  0.79620261  0.41695075  1
  Ag  Ag13  1  0.80233780  0.24512880  0.22401106  1
  Ag  Ag14  1  0.69766220  0.74512880  0.27598894  1
  Ag  Ag15  1  0.30233780  0.25487120  0.72401106  1
  Ag  Ag16  1  0.69617586  0.70379739  0.91695075  1
  Ag  Ag17  1  0.74186328  0.52651608  0.09653410  1
  Ag  Ag18  1  0.23170337  0.55323427  0.56478401  1
  Ag  Ag19  1  0.76829663  0.44676573  0.43521599  1
  Ag  Ag20  1  0.80382414  0.20379739  0.58304925  1
  Ag  Ag21  1  0.24186328  0.97348392  0.59653410  1
  Ag  Ag22  1  0.25813672  0.47348392  0.90346590  1
  Ag  Ag23  1  0.19766220  0.75487120  0.77598894  1
  O  O24  1  0.00375588  0.60626568  0.33431143  1
  O  O25  1  0.81169095  0.83189503  0.46852342  1
  O  O26  1  0.50375588  0.89373432  0.83431143  1
  O  O27  1  0.69423432  0.10891036  0.90269979  1
  O  O28  1  0.31169095  0.66810497  0.96852342  1
  O  O29  1  0.30576568  0.89108964  0.09730021  1
  O  O30  1  0.08711222  0.42580008  0.19190387  1
  O  O31  1  0.34801919  0.64657596  0.19111544  1
  O  O32  1  0.68830905  0.33189503  0.03147658  1
  O  O33  1  0.84801919  0.85342404  0.69111544  1
  O  O34  1  0.41288778  0.92580008  0.30809613  1
  O  O35  1  0.58711222  0.07419992  0.69190387  1
  O  O36  1  0.91288778  0.57419992  0.80809613  1
  O  O37  1  0.80576568  0.60891036  0.59730021  1
  O  O38  1  0.59014056  0.21869599  0.40605704  1
  O  O39  1  0.19423432  0.39108964  0.40269979  1
  O  O40  1  0.49624412  0.10626568  0.16568857  1
  O  O41  1  0.65198081  0.35342404  0.80888456  1
  O  O42  1  0.99624412  0.39373432  0.66568857  1
  O  O43  1  0.18830905  0.16810497  0.53147658  1
  O  O44  1  0.09014056  0.28130401  0.90605704  1
  O  O45  1  0.90985944  0.71869599  0.09394296  1
  O  O46  1  0.40985944  0.78130401  0.59394296  1
  O  O47  1  0.15198081  0.14657596  0.30888456  1
  F  F48  1  0.96010279  0.93134426  0.24389352  1
  F  F49  1  0.45253736  0.60209933  0.39703147  1
  F  F50  1  0.95253736  0.89790067  0.89703147  1
  F  F51  1  0.46010279  0.56865574  0.74389352  1
  F  F52  1  0.53989721  0.43134426  0.25610648  1
  F  F53  1  0.54746264  0.39790067  0.60296853  1
  F  F54  1  0.03989721  0.06865574  0.75610648  1
  F  F55  1  0.04746264  0.10209933  0.10296853  1
