# generated using pymatgen
data_V4NiS8
_symmetry_space_group_name_H-M   'P 1'
_cell_length_a   6.53768143
_cell_length_b   6.48073521
_cell_length_c   7.86673347
_cell_angle_alpha   53.53694996
_cell_angle_beta   52.35004803
_cell_angle_gamma   75.91982010
_symmetry_Int_Tables_number   1
_chemical_formula_structural   V4NiS8
_chemical_formula_sum   'V4 Ni1 S8'
_cell_volume   208.45029161
_cell_formula_units_Z   1
loop_
 _symmetry_equiv_pos_site_id
 _symmetry_equiv_pos_as_xyz
  1  'x, y, z'
loop_
 _atom_site_type_symbol
 _atom_site_label
 _atom_site_symmetry_multiplicity
 _atom_site_fract_x
 _atom_site_fract_y
 _atom_site_fract_z
 _atom_site_occupancy
  V  V0  1  0.71607890  0.71216707  0.78758036  1
  V  V1  1  0.28322902  0.28718428  0.21376577  1
  V  V2  1  0.73468501  0.27299469  0.23668500  1
  V  V3  1  0.26203630  0.72761590  0.76422208  1
  Ni  Ni4  1  0.99940606  0.99990660  -0.00001614  1
  S  S5  1  0.97133093  0.02826819  0.69901486  1
  S  S6  1  0.02630634  0.97240118  0.30198394  1
  S  S7  1  0.44276460  0.55620163  0.22329672  1
  S  S8  1  0.55485826  0.44458394  0.77772255  1
  S  S9  1  0.45918231  0.04148052  0.71317371  1
  S  S10  1  0.04590102  0.45779703  0.78138549  1
  S  S11  1  0.95249296  0.54175799  0.21944710  1
  S  S12  1  0.53930630  0.95819997  0.28743855  1
