# generated using pymatgen
data_La5Mn5O16
_symmetry_space_group_name_H-M   'P 1'
_cell_length_a   22.06219300
_cell_length_b   14.54495114
_cell_length_c   9.49980508
_cell_angle_alpha   29.75480977
_cell_angle_beta   55.65340284
_cell_angle_gamma   41.45187927
_symmetry_Int_Tables_number   1
_chemical_formula_structural   La5Mn5O16
_chemical_formula_sum   'La15 Mn15 O48'
_cell_volume   966.19345911
_cell_formula_units_Z   3
loop_
 _symmetry_equiv_pos_site_id
 _symmetry_equiv_pos_as_xyz
  1  'x, y, z'
loop_
 _atom_site_type_symbol
 _atom_site_label
 _atom_site_symmetry_multiplicity
 _atom_site_fract_x
 _atom_site_fract_y
 _atom_site_fract_z
 _atom_site_occupancy
  La  La0  1  0.05703120  0.99928148  0.23141196  1
  La  La1  1  0.18108059  0.00178085  0.75082926  1
  La  La2  1  0.31636561  0.98698535  0.26041155  1
  La  La3  1  0.05939707  0.51723653  0.72330420  1
  La  La4  1  0.18136683  0.51996029  0.23769584  1
  La  La5  1  0.44252672  0.99646141  0.73830874  1
  La  La6  1  0.31913365  0.48466719  0.76602270  1
  La  La7  1  0.44026690  0.50142968  0.24230827  1
  La  La8  1  0.68523352  0.00201834  0.75822687  1
  La  La9  1  0.81785112  0.99844068  0.24789864  1
  La  La10  1  0.56221989  0.49936686  0.75388946  1
  La  La11  1  0.68713017  0.50388356  0.24569401  1
  La  La12  1  0.93897907  0.00734718  0.76213257  1
  La  La13  1  0.81167787  0.49375845  0.74950530  1
  La  La14  1  0.93611296  0.48639293  0.28136229  1
  Mn  Mn15  1  0.12489028  0.00196040  0.49145493  1
  Mn  Mn16  1  0.24952003  0.99976596  0.00080025  1
  Mn  Mn17  1  0.12537333  0.50024327  0.99837427  1
  Mn  Mn18  1  0.37422574  0.00147059  0.49940287  1
  Mn  Mn19  1  0.50053399  0.00037209  0.00059959  1
  Mn  Mn20  1  0.25308986  0.49130174  0.50879046  1
  Mn  Mn21  1  0.37685647  0.49572767  0.00210382  1
  Mn  Mn22  1  0.62721696  0.99749279  0.49551387  1
  Mn  Mn23  1  0.74873592  0.00120206  0.00159949  1
  Mn  Mn24  1  0.50077349  0.49471445  0.50793579  1
  Mn  Mn25  1  0.62442756  0.50401121  0.99520414  1
  Mn  Mn26  1  0.87440523  0.99909420  0.50732747  1
  Mn  Mn27  1  0.74488718  0.51322317  0.49052145  1
  Mn  Mn28  1  0.87514503  0.49854069  0.00127488  1
  Mn  Mn29  1  0.00004363  0.50100820  0.49893945  1
  O  O30  1  0.17100537  0.07712723  0.17129079  1
  O  O31  1  0.10063922  0.28121243  0.25610493  1
  O  O32  1  0.02212055  0.23874091  0.72464330  1
  O  O33  1  0.04658164  0.57349705  0.17678150  1
  O  O34  1  0.23879242  0.22156289  0.31466799  1
  O  O35  1  0.13237766  0.28659507  0.68336713  1
  O  O36  1  0.41449292  0.05481291  0.19542164  1
  O  O37  1  0.12912071  0.69740439  0.32624285  1
  O  O38  1  0.34861744  0.28609125  0.24706004  1
  O  O39  1  0.01124435  0.77441146  0.68353204  1
  O  O40  1  0.27953268  0.20963497  0.75375314  1
  O  O41  1  0.20733915  0.42726243  0.81971166  1
  O  O42  1  0.29582815  0.56142835  0.18982316  1
  O  O43  1  0.22560235  0.78040727  0.25234185  1
  O  O44  1  0.48895663  0.23820902  0.30485460  1
  O  O45  1  0.15229153  0.71540566  0.74336372  1
  O  O46  1  0.38497895  0.28261351  0.68270947  1
  O  O47  1  0.08085168  0.94495510  0.78508391  1
  O  O48  1  0.68133004  0.06613231  0.17844293  1
  O  O49  1  0.36544639  0.72061583  0.31035564  1
  O  O50  1  0.60566050  0.27604311  0.25233124  1
  O  O51  1  0.25659961  0.78060213  0.68893304  1
  O  O52  1  0.51821520  0.23343276  0.72599765  1
  O  O53  1  0.44310514  0.48176187  0.76822207  1
  O  O54  1  0.54952195  0.55539329  0.19425710  1
  O  O55  1  0.47794157  0.78646672  0.23040117  1
  O  O56  1  0.74257775  0.21299114  0.32561786  1
  O  O57  1  0.39491719  0.72269598  0.75123792  1
  O  O58  1  0.63484438  0.28001612  0.68560468  1
  O  O59  1  0.32424230  0.94154744  0.81384921  1
  O  O60  1  0.91569691  0.06234807  0.20847900  1
  O  O61  1  0.61811324  0.70444065  0.31452162  1
  O  O62  1  0.85219613  0.27638592  0.26074464  1
  O  O63  1  0.50112087  0.76288439  0.73020858  1
  O  O64  1  0.77260504  0.22071940  0.74832755  1
  O  O65  1  0.70248769  0.43702670  0.81597282  1
  O  O66  1  0.79491419  0.56321641  0.18739431  1
  O  O67  1  0.73709368  0.77087492  0.24276857  1
  O  O68  1  0.99053151  0.22249462  0.31326479  1
  O  O69  1  0.65177463  0.70234849  0.78295406  1
  O  O70  1  0.87000764  0.29476762  0.68531412  1
  O  O71  1  0.57888909  0.94365689  0.80463090  1
  O  O72  1  0.86849259  0.71442191  0.31715289  1
  O  O73  1  0.76007070  0.77730781  0.68933292  1
  O  O74  1  0.95379010  0.43027638  0.81861123  1
  O  O75  1  0.97914554  0.76020669  0.27542163  1
  O  O76  1  0.89763682  0.72051743  0.74688257  1
  O  O77  1  0.83166037  0.92789583  0.82316921  1
