# generated using pymatgen
data_PH9C2N4O5
_symmetry_space_group_name_H-M   'P 1'
_cell_length_a   8.35282630
_cell_length_b   6.74465901
_cell_length_c   8.53843172
_cell_angle_alpha   75.58174696
_cell_angle_beta   66.37590107
_cell_angle_gamma   81.34266229
_symmetry_Int_Tables_number   1
_chemical_formula_structural   PH9C2N4O5
_chemical_formula_sum   'P2 H18 C4 N8 O10'
_cell_volume   426.13698355
_cell_formula_units_Z   2
loop_
 _symmetry_equiv_pos_site_id
 _symmetry_equiv_pos_as_xyz
  1  'x, y, z'
loop_
 _atom_site_type_symbol
 _atom_site_label
 _atom_site_symmetry_multiplicity
 _atom_site_fract_x
 _atom_site_fract_y
 _atom_site_fract_z
 _atom_site_occupancy
  P  P0  1  0.02684393  0.95000592  0.74955580  1
  P  P1  1  0.97315607  0.04999408  0.25044420  1
  H  H2  1  0.83756500  0.00585147  0.01244247  1
  H  H3  1  0.16243500  0.99414853  0.98755753  1
  H  H4  1  0.02152016  0.17940627  0.50933676  1
  H  H5  1  0.97847984  0.82059373  0.49066324  1
  H  H6  1  0.69484704  0.37744799  0.76442658  1
  H  H7  1  0.30515296  0.62255201  0.23557342  1
  H  H8  1  0.81997105  0.56628238  0.77022218  1
  H  H9  1  0.18002895  0.43371762  0.22977782  1
  H  H10  1  0.66809560  0.88698779  0.83193013  1
  H  H11  1  0.33190440  0.11301221  0.16806987  1
  H  H12  1  0.48483905  0.96101418  0.77987382  1
  H  H13  1  0.51516095  0.03898582  0.22012618  1
  H  H14  1  0.32898422  0.72573518  0.77216984  1
  H  H15  1  0.67101578  0.27426482  0.22783016  1
  H  H16  1  0.24289145  0.29607435  0.66514744  1
  H  H17  1  0.75710855  0.70392565  0.33485256  1
  H  H18  1  0.18644334  0.55386425  0.67735594  1
  H  H19  1  0.81355666  0.44613575  0.32264406  1
  C  C20  1  0.57305636  0.65766638  0.77934939  1
  C  C21  1  0.42694364  0.34233362  0.22065061  1
  C  C22  1  0.41031862  0.42474364  0.72490277  1
  C  C23  1  0.58968138  0.57525636  0.27509723  1
  N  N24  1  0.70372456  0.51894267  0.78333645  1
  N  N25  1  0.29627544  0.48105733  0.21666355  1
  N  N26  1  0.57405954  0.84682167  0.79946011  1
  N  N27  1  0.42594046  0.15317833  0.20053989  1
  N  N28  1  0.43123373  0.61204589  0.75656040  1
  N  N29  1  0.56876627  0.38795411  0.24343960  1
  N  N30  1  0.26832688  0.42617047  0.68864423  1
  N  N31  1  0.73167312  0.57382953  0.31135577  1
  O  O32  1  0.17013654  0.92011675  0.82290512  1
  O  O33  1  0.82986346  0.07988325  0.17709488  1
  O  O34  1  0.84029418  0.96061216  0.90527759  1
  O  O35  1  0.15970582  0.03938784  0.09472241  1
  O  O36  1  0.04896746  0.16754408  0.61813896  1
  O  O37  1  0.95103254  0.83245592  0.38186104  1
  O  O38  1  0.02225397  0.78285298  0.65976121  1
  O  O39  1  0.97774603  0.21714702  0.34023879  1
  O  O40  1  0.51541356  0.27292337  0.73124934  1
  O  O41  1  0.48458644  0.72707663  0.26875066  1
