# generated using pymatgen
data_SrMgUH24C3O23
_symmetry_space_group_name_H-M   'P 1'
_cell_length_a   11.36695947
_cell_length_b   14.82617990
_cell_length_c   6.55127709
_cell_angle_alpha   90.00000000
_cell_angle_beta   99.81275136
_cell_angle_gamma   90.00000000
_symmetry_Int_Tables_number   1
_chemical_formula_structural   SrMgUH24C3O23
_chemical_formula_sum   'Sr2 Mg2 U2 H48 C6 O46'
_cell_volume   1087.92480431
_cell_formula_units_Z   2
loop_
 _symmetry_equiv_pos_site_id
 _symmetry_equiv_pos_as_xyz
  1  'x, y, z'
loop_
 _atom_site_type_symbol
 _atom_site_label
 _atom_site_symmetry_multiplicity
 _atom_site_fract_x
 _atom_site_fract_y
 _atom_site_fract_z
 _atom_site_occupancy
  Sr  Sr0  1  0.59021340  0.25000000  0.78836302  1
  Sr  Sr1  1  0.40978660  0.75000000  0.21163698  1
  Mg  Mg2  1  0.00000000  0.50000000  0.00000000  1
  Mg  Mg3  1  0.00000000  0.00000000  0.00000000  1
  U  U4  1  0.21745370  0.25000000  0.55067102  1
  U  U5  1  0.78254630  0.75000000  0.44932898  1
  H  H6  1  0.39873232  0.25000000  0.12052444  1
  H  H7  1  0.60126768  0.75000000  0.87947556  1
  H  H8  1  0.52670430  0.25000000  0.25370215  1
  H  H9  1  0.47329570  0.75000000  0.74629785  1
  H  H10  1  0.81672050  0.25000000  0.11904635  1
  H  H11  1  0.18327950  0.75000000  0.88095365  1
  H  H12  1  0.88075705  0.25000000  0.92753744  1
  H  H13  1  0.11924295  0.75000000  0.07246256  1
  H  H14  1  0.55399611  0.45402312  0.83259380  1
  H  H15  1  0.44600389  0.95402312  0.16740620  1
  H  H16  1  0.44600389  0.54597688  0.16740620  1
  H  H17  1  0.55399611  0.04597688  0.83259380  1
  H  H18  1  0.61992319  0.44839525  0.06362576  1
  H  H19  1  0.38007681  0.94839525  0.93637424  1
  H  H20  1  0.38007681  0.55160475  0.93637424  1
  H  H21  1  0.61992319  0.05160475  0.06362576  1
  H  H22  1  0.73040328  0.33088606  0.45616972  1
  H  H23  1  0.26959672  0.83088606  0.54383028  1
  H  H24  1  0.26959672  0.66911394  0.54383028  1
  H  H25  1  0.73040328  0.16911394  0.45616972  1
  H  H26  1  0.63327243  0.40849954  0.43542005  1
  H  H27  1  0.36672757  0.90849954  0.56457995  1
  H  H28  1  0.36672757  0.59150046  0.56457995  1
  H  H29  1  0.63327243  0.09150046  0.43542005  1
  H  H30  1  0.94833894  0.41784031  0.34902355  1
  H  H31  1  0.05166106  0.91784031  0.65097645  1
  H  H32  1  0.05166106  0.58215969  0.65097645  1
  H  H33  1  0.94833894  0.08215969  0.34902355  1
  H  H34  1  0.86604000  0.50551818  0.32322090  1
  H  H35  1  0.13396000  0.00551818  0.67677910  1
  H  H36  1  0.13396000  0.49448182  0.67677910  1
  H  H37  1  0.86604000  0.99448182  0.32322090  1
  H  H38  1  0.19141695  0.47757277  0.31975009  1
  H  H39  1  0.80858305  0.97757277  0.68024991  1
  H  H40  1  0.80858305  0.52242723  0.68024991  1
  H  H41  1  0.19141695  0.02242723  0.31975009  1
  H  H42  1  0.24107779  0.53260267  0.14460153  1
  H  H43  1  0.75892221  0.03260267  0.85539847  1
  H  H44  1  0.75892221  0.46739733  0.85539847  1
  H  H45  1  0.24107779  0.96739733  0.14460153  1
  H  H46  1  0.10135993  0.33469375  0.99459495  1
  H  H47  1  0.89864007  0.83469375  0.00540505  1
  H  H48  1  0.89864007  0.66530625  0.00540505  1
  H  H49  1  0.10135993  0.16530625  0.99459495  1
  H  H50  1  0.01299281  0.35302868  0.79077975  1
  H  H51  1  0.98700719  0.85302868  0.20922025  1
  H  H52  1  0.98700719  0.64697132  0.20922025  1
  H  H53  1  0.01299281  0.14697132  0.79077975  1
  C  C54  1  0.95524678  0.25000000  0.45979456  1
  C  C55  1  0.04475322  0.75000000  0.54020544  1
  C  C56  1  0.34901290  0.41865606  0.63579587  1
  C  C57  1  0.65098710  0.91865606  0.36420413  1
  C  C58  1  0.65098710  0.58134394  0.36420413  1
  C  C59  1  0.34901290  0.08134394  0.63579587  1
  O  O60  1  0.22313817  0.25000000  0.27349215  1
  O  O61  1  0.77686183  0.75000000  0.72650785  1
  O  O62  1  0.20878841  0.25000000  0.82666039  1
  O  O63  1  0.79121159  0.75000000  0.17333961  1
  O  O64  1  0.01808465  0.32449691  0.49628370  1
  O  O65  1  0.98191535  0.82449691  0.50371630  1
  O  O66  1  0.98191535  0.67550309  0.50371630  1
  O  O67  1  0.01808465  0.17550309  0.49628370  1
  O  O68  1  0.84377020  0.25000000  0.39373191  1
  O  O69  1  0.15622980  0.75000000  0.60626809  1
  O  O70  1  0.23307218  0.41925318  0.56739426  1
  O  O71  1  0.76692782  0.91925318  0.43260574  1
  O  O72  1  0.76692782  0.58074682  0.43260574  1
  O  O73  1  0.23307218  0.08074682  0.56739426  1
  O  O74  1  0.39799817  0.33899670  0.63508287  1
  O  O75  1  0.60200183  0.83899670  0.36491713  1
  O  O76  1  0.60200183  0.66100330  0.36491713  1
  O  O77  1  0.39799817  0.16100330  0.63508287  1
  O  O78  1  0.40879359  0.48881376  0.69833136  1
  O  O79  1  0.59120641  0.98881376  0.30166864  1
  O  O80  1  0.59120641  0.51118624  0.30166864  1
  O  O81  1  0.40879359  0.01118624  0.69833136  1
  O  O82  1  0.48352213  0.25000000  0.11128898  1
  O  O83  1  0.51647787  0.75000000  0.88871102  1
  O  O84  1  0.80188135  0.25000000  0.96576100  1
  O  O85  1  0.19811865  0.75000000  0.03423900  1
  O  O86  1  0.62649414  0.42908934  0.92192485  1
  O  O87  1  0.37350586  0.92908934  0.07807515  1
  O  O88  1  0.37350586  0.57091066  0.07807515  1
  O  O89  1  0.62649414  0.07091066  0.92192485  1
  O  O90  1  0.65573757  0.34934257  0.50105605  1
  O  O91  1  0.34426243  0.84934257  0.49894395  1
  O  O92  1  0.34426243  0.65065743  0.49894395  1
  O  O93  1  0.65573757  0.15065743  0.50105605  1
  O  O94  1  0.91908631  0.46793188  0.25377668  1
  O  O95  1  0.08091369  0.96793188  0.74622332  1
  O  O96  1  0.08091369  0.53206812  0.74622332  1
  O  O97  1  0.91908631  0.03206812  0.25377668  1
  O  O98  1  0.16744702  0.50544336  0.18257014  1
  O  O99  1  0.83255298  0.00544336  0.81742986  1
  O  O100  1  0.83255298  0.49455664  0.81742986  1
  O  O101  1  0.16744702  0.99455664  0.18257014  1
  O  O102  1  0.02257676  0.36012649  0.94234417  1
  O  O103  1  0.97742324  0.86012649  0.05765583  1
  O  O104  1  0.97742324  0.63987351  0.05765583  1
  O  O105  1  0.02257676  0.13987351  0.94234417  1
