# generated using pymatgen
data_Na3AsH24SeO15
_symmetry_space_group_name_H-M   'P 1'
_cell_length_a   9.30869885
_cell_length_b   13.14078806
_cell_length_c   13.92796269
_cell_angle_alpha   90.00000000
_cell_angle_beta   90.00000000
_cell_angle_gamma   90.00000000
_symmetry_Int_Tables_number   1
_chemical_formula_structural   Na3AsH24SeO15
_chemical_formula_sum   'Na12 As4 H96 Se4 O60'
_cell_volume   1703.71907595
_cell_formula_units_Z   4
loop_
 _symmetry_equiv_pos_site_id
 _symmetry_equiv_pos_as_xyz
  1  'x, y, z'
loop_
 _atom_site_type_symbol
 _atom_site_label
 _atom_site_symmetry_multiplicity
 _atom_site_fract_x
 _atom_site_fract_y
 _atom_site_fract_z
 _atom_site_occupancy
  Na  Na0  1  0.74903113  0.00838413  0.97947596  1
  Na  Na1  1  0.75096887  0.99161587  0.47947596  1
  Na  Na2  1  0.24903113  0.49161587  0.02052404  1
  Na  Na3  1  0.25096887  0.50838413  0.52052404  1
  Na  Na4  1  0.74110216  0.21244423  0.10031031  1
  Na  Na5  1  0.75889784  0.78755577  0.60031031  1
  Na  Na6  1  0.24110216  0.28755577  0.89968969  1
  Na  Na7  1  0.25889784  0.71244423  0.39968969  1
  Na  Na8  1  0.74504291  0.21807341  0.39079823  1
  Na  Na9  1  0.75495709  0.78192659  0.89079823  1
  Na  Na10  1  0.24504291  0.28192659  0.60920177  1
  Na  Na11  1  0.25495709  0.71807341  0.10920177  1
  As  As12  1  0.74809140  0.54066529  0.27287193  1
  As  As13  1  0.75190860  0.45933471  0.77287193  1
  As  As14  1  0.24809140  0.95933471  0.72712807  1
  As  As15  1  0.25190860  0.04066529  0.22712807  1
  H  H16  1  0.98981670  0.08493952  0.05768055  1
  H  H17  1  0.51018330  0.91506048  0.55768055  1
  H  H18  1  0.48981670  0.41506048  0.94231945  1
  H  H19  1  0.01018330  0.58493952  0.44231945  1
  H  H20  1  0.95958885  0.03836358  0.15748331  1
  H  H21  1  0.54041115  0.96163642  0.65748331  1
  H  H22  1  0.45958885  0.46163642  0.84251669  1
  H  H23  1  0.04041115  0.53836358  0.34251669  1
  H  H24  1  0.01228586  0.35946269  0.02589381  1
  H  H25  1  0.48771414  0.64053731  0.52589381  1
  H  H26  1  0.51228586  0.14053731  0.97410619  1
  H  H27  1  0.98771414  0.85946269  0.47410619  1
  H  H28  1  0.97120576  0.41440762  0.92944448  1
  H  H29  1  0.52879424  0.58559238  0.42944448  1
  H  H30  1  0.47120576  0.08559238  0.07055552  1
  H  H31  1  0.02879424  0.91440762  0.57055552  1
  H  H32  1  0.77871144  0.03405912  0.29091101  1
  H  H33  1  0.72128856  0.96594088  0.79091101  1
  H  H34  1  0.27871144  0.46594088  0.70908899  1
  H  H35  1  0.22128856  0.53405912  0.20908899  1
  H  H36  1  0.94515776  0.04283631  0.31167190  1
  H  H37  1  0.55484224  0.95716369  0.81167190  1
  H  H38  1  0.44515776  0.45716369  0.68832810  1
  H  H39  1  0.05484224  0.54283631  0.18832810  1
  H  H40  1  0.49895101  0.11973695  0.48674964  1
  H  H41  1  0.00104899  0.88026305  0.98674964  1
  H  H42  1  0.99895101  0.38026305  0.51325036  1
  H  H43  1  0.50104899  0.61973695  0.01325036  1
  H  H44  1  0.47868972  0.06528273  0.38443202  1
  H  H45  1  0.02131028  0.93471727  0.88443202  1
  H  H46  1  0.97868972  0.43471727  0.61556798  1
  H  H47  1  0.52131028  0.56528273  0.11556798  1
  H  H48  1  0.51390238  0.24612099  0.25417079  1
  H  H49  1  0.98609762  0.75387901  0.75417079  1
  H  H50  1  0.01390238  0.25387901  0.74582921  1
  H  H51  1  0.48609762  0.74612099  0.24582921  1
  H  H52  1  0.60872117  0.34368992  0.23466974  1
  H  H53  1  0.89127883  0.65631008  0.73466974  1
  H  H54  1  0.10872117  0.15631008  0.76533026  1
  H  H55  1  0.39127883  0.84368992  0.26533026  1
  H  H56  1  0.70992970  0.40284647  0.97874410  1
  H  H57  1  0.79007030  0.59715353  0.47874410  1
  H  H58  1  0.20992970  0.09715353  0.02125590  1
  H  H59  1  0.29007030  0.90284647  0.52125590  1
  H  H60  1  0.65346030  0.41897531  0.08644261  1
  H  H61  1  0.84653970  0.58102469  0.58644261  1
  H  H62  1  0.15346030  0.08102469  0.91355739  1
  H  H63  1  0.34653970  0.91897531  0.41355739  1
  H  H64  1  0.93719101  0.38891432  0.34601174  1
  H  H65  1  0.56280899  0.61108568  0.84601174  1
  H  H66  1  0.43719101  0.11108568  0.65398826  1
  H  H67  1  0.06280899  0.88891432  0.15398826  1
  H  H68  1  0.03415185  0.29282069  0.36547628  1
  H  H69  1  0.46584815  0.70717931  0.86547628  1
  H  H70  1  0.53415185  0.20717931  0.63452372  1
  H  H71  1  0.96584815  0.79282069  0.13452372  1
  H  H72  1  0.66444407  0.42436662  0.44852380  1
  H  H73  1  0.83555593  0.57563338  0.94852380  1
  H  H74  1  0.16444407  0.07563338  0.55147620  1
  H  H75  1  0.33555593  0.92436662  0.05147620  1
  H  H76  1  0.66446212  0.36153333  0.54792186  1
  H  H77  1  0.83553788  0.63846667  0.04792186  1
  H  H78  1  0.16446212  0.13846667  0.45207814  1
  H  H79  1  0.33553788  0.86153333  0.95207814  1
  H  H80  1  0.55426375  0.82224849  0.43706180  1
  H  H81  1  0.94573625  0.17775151  0.93706180  1
  H  H82  1  0.05426375  0.67775151  0.56293820  1
  H  H83  1  0.44573625  0.32224849  0.06293820  1
  H  H84  1  0.68787391  0.78985732  0.37560380  1
  H  H85  1  0.81212609  0.21014268  0.87560380  1
  H  H86  1  0.18787391  0.71014268  0.62439620  1
  H  H87  1  0.31212609  0.28985732  0.12439620  1
  H  H88  1  0.54543979  0.85329671  0.03807292  1
  H  H89  1  0.95456021  0.14670329  0.53807292  1
  H  H90  1  0.04543979  0.64670329  0.96192708  1
  H  H91  1  0.45456021  0.35329671  0.46192708  1
  H  H92  1  0.67173215  0.79547485  0.09236123  1
  H  H93  1  0.82826785  0.20452515  0.59236123  1
  H  H94  1  0.17173215  0.70452515  0.90763877  1
  H  H95  1  0.32826785  0.29547485  0.40763877  1
  H  H96  1  0.02284295  0.27271804  0.17084683  1
  H  H97  1  0.47715705  0.72728196  0.67084683  1
  H  H98  1  0.52284295  0.22728196  0.82915317  1
  H  H99  1  0.97715705  0.77271804  0.32915317  1
  H  H100  1  0.93378112  0.37463533  0.18111725  1
  H  H101  1  0.56621888  0.62536467  0.68111725  1
  H  H102  1  0.43378112  0.12536467  0.81888275  1
  H  H103  1  0.06621888  0.87463533  0.31888275  1
  H  H104  1  0.64863807  0.94627591  0.16545405  1
  H  H105  1  0.85136193  0.05372409  0.66545405  1
  H  H106  1  0.14863807  0.55372409  0.83454595  1
  H  H107  1  0.35136193  0.44627591  0.33454595  1
  H  H108  1  0.54638340  0.98353890  0.25021614  1
  H  H109  1  0.95361660  0.01646110  0.75021614  1
  H  H110  1  0.04638340  0.51646110  0.74978386  1
  H  H111  1  0.45361660  0.48353890  0.24978386  1
  Se  Se112  1  0.76572687  0.71185555  0.23089861  1
  Se  Se113  1  0.73427313  0.28814445  0.73089861  1
  Se  Se114  1  0.26572687  0.78814445  0.76910139  1
  Se  Se115  1  0.23427313  0.21185555  0.26910139  1
  O  O116  1  0.91231021  0.47945393  0.25963398  1
  O  O117  1  0.58768979  0.52054607  0.75963398  1
  O  O118  1  0.41231021  0.02054607  0.74036602  1
  O  O119  1  0.08768979  0.97945393  0.24036602  1
  O  O120  1  0.69544866  0.53200269  0.39156611  1
  O  O121  1  0.80455134  0.46799731  0.89156611  1
  O  O122  1  0.19544866  0.96799731  0.60843389  1
  O  O123  1  0.30455134  0.03200269  0.10843389  1
  O  O124  1  0.62355521  0.47919968  0.20067200  1
  O  O125  1  0.87644479  0.52080032  0.70067200  1
  O  O126  1  0.12355521  0.02080032  0.79932800  1
  O  O127  1  0.37644479  0.97919968  0.29932800  1
  O  O128  1  0.91039351  0.07126202  0.10259889  1
  O  O129  1  0.58960649  0.92873798  0.60259889  1
  O  O130  1  0.41039351  0.42873798  0.89740111  1
  O  O131  1  0.08960649  0.57126202  0.39740111  1
  O  O132  1  0.55456417  0.11218931  0.03386232  1
  O  O133  1  0.94543583  0.88781069  0.53386232  1
  O  O134  1  0.05456417  0.38781069  0.96613768  1
  O  O135  1  0.44543583  0.61218931  0.46613768  1
  O  O136  1  0.85022200  0.06360699  0.33688024  1
  O  O137  1  0.64977800  0.93639301  0.83688024  1
  O  O138  1  0.35022200  0.43639301  0.66311976  1
  O  O139  1  0.14977800  0.56360699  0.16311976  1
  O  O140  1  0.54898733  0.09981706  0.42703205  1
  O  O141  1  0.95101267  0.90018294  0.92703205  1
  O  O142  1  0.04898733  0.40018294  0.57296795  1
  O  O143  1  0.45101267  0.59981706  0.07296795  1
  O  O144  1  0.61384250  0.26925987  0.24738155  1
  O  O145  1  0.88615750  0.73074013  0.74738155  1
  O  O146  1  0.11384250  0.23074013  0.75261845  1
  O  O147  1  0.38615750  0.76925987  0.25261845  1
  O  O148  1  0.64674536  0.37295777  0.02988770  1
  O  O149  1  0.85325464  0.62704223  0.52988770  1
  O  O150  1  0.14674536  0.12704223  0.97011230  1
  O  O151  1  0.35325464  0.87295777  0.47011230  1
  O  O152  1  0.95341123  0.33143919  0.39258149  1
  O  O153  1  0.54658877  0.66856081  0.89258149  1
  O  O154  1  0.45341123  0.16856081  0.60741851  1
  O  O155  1  0.04658877  0.83143919  0.10741851  1
  O  O156  1  0.63564094  0.35794499  0.48022831  1
  O  O157  1  0.86435906  0.64205501  0.98022831  1
  O  O158  1  0.13564094  0.14205501  0.51977169  1
  O  O159  1  0.36435906  0.85794499  0.01977169  1
  O  O160  1  0.65931441  0.82644749  0.43447482  1
  O  O161  1  0.84068559  0.17355251  0.93447482  1
  O  O162  1  0.15931441  0.67355251  0.56552518  1
  O  O163  1  0.34068559  0.32644749  0.06552518  1
  O  O164  1  0.65075839  0.85615843  0.05313044  1
  O  O165  1  0.84924161  0.14384157  0.55313044  1
  O  O166  1  0.15075839  0.64384157  0.94686956  1
  O  O167  1  0.34924161  0.35615843  0.44686956  1
  O  O168  1  0.94829323  0.31381012  0.13918228  1
  O  O169  1  0.55170677  0.68618988  0.63918228  1
  O  O170  1  0.44829323  0.18618988  0.86081772  1
  O  O171  1  0.05170677  0.81381012  0.36081772  1
  O  O172  1  0.64523989  0.98882047  0.22364677  1
  O  O173  1  0.85476011  0.01117953  0.72364677  1
  O  O174  1  0.14523989  0.51117953  0.77635323  1
  O  O175  1  0.35476011  0.48882047  0.27635323  1
