# generated using pymatgen
data_La17Mn17O54
_symmetry_space_group_name_H-M   'P 1'
_cell_length_a   49.71883264
_cell_length_b   14.57210327
_cell_length_c   9.52452657
_cell_angle_alpha   29.65554081
_cell_angle_beta   30.37309323
_cell_angle_gamma   19.29804587
_symmetry_Int_Tables_number   1
_chemical_formula_structural   La17Mn17O54
_chemical_formula_sum   'La17 Mn17 O54'
_cell_volume   1089.47062078
_cell_formula_units_Z   1
loop_
 _symmetry_equiv_pos_site_id
 _symmetry_equiv_pos_as_xyz
  1  'x, y, z'
loop_
 _atom_site_type_symbol
 _atom_site_label
 _atom_site_symmetry_multiplicity
 _atom_site_fract_x
 _atom_site_fract_y
 _atom_site_fract_z
 _atom_site_occupancy
  La  La0  1  0.05256068  0.24388496  0.27872068  1
  La  La1  1  0.16134319  0.27685263  0.24011195  1
  La  La2  1  0.05184538  0.76523332  0.76462356  1
  La  La3  1  0.28025470  0.24570194  0.24326065  1
  La  La4  1  0.16130312  0.75797285  0.75676780  1
  La  La5  1  0.39058811  0.24269005  0.25368344  1
  La  La6  1  0.28326558  0.73680788  0.73698959  1
  La  La7  1  0.39203069  0.73783629  0.76003676  1
  La  La8  1  0.61014506  0.25052854  0.25319990  1
  La  La9  1  0.49996044  0.75118157  0.74897547  1
  La  La10  1  0.72134036  0.25474407  0.24886422  1
  La  La11  1  0.60862982  0.75943906  0.74021889  1
  La  La12  1  0.83709971  0.24671292  0.24355589  1
  La  La13  1  0.71695971  0.76231084  0.76435175  1
  La  La14  1  0.94760895  0.23615157  0.23617160  1
  La  La15  1  0.83738122  0.72714724  0.75954970  1
  La  La16  1  0.94785161  0.75546896  0.71968458  1
  Mn  Mn17  1  0.11117573  0.99982753  0.00037356  1
  Mn  Mn18  1  0.22294837  0.99747500  0.00006758  1
  Mn  Mn19  1  0.11155137  0.49479923  0.50957554  1
  Mn  Mn20  1  0.33559653  0.99093968  0.00225342  1
  Mn  Mn21  1  0.22383315  0.49450812  0.49948387  1
  Mn  Mn22  1  0.44504908  0.00219268  0.99188112  1
  Mn  Mn23  1  0.33432460  0.49866889  0.49825049  1
  Mn  Mn24  1  0.55469854  0.00264264  0.00411048  1
  Mn  Mn25  1  0.44518867  0.49673969  0.49713146  1
  Mn  Mn26  1  0.66434409  0.00450894  0.00330986  1
  Mn  Mn27  1  0.55467442  0.49851329  0.50759676  1
  Mn  Mn28  1  0.77722748  0.00166819  0.00042153  1
  Mn  Mn29  1  0.66592904  0.50536898  0.49617033  1
  Mn  Mn30  1  0.88910277  0.00008834  0.99844246  1
  Mn  Mn31  1  0.77617077  0.50556525  0.50102799  1
  Mn  Mn32  1  0.88875820  0.50415028  0.49039782  1
  Mn  Mn33  1  0.99980134  0.50070283  0.49985014  1
  O  O34  1  0.01924829  0.20683661  0.73304167  1
  O  O35  1  0.10479597  0.31177972  0.18751816  1
  O  O36  1  0.06797618  0.25477136  0.68987482  1
  O  O37  1  0.04845069  0.72834589  0.32211151  1
  O  O38  1  0.13280600  0.18429539  0.75206624  1
  O  O39  1  0.00799969  0.68263850  0.81595462  1
  O  O40  1  0.21462945  0.31060747  0.19315952  1
  O  O41  1  0.09147613  0.80911306  0.24866830  1
  O  O42  1  0.18155196  0.24799451  0.68649982  1
  O  O43  1  0.15294397  0.75051952  0.31187386  1
  O  O44  1  0.24433842  0.18422396  0.74773779  1
  O  O45  1  0.12458444  0.68087606  0.78595095  1
  O  O46  1  0.32613560  0.31098846  0.19175607  1
  O  O47  1  0.20256107  0.80835943  0.25142668  1
  O  O48  1  0.29065391  0.24867313  0.69330871  1
  O  O49  1  0.26304810  0.75342691  0.30918380  1
  O  O50  1  0.35185585  0.19365461  0.75197826  1
  O  O51  1  0.22786419  0.69448754  0.80839859  1
  O  O52  1  0.43521040  0.30583200  0.19285451  1
  O  O53  1  0.31023628  0.81928957  0.25003558  1
  O  O54  1  0.39433050  0.25070949  0.72526957  1
  O  O55  1  0.36958732  0.78032846  0.30557374  1
  O  O56  1  0.45976382  0.19295264  0.78010314  1
  O  O57  1  0.33951280  0.69260802  0.80839648  1
  O  O58  1  0.55272235  0.30837535  0.18922634  1
  O  O59  1  0.42654050  0.80319440  0.25267019  1
  O  O60  1  0.51276422  0.24759517  0.69552350  1
  O  O61  1  0.48808738  0.74697480  0.30653485  1
  O  O62  1  0.57706242  0.19516252  0.72155375  1
  O  O63  1  0.44696895  0.72472583  0.77601564  1
  O  O64  1  0.66074235  0.31129946  0.18534543  1
  O  O65  1  0.53822605  0.80267101  0.24744454  1
  O  O66  1  0.62596483  0.24835629  0.68437801  1
  O  O67  1  0.60461466  0.72047269  0.30884488  1
  O  O68  1  0.68774138  0.18738705  0.74849434  1
  O  O69  1  0.56225612  0.68721775  0.81553526  1
  O  O70  1  0.77173994  0.30679316  0.18921122  1
  O  O71  1  0.65738443  0.77837513  0.24899162  1
  O  O72  1  0.73606946  0.24693167  0.69374330  1
  O  O73  1  0.70802249  0.75472829  0.30955382  1
  O  O74  1  0.79780327  0.19047214  0.74874367  1
  O  O75  1  0.67376413  0.69013648  0.80768798  1
  O  O76  1  0.87496606  0.32092975  0.21283730  1
  O  O77  1  0.75735441  0.81093584  0.25215986  1
  O  O78  1  0.84702117  0.24838915  0.69001636  1
  O  O79  1  0.81759103  0.75248915  0.31779930  1
  O  O80  1  0.90857631  0.19048615  0.75190741  1
  O  O81  1  0.78458143  0.69396749  0.80424087  1
  O  O82  1  0.99246267  0.31614202  0.18328110  1
  O  O83  1  0.86884371  0.81150578  0.24617194  1
  O  O84  1  0.95148241  0.27183288  0.67804635  1
  O  O85  1  0.93131963  0.74707838  0.31105194  1
  O  O86  1  0.89469887  0.68928478  0.81381957  1
  O  O87  1  0.98052385  0.79375288  0.26731641  1
