# generated using pymatgen
data_TeH12(Cl2O3)2
_symmetry_space_group_name_H-M   'P 1'
_cell_length_a   6.90632340
_cell_length_b   8.81709334
_cell_length_c   18.68965263
_cell_angle_alpha   89.99998672
_cell_angle_beta   89.99999634
_cell_angle_gamma   89.99998029
_symmetry_Int_Tables_number   1
_chemical_formula_structural   TeH12(Cl2O3)2
_chemical_formula_sum   'Te4 H48 Cl16 O24'
_cell_volume   1138.08206399
_cell_formula_units_Z   4
loop_
 _symmetry_equiv_pos_site_id
 _symmetry_equiv_pos_as_xyz
  1  'x, y, z'
loop_
 _atom_site_type_symbol
 _atom_site_label
 _atom_site_symmetry_multiplicity
 _atom_site_fract_x
 _atom_site_fract_y
 _atom_site_fract_z
 _atom_site_occupancy
  Te  Te0  1  0.73603911  0.90973459  0.44261150  1
  Te  Te1  1  0.76396113  0.09026550  0.94261144  1
  Te  Te2  1  0.23603907  0.59026553  0.55738842  1
  Te  Te3  1  0.26396084  0.40973446  0.05738858  1
  H  H4  1  0.73537593  0.18310183  0.48398255  1
  H  H5  1  0.76462401  0.81689798  0.98398257  1
  H  H6  1  0.23537591  0.31689813  0.51601744  1
  H  H7  1  0.26462403  0.68310183  0.01601748  1
  H  H8  1  0.75952723  0.38747180  0.54204005  1
  H  H9  1  0.74047252  0.61252812  0.04204002  1
  H  H10  1  0.25952720  0.11252837  0.45795993  1
  H  H11  1  0.24047282  0.88747149  0.95795993  1
  H  H12  1  0.55088154  0.32089871  0.55580236  1
  H  H13  1  0.94911831  0.67910131  0.05580233  1
  H  H14  1  0.05088149  0.17910127  0.44419763  1
  H  H15  1  0.44911874  0.82089864  0.94419762  1
  H  H16  1  0.76496770  0.77426773  0.77163403  1
  H  H17  1  0.73503220  0.22573236  0.27163413  1
  H  H18  1  0.26496801  0.72573246  0.22836596  1
  H  H19  1  0.23503210  0.27426767  0.72836603  1
  H  H20  1  0.78368403  0.76227888  0.85476739  1
  H  H21  1  0.71631581  0.23772113  0.35476745  1
  H  H22  1  0.28368408  0.73772108  0.14523261  1
  H  H23  1  0.21631616  0.26227877  0.64523270  1
  H  H24  1  0.74892976  0.23478116  0.64100976  1
  H  H25  1  0.75107023  0.76521876  0.14100974  1
  H  H26  1  0.24892969  0.26521884  0.35899023  1
  H  H27  1  0.25107018  0.73478114  0.85899024  1
  H  H28  1  0.92623858  0.20082261  0.69301754  1
  H  H29  1  0.57376146  0.79917742  0.19301760  1
  H  H30  1  0.42623848  0.29917743  0.30698244  1
  H  H31  1  0.07376137  0.70082255  0.80698243  1
  H  H32  1  0.50453592  0.42092162  0.80373869  1
  H  H33  1  0.99546413  0.57907840  0.30373866  1
  H  H34  1  0.00453595  0.07907834  0.19626138  1
  H  H35  1  0.49546395  0.92092165  0.69626136  1
  H  H36  1  0.73958440  0.35189490  0.75908774  1
  H  H37  1  0.76041561  0.64810502  0.25908771  1
  H  H38  1  0.23958446  0.14810519  0.24091236  1
  H  H39  1  0.26041565  0.85189490  0.74091234  1
  H  H40  1  0.75723320  0.51512483  0.80015466  1
  H  H41  1  0.74276681  0.48487508  0.30015473  1
  H  H42  1  0.25723321  0.98487508  0.19984533  1
  H  H43  1  0.24276700  0.01512480  0.69984538  1
  H  H44  1  0.28856651  0.54253408  0.80319467  1
  H  H45  1  0.21143356  0.45746589  0.30319466  1
  H  H46  1  0.78856646  0.95746584  0.19680538  1
  H  H47  1  0.71143352  0.04253402  0.69680533  1
  H  H48  1  0.28617014  0.38454593  0.84907065  1
  H  H49  1  0.21382988  0.61545410  0.34907064  1
  H  H50  1  0.78617012  0.11545411  0.15092943  1
  H  H51  1  0.71382994  0.88454592  0.65092939  1
  Cl  Cl52  1  0.95058257  0.91822454  0.55657142  1
  Cl  Cl53  1  0.54941800  0.08177505  0.05657166  1
  Cl  Cl54  1  0.45058153  0.58177555  0.44342855  1
  Cl  Cl55  1  0.04941783  0.41822509  0.94342836  1
  Cl  Cl56  1  0.45458087  0.96804806  0.52703616  1
  Cl  Cl57  1  0.04541948  0.03195158  0.02703602  1
  Cl  Cl58  1  0.95458107  0.53195218  0.47296391  1
  Cl  Cl59  1  0.54541929  0.46804805  0.97296382  1
  Cl  Cl60  1  0.01320051  0.90516869  0.35818444  1
  Cl  Cl61  1  0.48679935  0.09483121  0.85818425  1
  Cl  Cl62  1  0.51320020  0.59483106  0.64181561  1
  Cl  Cl63  1  0.98679923  0.40516874  0.14181551  1
  Cl  Cl64  1  0.50774860  0.94168244  0.34169063  1
  Cl  Cl65  1  0.99225152  0.05831703  0.84169068  1
  Cl  Cl66  1  0.00774858  0.55831717  0.65830946  1
  Cl  Cl67  1  0.49225137  0.44168317  0.15830919  1
  O  O68  1  0.78348924  0.13157116  0.43850204  1
  O  O69  1  0.71651076  0.86842807  0.93850198  1
  O  O70  1  0.28348905  0.36842849  0.56149794  1
  O  O71  1  0.21651099  0.63157172  0.06149783  1
  O  O72  1  0.69034395  0.29293930  0.55404048  1
  O  O73  1  0.80965522  0.70706058  0.05404033  1
  O  O74  1  0.19034457  0.20706039  0.44595965  1
  O  O75  1  0.30965557  0.79293943  0.94595965  1
  O  O76  1  0.81816936  0.70922419  0.80988751  1
  O  O77  1  0.68183056  0.29077583  0.30988769  1
  O  O78  1  0.31816899  0.79077570  0.19011232  1
  O  O79  1  0.18183098  0.20922432  0.69011242  1
  O  O80  1  0.78147980  0.19883263  0.69069250  1
  O  O81  1  0.71852038  0.80116753  0.19069294  1
  O  O82  1  0.28148010  0.30116758  0.30930731  1
  O  O83  1  0.21852016  0.69883251  0.80930727  1
  O  O84  1  0.69427540  0.41333451  0.80013093  1
  O  O85  1  0.80572435  0.58666563  0.30013073  1
  O  O86  1  0.19427536  0.08666565  0.19986895  1
  O  O87  1  0.30572437  0.91333489  0.69986913  1
  O  O88  1  0.33804756  0.42784277  0.80412866  1
  O  O89  1  0.16195279  0.57215786  0.30412868  1
  O  O90  1  0.83804740  0.07215749  0.19587141  1
  O  O91  1  0.66195292  0.92784288  0.69587138  1
