# generated using pymatgen
data_AgB10H26C6N
_symmetry_space_group_name_H-M   'P 1'
_cell_length_a   9.61145205
_cell_length_b   7.43340421
_cell_length_c   22.95809650
_cell_angle_alpha   90.00000000
_cell_angle_beta   99.41237835
_cell_angle_gamma   90.00000000
_symmetry_Int_Tables_number   1
_chemical_formula_structural   AgB10H26C6N
_chemical_formula_sum   'Ag4 B40 H104 C24 N4'
_cell_volume   1618.17670016
_cell_formula_units_Z   4
loop_
 _symmetry_equiv_pos_site_id
 _symmetry_equiv_pos_as_xyz
  1  'x, y, z'
loop_
 _atom_site_type_symbol
 _atom_site_label
 _atom_site_symmetry_multiplicity
 _atom_site_fract_x
 _atom_site_fract_y
 _atom_site_fract_z
 _atom_site_occupancy
  Ag  Ag0  1  0.40135600  0.03852462  0.69836015  1
  Ag  Ag1  1  0.59864400  0.53852462  0.80163985  1
  Ag  Ag2  1  0.59864400  0.96147538  0.30163985  1
  Ag  Ag3  1  0.40135600  0.46147538  0.19836015  1
  B  B4  1  0.23749365  0.75198310  0.67749091  1
  B  B5  1  0.76250635  0.25198310  0.82250909  1
  B  B6  1  0.76250635  0.24801690  0.32250909  1
  B  B7  1  0.23749365  0.74801690  0.17749091  1
  B  B8  1  0.39330472  0.71553828  0.65321829  1
  B  B9  1  0.60669528  0.21553828  0.84678171  1
  B  B10  1  0.60669528  0.28446172  0.34678171  1
  B  B11  1  0.39330472  0.78446172  0.15321829  1
  B  B12  1  0.34369050  0.59303086  0.71635524  1
  B  B13  1  0.65630950  0.09303086  0.78364476  1
  B  B14  1  0.65630950  0.40696914  0.28364476  1
  B  B15  1  0.34369050  0.90696914  0.21635524  1
  B  B16  1  0.17313197  0.53686821  0.67171722  1
  B  B17  1  0.82686803  0.03686821  0.82828278  1
  B  B18  1  0.82686803  0.46313179  0.32828278  1
  B  B19  1  0.17313197  0.96313179  0.17171722  1
  B  B20  1  0.22352879  0.65766300  0.60862738  1
  B  B21  1  0.77647121  0.15766300  0.89137262  1
  B  B22  1  0.77647121  0.34233700  0.39137262  1
  B  B23  1  0.22352879  0.84233700  0.10862738  1
  B  B24  1  0.46669208  0.49688334  0.67438115  1
  B  B25  1  0.53330792  0.99688334  0.82561885  1
  B  B26  1  0.53330792  0.50311666  0.32561885  1
  B  B27  1  0.46669208  0.00311666  0.17438115  1
  B  B28  1  0.31132140  0.36956090  0.68711652  1
  B  B29  1  0.68867860  0.86956090  0.81288348  1
  B  B30  1  0.68867860  0.63043910  0.31288348  1
  B  B31  1  0.31132140  0.13043910  0.18711652  1
  B  B32  1  0.22583646  0.41535901  0.61121156  1
  B  B33  1  0.77416354  0.91535901  0.88878844  1
  B  B34  1  0.77416354  0.58464099  0.38878844  1
  B  B35  1  0.22583646  0.08464099  0.11121156  1
  B  B36  1  0.38205262  0.54078029  0.59820352  1
  B  B37  1  0.61794738  0.04078029  0.90179648  1
  B  B38  1  0.61794738  0.45921971  0.40179648  1
  B  B39  1  0.38205262  0.95921971  0.09820352  1
  B  B40  1  0.39287552  0.33031277  0.62795588  1
  B  B41  1  0.60712448  0.83031277  0.87204412  1
  B  B42  1  0.60712448  0.66968723  0.37204412  1
  B  B43  1  0.39287552  0.16968723  0.12795588  1
  H  H44  1  0.02521577  0.28886848  0.88372795  1
  H  H45  1  0.97478423  0.78886848  0.61627205  1
  H  H46  1  0.97478423  0.71113152  0.11627205  1
  H  H47  1  0.02521577  0.21113152  0.38372795  1
  H  H48  1  0.08547673  0.98534854  0.93628391  1
  H  H49  1  0.91452327  0.48534854  0.56371609  1
  H  H50  1  0.91452327  0.01465146  0.06371609  1
  H  H51  1  0.08547673  0.51465146  0.43628391  1
  H  H52  1  0.97084539  0.61508305  0.83555254  1
  H  H53  1  0.02915461  0.11508305  0.66444746  1
  H  H54  1  0.02915461  0.38491695  0.16444746  1
  H  H55  1  0.97084539  0.88491695  0.33555254  1
  H  H56  1  0.34852582  0.57208250  0.93707547  1
  H  H57  1  0.65147418  0.07208250  0.56292453  1
  H  H58  1  0.65147418  0.42791750  0.06292453  1
  H  H59  1  0.34852582  0.92791750  0.43707547  1
  H  H60  1  0.18186861  0.88239596  0.69476133  1
  H  H61  1  0.81813139  0.38239596  0.80523867  1
  H  H62  1  0.81813139  0.11760404  0.30523867  1
  H  H63  1  0.18186861  0.61760404  0.19476133  1
  H  H64  1  0.48162371  0.83065480  0.64821178  1
  H  H65  1  0.51837629  0.33065480  0.85178822  1
  H  H66  1  0.51837629  0.16934520  0.35178822  1
  H  H67  1  0.48162371  0.66934520  0.14821178  1
  H  H68  1  0.37393791  0.61734024  0.76915562  1
  H  H69  1  0.62606209  0.11734024  0.73084438  1
  H  H70  1  0.62606209  0.38265976  0.23084438  1
  H  H71  1  0.37393791  0.88265976  0.26915562  1
  H  H72  1  0.06053721  0.50725854  0.68613893  1
  H  H73  1  0.93946279  0.00725854  0.81386107  1
  H  H74  1  0.93946279  0.49274146  0.31386107  1
  H  H75  1  0.06053721  0.99274146  0.18613893  1
  H  H76  1  0.15487127  0.72841484  0.56603049  1
  H  H77  1  0.84512873  0.22841484  0.93396951  1
  H  H78  1  0.84512873  0.27158516  0.43396951  1
  H  H79  1  0.15487127  0.77158516  0.06603049  1
  H  H80  1  0.59035073  0.48647353  0.69485574  1
  H  H81  1  0.40964927  0.98647353  0.80514426  1
  H  H82  1  0.40964927  0.51352647  0.30514426  1
  H  H83  1  0.59035073  0.01352647  0.19485574  1
  H  H84  1  0.29043182  0.25883070  0.72425532  1
  H  H85  1  0.70956818  0.75883070  0.77574468  1
  H  H86  1  0.70956818  0.74116930  0.27574468  1
  H  H87  1  0.29043182  0.24116930  0.22425532  1
  H  H88  1  0.13840351  0.33259858  0.57830232  1
  H  H89  1  0.86159649  0.83259858  0.92169768  1
  H  H90  1  0.86159649  0.66740142  0.42169768  1
  H  H91  1  0.13840351  0.16740142  0.07830232  1
  H  H92  1  0.43516555  0.56329383  0.55499009  1
  H  H93  1  0.56483445  0.06329383  0.94500991  1
  H  H94  1  0.56483445  0.43670617  0.44500991  1
  H  H95  1  0.43516555  0.93670617  0.05499009  1
  H  H96  1  0.44320182  0.20160749  0.60759811  1
  H  H97  1  0.55679818  0.70160749  0.89240189  1
  H  H98  1  0.55679818  0.79839251  0.39240189  1
  H  H99  1  0.44320182  0.29839251  0.10759811  1
  H  H100  1  0.32844325  0.20107818  0.89617379  1
  H  H101  1  0.67155675  0.70107818  0.60382621  1
  H  H102  1  0.67155675  0.79892182  0.10382621  1
  H  H103  1  0.32844325  0.29892182  0.39617379  1
  H  H104  1  0.18803765  0.09902524  0.84800515  1
  H  H105  1  0.81196235  0.59902524  0.65199485  1
  H  H106  1  0.81196235  0.90097476  0.15199485  1
  H  H107  1  0.18803765  0.40097476  0.34800515  1
  H  H108  1  0.23129116  0.08001130  0.98515266  1
  H  H109  1  0.76870884  0.58001130  0.51484734  1
  H  H110  1  0.76870884  0.91998870  0.01484734  1
  H  H111  1  0.23129116  0.41998870  0.48515266  1
  H  H112  1  0.26090775  0.90920457  0.93571829  1
  H  H113  1  0.73909225  0.40920457  0.56428171  1
  H  H114  1  0.73909225  0.09079543  0.06428171  1
  H  H115  1  0.26090775  0.59079543  0.43571829  1
  H  H116  1  0.26874802  0.45267141  0.84007830  1
  H  H117  1  0.73125198  0.95267141  0.65992170  1
  H  H118  1  0.73125198  0.54732859  0.15992170  1
  H  H119  1  0.26874802  0.04732859  0.34007830  1
  H  H120  1  0.11571153  0.35597168  0.79852756  1
  H  H121  1  0.88428847  0.85597168  0.70147244  1
  H  H122  1  0.88428847  0.64402832  0.20147244  1
  H  H123  1  0.11571153  0.14402832  0.29852756  1
  H  H124  1  0.09681327  0.68559782  0.79193131  1
  H  H125  1  0.90318673  0.18559782  0.70806869  1
  H  H126  1  0.90318673  0.31440218  0.20806869  1
  H  H127  1  0.09681327  0.81440218  0.29193131  1
  H  H128  1  0.13512666  0.71090006  0.86924871  1
  H  H129  1  0.86487334  0.21090006  0.63075129  1
  H  H130  1  0.86487334  0.28909994  0.13075129  1
  H  H131  1  0.13512666  0.78909994  0.36924871  1
  H  H132  1  0.11768690  0.33982064  0.98026789  1
  H  H133  1  0.88231310  0.83982064  0.51973211  1
  H  H134  1  0.88231310  0.66017936  0.01973211  1
  H  H135  1  0.11768690  0.16017936  0.48026789  1
  H  H136  1  0.08345107  0.54608890  0.94210498  1
  H  H137  1  0.91654893  0.04608890  0.55789502  1
  H  H138  1  0.91654893  0.45391110  0.05789502  1
  H  H139  1  0.08345107  0.95391110  0.44210498  1
  H  H140  1  0.37572470  0.36891359  0.97871523  1
  H  H141  1  0.62427530  0.86891359  0.52128477  1
  H  H142  1  0.62427530  0.63108641  0.02128477  1
  H  H143  1  0.37572470  0.13108641  0.47871523  1
  H  H144  1  0.30993350  0.56243996  0.01022021  1
  H  H145  1  0.69006650  0.06243996  0.48977979  1
  H  H146  1  0.69006650  0.43756004  0.98977979  1
  H  H147  1  0.30993350  0.93756004  0.51022021  1
  C  C148  1  0.21803372  0.15868857  0.89198260  1
  C  C149  1  0.78196628  0.65868857  0.60801740  1
  C  C150  1  0.78196628  0.84131143  0.10801740  1
  C  C151  1  0.21803372  0.34131143  0.39198260  1
  C  C152  1  0.19598022  0.02828318  0.94040394  1
  C  C153  1  0.80401978  0.52828318  0.55959606  1
  C  C154  1  0.80401978  0.97171682  0.05959606  1
  C  C155  1  0.19598022  0.47171682  0.44040394  1
  C  C156  1  0.15432351  0.43929960  0.83735144  1
  C  C157  1  0.84567649  0.93929960  0.66264856  1
  C  C158  1  0.84567649  0.56070040  0.16264856  1
  C  C159  1  0.15432351  0.06070040  0.33735144  1
  C  C160  1  0.08410204  0.62223339  0.83395119  1
  C  C161  1  0.91589796  0.12223339  0.66604881  1
  C  C162  1  0.91589796  0.37776661  0.16604881  1
  C  C163  1  0.08410204  0.87776661  0.33395119  1
  C  C164  1  0.15458143  0.42990315  0.94816843  1
  C  C165  1  0.84541857  0.92990315  0.55183157  1
  C  C166  1  0.84541857  0.57009685  0.05183157  1
  C  C167  1  0.15458143  0.07009685  0.44816843  1
  C  C168  1  0.30620528  0.48601253  0.96900595  1
  C  C169  1  0.69379472  0.98601253  0.53099405  1
  C  C170  1  0.69379472  0.51398747  0.03099405  1
  C  C171  1  0.30620528  0.01398747  0.46900595  1
  N  N172  1  0.13016800  0.32813819  0.89033095  1
  N  N173  1  0.86983200  0.82813819  0.60966905  1
  N  N174  1  0.86983200  0.67186181  0.10966905  1
  N  N175  1  0.13016800  0.17186181  0.39033095  1
