# generated using pymatgen
data_CaLaVFeO6
_symmetry_space_group_name_H-M   'P 1'
_cell_length_a   5.46571987
_cell_length_b   16.69491842
_cell_length_c   14.74765945
_cell_angle_alpha   18.72146485
_cell_angle_beta   56.07795255
_cell_angle_gamma   60.11303429
_symmetry_Int_Tables_number   1
_chemical_formula_structural   CaLaVFeO6
_chemical_formula_sum   'Ca3 La3 V3 Fe3 O18'
_cell_volume   356.09810363
_cell_formula_units_Z   3
loop_
 _symmetry_equiv_pos_site_id
 _symmetry_equiv_pos_as_xyz
  1  'x, y, z'
loop_
 _atom_site_type_symbol
 _atom_site_label
 _atom_site_symmetry_multiplicity
 _atom_site_fract_x
 _atom_site_fract_y
 _atom_site_fract_z
 _atom_site_occupancy
  Ca  Ca0  1  0.76055995  0.08666130  0.74733394  1
  Ca  Ca1  1  0.76212807  0.42129030  0.74603935  1
  Ca  Ca2  1  0.75673454  0.75282051  0.74900195  1
  La  La3  1  0.24956120  0.24696714  0.25005636  1
  La  La4  1  0.24686350  0.58120734  0.24998212  1
  La  La5  1  0.24854870  0.91451972  0.25015869  1
  V  V6  1  0.00102515  0.00028926  -0.00048199  1
  V  V7  1  0.50280470  0.16578557  0.50004681  1
  V  V8  1  0.50122298  0.83179570  0.50168583  1
  Fe  Fe9  1  0.00355955  0.33262663  -0.00050549  1
  Fe  Fe10  1  0.00160032  0.66670059  -0.00052538  1
  Fe  Fe11  1  0.50200636  0.50024755  0.49914239  1
  O  O12  1  0.21890163  0.02171248  0.30275218  1
  O  O13  1  0.68789451  0.13549957  0.20104433  1
  O  O14  1  0.22236522  0.35786369  0.29785744  1
  O  O15  1  0.78046439  0.23500483  0.26605164  1
  O  O16  1  0.21773422  0.09362327  0.74036496  1
  O  O17  1  0.68773103  0.47111618  0.19753729  1
  O  O18  1  0.31384565  0.19212842  0.80033831  1
  O  O19  1  0.19993224  0.70579731  0.28442855  1
  O  O20  1  0.21995151  0.42697485  0.73940082  1
  O  O21  1  0.78349806  0.57090999  0.26088332  1
  O  O22  1  0.80009009  0.29262974  0.71910435  1
  O  O23  1  0.69472255  0.80798489  0.19497405  1
  O  O24  1  0.32119055  0.53039627  0.79608097  1
  O  O25  1  0.78153469  0.90289169  0.26289855  1
  O  O26  1  0.22074952  0.76207726  0.73647516  1
  O  O27  1  0.77840611  0.64259710  0.70389189  1
  O  O28  1  0.32151856  0.86637346  0.79260254  1
  O  O29  1  0.78008947  0.97789238  0.70073110  1
