# generated using pymatgen
data_CsH24Ru(SO10)2
_symmetry_space_group_name_H-M   'P 1'
_cell_length_a   12.56104847
_cell_length_b   12.56104847
_cell_length_c   12.56104847
_cell_angle_alpha   90.00000000
_cell_angle_beta   90.00000000
_cell_angle_gamma   90.00000000
_symmetry_Int_Tables_number   1
_chemical_formula_structural   CsH24Ru(SO10)2
_chemical_formula_sum   'Cs4 H96 Ru4 S8 O80'
_cell_volume   1981.88145717
_cell_formula_units_Z   4
loop_
 _symmetry_equiv_pos_site_id
 _symmetry_equiv_pos_as_xyz
  1  'x, y, z'
loop_
 _atom_site_type_symbol
 _atom_site_label
 _atom_site_symmetry_multiplicity
 _atom_site_fract_x
 _atom_site_fract_y
 _atom_site_fract_z
 _atom_site_occupancy
  Cs  Cs0  1  -0.00000000  -0.00000000  0.50000000  1
  Cs  Cs1  1  -0.00000000  0.50000000  -0.00000000  1
  Cs  Cs2  1  0.50000000  -0.00000000  -0.00000000  1
  Cs  Cs3  1  0.50000000  0.50000000  0.50000000  1
  H  H4  1  0.21877530  0.50883590  0.22980351  1
  H  H5  1  0.78122470  0.00883590  0.27019649  1
  H  H6  1  0.28122470  0.49116410  0.72980351  1
  H  H7  1  0.71877530  0.99116410  0.77019649  1
  H  H8  1  0.22980351  0.21877530  0.50883590  1
  H  H9  1  0.27019649  0.78122470  0.00883590  1
  H  H10  1  0.72980351  0.28122470  0.49116410  1
  H  H11  1  0.77019649  0.71877530  0.99116410  1
  H  H12  1  0.50883590  0.22980351  0.21877530  1
  H  H13  1  0.00883590  0.27019649  0.78122470  1
  H  H14  1  0.49116410  0.72980351  0.28122470  1
  H  H15  1  0.99116410  0.77019649  0.71877530  1
  H  H16  1  0.78122470  0.49116410  0.77019649  1
  H  H17  1  0.21877530  0.99116410  0.72980351  1
  H  H18  1  0.71877530  0.50883590  0.27019649  1
  H  H19  1  0.28122470  0.00883590  0.22980351  1
  H  H20  1  0.77019649  0.78122470  0.49116410  1
  H  H21  1  0.72980351  0.21877530  0.99116410  1
  H  H22  1  0.27019649  0.71877530  0.50883590  1
  H  H23  1  0.22980351  0.28122470  0.00883590  1
  H  H24  1  0.49116410  0.77019649  0.78122470  1
  H  H25  1  0.99116410  0.72980351  0.21877530  1
  H  H26  1  0.50883590  0.27019649  0.71877530  1
  H  H27  1  0.00883590  0.22980351  0.28122470  1
  H  H28  1  0.18167430  0.62683018  0.22120290  1
  H  H29  1  0.81832570  0.12683018  0.27879710  1
  H  H30  1  0.31832570  0.37316982  0.72120290  1
  H  H31  1  0.68167430  0.87316982  0.77879710  1
  H  H32  1  0.22120290  0.18167430  0.62683018  1
  H  H33  1  0.27879710  0.81832570  0.12683018  1
  H  H34  1  0.72120290  0.31832570  0.37316982  1
  H  H35  1  0.77879710  0.68167430  0.87316982  1
  H  H36  1  0.62683018  0.22120290  0.18167430  1
  H  H37  1  0.12683018  0.27879710  0.81832570  1
  H  H38  1  0.37316982  0.72120290  0.31832570  1
  H  H39  1  0.87316982  0.77879710  0.68167430  1
  H  H40  1  0.81832570  0.37316982  0.77879710  1
  H  H41  1  0.18167430  0.87316982  0.72120290  1
  H  H42  1  0.68167430  0.62683018  0.27879710  1
  H  H43  1  0.31832570  0.12683018  0.22120290  1
  H  H44  1  0.77879710  0.81832570  0.37316982  1
  H  H45  1  0.72120290  0.18167430  0.87316982  1
  H  H46  1  0.27879710  0.68167430  0.62683018  1
  H  H47  1  0.22120290  0.31832570  0.12683018  1
  H  H48  1  0.37316982  0.77879710  0.81832570  1
  H  H49  1  0.87316982  0.72120290  0.18167430  1
  H  H50  1  0.62683018  0.27879710  0.68167430  1
  H  H51  1  0.12683018  0.22120290  0.31832570  1
  H  H52  1  0.47697264  0.70896894  0.93827412  1
  H  H53  1  0.52302736  0.20896894  0.56172588  1
  H  H54  1  0.02302736  0.29103106  0.43827412  1
  H  H55  1  0.97697264  0.79103106  0.06172588  1
  H  H56  1  0.93827412  0.47697264  0.70896894  1
  H  H57  1  0.56172588  0.52302736  0.20896894  1
  H  H58  1  0.43827412  0.02302736  0.29103106  1
  H  H59  1  0.06172588  0.97697264  0.79103106  1
  H  H60  1  0.70896894  0.93827412  0.47697264  1
  H  H61  1  0.20896894  0.56172588  0.52302736  1
  H  H62  1  0.29103106  0.43827412  0.02302736  1
  H  H63  1  0.79103106  0.06172588  0.97697264  1
  H  H64  1  0.52302736  0.29103106  0.06172588  1
  H  H65  1  0.47697264  0.79103106  0.43827412  1
  H  H66  1  0.97697264  0.70896894  0.56172588  1
  H  H67  1  0.02302736  0.20896894  0.93827412  1
  H  H68  1  0.06172588  0.52302736  0.29103106  1
  H  H69  1  0.43827412  0.47697264  0.79103106  1
  H  H70  1  0.56172588  0.97697264  0.70896894  1
  H  H71  1  0.93827412  0.02302736  0.20896894  1
  H  H72  1  0.29103106  0.06172588  0.52302736  1
  H  H73  1  0.79103106  0.43827412  0.47697264  1
  H  H74  1  0.70896894  0.56172588  0.97697264  1
  H  H75  1  0.20896894  0.93827412  0.02302736  1
  H  H76  1  0.52800138  0.70494558  0.06148442  1
  H  H77  1  0.47199862  0.20494558  0.43851558  1
  H  H78  1  0.97199862  0.29505442  0.56148442  1
  H  H79  1  0.02800138  0.79505442  0.93851558  1
  H  H80  1  0.06148442  0.52800138  0.70494558  1
  H  H81  1  0.43851558  0.47199862  0.20494558  1
  H  H82  1  0.56148442  0.97199862  0.29505442  1
  H  H83  1  0.93851558  0.02800138  0.79505442  1
  H  H84  1  0.70494558  0.06148442  0.52800138  1
  H  H85  1  0.20494558  0.43851558  0.47199862  1
  H  H86  1  0.29505442  0.56148442  0.97199862  1
  H  H87  1  0.79505442  0.93851558  0.02800138  1
  H  H88  1  0.47199862  0.29505442  0.93851558  1
  H  H89  1  0.52800138  0.79505442  0.56148442  1
  H  H90  1  0.02800138  0.70494558  0.43851558  1
  H  H91  1  0.97199862  0.20494558  0.06148442  1
  H  H92  1  0.93851558  0.47199862  0.29505442  1
  H  H93  1  0.56148442  0.52800138  0.79505442  1
  H  H94  1  0.43851558  0.02800138  0.70494558  1
  H  H95  1  0.06148442  0.97199862  0.20494558  1
  H  H96  1  0.29505442  0.93851558  0.47199862  1
  H  H97  1  0.79505442  0.56148442  0.52800138  1
  H  H98  1  0.70494558  0.43851558  0.02800138  1
  H  H99  1  0.20494558  0.06148442  0.97199862  1
  Ru  Ru100  1  0.50000000  0.50000000  -0.00000000  1
  Ru  Ru101  1  0.50000000  -0.00000000  0.50000000  1
  Ru  Ru102  1  -0.00000000  0.50000000  0.50000000  1
  Ru  Ru103  1  -0.00000000  -0.00000000  -0.00000000  1
  S  S104  1  0.17409330  0.82590670  0.32590670  1
  S  S105  1  0.82590670  0.32590670  0.17409330  1
  S  S106  1  0.32590670  0.17409330  0.82590670  1
  S  S107  1  0.67409330  0.67409330  0.67409330  1
  S  S108  1  0.82590670  0.17409330  0.67409330  1
  S  S109  1  0.17409330  0.67409330  0.82590670  1
  S  S110  1  0.67409330  0.82590670  0.17409330  1
  S  S111  1  0.32590670  0.32590670  0.32590670  1
  O  O112  1  0.24299588  0.75700412  0.25700412  1
  O  O113  1  0.75700412  0.25700412  0.24299588  1
  O  O114  1  0.25700412  0.24299588  0.75700412  1
  O  O115  1  0.74299588  0.74299588  0.74299588  1
  O  O116  1  0.75700412  0.24299588  0.74299588  1
  O  O117  1  0.24299588  0.74299588  0.75700412  1
  O  O118  1  0.74299588  0.75700412  0.24299588  1
  O  O119  1  0.25700412  0.25700412  0.25700412  1
  O  O120  1  0.06535280  0.77823847  0.33451778  1
  O  O121  1  0.93464720  0.27823847  0.16548222  1
  O  O122  1  0.43464720  0.22176153  0.83451778  1
  O  O123  1  0.56535280  0.72176153  0.66548222  1
  O  O124  1  0.33451778  0.06535280  0.77823847  1
  O  O125  1  0.16548222  0.93464720  0.27823847  1
  O  O126  1  0.83451778  0.43464720  0.22176153  1
  O  O127  1  0.66548222  0.56535280  0.72176153  1
  O  O128  1  0.77823847  0.33451778  0.06535280  1
  O  O129  1  0.27823847  0.16548222  0.93464720  1
  O  O130  1  0.22176153  0.83451778  0.43464720  1
  O  O131  1  0.72176153  0.66548222  0.56535280  1
  O  O132  1  0.93464720  0.22176153  0.66548222  1
  O  O133  1  0.06535280  0.72176153  0.83451778  1
  O  O134  1  0.56535280  0.77823847  0.16548222  1
  O  O135  1  0.43464720  0.27823847  0.33451778  1
  O  O136  1  0.66548222  0.93464720  0.22176153  1
  O  O137  1  0.83451778  0.06535280  0.72176153  1
  O  O138  1  0.16548222  0.56535280  0.77823847  1
  O  O139  1  0.33451778  0.43464720  0.27823847  1
  O  O140  1  0.22176153  0.66548222  0.93464720  1
  O  O141  1  0.72176153  0.83451778  0.06535280  1
  O  O142  1  0.77823847  0.16548222  0.56535280  1
  O  O143  1  0.27823847  0.33451778  0.43464720  1
  O  O144  1  0.15638446  0.55292903  0.21070287  1
  O  O145  1  0.84361554  0.05292903  0.28929713  1
  O  O146  1  0.34361554  0.44707097  0.71070287  1
  O  O147  1  0.65638446  0.94707097  0.78929713  1
  O  O148  1  0.21070287  0.15638446  0.55292903  1
  O  O149  1  0.28929713  0.84361554  0.05292903  1
  O  O150  1  0.71070287  0.34361554  0.44707097  1
  O  O151  1  0.78929713  0.65638446  0.94707097  1
  O  O152  1  0.55292903  0.21070287  0.15638446  1
  O  O153  1  0.05292903  0.28929713  0.84361554  1
  O  O154  1  0.44707097  0.71070287  0.34361554  1
  O  O155  1  0.94707097  0.78929713  0.65638446  1
  O  O156  1  0.84361554  0.44707097  0.78929713  1
  O  O157  1  0.15638446  0.94707097  0.71070287  1
  O  O158  1  0.65638446  0.55292903  0.28929713  1
  O  O159  1  0.34361554  0.05292903  0.21070287  1
  O  O160  1  0.78929713  0.84361554  0.44707097  1
  O  O161  1  0.71070287  0.15638446  0.94707097  1
  O  O162  1  0.28929713  0.65638446  0.55292903  1
  O  O163  1  0.21070287  0.34361554  0.05292903  1
  O  O164  1  0.44707097  0.78929713  0.84361554  1
  O  O165  1  0.94707097  0.71070287  0.15638446  1
  O  O166  1  0.55292903  0.28929713  0.65638446  1
  O  O167  1  0.05292903  0.21070287  0.34361554  1
  O  O168  1  0.50142081  0.66244147  0.99978675  1
  O  O169  1  0.49857919  0.16244147  0.50021325  1
  O  O170  1  0.99857919  0.33755853  0.49978675  1
  O  O171  1  0.00142081  0.83755853  0.00021325  1
  O  O172  1  0.99978675  0.50142081  0.66244147  1
  O  O173  1  0.50021325  0.49857919  0.16244147  1
  O  O174  1  0.49978675  0.99857919  0.33755853  1
  O  O175  1  0.00021325  0.00142081  0.83755853  1
  O  O176  1  0.66244147  0.99978675  0.50142081  1
  O  O177  1  0.16244147  0.50021325  0.49857919  1
  O  O178  1  0.33755853  0.49978675  0.99857919  1
  O  O179  1  0.83755853  0.00021325  0.00142081  1
  O  O180  1  0.49857919  0.33755853  0.00021325  1
  O  O181  1  0.50142081  0.83755853  0.49978675  1
  O  O182  1  0.00142081  0.66244147  0.50021325  1
  O  O183  1  0.99857919  0.16244147  0.99978675  1
  O  O184  1  0.00021325  0.49857919  0.33755853  1
  O  O185  1  0.49978675  0.50142081  0.83755853  1
  O  O186  1  0.50021325  0.00142081  0.66244147  1
  O  O187  1  0.99978675  0.99857919  0.16244147  1
  O  O188  1  0.33755853  0.00021325  0.49857919  1
  O  O189  1  0.83755853  0.49978675  0.50142081  1
  O  O190  1  0.66244147  0.50021325  0.00142081  1
  O  O191  1  0.16244147  0.99978675  0.99857919  1
