# generated using pymatgen
data_Na2ZnP2(H5O6)2
_symmetry_space_group_name_H-M   'P 1'
_cell_length_a   9.05068913
_cell_length_b   13.44995960
_cell_length_c   10.20085214
_cell_angle_alpha   90.00000000
_cell_angle_beta   116.37296761
_cell_angle_gamma   90.00000000
_symmetry_Int_Tables_number   1
_chemical_formula_structural   Na2ZnP2(H5O6)2
_chemical_formula_sum   'Na8 Zn4 P8 H40 O48'
_cell_volume   1112.52303219
_cell_formula_units_Z   4
loop_
 _symmetry_equiv_pos_site_id
 _symmetry_equiv_pos_as_xyz
  1  'x, y, z'
loop_
 _atom_site_type_symbol
 _atom_site_label
 _atom_site_symmetry_multiplicity
 _atom_site_fract_x
 _atom_site_fract_y
 _atom_site_fract_z
 _atom_site_occupancy
  Na  Na0  1  0.16453754  0.53526180  0.86344160  1
  Na  Na1  1  0.83546246  0.03526180  0.63655840  1
  Na  Na2  1  0.83546246  0.46473820  0.13655840  1
  Na  Na3  1  0.16453754  0.96473820  0.36344160  1
  Na  Na4  1  0.31979249  0.72379857  0.69806113  1
  Na  Na5  1  0.68020751  0.22379857  0.80193887  1
  Na  Na6  1  0.68020751  0.27620143  0.30193887  1
  Na  Na7  1  0.31979249  0.77620143  0.19806113  1
  Zn  Zn8  1  0.59688554  0.65957480  0.53677098  1
  Zn  Zn9  1  0.40311446  0.15957480  0.96322902  1
  Zn  Zn10  1  0.40311446  0.34042520  0.46322902  1
  Zn  Zn11  1  0.59688554  0.84042520  0.03677098  1
  P  P12  1  0.25711613  0.56084896  0.38975416  1
  P  P13  1  0.74288387  0.06084896  0.11024584  1
  P  P14  1  0.74288387  0.43915104  0.61024584  1
  P  P15  1  0.25711613  0.93915104  0.88975416  1
  P  P16  1  0.73018852  0.81203728  0.79663566  1
  P  P17  1  0.26981148  0.31203728  0.70336434  1
  P  P18  1  0.26981148  0.18796272  0.20336434  1
  P  P19  1  0.73018852  0.68796272  0.29663566  1
  H  H20  1  0.00923953  0.64036784  0.28127853  1
  H  H21  1  0.99076047  0.14036784  0.21872147  1
  H  H22  1  0.99076047  0.35963216  0.71872147  1
  H  H23  1  0.00923953  0.85963216  0.78127853  1
  H  H24  1  0.71784772  0.97672037  0.85296509  1
  H  H25  1  0.28215228  0.47672037  0.64703491  1
  H  H26  1  0.28215228  0.02327963  0.14703491  1
  H  H27  1  0.71784772  0.52327963  0.35296509  1
  H  H28  1  0.25497630  0.35359955  0.05348412  1
  H  H29  1  0.74502370  0.85359955  0.44651588  1
  H  H30  1  0.74502370  0.64640045  0.94651588  1
  H  H31  1  0.25497630  0.14640045  0.55348412  1
  H  H32  1  0.26919706  0.44197847  0.15991743  1
  H  H33  1  0.73080294  0.94197847  0.34008257  1
  H  H34  1  0.73080294  0.55802153  0.84008257  1
  H  H35  1  0.26919706  0.05802153  0.65991743  1
  H  H36  1  0.94311577  0.39203596  0.41756497  1
  H  H37  1  0.05688423  0.89203596  0.08243503  1
  H  H38  1  0.05688423  0.60796404  0.58243503  1
  H  H39  1  0.94311577  0.10796404  0.91756497  1
  H  H40  1  0.04486243  0.31596666  0.37545708  1
  H  H41  1  0.95513757  0.81596666  0.12454292  1
  H  H42  1  0.95513757  0.68403334  0.62454292  1
  H  H43  1  0.04486243  0.18403334  0.87545708  1
  H  H44  1  0.96408757  0.29784039  0.06011777  1
  H  H45  1  0.03591243  0.79784039  0.43988223  1
  H  H46  1  0.03591243  0.70215961  0.93988223  1
  H  H47  1  0.96408757  0.20215961  0.56011777  1
  H  H48  1  0.91295442  0.36822435  0.92190231  1
  H  H49  1  0.08704558  0.86822435  0.57809769  1
  H  H50  1  0.08704558  0.63177565  0.07809769  1
  H  H51  1  0.91295442  0.13177565  0.42190231  1
  H  H52  1  0.53701619  0.35121736  0.99410815  1
  H  H53  1  0.46298381  0.85121736  0.50589185  1
  H  H54  1  0.46298381  0.64878264  0.00589185  1
  H  H55  1  0.53701619  0.14878264  0.49410815  1
  H  H56  1  0.48487820  0.42207226  0.08586368  1
  H  H57  1  0.51512180  0.92207226  0.41413632  1
  H  H58  1  0.51512180  0.57792774  0.91413632  1
  H  H59  1  0.48487820  0.07792774  0.58586368  1
  O  O60  1  0.37121805  0.64366013  0.38098922  1
  O  O61  1  0.62878195  0.14366013  0.11901078  1
  O  O62  1  0.62878195  0.35633987  0.61901078  1
  O  O63  1  0.37121805  0.85633987  0.88098922  1
  O  O64  1  0.69863946  0.54070715  0.65493544  1
  O  O65  1  0.30136054  0.04070715  0.84506456  1
  O  O66  1  0.30136054  0.45929285  0.34506456  1
  O  O67  1  0.69863946  0.95929285  0.15493544  1
  O  O68  1  0.57864740  0.76285259  0.66899461  1
  O  O69  1  0.42135260  0.26285259  0.83100539  1
  O  O70  1  0.42135260  0.23714741  0.33100539  1
  O  O71  1  0.57864740  0.73714741  0.16899461  1
  O  O72  1  0.73265622  0.71514555  0.44609555  1
  O  O73  1  0.26734378  0.21514555  0.05390445  1
  O  O74  1  0.26734378  0.28485445  0.55390445  1
  O  O75  1  0.73265622  0.78485445  0.94609555  1
  O  O76  1  0.25275413  0.55934826  0.53803703  1
  O  O77  1  0.74724587  0.05934826  0.96196297  1
  O  O78  1  0.74724587  0.44065174  0.46196297  1
  O  O79  1  0.25275413  0.94065174  0.03803703  1
  O  O80  1  0.07602527  0.58483951  0.26106439  1
  O  O81  1  0.92397473  0.08483951  0.23893561  1
  O  O82  1  0.92397473  0.41516049  0.73893561  1
  O  O83  1  0.07602527  0.91516049  0.76106439  1
  O  O84  1  0.70497639  0.92836018  0.76933019  1
  O  O85  1  0.29502361  0.42836018  0.73066981  1
  O  O86  1  0.29502361  0.07163982  0.23066981  1
  O  O87  1  0.70497639  0.57163982  0.26933019  1
  O  O88  1  0.89232602  0.78074447  0.79556142  1
  O  O89  1  0.10767398  0.28074447  0.70443858  1
  O  O90  1  0.10767398  0.21925553  0.20443858  1
  O  O91  1  0.89232602  0.71925553  0.29556142  1
  O  O92  1  0.26200640  0.42685823  0.06190332  1
  O  O93  1  0.73799360  0.92685823  0.43809668  1
  O  O94  1  0.73799360  0.57314177  0.93809668  1
  O  O95  1  0.26200640  0.07314177  0.56190332  1
  O  O96  1  0.94092370  0.35349732  0.33590348  1
  O  O97  1  0.05907630  0.85349732  0.16409652  1
  O  O98  1  0.05907630  0.64650268  0.66409652  1
  O  O99  1  0.94092370  0.14650268  0.83590348  1
  O  O100  1  0.87160598  0.33782984  0.98679099  1
  O  O101  1  0.12839402  0.83782984  0.51320901  1
  O  O102  1  0.12839402  0.66217016  0.01320901  1
  O  O103  1  0.87160598  0.16217016  0.48679099  1
  O  O104  1  0.58103251  0.38523113  0.08945438  1
  O  O105  1  0.41896749  0.88523113  0.41054562  1
  O  O106  1  0.41896749  0.61476887  0.91054562  1
  O  O107  1  0.58103251  0.11476887  0.58945438  1
