# generated using pymatgen
data_Ca3P4H20(NO10)2
_symmetry_space_group_name_H-M   'P 1'
_cell_length_a   7.72470523
_cell_length_b   11.59201322
_cell_length_c   11.00330983
_cell_angle_alpha   90.00000000
_cell_angle_beta   91.76892100
_cell_angle_gamma   90.00000000
_symmetry_Int_Tables_number   1
_chemical_formula_structural   Ca3P4H20(NO10)2
_chemical_formula_sum   'Ca6 P8 H40 N4 O40'
_cell_volume   984.82057658
_cell_formula_units_Z   2
loop_
 _symmetry_equiv_pos_site_id
 _symmetry_equiv_pos_as_xyz
  1  'x, y, z'
loop_
 _atom_site_type_symbol
 _atom_site_label
 _atom_site_symmetry_multiplicity
 _atom_site_fract_x
 _atom_site_fract_y
 _atom_site_fract_z
 _atom_site_occupancy
  Ca  Ca0  1  0.50000000  0.50000000  0.50000000  1
  Ca  Ca1  1  0.00000000  0.00000000  0.00000000  1
  Ca  Ca2  1  0.88712434  0.77595242  0.57809861  1
  Ca  Ca3  1  0.38712434  0.72404758  0.07809861  1
  Ca  Ca4  1  0.11287566  0.22404758  0.42190139  1
  Ca  Ca5  1  0.61287566  0.27595242  0.92190139  1
  P  P6  1  0.11889459  0.75309347  0.86155857  1
  P  P7  1  0.61889459  0.74690653  0.36155857  1
  P  P8  1  0.88110541  0.24690653  0.13844143  1
  P  P9  1  0.38110541  0.25309347  0.63844143  1
  P  P10  1  0.73140690  0.78086714  0.87332420  1
  P  P11  1  0.23140690  0.71913286  0.37332420  1
  P  P12  1  0.26859310  0.21913286  0.12667580  1
  P  P13  1  0.76859310  0.28086714  0.62667580  1
  H  H14  1  0.03201088  0.84047100  0.21381415  1
  H  H15  1  0.53201088  0.65952900  0.71381415  1
  H  H16  1  0.96798912  0.15952900  0.78618585  1
  H  H17  1  0.46798912  0.34047100  0.28618585  1
  H  H18  1  0.85710541  0.89467001  0.25608501  1
  H  H19  1  0.35710541  0.60532999  0.75608501  1
  H  H20  1  0.14289459  0.10532999  0.74391499  1
  H  H21  1  0.64289459  0.39467001  0.24391499  1
  H  H22  1  0.39213278  0.98661668  0.11607147  1
  H  H23  1  0.89213278  0.51338332  0.61607147  1
  H  H24  1  0.60786722  0.01338332  0.88392853  1
  H  H25  1  0.10786722  0.48661668  0.38392853  1
  H  H26  1  0.57587636  0.93913286  0.08084334  1
  H  H27  1  0.07587636  0.56086714  0.58084334  1
  H  H28  1  0.42412364  0.06086714  0.91915666  1
  H  H29  1  0.92412364  0.43913286  0.41915666  1
  H  H30  1  0.43260722  0.50205551  0.19040573  1
  H  H31  1  0.93260722  -0.00205551  0.69040573  1
  H  H32  1  0.56739278  0.49794449  0.80959427  1
  H  H33  1  0.06739278  0.00205551  0.30959427  1
  H  H34  1  0.36776596  0.45170960  0.06832455  1
  H  H35  1  0.86776596  0.04829040  0.56832455  1
  H  H36  1  0.63223404  0.54829040  0.93167545  1
  H  H37  1  0.13223404  0.95170960  0.43167545  1
  H  H38  1  0.01602752  0.61431821  0.16741299  1
  H  H39  1  0.51602752  0.88568179  0.66741299  1
  H  H40  1  0.98397248  0.38568179  0.83258701  1
  H  H41  1  0.48397248  0.11431821  0.33258701  1
  H  H42  1  0.88232480  0.49784273  0.12957459  1
  H  H43  1  0.38232480  0.00215727  0.62957459  1
  H  H44  1  0.11767520  0.50215727  0.87042541  1
  H  H45  1  0.61767520  0.99784273  0.37042541  1
  H  H46  1  0.79802610  0.62829261  0.16647927  1
  H  H47  1  0.29802610  0.87170739  0.66647927  1
  H  H48  1  0.20197390  0.37170739  0.83352073  1
  H  H49  1  0.70197390  0.12829261  0.33352073  1
  H  H50  1  0.89957986  0.61445647  0.03588835  1
  H  H51  1  0.39957986  0.88554353  0.53588835  1
  H  H52  1  0.10042014  0.38554353  0.96411165  1
  H  H53  1  0.60042014  0.11445647  0.46411165  1
  N  N54  1  0.90165105  0.58693369  0.12513800  1
  N  N55  1  0.40165105  0.91306631  0.62513800  1
  N  N56  1  0.09834895  0.41306631  0.87486200  1
  N  N57  1  0.59834895  0.08693369  0.37486200  1
  O  O58  1  0.11604418  0.80275580  0.73343711  1
  O  O59  1  0.61604418  0.69724420  0.23343711  1
  O  O60  1  0.88395582  0.19724420  0.26656289  1
  O  O61  1  0.38395582  0.30275580  0.76656289  1
  O  O62  1  0.17133727  0.84144473  0.96089283  1
  O  O63  1  0.67133727  0.65855527  0.46089283  1
  O  O64  1  0.82866273  0.15855527  0.03910717  1
  O  O65  1  0.32866273  0.34144473  0.53910717  1
  O  O66  1  0.22289641  0.64205716  0.88333967  1
  O  O67  1  0.72289641  0.85794284  0.38333967  1
  O  O68  1  0.77710359  0.35794284  0.11666033  1
  O  O69  1  0.27710359  0.14205716  0.61666033  1
  O  O70  1  0.91931846  0.71345750  0.88920689  1
  O  O71  1  0.41931846  0.78654250  0.38920689  1
  O  O72  1  0.08068154  0.28654250  0.11079311  1
  O  O73  1  0.58068154  0.21345750  0.61079311  1
  O  O74  1  0.75616679  0.90572742  0.91754543  1
  O  O75  1  0.25616679  0.59427258  0.41754543  1
  O  O76  1  0.24383321  0.09427258  0.08245457  1
  O  O77  1  0.74383321  0.40572742  0.58245457  1
  O  O78  1  0.67806011  0.77386477  0.73713968  1
  O  O79  1  0.17806011  0.72613523  0.23713968  1
  O  O80  1  0.32193989  0.22613523  0.26286032  1
  O  O81  1  0.82193989  0.27386477  0.76286032  1
  O  O82  1  0.61728338  0.70791280  0.95342106  1
  O  O83  1  0.11728338  0.79208720  0.45342106  1
  O  O84  1  0.38271662  0.29208720  0.04657894  1
  O  O85  1  0.88271662  0.20791280  0.54657894  1
  O  O86  1  0.95225150  0.90733883  0.19941103  1
  O  O87  1  0.45225150  0.59266117  0.69941103  1
  O  O88  1  0.04774850  0.09266117  0.80058897  1
  O  O89  1  0.54774850  0.40733883  0.30058897  1
  O  O90  1  0.47492707  0.92178079  0.12886930  1
  O  O91  1  0.97492707  0.57821921  0.62886930  1
  O  O92  1  0.52507293  0.07821921  0.87113070  1
  O  O93  1  0.02507293  0.42178079  0.37113070  1
  O  O94  1  0.37005156  0.52456898  0.11430297  1
  O  O95  1  0.87005156  0.97543102  0.61430297  1
  O  O96  1  0.62994844  0.47543102  0.88569703  1
  O  O97  1  0.12994844  0.02456898  0.38569703  1
