# generated using pymatgen
data_Cr3O7
_symmetry_space_group_name_H-M   'P 1'
_cell_length_a   5.29765084
_cell_length_b   10.53987250
_cell_length_c   11.24838812
_cell_angle_alpha   90.00000000
_cell_angle_beta   90.00000000
_cell_angle_gamma   90.00000000
_symmetry_Int_Tables_number   1
_chemical_formula_structural   Cr3O7
_chemical_formula_sum   'Cr12 O28'
_cell_volume   628.07134769
_cell_formula_units_Z   4
loop_
 _symmetry_equiv_pos_site_id
 _symmetry_equiv_pos_as_xyz
  1  'x, y, z'
loop_
 _atom_site_type_symbol
 _atom_site_label
 _atom_site_symmetry_multiplicity
 _atom_site_fract_x
 _atom_site_fract_y
 _atom_site_fract_z
 _atom_site_occupancy
  Cr  Cr0  1  0.29494167  0.02007010  0.30270465  1
  Cr  Cr1  1  0.79494167  0.97992990  0.19729535  1
  Cr  Cr2  1  0.70505833  0.52007010  0.69729535  1
  Cr  Cr3  1  0.20505833  0.47992990  0.80270465  1
  Cr  Cr4  1  0.29613908  0.75000000  0.22636313  1
  Cr  Cr5  1  0.79613908  0.25000000  0.27363687  1
  Cr  Cr6  1  0.70386092  0.25000000  0.77363687  1
  Cr  Cr7  1  0.20386092  0.75000000  0.72636313  1
  Cr  Cr8  1  0.79494167  0.52007010  0.19729535  1
  Cr  Cr9  1  0.29494167  0.47992990  0.30270465  1
  Cr  Cr10  1  0.20505833  0.02007010  0.80270465  1
  Cr  Cr11  1  0.70505833  0.97992990  0.69729535  1
  O  O12  1  0.93699619  0.11398596  0.73146634  1
  O  O13  1  0.43699619  0.88601404  0.76853366  1
  O  O14  1  0.06300381  0.61398596  0.26853366  1
  O  O15  1  0.56300381  0.38601404  0.23146634  1
  O  O16  1  0.06300381  0.88601404  0.26853366  1
  O  O17  1  0.56300381  0.11398596  0.23146634  1
  O  O18  1  0.93699619  0.38601404  0.73146634  1
  O  O19  1  0.43699619  0.61398596  0.76853366  1
  O  O20  1  0.46784321  0.11341650  0.72734963  1
  O  O21  1  0.96784321  0.88658350  0.77265037  1
  O  O22  1  0.53215679  0.61341650  0.27265037  1
  O  O23  1  0.03215679  0.38658350  0.22734963  1
  O  O24  1  0.53215679  0.88658350  0.27265037  1
  O  O25  1  0.03215679  0.11341650  0.22734963  1
  O  O26  1  0.46784321  0.38658350  0.72734963  1
  O  O27  1  0.96784321  0.61341650  0.77265037  1
  O  O28  1  0.19081929  0.75000000  0.58191656  1
  O  O29  1  0.69081929  0.25000000  0.91808344  1
  O  O30  1  0.80918071  0.25000000  0.41808344  1
  O  O31  1  0.30918071  0.75000000  0.08191656  1
  O  O32  1  0.21459285  0.44217283  0.93882380  1
  O  O33  1  0.71459285  0.55782617  0.56117620  1
  O  O34  1  0.78540715  0.94217383  0.06117620  1
  O  O35  1  0.28540715  0.05782717  0.43882380  1
  O  O36  1  0.78540715  0.55782617  0.06117620  1
  O  O37  1  0.28540715  0.44217283  0.43882380  1
  O  O38  1  0.21459285  0.05782717  0.93882380  1
  O  O39  1  0.71459285  0.94217383  0.56117620  1
