# generated using pymatgen
data_KFeO3
_symmetry_space_group_name_H-M   'P 1'
_cell_length_a   5.08985428
_cell_length_b   5.61126498
_cell_length_c   13.32922529
_cell_angle_alpha   90.00000000
_cell_angle_beta   90.00000000
_cell_angle_gamma   90.00000000
_symmetry_Int_Tables_number   1
_chemical_formula_structural   KFeO3
_chemical_formula_sum   'K4 Fe4 O12'
_cell_volume   380.68961980
_cell_formula_units_Z   4
loop_
 _symmetry_equiv_pos_site_id
 _symmetry_equiv_pos_as_xyz
  1  'x, y, z'
loop_
 _atom_site_type_symbol
 _atom_site_label
 _atom_site_symmetry_multiplicity
 _atom_site_fract_x
 _atom_site_fract_y
 _atom_site_fract_z
 _atom_site_occupancy
  K  K0  1  0.76163881  0.25000000  0.40922632  1
  K  K1  1  0.26163881  0.25000000  0.09077368  1
  K  K2  1  0.23836119  0.75000000  0.59077368  1
  K  K3  1  0.73836119  0.75000000  0.90922632  1
  Fe  Fe4  1  0.31352755  0.75000000  0.32935749  1
  Fe  Fe5  1  0.81352755  0.75000000  0.17064251  1
  Fe  Fe6  1  0.68647245  0.25000000  0.67064251  1
  Fe  Fe7  1  0.18647245  0.25000000  0.82935749  1
  O  O8  1  0.25188935  0.50498070  0.39676491  1
  O  O9  1  0.75188935  0.99501930  0.10323509  1
  O  O10  1  0.74811065  0.00498070  0.60323509  1
  O  O11  1  0.24811065  0.49501930  0.89676491  1
  O  O12  1  0.74811065  0.49501930  0.60323509  1
  O  O13  1  0.24811065  0.00498070  0.89676491  1
  O  O14  1  0.25188935  0.99501930  0.39676491  1
  O  O15  1  0.75188935  0.50498070  0.10323509  1
  O  O16  1  0.65579214  0.75000000  0.29456930  1
  O  O17  1  0.15579214  0.75000000  0.20543070  1
  O  O18  1  0.34420786  0.25000000  0.70543070  1
  O  O19  1  0.84420786  0.25000000  0.79456930  1
