# generated using pymatgen
data_Li10Sn(PS6)2
_symmetry_space_group_name_H-M   'P 1'
_cell_length_a   8.66527857
_cell_length_b   8.94964883
_cell_length_c   13.14190796
_cell_angle_alpha   91.99858081
_cell_angle_beta   90.60843533
_cell_angle_gamma   90.07788170
_symmetry_Int_Tables_number   1
_chemical_formula_structural   Li10Sn(PS6)2
_chemical_formula_sum   'Li20 Sn2 P4 S24'
_cell_volume   1018.49181070
_cell_formula_units_Z   2
loop_
 _symmetry_equiv_pos_site_id
 _symmetry_equiv_pos_as_xyz
  1  'x, y, z'
loop_
 _atom_site_type_symbol
 _atom_site_label
 _atom_site_symmetry_multiplicity
 _atom_site_fract_x
 _atom_site_fract_y
 _atom_site_fract_z
 _atom_site_occupancy
  Li  Li0  1  0.98894842  0.51741831  0.95002357  1
  Li  Li1  1  0.96366208  0.51745471  0.42782670  1
  Li  Li2  1  0.51101179  0.96407727  0.54740416  1
  Li  Li3  1  0.49662106  0.99635694  0.05216804  1
  Li  Li4  1  0.26215897  0.28730425  0.15760920  1
  Li  Li5  1  0.74198435  0.74799737  0.28321892  1
  Li  Li6  1  0.21376830  0.81652958  0.75304246  1
  Li  Li7  1  0.23128265  0.75858095  0.25286426  1
  Li  Li8  1  0.75328884  0.21882989  0.35222037  1
  Li  Li9  1  0.46164376  0.51486197  0.75083653  1
  Li  Li10  1  0.23021888  0.22714956  0.36677864  1
  Li  Li11  1  0.73625912  0.25766193  0.85758897  1
  Li  Li12  1  0.24489442  0.76093518  0.00556762  1
  Li  Li13  1  0.73984143  0.26087993  0.13095253  1
  Li  Li14  1  0.76519704  0.72722536  0.68834855  1
  Li  Li15  1  0.22007489  0.25885026  0.91974028  1
  Li  Li16  1  0.74837668  0.76114094  0.00834917  1
  Li  Li17  1  0.24419058  0.71972541  0.48527666  1
  Li  Li18  1  0.78404125  0.21551660  0.62537499  1
  Li  Li19  1  0.24054085  0.21295678  0.64933549  1
  Sn  Sn20  1  0.99620539  0.48983640  0.18330515  1
  Sn  Sn21  1  0.51032670  0.98964691  0.81515415  1
  P  P22  1  0.99330706  0.96515118  0.50167462  1
  P  P23  1  0.49235754  0.51556894  0.99290093  1
  P  P24  1  0.00869003  0.48281462  0.68421852  1
  P  P25  1  0.48794643  0.00926030  0.31062777  1
  S  S26  1  0.98856490  0.17471216  0.44363926  1
  S  S27  1  0.00498879  0.79451792  0.39101552  1
  S  S28  1  0.29705156  0.53063985  0.90190783  1
  S  S29  1  0.68321778  0.53021597  0.90087230  1
  S  S30  1  0.49525926  0.69397383  0.09579860  1
  S  S31  1  0.48703036  0.31155975  0.05885219  1
  S  S32  1  0.19423270  0.94768732  0.58774027  1
  S  S33  1  0.80229772  0.94628093  0.58961887  1
  S  S34  1  0.00766691  0.28530835  0.05847404  1
  S  S35  1  0.00130570  0.72346022  0.09769043  1
  S  S36  1  0.21009032  0.48604485  0.60183715  1
  S  S37  1  0.81715723  0.49112646  0.59003972  1
  S  S38  1  0.48461546  0.80223455  0.37432382  1
  S  S39  1  0.49551869  0.17661912  0.42183141  1
  S  S40  1  0.27199996  0.98823942  0.91047260  1
  S  S41  1  0.72625413  0.00199557  0.92964288  1
  S  S42  1  0.99307103  0.66142894  0.78697883  1
  S  S43  1  0.00304555  0.28298055  0.75975198  1
  S  S44  1  0.76555109  0.46505943  0.27999720  1
  S  S45  1  0.21385494  0.47773560  0.29824699  1
  S  S46  1  0.51915723  0.21416303  0.71556085  1
  S  S47  1  0.49050186  0.78017164  0.69451614  1
  S  S48  1  0.68418115  0.01589548  0.22207084  1
  S  S49  1  0.29394418  0.03131951  0.21991003  1
