# generated using pymatgen
data_Ca5La7Mn7Ru5O36
_symmetry_space_group_name_H-M   'P 1'
_cell_length_a   5.56082087
_cell_length_b   5.65386654
_cell_length_c   23.69855605
_cell_angle_alpha   89.82750728
_cell_angle_beta   90.10070551
_cell_angle_gamma   90.16411969
_symmetry_Int_Tables_number   1
_chemical_formula_structural   Ca5La7Mn7Ru5O36
_chemical_formula_sum   'Ca5 La7 Mn7 Ru5 O36'
_cell_volume   745.07832441
_cell_formula_units_Z   1
loop_
 _symmetry_equiv_pos_site_id
 _symmetry_equiv_pos_as_xyz
  1  'x, y, z'
loop_
 _atom_site_type_symbol
 _atom_site_label
 _atom_site_symmetry_multiplicity
 _atom_site_fract_x
 _atom_site_fract_y
 _atom_site_fract_z
 _atom_site_occupancy
  Ca  Ca0  1  0.01040198  0.05010222  0.08575289  1
  Ca  Ca1  1  0.48382223  0.55660943  0.08560283  1
  Ca  Ca2  1  0.51656310  0.44409123  0.24903364  1
  Ca  Ca3  1  0.98768274  0.94968539  0.24952110  1
  Ca  Ca4  1  0.99202471  0.95773860  0.57922310  1
  La  La5  1  0.00834570  0.03898263  0.41753471  1
  La  La6  1  0.00563857  0.03665071  0.75041369  1
  La  La7  1  0.48872802  0.54200984  0.41561978  1
  La  La8  1  0.48758680  0.54182551  0.75165261  1
  La  La9  1  0.51340771  0.45616099  0.57968652  1
  La  La10  1  0.51187157  0.45904490  0.91826497  1
  La  La11  1  0.99194426  0.96141940  0.91773239  1
  Mn  Mn12  1  0.99866718  0.49943261  0.83417798  1
  Mn  Mn13  1  0.50107021  0.99920270  0.50028190  1
  Mn  Mn14  1  0.49866767  0.00038988  0.83397076  1
  Mn  Mn15  1  0.49691901  0.00080037  0.00434680  1
  Mn  Mn16  1  0.50142890  0.99914447  0.33001430  1
  Mn  Mn17  1  0.49996563  0.00017528  0.66428090  1
  Mn  Mn18  1  0.00118822  0.50100870  0.50032831  1
  Ru  Ru19  1  -0.00005656  0.50226531  0.00467804  1
  Ru  Ru20  1  0.00099042  0.50043257  0.16703311  1
  Ru  Ru21  1  -0.00043802  0.49950797  0.66442883  1
  Ru  Ru22  1  0.50163793  0.99963040  0.16730560  1
  Ru  Ru23  1  0.00054064  0.49790241  0.32931531  1
  O  O24  1  0.09570330  0.52671869  0.24883697  1
  O  O25  1  0.09158598  0.53601642  0.58578521  1
  O  O26  1  0.08918004  0.52338489  0.92175240  1
  O  O27  1  0.20580551  0.79282554  0.14970735  1
  O  O28  1  0.22195917  0.78239039  0.48407846  1
  O  O29  1  0.21801843  0.78336973  0.81912362  1
  O  O30  1  0.20047939  0.78187090  0.34886039  1
  O  O31  1  0.18767188  0.79752430  0.01759196  1
  O  O32  1  0.20493880  0.78006966  0.68488097  1
  O  O33  1  0.29384350  0.31103676  0.01625605  1
  O  O34  1  0.28135541  0.29530444  0.34901038  1
  O  O35  1  0.28640412  0.29746228  0.68255240  1
  O  O36  1  0.29579647  0.29164630  0.14925208  1
  O  O37  1  0.28450210  0.28779942  0.48556686  1
  O  O38  1  0.27721578  0.28255925  0.81950119  1
  O  O39  1  0.41216144  0.02353006  0.58332149  1
  O  O40  1  0.40136319  0.03287237  0.24819975  1
  O  O41  1  0.42139944  0.01647447  0.91809630  1
  O  O42  1  0.60016698  0.96561458  0.08699776  1
  O  O43  1  0.57672561  0.98572441  0.41404944  1
  O  O44  1  0.57869924  0.98406323  0.74897392  1
  O  O45  1  0.70378357  0.70735603  0.18457973  1
  O  O46  1  0.71823440  0.71401727  0.51243102  1
  O  O47  1  0.71895849  0.71610628  0.84756985  1
  O  O48  1  0.70784576  0.69275058  0.31689863  1
  O  O49  1  0.70940813  0.69414932  0.65230645  1
  O  O50  1  0.71897307  0.70642510  0.98397476  1
  O  O51  1  0.80643565  0.20636022  0.31603580  1
  O  O52  1  0.80995050  0.20721524  0.64908071  1
  O  O53  1  0.79775102  0.22122942  0.98425894  1
  O  O54  1  0.79522167  0.20615491  0.18395343  1
  O  O55  1  0.77907343  0.21656948  0.84831201  1
  O  O56  1  0.78502969  0.21548145  0.51418927  1
  O  O57  1  0.90067496  0.46973378  0.08482517  1
  O  O58  1  0.91442696  0.47877745  0.41209105  1
  O  O59  1  0.91065832  0.47520187  0.74689817  1
