# generated using pymatgen
data_Fe3O4
_symmetry_space_group_name_H-M   'P 1'
_cell_length_a   5.98854422
_cell_length_b   6.11678759
_cell_length_c   8.53488845
_cell_angle_alpha   90.10138597
_cell_angle_beta   90.00000000
_cell_angle_gamma   90.00000000
_symmetry_Int_Tables_number   1
_chemical_formula_structural   Fe3O4
_chemical_formula_sum   'Fe12 O16'
_cell_volume   312.63804744
_cell_formula_units_Z   4
loop_
 _symmetry_equiv_pos_site_id
 _symmetry_equiv_pos_as_xyz
  1  'x, y, z'
loop_
 _atom_site_type_symbol
 _atom_site_label
 _atom_site_symmetry_multiplicity
 _atom_site_fract_x
 _atom_site_fract_y
 _atom_site_fract_z
 _atom_site_occupancy
  Fe  Fe0  1  0.00000000  0.00000000  0.50000000  1
  Fe  Fe1  1  0.00000000  0.50000000  0.50000000  1
  Fe  Fe2  1  0.50000000  0.00000000  0.00000000  1
  Fe  Fe3  1  0.50000000  0.50000000  0.00000000  1
  Fe  Fe4  1  0.50000000  0.75403687  0.37358281  1
  Fe  Fe5  1  0.50000000  0.24596313  0.62641719  1
  Fe  Fe6  1  0.00000000  0.75439751  0.12495754  1
  Fe  Fe7  1  0.00000000  0.24560249  0.87504246  1
  Fe  Fe8  1  0.75252337  0.25449850  0.25126064  1
  Fe  Fe9  1  0.75252337  0.74550150  0.74873936  1
  Fe  Fe10  1  0.24747663  0.25449850  0.25126064  1
  Fe  Fe11  1  0.24747663  0.74550150  0.74873936  1
  O  O12  1  0.00000000  0.99057028  0.73858694  1
  O  O13  1  0.00000000  0.49085242  0.24497954  1
  O  O14  1  0.00000000  0.50914758  0.75502046  1
  O  O15  1  0.00000000  0.00942972  0.26141306  1
  O  O16  1  0.23852483  0.76095256  0.50563401  1
  O  O17  1  0.23852483  0.23904744  0.49436599  1
  O  O18  1  0.76147517  0.23904744  0.49436599  1
  O  O19  1  0.76147517  0.76095256  0.50563401  1
  O  O20  1  0.26201859  0.23757701  0.00737502  1
  O  O21  1  0.26201859  0.76242299  0.99262498  1
  O  O22  1  0.73798141  0.76242299  0.99262498  1
  O  O23  1  0.73798141  0.23757701  0.00737502  1
  O  O24  1  0.50000000  0.50897840  0.74652151  1
  O  O25  1  0.50000000  0.01118908  0.24117179  1
  O  O26  1  0.50000000  0.49102160  0.25347849  1
  O  O27  1  0.50000000  0.98881092  0.75882821  1
