# generated using pymatgen
data_H3SNO3
_symmetry_space_group_name_H-M   'P 1'
_cell_length_a   8.18131103
_cell_length_b   8.13646623
_cell_length_c   9.38100200
_cell_angle_alpha   90.00000000
_cell_angle_beta   90.00000000
_cell_angle_gamma   90.00000000
_symmetry_Int_Tables_number   1
_chemical_formula_structural   H3SNO3
_chemical_formula_sum   'H24 S8 N8 O24'
_cell_volume   624.46479346
_cell_formula_units_Z   8
loop_
 _symmetry_equiv_pos_site_id
 _symmetry_equiv_pos_as_xyz
  1  'x, y, z'
loop_
 _atom_site_type_symbol
 _atom_site_label
 _atom_site_symmetry_multiplicity
 _atom_site_fract_x
 _atom_site_fract_y
 _atom_site_fract_z
 _atom_site_occupancy
  H  H0  1  0.59261011  0.35465003  0.42982440  1
  H  H1  1  0.09261011  0.14534997  0.57017560  1
  H  H2  1  0.40738989  0.85465003  0.07017560  1
  H  H3  1  0.90738989  0.64534997  0.92982440  1
  H  H4  1  0.40738989  0.64534997  0.57017560  1
  H  H5  1  0.90738989  0.85465003  0.42982440  1
  H  H6  1  0.59261011  0.14534997  0.92982440  1
  H  H7  1  0.09261011  0.35465003  0.07017560  1
  H  H8  1  0.42882709  0.25006833  0.36710951  1
  H  H9  1  0.92882709  0.24993167  0.63289049  1
  H  H10  1  0.57117291  0.75006833  0.13289049  1
  H  H11  1  0.07117291  0.74993167  0.86710951  1
  H  H12  1  0.57117291  0.74993167  0.63289049  1
  H  H13  1  0.07117291  0.75006833  0.36710951  1
  H  H14  1  0.42882709  0.24993167  0.86710951  1
  H  H15  1  0.92882709  0.25006833  0.13289049  1
  H  H16  1  0.51414918  0.19429741  0.52409397  1
  H  H17  1  0.01414918  0.30570259  0.47590603  1
  H  H18  1  0.48585082  0.69429741  0.97590603  1
  H  H19  1  0.98585082  0.80570259  0.02409397  1
  H  H20  1  0.48585082  0.80570259  0.47590603  1
  H  H21  1  0.98585082  0.69429741  0.52409397  1
  H  H22  1  0.51414918  0.30570259  0.02409397  1
  H  H23  1  0.01414918  0.19429741  0.97590603  1
  S  S24  1  0.66784374  0.09260644  0.32934008  1
  S  S25  1  0.16784374  0.40739356  0.67065992  1
  S  S26  1  0.33215626  0.59260644  0.17065992  1
  S  S27  1  0.83215626  0.90739356  0.82934008  1
  S  S28  1  0.33215626  0.90739356  0.67065992  1
  S  S29  1  0.83215626  0.59260644  0.32934008  1
  S  S30  1  0.66784374  0.40739356  0.82934008  1
  S  S31  1  0.16784374  0.09260644  0.17065992  1
  N  N32  1  0.53819168  0.23955542  0.42239469  1
  N  N33  1  0.03819168  0.26044458  0.57760531  1
  N  N34  1  0.46180832  0.73955542  0.07760531  1
  N  N35  1  0.96180832  0.76044458  0.92239469  1
  N  N36  1  0.46180832  0.76044458  0.57760531  1
  N  N37  1  0.96180832  0.73955542  0.42239469  1
  N  N38  1  0.53819168  0.26044458  0.92239469  1
  N  N39  1  0.03819168  0.23955542  0.07760531  1
  O  O40  1  0.55875591  0.95177448  0.32250440  1
  O  O41  1  0.05875591  0.54822552  0.67749560  1
  O  O42  1  0.44124409  0.45177448  0.17749560  1
  O  O43  1  0.94124409  0.04822552  0.82250440  1
  O  O44  1  0.44124409  0.04822552  0.67749560  1
  O  O45  1  0.94124409  0.45177448  0.32250440  1
  O  O46  1  0.55875591  0.54822552  0.82250440  1
  O  O47  1  0.05875591  0.95177448  0.17749560  1
  O  O48  1  0.80572732  0.07511542  0.42553339  1
  O  O49  1  0.30572732  0.42488458  0.57446661  1
  O  O50  1  0.19427268  0.57511542  0.07446661  1
  O  O51  1  0.69427268  0.92488458  0.92553339  1
  O  O52  1  0.19427268  0.92488458  0.57446661  1
  O  O53  1  0.69427268  0.57511542  0.42553339  1
  O  O54  1  0.80572732  0.42488458  0.92553339  1
  O  O55  1  0.30572732  0.07511542  0.07446661  1
  O  O56  1  0.70149978  0.17429444  0.19530146  1
  O  O57  1  0.20149978  0.32570556  0.80469854  1
  O  O58  1  0.29850022  0.67429444  0.30469854  1
  O  O59  1  0.79850022  0.82570556  0.69530146  1
  O  O60  1  0.29850022  0.82570556  0.80469854  1
  O  O61  1  0.79850022  0.67429444  0.19530146  1
  O  O62  1  0.70149978  0.32570556  0.69530146  1
  O  O63  1  0.20149978  0.17429444  0.30469854  1
