# generated using pymatgen
data_Ca3YMn3B4O15
_symmetry_space_group_name_H-M   'P 1'
_cell_length_a   10.64387274
_cell_length_b   10.65023377
_cell_length_c   6.03610614
_cell_angle_alpha   90.00000000
_cell_angle_beta   90.00000000
_cell_angle_gamma   119.67356756
_symmetry_Int_Tables_number   1
_chemical_formula_structural   Ca3YMn3B4O15
_chemical_formula_sum   'Ca6 Y2 Mn6 B8 O30'
_cell_volume   594.51864951
_cell_formula_units_Z   2
loop_
 _symmetry_equiv_pos_site_id
 _symmetry_equiv_pos_as_xyz
  1  'x, y, z'
loop_
 _atom_site_type_symbol
 _atom_site_label
 _atom_site_symmetry_multiplicity
 _atom_site_fract_x
 _atom_site_fract_y
 _atom_site_fract_z
 _atom_site_occupancy
  Ca  Ca0  1  0.15120762  0.26360720  0.25000000  1
  Ca  Ca1  1  0.31307465  0.13759040  0.75000000  1
  Ca  Ca2  1  0.73714020  0.89018131  0.25000000  1
  Ca  Ca3  1  0.82172325  0.68649409  0.75000000  1
  Ca  Ca4  1  0.66668218  0.33203898  0.75000000  1
  Ca  Ca5  1  0.86508220  0.17522122  0.75000000  1
  Y  Y6  1  0.10563277  0.84832506  0.25000000  1
  Y  Y7  1  0.33511733  0.66698628  0.25000000  1
  Mn  Mn8  1  0.99978445  0.49789107  0.00086908  1
  Mn  Mn9  1  0.50143073  0.50125515  0.00235315  1
  Mn  Mn10  1  0.50143073  0.50125515  0.49764685  1
  Mn  Mn11  1  0.49714000  0.99970486  0.00201746  1
  Mn  Mn12  1  0.49714000  0.99970486  0.49798254  1
  Mn  Mn13  1  0.99978445  0.49789107  0.49913092  1
  B  B14  1  0.21449192  0.76984779  0.75000000  1
  B  B15  1  0.00219509  0.99774878  0.00759866  1
  B  B16  1  0.00219509  0.99774878  0.49240134  1
  B  B17  1  0.23425840  0.45315546  0.75000000  1
  B  B18  1  0.54740557  0.78204045  0.75000000  1
  B  B19  1  0.45231839  0.22073318  0.25000000  1
  B  B20  1  0.76871765  0.55051767  0.25000000  1
  B  B21  1  0.77927420  0.23158800  0.25000000  1
  O  O22  1  0.16707335  0.69922099  0.95552766  1
  O  O23  1  0.16707335  0.69922099  0.54447234  1
  O  O24  1  0.10131814  0.47628903  0.25000000  1
  O  O25  1  0.31079415  0.91512532  0.75000000  1
  O  O26  1  0.08737205  0.39997700  0.75000000  1
  O  O27  1  0.36711537  0.89987699  0.25000000  1
  O  O28  1  0.30576082  0.47975369  0.95443523  1
  O  O29  1  0.30576082  0.47975369  0.54556477  1
  O  O30  1  0.51909233  0.82614103  0.95491427  1
  O  O31  1  0.51909233  0.82614103  0.54508573  1
  O  O32  1  0.15049610  0.05519540  0.02576837  1
  O  O33  1  0.15049610  0.05519540  0.47423163  1
  O  O34  1  0.52640390  0.62616332  0.25000000  1
  O  O35  1  0.40352172  0.31966863  0.25000000  1
  O  O36  1  0.60358350  0.69081422  0.75000000  1
  O  O37  1  0.47703296  0.38406709  0.75000000  1
  O  O38  1  0.47760282  0.17321551  0.45139768  1
  O  O39  1  0.47760282  0.17321551  0.04860232  1
  O  O40  1  0.69652236  0.52298033  0.45084718  1
  O  O41  1  0.69652236  0.52298033  0.04915282  1
  O  O42  1  0.92080941  0.84874866  0.02426622  1
  O  O43  1  0.92080941  0.84874866  0.47573378  1
  O  O44  1  0.61574444  0.09115730  0.75000000  1
  O  O45  1  0.91860540  0.60460873  0.25000000  1
  O  O46  1  0.67989624  0.08458705  0.25000000  1
  O  O47  1  0.90557339  0.52162114  0.75000000  1
  O  O48  1  0.82760769  0.30444014  0.45085889  1
  O  O49  1  0.82760769  0.30444014  0.04914111  1
  O  O50  1  0.93994103  0.08256295  0.01695486  1
  O  O51  1  0.93994103  0.08256295  0.48304514  1
