# generated using pymatgen
data_CuH12N2(Cl2O)2
_symmetry_space_group_name_H-M   'P 1'
_cell_length_a   7.63911139
_cell_length_b   7.63911139
_cell_length_c   7.95921471
_cell_angle_alpha   90.00000000
_cell_angle_beta   90.00000000
_cell_angle_gamma   90.00000000
_symmetry_Int_Tables_number   1
_chemical_formula_structural   CuH12N2(Cl2O)2
_chemical_formula_sum   'Cu2 H24 N4 Cl8 O4'
_cell_volume   464.46811532
_cell_formula_units_Z   2
loop_
 _symmetry_equiv_pos_site_id
 _symmetry_equiv_pos_as_xyz
  1  'x, y, z'
loop_
 _atom_site_type_symbol
 _atom_site_label
 _atom_site_symmetry_multiplicity
 _atom_site_fract_x
 _atom_site_fract_y
 _atom_site_fract_z
 _atom_site_occupancy
  Cu  Cu0  1  0.50000000  0.50000000  0.50000000  1
  Cu  Cu1  1  0.00000000  0.00000000  0.00000000  1
  H  H2  1  0.42503667  0.57496333  0.17627428  1
  H  H3  1  0.57496333  0.42503667  0.17627428  1
  H  H4  1  0.07496333  0.07496333  0.67627428  1
  H  H5  1  0.92503667  0.92503667  0.67627428  1
  H  H6  1  0.57496333  0.42503667  0.82372572  1
  H  H7  1  0.42503667  0.57496333  0.82372572  1
  H  H8  1  0.92503667  0.92503667  0.32372572  1
  H  H9  1  0.07496333  0.07496333  0.32372572  1
  H  H10  1  0.08579383  0.57025386  0.32463089  1
  H  H11  1  0.91420617  0.42974614  0.32463089  1
  H  H12  1  0.41420617  0.07025386  0.82463089  1
  H  H13  1  0.58579383  0.92974614  0.82463089  1
  H  H14  1  0.91420617  0.42974614  0.67536911  1
  H  H15  1  0.08579383  0.57025386  0.67536911  1
  H  H16  1  0.58579383  0.92974614  0.17536911  1
  H  H17  1  0.41420617  0.07025386  0.17536911  1
  H  H18  1  0.57025386  0.08579383  0.32463089  1
  H  H19  1  0.42974614  0.91420617  0.32463089  1
  H  H20  1  0.07025386  0.41420617  0.82463089  1
  H  H21  1  0.92974614  0.58579383  0.82463089  1
  H  H22  1  0.42974614  0.91420617  0.67536911  1
  H  H23  1  0.57025386  0.08579383  0.67536911  1
  H  H24  1  0.92974614  0.58579383  0.17536911  1
  H  H25  1  0.07025386  0.41420617  0.17536911  1
  N  N26  1  0.00000000  0.50000000  0.25000000  1
  N  N27  1  0.50000000  0.00000000  0.75000000  1
  N  N28  1  0.00000000  0.50000000  0.75000000  1
  N  N29  1  0.50000000  0.00000000  0.25000000  1
  Cl  Cl30  1  0.28882143  0.71117857  0.50000000  1
  Cl  Cl31  1  0.71117857  0.28882143  0.50000000  1
  Cl  Cl32  1  0.21117857  0.21117857  0.00000000  1
  Cl  Cl33  1  0.78882143  0.78882143  0.00000000  1
  Cl  Cl34  1  0.28335365  0.71664635  0.00000000  1
  Cl  Cl35  1  0.71664635  0.28335365  0.00000000  1
  Cl  Cl36  1  0.21664635  0.21664635  0.50000000  1
  Cl  Cl37  1  0.78335365  0.78335365  0.50000000  1
  O  O38  1  0.50000000  0.50000000  0.24983790  1
  O  O39  1  0.00000000  0.00000000  0.74983790  1
  O  O40  1  0.50000000  0.50000000  0.75016210  1
  O  O41  1  0.00000000  0.00000000  0.25016210  1
