# generated using pymatgen
data_KZnH4Br3O2
_symmetry_space_group_name_H-M   'P 1'
_cell_length_a   6.81272900
_cell_length_b   12.68105530
_cell_length_c   13.20794424
_cell_angle_alpha   90.00000000
_cell_angle_beta   130.45596939
_cell_angle_gamma   90.00000000
_symmetry_Int_Tables_number   1
_chemical_formula_structural   KZnH4Br3O2
_chemical_formula_sum   'K4 Zn4 H16 Br12 O8'
_cell_volume   868.24457154
_cell_formula_units_Z   4
loop_
 _symmetry_equiv_pos_site_id
 _symmetry_equiv_pos_as_xyz
  1  'x, y, z'
loop_
 _atom_site_type_symbol
 _atom_site_label
 _atom_site_symmetry_multiplicity
 _atom_site_fract_x
 _atom_site_fract_y
 _atom_site_fract_z
 _atom_site_occupancy
  K  K0  1  0.26191292  0.83148345  0.99165713  1
  K  K1  1  0.73808708  0.33148345  0.50834287  1
  K  K2  1  0.73808708  0.16851655  0.00834287  1
  K  K3  1  0.26191292  0.66851655  0.49165713  1
  Zn  Zn4  1  0.48011402  0.92819604  0.73981796  1
  Zn  Zn5  1  0.51988598  0.42819604  0.76018204  1
  Zn  Zn6  1  0.51988598  0.07180396  0.26018204  1
  Zn  Zn7  1  0.48011402  0.57180396  0.23981796  1
  H  H8  1  0.81187957  0.26245385  0.79708844  1
  H  H9  1  0.18812043  0.76245385  0.70291156  1
  H  H10  1  0.18812043  0.73754615  0.20291156  1
  H  H11  1  0.81187957  0.23754615  0.29708844  1
  H  H12  1  0.97449701  0.32862608  0.93365716  1
  H  H13  1  0.02550299  0.82862608  0.56634284  1
  H  H14  1  0.02550299  0.67137392  0.06634284  1
  H  H15  1  0.97449701  0.17137392  0.43365716  1
  H  H16  1  0.92833665  0.13839839  0.71491289  1
  H  H17  1  0.07166335  0.63839839  0.78508711  1
  H  H18  1  0.07166335  0.86160161  0.28508711  1
  H  H19  1  0.92833665  0.36160161  0.21491289  1
  H  H20  1  0.63951744  0.13766210  0.64996480  1
  H  H21  1  0.36048256  0.63766210  0.85003520  1
  H  H22  1  0.36048256  0.86233790  0.35003520  1
  H  H23  1  0.63951744  0.36233790  0.14996480  1
  Br  Br24  1  0.27709816  0.39877235  0.52556485  1
  Br  Br25  1  0.72290184  0.89877235  0.97443515  1
  Br  Br26  1  0.72290184  0.60122765  0.47443515  1
  Br  Br27  1  0.27709816  0.10122765  0.02556485  1
  Br  Br28  1  0.27824273  0.39412769  0.83002048  1
  Br  Br29  1  0.72175727  0.89412769  0.66997952  1
  Br  Br30  1  0.72175727  0.60587231  0.16997952  1
  Br  Br31  1  0.27824273  0.10587231  0.33002048  1
  Br  Br32  1  0.27737842  0.10019220  0.67461432  1
  Br  Br33  1  0.72262158  0.60019220  0.82538568  1
  Br  Br34  1  0.72262158  0.89980780  0.32538568  1
  Br  Br35  1  0.27737842  0.39980780  0.17461432  1
  O  O36  1  0.20176179  0.80621629  0.64386481  1
  O  O37  1  0.79823821  0.30621629  0.85613519  1
  O  O38  1  0.79823821  0.19378371  0.35613519  1
  O  O39  1  0.20176179  0.69378371  0.14386481  1
  O  O40  1  0.21424315  0.68497942  0.81380245  1
  O  O41  1  0.78575685  0.18497942  0.68619755  1
  O  O42  1  0.78575685  0.31502058  0.18619755  1
  O  O43  1  0.21424315  0.81502058  0.31380245  1
