# generated using pymatgen
data_CoH8SO8
_symmetry_space_group_name_H-M   'P 1'
_cell_length_a   6.01080862
_cell_length_b   13.66374337
_cell_length_c   7.94297610
_cell_angle_alpha   90.00000000
_cell_angle_beta   90.56329779
_cell_angle_gamma   90.00000000
_symmetry_Int_Tables_number   1
_chemical_formula_structural   CoH8SO8
_chemical_formula_sum   'Co4 H32 S4 O32'
_cell_volume   652.32626260
_cell_formula_units_Z   4
loop_
 _symmetry_equiv_pos_site_id
 _symmetry_equiv_pos_as_xyz
  1  'x, y, z'
loop_
 _atom_site_type_symbol
 _atom_site_label
 _atom_site_symmetry_multiplicity
 _atom_site_fract_x
 _atom_site_fract_y
 _atom_site_fract_z
 _atom_site_occupancy
  Co  Co0  1  0.43198060  0.60154323  0.28089924  1
  Co  Co1  1  0.93198060  0.89845677  0.78089924  1
  Co  Co2  1  0.56801940  0.39845677  0.71910076  1
  Co  Co3  1  0.06801940  0.10154323  0.21910076  1
  H  H4  1  0.13673519  0.58317548  0.02683579  1
  H  H5  1  0.63673519  0.91682452  0.52683579  1
  H  H6  1  0.86326481  0.41682452  0.97316421  1
  H  H7  1  0.36326481  0.08317548  0.47316421  1
  H  H8  1  0.04994118  0.51729407  0.17763098  1
  H  H9  1  0.54994118  0.98270593  0.67763098  1
  H  H10  1  0.95005882  0.48270593  0.82236902  1
  H  H11  1  0.45005882  0.01729407  0.32236902  1
  H  H12  1  0.81371527  0.68666598  0.35040207  1
  H  H13  1  0.31371527  0.81333402  0.85040207  1
  H  H14  1  0.18628473  0.31333402  0.64959793  1
  H  H15  1  0.68628473  0.18666598  0.14959793  1
  H  H16  1  0.81818467  0.58831545  0.45675299  1
  H  H17  1  0.31818467  0.91168455  0.95675299  1
  H  H18  1  0.18181533  0.41168455  0.54324701  1
  H  H19  1  0.68181533  0.08831545  0.04324701  1
  H  H20  1  0.69779469  0.68485701  0.05161240  1
  H  H21  1  0.19779469  0.81514299  0.55161240  1
  H  H22  1  0.30220531  0.31514299  0.94838760  1
  H  H23  1  0.80220531  0.18485701  0.44838760  1
  H  H24  1  0.57402768  0.60019577  0.94647970  1
  H  H25  1  0.07402768  0.89980423  0.44647970  1
  H  H26  1  0.42597232  0.39980423  0.05352030  1
  H  H27  1  0.92597232  0.10019577  0.55352030  1
  H  H28  1  0.19269951  0.76081498  0.21702792  1
  H  H29  1  0.69269951  0.73918502  0.71702792  1
  H  H30  1  0.80730049  0.23918502  0.78297208  1
  H  H31  1  0.30730049  0.26081498  0.28297208  1
  H  H32  1  0.42633830  0.80473275  0.27740879  1
  H  H33  1  0.92633830  0.69526725  0.77740879  1
  H  H34  1  0.57366170  0.19526725  0.72259121  1
  H  H35  1  0.07366170  0.30473275  0.22259121  1
  S  S36  1  0.30360580  0.60901039  0.67877939  1
  S  S37  1  0.80360580  0.89098961  0.17877939  1
  S  S38  1  0.69639420  0.39098961  0.32122061  1
  S  S39  1  0.19639420  0.10901039  0.82122061  1
  O  O40  1  0.49722685  0.55128775  0.74743311  1
  O  O41  1  0.99722685  0.94871225  0.24743311  1
  O  O42  1  0.50277315  0.44871225  0.25256689  1
  O  O43  1  0.00277315  0.05128775  0.75256689  1
  O  O44  1  0.24694413  0.57324343  0.50558365  1
  O  O45  1  0.74694413  0.92675657  0.00558365  1
  O  O46  1  0.75305587  0.42675657  0.49441635  1
  O  O47  1  0.25305587  0.07324343  0.99441635  1
  O  O48  1  0.10442968  0.59296729  0.78870340  1
  O  O49  1  0.60442968  0.90703271  0.28870340  1
  O  O50  1  0.89557032  0.40703271  0.21129660  1
  O  O51  1  0.39557032  0.09296729  0.71129660  1
  O  O52  1  0.36318497  0.71426936  0.68043635  1
  O  O53  1  0.86318497  0.78573064  0.18043635  1
  O  O54  1  0.63681503  0.28573064  0.31956365  1
  O  O55  1  0.13681503  0.21426936  0.81956365  1
  O  O56  1  0.13384779  0.57760138  0.15048538  1
  O  O57  1  0.63384779  0.92239862  0.65048538  1
  O  O58  1  0.86615221  0.42239862  0.84951462  1
  O  O59  1  0.36615221  0.07760138  0.34951462  1
  O  O60  1  0.72310179  0.64279387  0.41975098  1
  O  O61  1  0.22310179  0.85720613  0.91975098  1
  O  O62  1  0.27689821  0.35720613  0.58024902  1
  O  O63  1  0.77689821  0.14279387  0.08024902  1
  O  O64  1  0.61091179  0.62421884  0.06120541  1
  O  O65  1  0.11091179  0.87578116  0.56120541  1
  O  O66  1  0.38908821  0.37578116  0.93879459  1
  O  O67  1  0.88908821  0.12421884  0.43879459  1
  O  O68  1  0.32489539  0.74776377  0.28740887  1
  O  O69  1  0.82489539  0.75223623  0.78740887  1
  O  O70  1  0.67510461  0.25223623  0.71259113  1
  O  O71  1  0.17510461  0.24776377  0.21259113  1
