# generated using pymatgen
data_Mg2Cu2P2(H4O5)3
_symmetry_space_group_name_H-M   'P 1'
_cell_length_a   5.04591584
_cell_length_b   11.61674441
_cell_length_c   10.59234403
_cell_angle_alpha   80.03790020
_cell_angle_beta   90.01784928
_cell_angle_gamma   77.44920069
_symmetry_Int_Tables_number   1
_chemical_formula_structural   Mg2Cu2P2(H4O5)3
_chemical_formula_sum   'Mg4 Cu4 P4 H24 O30'
_cell_volume   596.45362900
_cell_formula_units_Z   2
loop_
 _symmetry_equiv_pos_site_id
 _symmetry_equiv_pos_as_xyz
  1  'x, y, z'
loop_
 _atom_site_type_symbol
 _atom_site_label
 _atom_site_symmetry_multiplicity
 _atom_site_fract_x
 _atom_site_fract_y
 _atom_site_fract_z
 _atom_site_occupancy
  Mg  Mg0  1  0.95357898  0.76121364  0.96500800  1
  Mg  Mg1  1  0.28339090  0.76031328  0.46490419  1
  Mg  Mg2  1  0.71935251  0.23974054  0.53560843  1
  Mg  Mg3  1  0.04328693  0.24049436  0.03574387  1
  Cu  Cu4  1  0.09637437  0.50827607  0.86741649  1
  Cu  Cu5  1  0.60498324  0.49364931  0.63290150  1
  Cu  Cu6  1  0.39742582  0.50797441  0.36668997  1
  Cu  Cu7  1  0.90295385  0.49235888  0.13290409  1
  P  P8  1  0.47671278  0.69350743  0.77204084  1
  P  P9  1  0.82907124  0.69162169  0.27234800  1
  P  P10  1  0.17240257  0.30834826  0.72855206  1
  P  P11  1  0.52156521  0.30797557  0.22827445  1
  H  H12  1  0.55878733  0.96179600  0.85665203  1
  H  H13  1  0.22729811  0.92408315  0.76719870  1
  H  H14  1  0.48264105  0.96057741  0.35981908  1
  H  H15  1  0.03525813  0.81946408  0.66704499  1
  H  H16  1  0.84814822  0.92440057  0.26715151  1
  H  H17  1  0.14541766  0.81726392  0.16561099  1
  H  H18  1  0.79277941  0.79941077  0.58784281  1
  H  H19  1  0.41119666  0.79751242  0.08858931  1
  H  H20  1  0.66938577  0.45717502  0.93067175  1
  H  H21  1  0.13297257  0.53964136  0.56987365  1
  H  H22  1  0.87337389  0.45881437  0.43389557  1
  H  H23  1  0.32822988  0.54334572  0.07008201  1
  H  H24  1  0.59150340  0.20189222  0.91507665  1
  H  H25  1  0.21484525  0.20067806  0.41343783  1
  H  H26  1  0.85372545  0.18309495  0.83487921  1
  H  H27  1  0.14949427  0.07115411  0.73081382  1
  H  H28  1  0.97259784  0.18077662  0.33390753  1
  H  H29  1  0.51904885  0.03972150  0.64079781  1
  H  H30  1  0.77515838  0.00689835  0.93057648  1
  H  H31  1  0.78497279  0.07110295  0.23345199  1
  H  H32  1  0.78001671  0.99491272  0.56703435  1
  H  H33  1  0.44320021  0.04260089  0.14206234  1
  H  H34  1  0.22221234  0.00338806  0.43509770  1
  H  H35  1  0.22840289  0.99583035  0.06913691  1
  O  O36  1  0.72982375  0.93348825  0.91072332  1
  O  O37  1  0.33541175  0.93148319  0.40942519  1
  O  O38  1  0.95622140  0.83602046  0.57728610  1
  O  O39  1  0.21391345  0.77534441  0.81026568  1
  O  O40  1  0.21058558  0.83380167  0.07664803  1
  O  O41  1  0.53397597  0.73381581  0.63002587  1
  O  O42  1  0.00776322  0.77408059  0.31064155  1
  O  O43  1  0.71961904  0.68537160  0.86061418  1
  O  O44  1  0.73209501  0.73149365  0.13025882  1
  O  O45  1  0.59312842  0.68301224  0.36044888  1
  O  O46  1  0.42171242  0.56029258  0.78199814  1
  O  O47  1  0.27100846  0.57453377  0.52141360  1
  O  O48  1  0.01797358  0.55842260  0.28303372  1
  O  O49  1  0.84452472  0.42570930  0.97805032  1
  O  O50  1  0.15375372  0.57521546  0.02195617  1
  O  O51  1  0.98399680  0.44226875  0.71650414  1
  O  O52  1  0.72997149  0.42582361  0.47946779  1
  O  O53  1  0.57322916  0.44233613  0.21549484  1
  O  O54  1  0.40986597  0.31586684  0.64148140  1
  O  O55  1  0.26659721  0.27025638  0.87121446  1
  O  O56  1  0.27552808  0.31512313  0.14170541  1
  O  O57  1  0.99350251  0.22585725  0.69041679  1
  O  O58  1  0.46775818  0.26935632  0.37086850  1
  O  O59  1  0.79164297  0.16544146  0.92445500  1
  O  O60  1  0.78302892  0.22633819  0.18937925  1
  O  O61  1  0.04977236  0.16495411  0.42364733  1
  O  O62  1  0.66052480  0.06850171  0.58620924  1
  O  O63  1  0.29777587  0.99836973  0.74714355  1
  O  O64  1  0.27019243  0.06966833  0.08938120  1
  O  O65  1  0.70552231  0.99960745  0.24994661  1
