# generated using pymatgen
data_CoH9C4NO6
_symmetry_space_group_name_H-M   'P 1'
_cell_length_a   8.22679264
_cell_length_b   8.51008295
_cell_length_c   11.89637442
_cell_angle_alpha   90.00000000
_cell_angle_beta   90.00000000
_cell_angle_gamma   90.00000000
_symmetry_Int_Tables_number   1
_chemical_formula_structural   CoH9C4NO6
_chemical_formula_sum   'Co4 H36 C16 N4 O24'
_cell_volume   832.87335522
_cell_formula_units_Z   4
loop_
 _symmetry_equiv_pos_site_id
 _symmetry_equiv_pos_as_xyz
  1  'x, y, z'
loop_
 _atom_site_type_symbol
 _atom_site_label
 _atom_site_symmetry_multiplicity
 _atom_site_fract_x
 _atom_site_fract_y
 _atom_site_fract_z
 _atom_site_occupancy
  Co  Co0  1  0.00000000  -0.00000000  0.50000000  1
  Co  Co1  1  0.50000000  0.50000000  -0.00000000  1
  Co  Co2  1  0.00000000  -0.00000000  -0.00000000  1
  Co  Co3  1  0.50000000  0.50000000  0.50000000  1
  H  H4  1  0.51298575  0.14806724  0.67861858  1
  H  H5  1  0.98701425  0.64806724  0.82138142  1
  H  H6  1  0.48701425  0.85193276  0.17861858  1
  H  H7  1  0.01298575  0.35193276  0.32138142  1
  H  H8  1  0.48701425  0.85193276  0.32138142  1
  H  H9  1  0.01298575  0.35193276  0.17861858  1
  H  H10  1  0.51298575  0.14806724  0.82138142  1
  H  H11  1  0.98701425  0.64806724  0.67861858  1
  H  H12  1  0.47890676  0.86246242  0.67483231  1
  H  H13  1  0.02109324  0.36246242  0.82516769  1
  H  H14  1  0.52109324  0.13753758  0.17483231  1
  H  H15  1  0.97890676  0.63753758  0.32516769  1
  H  H16  1  0.52109324  0.13753758  0.32516769  1
  H  H17  1  0.97890676  0.63753758  0.17483231  1
  H  H18  1  0.47890676  0.86246242  0.82516769  1
  H  H19  1  0.02109324  0.36246242  0.67483231  1
  H  H20  1  0.34456230  0.08928976  0.75000000  1
  H  H21  1  0.15543770  0.58928976  0.75000000  1
  H  H22  1  0.65543770  0.91071024  0.25000000  1
  H  H23  1  0.84456230  0.41071024  0.25000000  1
  H  H24  1  0.65811928  0.91741413  0.75000000  1
  H  H25  1  0.84188072  0.41741413  0.75000000  1
  H  H26  1  0.34188072  0.08258587  0.25000000  1
  H  H27  1  0.15811928  0.58258587  0.25000000  1
  H  H28  1  0.21922027  0.71811330  0.54255568  1
  H  H29  1  0.28077973  0.21811330  0.95744432  1
  H  H30  1  0.78077973  0.28188670  0.04255568  1
  H  H31  1  0.71922027  0.78188670  0.45744432  1
  H  H32  1  0.78077973  0.28188670  0.45744432  1
  H  H33  1  0.71922027  0.78188670  0.04255568  1
  H  H34  1  0.21922027  0.71811330  0.95744432  1
  H  H35  1  0.28077973  0.21811330  0.54255568  1
  H  H36  1  0.91690652  0.99466286  0.75000000  1
  H  H37  1  0.58309348  0.49466286  0.75000000  1
  H  H38  1  0.08309348  0.00533714  0.25000000  1
  H  H39  1  0.41690652  0.50533714  0.25000000  1
  C  C40  1  0.05001975  0.01397815  0.75000000  1
  C  C41  1  0.44998025  0.51397815  0.75000000  1
  C  C42  1  0.94998025  0.98602185  0.25000000  1
  C  C43  1  0.55001975  0.48602185  0.25000000  1
  C  C44  1  0.28004535  0.78124967  0.47310127  1
  C  C45  1  0.21995465  0.28124967  0.02689873  1
  C  C46  1  0.71995465  0.21875033  0.97310127  1
  C  C47  1  0.78004535  0.71875033  0.52689873  1
  C  C48  1  0.71995465  0.21875033  0.52689873  1
  C  C49  1  0.78004535  0.71875033  0.97310127  1
  C  C50  1  0.28004535  0.78124967  0.02689873  1
  C  C51  1  0.21995465  0.28124967  0.47310127  1
  C  C52  1  0.52555092  0.92114905  0.75000000  1
  C  C53  1  0.97444908  0.42114905  0.75000000  1
  C  C54  1  0.47444908  0.07885095  0.25000000  1
  C  C55  1  0.02555092  0.57885095  0.25000000  1
  N  N56  1  0.47079406  0.08758805  0.75000000  1
  N  N57  1  0.02920594  0.58758805  0.75000000  1
  N  N58  1  0.52920594  0.91241195  0.25000000  1
  N  N59  1  0.97079406  0.41241195  0.25000000  1
  O  O60  1  0.21312981  0.90329546  0.43377568  1
  O  O61  1  0.28687019  0.40329546  0.06622432  1
  O  O62  1  0.78687019  0.09670454  0.93377568  1
  O  O63  1  0.71312981  0.59670454  0.56622432  1
  O  O64  1  0.78687019  0.09670454  0.56622432  1
  O  O65  1  0.71312981  0.59670454  0.93377568  1
  O  O66  1  0.21312981  0.90329546  0.06622432  1
  O  O67  1  0.28687019  0.40329546  0.43377568  1
  O  O68  1  0.41466079  0.72585833  0.43720467  1
  O  O69  1  0.08533921  0.22585833  0.06279533  1
  O  O70  1  0.58533921  0.27414167  0.93720467  1
  O  O71  1  0.91466079  0.77414167  0.56279533  1
  O  O72  1  0.58533921  0.27414167  0.56279533  1
  O  O73  1  0.91466079  0.77414167  0.93720467  1
  O  O74  1  0.41466079  0.72585833  0.06279533  1
  O  O75  1  0.08533921  0.22585833  0.43720467  1
  O  O76  1  0.12268389  0.02562439  0.65612939  1
  O  O77  1  0.37731611  0.52562439  0.84387061  1
  O  O78  1  0.87731611  0.97437561  0.15612939  1
  O  O79  1  0.62268389  0.47437561  0.34387061  1
  O  O80  1  0.87731611  0.97437561  0.34387061  1
  O  O81  1  0.62268389  0.47437561  0.15612939  1
  O  O82  1  0.12268389  0.02562439  0.84387061  1
  O  O83  1  0.37731611  0.52562439  0.65612939  1
