# generated using pymatgen
data_Li2CuF4
_symmetry_space_group_name_H-M   'P 1'
_cell_length_a   5.23599724
_cell_length_b   5.73685826
_cell_length_c   5.81110832
_cell_angle_alpha   61.39145168
_cell_angle_beta   89.99898570
_cell_angle_gamma   90.00396855
_symmetry_Int_Tables_number   1
_chemical_formula_structural   Li2CuF4
_chemical_formula_sum   'Li4 Cu2 F8'
_cell_volume   153.24392223
_cell_formula_units_Z   2
loop_
 _symmetry_equiv_pos_site_id
 _symmetry_equiv_pos_as_xyz
  1  'x, y, z'
loop_
 _atom_site_type_symbol
 _atom_site_label
 _atom_site_symmetry_multiplicity
 _atom_site_fract_x
 _atom_site_fract_y
 _atom_site_fract_z
 _atom_site_occupancy
  Li  Li0  1  0.03931800  0.54743444  0.92876089  1
  Li  Li1  1  0.46073389  0.54730831  0.42882276  1
  Li  Li2  1  0.52049797  0.33772848  0.99221702  1
  Li  Li3  1  0.97949805  0.33791884  0.49228819  1
  Cu  Cu4  1  0.50546308  0.98646383  0.53260883  1
  Cu  Cu5  1  0.99453161  0.98658992  0.03262182  1
  F  F6  1  0.15570106  0.63923003  0.21581423  1
  F  F7  1  0.19827446  0.17180436  0.17146922  1
  F  F8  1  0.30177845  0.17178358  0.67160504  1
  F  F9  1  0.34424212  0.63923754  0.71570598  1
  F  F10  1  0.66925365  0.33571245  0.30988942  1
  F  F11  1  0.67770072  0.85582993  0.32584560  1
  F  F12  1  0.82228157  0.85577555  0.82589221  1
  F  F13  1  0.83072736  0.33573273  0.80987080  1
