# generated using pymatgen
data_Rb3HoO3
_symmetry_space_group_name_H-M   'P 1'
_cell_length_a   7.33963253
_cell_length_b   7.33963253
_cell_length_c   7.29234526
_cell_angle_alpha   85.18682706
_cell_angle_beta   94.81317294
_cell_angle_gamma   63.56519258
_symmetry_Int_Tables_number   1
_chemical_formula_structural   Rb3HoO3
_chemical_formula_sum   'Rb6 Ho2 O6'
_cell_volume   347.27295611
_cell_formula_units_Z   2
loop_
 _symmetry_equiv_pos_site_id
 _symmetry_equiv_pos_as_xyz
  1  'x, y, z'
loop_
 _atom_site_type_symbol
 _atom_site_label
 _atom_site_symmetry_multiplicity
 _atom_site_fract_x
 _atom_site_fract_y
 _atom_site_fract_z
 _atom_site_occupancy
  Rb  Rb0  1  0.36293996  0.63706004  0.64303062  1
  Rb  Rb1  1  0.79394529  0.79394529  0.50000000  1
  Rb  Rb2  1  0.20605471  0.20605471  0.50000000  1
  Rb  Rb3  1  0.26053852  0.26053852  0.00000000  1
  Rb  Rb4  1  0.73946148  0.73946148  0.00000000  1
  Rb  Rb5  1  0.63706004  0.36293996  0.35696938  1
  Ho  Ho6  1  0.17693120  0.82306880  0.14884742  1
  Ho  Ho7  1  0.82306880  0.17693120  0.85115258  1
  O  O8  1  0.10221295  0.89778705  0.84572347  1
  O  O9  1  0.16864693  0.55519974  0.26752337  1
  O  O10  1  0.44480026  0.83135307  0.26752337  1
  O  O11  1  0.55519974  0.16864693  0.73247663  1
  O  O12  1  0.83135307  0.44480026  0.73247663  1
  O  O13  1  0.89778705  0.10221295  0.15427653  1
