# generated using pymatgen
data_Er(ReO4)2
_symmetry_space_group_name_H-M   'P 1'
_cell_length_a   6.05613371
_cell_length_b   6.05454816
_cell_length_c   6.27779345
_cell_angle_alpha   90.01298948
_cell_angle_beta   90.01760643
_cell_angle_gamma   59.99773277
_symmetry_Int_Tables_number   1
_chemical_formula_structural   Er(ReO4)2
_chemical_formula_sum   'Er1 Re2 O8'
_cell_volume   199.34479591
_cell_formula_units_Z   1
loop_
 _symmetry_equiv_pos_site_id
 _symmetry_equiv_pos_as_xyz
  1  'x, y, z'
loop_
 _atom_site_type_symbol
 _atom_site_label
 _atom_site_symmetry_multiplicity
 _atom_site_fract_x
 _atom_site_fract_y
 _atom_site_fract_z
 _atom_site_occupancy
  Er  Er0  1  0.00188178  0.99770731  0.00000937  1
  Re  Re1  1  0.66714996  0.66593257  0.70302957  1
  Re  Re2  1  0.33370982  0.33263544  0.29695581  1
  O  O3  1  0.34895040  0.86110059  0.79757723  1
  O  O4  1  0.21087170  0.65085829  0.20267188  1
  O  O5  1  0.13899001  0.21005908  0.20079799  1
  O  O6  1  0.66470060  0.66956501  0.42503633  1
  O  O7  1  0.33144117  0.33617222  0.57499229  1
  O  O8  1  0.86210126  0.78855912  0.79852291  1
  O  O9  1  0.78937002  0.34933153  0.80074313  1
  O  O10  1  0.65063428  0.13827785  0.19966450  1
