# generated using pymatgen
data_Cd4NiH20(ClO)10
_symmetry_space_group_name_H-M   'P 1'
_cell_length_a   6.72840344
_cell_length_b   12.04719891
_cell_length_c   16.46402135
_cell_angle_alpha   90.00000000
_cell_angle_beta   109.08284641
_cell_angle_gamma   90.00000000
_symmetry_Int_Tables_number   1
_chemical_formula_structural   Cd4NiH20(ClO)10
_chemical_formula_sum   'Cd8 Ni2 H40 Cl20 O20'
_cell_volume   1261.20986127
_cell_formula_units_Z   2
loop_
 _symmetry_equiv_pos_site_id
 _symmetry_equiv_pos_as_xyz
  1  'x, y, z'
loop_
 _atom_site_type_symbol
 _atom_site_label
 _atom_site_symmetry_multiplicity
 _atom_site_fract_x
 _atom_site_fract_y
 _atom_site_fract_z
 _atom_site_occupancy
  Cd  Cd0  1  0.80566511  0.48319950  0.56815773  1
  Cd  Cd1  1  0.19433489  0.98319950  0.93184227  1
  Cd  Cd2  1  0.19433489  0.51680050  0.43184227  1
  Cd  Cd3  1  0.80566511  0.01680050  0.06815773  1
  Cd  Cd4  1  0.38986639  0.47512011  0.69077101  1
  Cd  Cd5  1  0.61013361  0.97512011  0.80922899  1
  Cd  Cd6  1  0.61013361  0.52487989  0.30922899  1
  Cd  Cd7  1  0.38986639  0.02487989  0.19077101  1
  Ni  Ni8  1  0.00000000  0.50000000  0.00000000  1
  Ni  Ni9  1  0.00000000  0.00000000  0.50000000  1
  H  H10  1  0.59619825  0.25635377  0.74239595  1
  H  H11  1  0.40380175  0.75635377  0.75760405  1
  H  H12  1  0.40380175  0.74364623  0.25760405  1
  H  H13  1  0.59619825  0.24364623  0.24239595  1
  H  H14  1  0.71373996  0.34197048  0.81473779  1
  H  H15  1  0.28626004  0.84197048  0.68526221  1
  H  H16  1  0.28626004  0.65802952  0.18526221  1
  H  H17  1  0.71373996  0.15802952  0.31473779  1
  H  H18  1  0.11533452  0.30068154  0.07670347  1
  H  H19  1  0.88466548  0.80068154  0.42329653  1
  H  H20  1  0.88466548  0.69931846  0.92329653  1
  H  H21  1  0.11533452  0.19931846  0.57670347  1
  H  H22  1  0.31780364  0.37646269  0.10194060  1
  H  H23  1  0.68219636  0.87646269  0.39805940  1
  H  H24  1  0.68219636  0.62353731  0.89805940  1
  H  H25  1  0.31780364  0.12353731  0.60194060  1
  H  H26  1  0.94588708  0.48458935  0.83291660  1
  H  H27  1  0.05411292  0.98458935  0.66708340  1
  H  H28  1  0.05411292  0.51541065  0.16708340  1
  H  H29  1  0.94588708  0.01541065  0.33291660  1
  H  H30  1  0.10222298  0.38936325  0.88391918  1
  H  H31  1  0.89777702  0.88936325  0.61608082  1
  H  H32  1  0.89777702  0.61063675  0.11608082  1
  H  H33  1  0.10222298  0.11063675  0.38391918  1
  H  H34  1  0.69349496  0.42328554  0.05445635  1
  H  H35  1  0.30650504  0.92328554  0.44554365  1
  H  H36  1  0.30650504  0.57671446  0.94554365  1
  H  H37  1  0.69349496  0.07671446  0.55445635  1
  H  H38  1  0.60466830  0.39262501  0.95564843  1
  H  H39  1  0.39533170  0.89262501  0.54435157  1
  H  H40  1  0.39533170  0.60737499  0.04435157  1
  H  H41  1  0.60466830  0.10737499  0.45564843  1
  H  H42  1  0.36003912  0.26720683  0.94583855  1
  H  H43  1  0.63996088  0.76720683  0.55416145  1
  H  H44  1  0.63996088  0.73279317  0.05416145  1
  H  H45  1  0.36003912  0.23279317  0.44583855  1
  H  H46  1  0.35293878  0.28428711  0.85145868  1
  H  H47  1  0.64706122  0.78428711  0.64854132  1
  H  H48  1  0.64706122  0.71571289  0.14854132  1
  H  H49  1  0.35293878  0.21571289  0.35145868  1
  Cl  Cl50  1  0.44700413  0.37363061  0.54489115  1
  Cl  Cl51  1  0.55299587  0.87363061  0.95510885  1
  Cl  Cl52  1  0.55299587  0.62636939  0.45510885  1
  Cl  Cl53  1  0.44700413  0.12636939  0.04489115  1
  Cl  Cl54  1  0.73673774  0.57813998  0.70039651  1
  Cl  Cl55  1  0.26326226  0.07813998  0.79960349  1
  Cl  Cl56  1  0.26326226  0.42186002  0.29960349  1
  Cl  Cl57  1  0.73673774  0.92186002  0.20039651  1
  Cl  Cl58  1  0.86392436  0.38824115  0.42813383  1
  Cl  Cl59  1  0.13607564  0.88824115  0.07186617  1
  Cl  Cl60  1  0.13607564  0.61175885  0.57186617  1
  Cl  Cl61  1  0.86392436  0.11175885  0.92813383  1
  Cl  Cl62  1  0.06706634  0.34487628  0.66695225  1
  Cl  Cl63  1  0.93293366  0.84487628  0.83304775  1
  Cl  Cl64  1  0.93293366  0.65512372  0.33304775  1
  Cl  Cl65  1  0.06706634  0.15512372  0.16695225  1
  Cl  Cl66  1  0.36914108  0.59526140  0.81900630  1
  Cl  Cl67  1  0.63085892  0.09526140  0.68099370  1
  Cl  Cl68  1  0.63085892  0.40473860  0.18099370  1
  Cl  Cl69  1  0.36914108  0.90473860  0.31900630  1
  O  O70  1  0.57384815  0.32108073  0.77549989  1
  O  O71  1  0.42615185  0.82108073  0.72450011  1
  O  O72  1  0.42615185  0.67891927  0.22450011  1
  O  O73  1  0.57384815  0.17891927  0.27549989  1
  O  O74  1  0.17996669  0.36366780  0.05692906  1
  O  O75  1  0.82003331  0.86366780  0.44307094  1
  O  O76  1  0.82003331  0.63633220  0.94307094  1
  O  O77  1  0.17996669  0.13633220  0.55692906  1
  O  O78  1  0.96792296  0.42935931  0.87903432  1
  O  O79  1  0.03207704  0.92935931  0.62096568  1
  O  O80  1  0.03207704  0.57064069  0.12096568  1
  O  O81  1  0.96792296  0.07064069  0.37903432  1
  O  O82  1  0.73293071  0.41578074  0.00215549  1
  O  O83  1  0.26706929  0.91578074  0.49784451  1
  O  O84  1  0.26706929  0.58421926  0.99784451  1
  O  O85  1  0.73293071  0.08421926  0.50215549  1
  O  O86  1  0.34615988  0.32511089  0.90214769  1
  O  O87  1  0.65384012  0.82511089  0.59785231  1
  O  O88  1  0.65384012  0.67488911  0.09785231  1
  O  O89  1  0.34615988  0.17488911  0.40214769  1
