# generated using pymatgen
data_HoHO2
_symmetry_space_group_name_H-M   'P 1'
_cell_length_a   4.96319245
_cell_length_b   11.08569136
_cell_length_c   3.52717941
_cell_angle_alpha   90.00000000
_cell_angle_beta   90.00000000
_cell_angle_gamma   90.00000000
_symmetry_Int_Tables_number   1
_chemical_formula_structural   HoHO2
_chemical_formula_sum   'Ho4 H4 O8'
_cell_volume   194.06689136
_cell_formula_units_Z   4
loop_
 _symmetry_equiv_pos_site_id
 _symmetry_equiv_pos_as_xyz
  1  'x, y, z'
loop_
 _atom_site_type_symbol
 _atom_site_label
 _atom_site_symmetry_multiplicity
 _atom_site_fract_x
 _atom_site_fract_y
 _atom_site_fract_z
 _atom_site_occupancy
  Ho  Ho0  1  0.06810337  0.85487098  0.25000000  1
  Ho  Ho1  1  0.43189663  0.35487098  0.25000000  1
  Ho  Ho2  1  0.56810337  0.64512902  0.75000000  1
  Ho  Ho3  1  0.93189663  0.14512902  0.75000000  1
  H  H4  1  0.11007046  0.58762695  0.25000000  1
  H  H5  1  0.38992954  0.08762695  0.25000000  1
  H  H6  1  0.61007046  0.91237305  0.75000000  1
  H  H7  1  0.88992954  0.41237305  0.75000000  1
  O  O8  1  0.19924438  0.05937835  0.25000000  1
  O  O9  1  0.18845793  0.30663212  0.75000000  1
  O  O10  1  0.31154207  0.80663212  0.75000000  1
  O  O11  1  0.30075562  0.55937835  0.25000000  1
  O  O12  1  0.69924438  0.44062165  0.75000000  1
  O  O13  1  0.68845793  0.19336788  0.25000000  1
  O  O14  1  0.81154207  0.69336788  0.25000000  1
  O  O15  1  0.80075562  0.94062165  0.75000000  1
