# generated using pymatgen
data_VH7(CO2)4
_symmetry_space_group_name_H-M   'P 1'
_cell_length_a   7.66733561
_cell_length_b   7.68819467
_cell_length_c   8.29587643
_cell_angle_alpha   107.09044944
_cell_angle_beta   94.64031245
_cell_angle_gamma   114.53301707
_symmetry_Int_Tables_number   1
_chemical_formula_structural   VH7(CO2)4
_chemical_formula_sum   'V2 H14 C8 O16'
_cell_volume   413.49082674
_cell_formula_units_Z   2
loop_
 _symmetry_equiv_pos_site_id
 _symmetry_equiv_pos_as_xyz
  1  'x, y, z'
loop_
 _atom_site_type_symbol
 _atom_site_label
 _atom_site_symmetry_multiplicity
 _atom_site_fract_x
 _atom_site_fract_y
 _atom_site_fract_z
 _atom_site_occupancy
  V  V0  1  0.18878986  0.19357347  0.10453964  1
  V  V1  1  0.81121014  0.80642653  0.89546036  1
  H  H2  1  0.36142074  0.60466019  0.26366835  1
  H  H3  1  0.63857926  0.39533981  0.73633165  1
  H  H4  1  0.28332405  0.54830476  0.05530564  1
  H  H5  1  0.71667595  0.45169524  0.94469436  1
  H  H6  1  0.08292681  0.84698807  0.14870204  1
  H  H7  1  0.91707319  0.15301193  0.85129796  1
  H  H8  1  0.57188568  0.30017628  0.20903011  1
  H  H9  1  0.42811432  0.69982372  0.79096989  1
  H  H10  1  0.46054257  0.23513733  0.36327022  1
  H  H11  1  0.53945743  0.76486267  0.63672978  1
  H  H12  1  0.11800599  0.48478839  0.78742968  1
  H  H13  1  0.88199401  0.51521161  0.21257032  1
  H  H14  1  0.17734336  0.71294109  0.91342312  1
  H  H15  1  0.82265664  0.28705891  0.08657688  1
  C  C16  1  0.25366260  0.06830519  0.74294222  1
  C  C17  1  0.74633740  0.93169481  0.25705778  1
  C  C18  1  0.32585562  0.07648874  0.58584221  1
  C  C19  1  0.67414438  0.92351126  0.41415779  1
  C  C20  1  0.14568674  0.88239043  0.48170205  1
  C  C21  1  0.85431326  0.11760957  0.51829795  1
  C  C22  1  0.07420949  0.88118432  0.64146504  1
  C  C23  1  0.92579051  0.11881568  0.35853496  1
  O  O24  1  0.32173003  0.18826930  0.90037074  1
  O  O25  1  0.67826997  0.81173070  0.09962926  1
  O  O26  1  0.47466452  0.20635302  0.55644001  1
  O  O27  1  0.52533548  0.79364698  0.44355999  1
  O  O28  1  0.07550068  0.77116256  0.32376864  1
  O  O29  1  0.92449932  0.22883744  0.67623136  1
  O  O30  1  0.91363326  0.76905622  0.67124868  1
  O  O31  1  0.08636674  0.23094378  0.32875132  1
  O  O32  1  0.27168296  0.49384078  0.15105418  1
  O  O33  1  0.72831704  0.50615922  0.84894582  1
  O  O34  1  0.07796144  0.88527268  0.04356352  1
  O  O35  1  0.92203856  0.11472732  0.95643648  1
  O  O36  1  0.44456374  0.24874267  0.24720430  1
  O  O37  1  0.55543626  0.75125733  0.75279570  1
  O  O38  1  0.23014973  0.61460343  0.86985803  1
  O  O39  1  0.76985027  0.38539657  0.13014197  1
