# generated using pymatgen
data_CeZr11O24
_symmetry_space_group_name_H-M   'P 1'
_cell_length_a   9.74339878
_cell_length_b   7.48261073
_cell_length_c   6.90092474
_cell_angle_alpha   63.68628090
_cell_angle_beta   91.55057832
_cell_angle_gamma   86.52760183
_symmetry_Int_Tables_number   1
_chemical_formula_structural   CeZr11O24
_chemical_formula_sum   'Ce1 Zr11 O24'
_cell_volume   449.34040199
_cell_formula_units_Z   1
loop_
 _symmetry_equiv_pos_site_id
 _symmetry_equiv_pos_as_xyz
  1  'x, y, z'
loop_
 _atom_site_type_symbol
 _atom_site_label
 _atom_site_symmetry_multiplicity
 _atom_site_fract_x
 _atom_site_fract_y
 _atom_site_fract_z
 _atom_site_occupancy
  Ce  Ce0  1  0.63250522  0.16868387  0.92679412  1
  Zr  Zr1  1  0.01334844  0.04926457  0.22097639  1
  Zr  Zr2  1  0.32258802  0.28213559  0.11698767  1
  Zr  Zr3  1  0.03710166  0.49190528  0.74636764  1
  Zr  Zr4  1  0.33919270  0.38535591  0.54901522  1
  Zr  Zr5  1  0.70633416  0.16098803  0.41650363  1
  Zr  Zr6  1  0.36778210  0.82369931  0.08002854  1
  Zr  Zr7  1  0.29785519  0.83933300  0.58842977  1
  Zr  Zr8  1  0.65912036  0.61656655  0.44685674  1
  Zr  Zr9  1  0.96357290  0.50731647  0.25338390  1
  Zr  Zr10  1  0.67553295  0.71737014  0.87991650  1
  Zr  Zr11  1  0.99429572  0.94777203  0.78301272  1
  O  O12  1  0.09113151  0.34640612  0.11178228  1
  O  O13  1  0.31508115  0.14691291  0.46963179  1
  O  O14  1  0.01427367  0.18633760  0.86555079  1
  O  O15  1  0.53420371  0.21319054  0.19557786  1
  O  O16  1  0.12909647  0.45966350  0.47848546  1
  O  O17  1  0.34497004  0.52058618  0.19635523  1
  O  O18  1  0.80265225  0.12542634  0.15782283  1
  O  O19  1  0.07256262  0.82803656  0.55105483  1
  O  O20  1  0.39469702  0.16200875  0.88436573  1
  O  O21  1  0.57474110  0.32621255  0.54279153  1
  O  O22  1  0.24307395  0.98447818  0.22463726  1
  O  O23  1  0.26084261  0.50686510  0.78257803  1
  O  O24  1  0.74176648  0.49564693  0.21470792  1
  O  O25  1  0.42180776  0.68031051  0.44476397  1
  O  O26  1  0.76194687  0.00611347  0.76989251  1
  O  O27  1  0.59221726  0.82676189  0.11755355  1
  O  O28  1  0.93298374  0.17318829  0.45299557  1
  O  O29  1  0.20385598  0.87232863  0.85606381  1
  O  O30  1  0.65053010  0.49110116  0.79444487  1
  O  O31  1  0.86993470  0.54051133  0.52219099  1
  O  O32  1  0.46324394  0.79497158  0.81041756  1
  O  O33  1  0.98380738  0.81416220  0.13584328  1
  O  O34  1  0.67918874  0.85717257  0.52366631  1
  O  O35  1  0.91216251  0.65121735  0.88855622  1
