# generated using pymatgen
data_Nb3N5
_symmetry_space_group_name_H-M   'P 1'
_cell_length_a   3.91996697
_cell_length_b   5.56422308
_cell_length_c   10.40135760
_cell_angle_alpha   90.00000000
_cell_angle_beta   90.00000000
_cell_angle_gamma   110.62483654
_symmetry_Int_Tables_number   1
_chemical_formula_structural   Nb3N5
_chemical_formula_sum   'Nb6 N10'
_cell_volume   212.32915555
_cell_formula_units_Z   2
loop_
 _symmetry_equiv_pos_site_id
 _symmetry_equiv_pos_as_xyz
  1  'x, y, z'
loop_
 _atom_site_type_symbol
 _atom_site_label
 _atom_site_symmetry_multiplicity
 _atom_site_fract_x
 _atom_site_fract_y
 _atom_site_fract_z
 _atom_site_occupancy
  Nb  Nb0  1  0.13018488  0.26036976  0.94083422  1
  Nb  Nb1  1  0.13018488  0.26036976  0.55916578  1
  Nb  Nb2  1  0.20453971  0.40907942  0.25000000  1
  Nb  Nb3  1  0.79546029  0.59092058  0.75000000  1
  Nb  Nb4  1  0.86981512  0.73963024  0.05916578  1
  Nb  Nb5  1  0.86981512  0.73963024  0.44083422  1
  N  N6  1  0.30988901  0.61977901  0.42593584  1
  N  N7  1  0.04747147  0.09494393  0.12042423  1
  N  N8  1  0.04747147  0.09494393  0.37957577  1
  N  N9  1  0.30988901  0.61977901  0.07406416  1
  N  N10  1  0.23443650  0.46887199  0.75000000  1
  N  N11  1  0.95252853  0.90505607  0.87957577  1
  N  N12  1  0.69011099  0.38022099  0.57406416  1
  N  N13  1  0.69011099  0.38022099  0.92593584  1
  N  N14  1  0.76556350  0.53112801  0.25000000  1
  N  N15  1  0.95252853  0.90505607  0.62042423  1
