# generated using pymatgen
data_LaMgI5
_symmetry_space_group_name_H-M   'P 1'
_cell_length_a   17.52555953
_cell_length_b   4.35709071
_cell_length_c   15.22545205
_cell_angle_alpha   90.00000000
_cell_angle_beta   90.00000000
_cell_angle_gamma   90.00000000
_symmetry_Int_Tables_number   1
_chemical_formula_structural   LaMgI5
_chemical_formula_sum   'La4 Mg4 I20'
_cell_volume   1162.62240982
_cell_formula_units_Z   4
loop_
 _symmetry_equiv_pos_site_id
 _symmetry_equiv_pos_as_xyz
  1  'x, y, z'
loop_
 _atom_site_type_symbol
 _atom_site_label
 _atom_site_symmetry_multiplicity
 _atom_site_fract_x
 _atom_site_fract_y
 _atom_site_fract_z
 _atom_site_occupancy
  La  La0  1  0.15599944  0.75000000  0.74430729  1
  La  La1  1  0.34400056  0.25000000  0.24430729  1
  La  La2  1  0.65599944  0.75000000  0.75569271  1
  La  La3  1  0.84400056  0.25000000  0.25569271  1
  Mg  Mg4  1  0.09217246  0.75000000  0.23813260  1
  Mg  Mg5  1  0.40782754  0.25000000  0.73813260  1
  Mg  Mg6  1  0.59217246  0.75000000  0.26186740  1
  Mg  Mg7  1  0.90782754  0.25000000  0.76186740  1
  I  I8  1  0.02559276  0.25000000  0.34468338  1
  I  I9  1  0.05242785  0.25000000  0.86311519  1
  I  I10  1  0.15378977  0.25000000  0.59392619  1
  I  I11  1  0.16153657  0.25000000  0.13593674  1
  I  I12  1  0.23291071  0.75000000  0.34944235  1
  I  I13  1  0.26708929  0.25000000  0.84944235  1
  I  I14  1  0.33846343  0.75000000  0.63593674  1
  I  I15  1  0.34621023  0.75000000  0.09392619  1
  I  I16  1  0.44757215  0.75000000  0.36311519  1
  I  I17  1  0.47440724  0.75000000  0.84468338  1
  I  I18  1  0.52559276  0.25000000  0.15531662  1
  I  I19  1  0.55242785  0.25000000  0.63688481  1
  I  I20  1  0.65378977  0.25000000  0.90607381  1
  I  I21  1  0.66153657  0.25000000  0.36406326  1
  I  I22  1  0.73291071  0.75000000  0.15055765  1
  I  I23  1  0.76708929  0.25000000  0.65055765  1
  I  I24  1  0.83846343  0.75000000  0.86406326  1
  I  I25  1  0.84621023  0.75000000  0.40607381  1
  I  I26  1  0.94757215  0.75000000  0.13688481  1
  I  I27  1  0.97440724  0.75000000  0.65531662  1
