# generated using pymatgen
data_Ba8In8O19
_symmetry_space_group_name_H-M   'P 1'
_cell_length_a   8.74219401
_cell_length_b   8.62677358
_cell_length_c   9.47813138
_cell_angle_alpha   89.08841155
_cell_angle_beta   117.46308877
_cell_angle_gamma   91.97696486
_symmetry_Int_Tables_number   1
_chemical_formula_structural   Ba8In8O19
_chemical_formula_sum   'Ba8 In8 O19'
_cell_volume   633.88057100
_cell_formula_units_Z   1
loop_
 _symmetry_equiv_pos_site_id
 _symmetry_equiv_pos_as_xyz
  1  'x, y, z'
loop_
 _atom_site_type_symbol
 _atom_site_label
 _atom_site_symmetry_multiplicity
 _atom_site_fract_x
 _atom_site_fract_y
 _atom_site_fract_z
 _atom_site_occupancy
  Ba  Ba0  1  0.86947616  0.24347523  0.20863445  1
  Ba  Ba1  1  0.85115466  0.76066244  0.22298270  1
  Ba  Ba2  1  0.63290181  0.26298636  0.78009866  1
  Ba  Ba3  1  0.35280315  0.26298636  0.21990134  1
  Ba  Ba4  1  0.65487927  0.74443584  0.77954502  1
  Ba  Ba5  1  0.16084171  0.24347523  0.79136555  1
  Ba  Ba6  1  0.37533425  0.74443584  0.22045498  1
  Ba  Ba7  1  0.12817196  0.76066244  0.77701730  1
  In  In8  1  0.50098754  0.00010613  0.00128309  1
  In  In9  1  0.74254083  0.08599801  0.50000000  1
  In  In10  1  0.80127062  0.45008666  0.50000000  1
  In  In11  1  0.50174885  0.50180252  0.00190355  1
  In  In12  1  0.99970345  0.00010613  0.99871691  1
  In  In13  1  0.99984531  0.50180252  0.99809645  1
  In  In14  1  0.23369514  0.54685763  0.50000000  1
  In  In15  1  0.29949898  0.98381810  0.50000000  1
  O  O16  1  0.50970719  0.25033661  0.01486358  1
  O  O17  1  0.75841717  0.50460637  0.01637158  1
  O  O18  1  0.99484360  0.25033661  0.98513642  1
  O  O19  1  0.73951936  0.00581091  0.97928695  1
  O  O20  1  0.26023241  0.00581091  0.02071305  1
  O  O21  1  0.50138758  0.12458631  0.50000000  1
  O  O22  1  0.31694626  0.01697675  0.72304334  1
  O  O23  1  0.09390292  0.01697675  0.27695666  1
  O  O24  1  0.60326560  0.51689211  0.27555835  1
  O  O25  1  0.82770725  0.51689211  0.72444165  1
  O  O26  1  0.88409296  0.97468010  0.72096977  1
  O  O27  1  0.66312319  0.97468010  0.27903023  1
  O  O28  1  0.15404656  0.45839611  0.27457251  1
  O  O29  1  0.37947405  0.45839611  0.72542749  1
  O  O30  1  0.37262442  0.75297194  0.50000000  1
  O  O31  1  0.49583243  0.75125269  0.98294347  1
  O  O32  1  0.01288897  0.75125269  0.01705653  1
  O  O33  1  0.24204559  0.50460637  0.98362842  1
  O  O34  1  0.00106578  0.60410902  0.50000000  1
