# generated using pymatgen
data_K2YPCO7
_symmetry_space_group_name_H-M   'P 1'
_cell_length_a   10.02650112
_cell_length_b   7.15555743
_cell_length_c   5.83927977
_cell_angle_alpha   90.00000000
_cell_angle_beta   91.70120703
_cell_angle_gamma   90.00000000
_symmetry_Int_Tables_number   1
_chemical_formula_structural   K2YPCO7
_chemical_formula_sum   'K4 Y2 P2 C2 O14'
_cell_volume   418.75566794
_cell_formula_units_Z   2
loop_
 _symmetry_equiv_pos_site_id
 _symmetry_equiv_pos_as_xyz
  1  'x, y, z'
loop_
 _atom_site_type_symbol
 _atom_site_label
 _atom_site_symmetry_multiplicity
 _atom_site_fract_x
 _atom_site_fract_y
 _atom_site_fract_z
 _atom_site_occupancy
  K  K0  1  0.21962559  0.48837912  0.24749571  1
  K  K1  1  0.21962559  0.01162088  0.24749571  1
  K  K2  1  0.78037441  0.51162088  0.75250429  1
  K  K3  1  0.78037441  0.98837912  0.75250429  1
  Y  Y4  1  0.36900169  0.75000000  0.78257697  1
  Y  Y5  1  0.63099831  0.25000000  0.21742303  1
  P  P6  1  0.43079285  0.25000000  0.71077770  1
  P  P7  1  0.56920715  0.75000000  0.28922230  1
  C  C8  1  0.09493175  0.75000000  0.72858873  1
  C  C9  1  0.90506825  0.25000000  0.27141127  1
  O  O10  1  0.03000282  0.25000000  0.30111994  1
  O  O11  1  0.15471793  0.75000000  0.93288347  1
  O  O12  1  0.17769652  0.75000000  0.55489634  1
  O  O13  1  0.35294663  0.07053603  0.77242542  1
  O  O14  1  0.35294663  0.42946397  0.77242542  1
  O  O15  1  0.43150844  0.75000000  0.15420802  1
  O  O16  1  0.45663550  0.25000000  0.44754540  1
  O  O17  1  0.54336450  0.75000000  0.55245460  1
  O  O18  1  0.56849156  0.25000000  0.84579198  1
  O  O19  1  0.64705337  0.57053603  0.22757458  1
  O  O20  1  0.64705337  0.92946397  0.22757458  1
  O  O21  1  0.82230348  0.25000000  0.44510366  1
  O  O22  1  0.84528207  0.25000000  0.06711653  1
  O  O23  1  0.96999718  0.75000000  0.69888006  1
