# generated using pymatgen
data_MnP2H36C12N6(ClO)2
_symmetry_space_group_name_H-M   'P 1'
_cell_length_a   12.66337768
_cell_length_b   12.66337768
_cell_length_c   16.07455269
_cell_angle_alpha   54.87215400
_cell_angle_beta   125.12784600
_cell_angle_gamma   141.51448533
_symmetry_Int_Tables_number   1
_chemical_formula_structural   MnP2H36C12N6(ClO)2
_chemical_formula_sum   'Mn2 P4 H72 C24 N12 Cl4 O4'
_cell_volume   1271.81963852
_cell_formula_units_Z   2
loop_
 _symmetry_equiv_pos_site_id
 _symmetry_equiv_pos_as_xyz
  1  'x, y, z'
loop_
 _atom_site_type_symbol
 _atom_site_label
 _atom_site_symmetry_multiplicity
 _atom_site_fract_x
 _atom_site_fract_y
 _atom_site_fract_z
 _atom_site_occupancy
  Mn  Mn0  1  0.30055696  0.30055696  0.75000000  1
  Mn  Mn1  1  0.69944304  0.69944304  0.25000000  1
  P  P2  1  0.66391608  0.46292639  0.95584753  1
  P  P3  1  0.46292639  0.66391608  0.54415247  1
  P  P4  1  0.33608392  0.53707361  0.04415247  1
  P  P5  1  0.53707361  0.33608392  0.45584753  1
  H  H6  1  0.78786453  0.84985766  0.91688730  1
  H  H7  1  0.84985766  0.78786453  0.58311270  1
  H  H8  1  0.21213547  0.15014234  0.08311270  1
  H  H9  1  0.15014234  0.21213547  0.41688730  1
  H  H10  1  0.58481754  0.62835808  0.93283528  1
  H  H11  1  0.62835808  0.58481754  0.56716472  1
  H  H12  1  0.41518246  0.37164192  0.06716472  1
  H  H13  1  0.37164192  0.41518246  0.43283528  1
  H  H14  1  0.75705576  0.71096295  0.04575147  1
  H  H15  1  0.71096295  0.75705576  0.45424853  1
  H  H16  1  0.24294424  0.28903705  0.95424853  1
  H  H17  1  0.28903705  0.24294424  0.54575147  1
  H  H18  1  0.03930641  0.78754424  0.07544007  1
  H  H19  1  0.78754424  0.03930641  0.42455993  1
  H  H20  1  0.96069359  0.21245576  0.92455993  1
  H  H21  1  0.21245576  0.96069359  0.57544007  1
  H  H22  1  0.03382568  0.75697436  0.97652285  1
  H  H23  1  0.75697436  0.03382568  0.52347715  1
  H  H24  1  0.96617432  0.24302564  0.02347715  1
  H  H25  1  0.24302564  0.96617432  0.47652285  1
  H  H26  1  0.03788468  0.91984259  0.94445783  1
  H  H27  1  0.91984259  0.03788468  0.55554217  1
  H  H28  1  0.96211532  0.08015741  0.05554217  1
  H  H29  1  0.08015741  0.96211532  0.44445783  1
  H  H30  1  0.70176441  0.50191595  0.75979442  1
  H  H31  1  0.50191595  0.70176441  0.74020558  1
  H  H32  1  0.29823559  0.49808405  0.24020558  1
  H  H33  1  0.49808405  0.29823559  0.25979442  1
  H  H34  1  0.82871826  0.69259877  0.79529354  1
  H  H35  1  0.69259877  0.82871826  0.70470646  1
  H  H36  1  0.17128174  0.30740123  0.20470646  1
  H  H37  1  0.30740123  0.17128174  0.29529354  1
  H  H38  1  0.93214996  0.63037752  0.82012332  1
  H  H39  1  0.63037752  0.93214996  0.67987668  1
  H  H40  1  0.06785004  0.36962248  0.17987668  1
  H  H41  1  0.36962248  0.06785004  0.32012332  1
  H  H42  1  0.85993300  0.36194576  0.95230161  1
  H  H43  1  0.36194576  0.85993300  0.54769839  1
  H  H44  1  0.14006700  0.63805424  0.04769839  1
  H  H45  1  0.63805424  0.14006700  0.45230161  1
  H  H46  1  0.73904836  0.25158445  0.03978455  1
  H  H47  1  0.25158445  0.73904836  0.46021545  1
  H  H48  1  0.26095164  0.74841555  0.96021545  1
  H  H49  1  0.74841555  0.26095164  0.53978455  1
  H  H50  1  0.62680733  0.22495274  0.90855908  1
  H  H51  1  0.22495274  0.62680733  0.59144092  1
  H  H52  1  0.37319267  0.77504726  0.09144092  1
  H  H53  1  0.77504726  0.37319267  0.40855908  1
  H  H54  1  0.81860544  0.31138946  0.19360901  1
  H  H55  1  0.31138946  0.81860544  0.30639099  1
  H  H56  1  0.18139456  0.68861054  0.80639099  1
  H  H57  1  0.68861054  0.18139456  0.69360901  1
  H  H58  1  0.87162759  0.50943678  0.15777248  1
  H  H59  1  0.50943678  0.87162759  0.34222752  1
  H  H60  1  0.12837241  0.49056322  0.84222752  1
  H  H61  1  0.49056322  0.12837241  0.65777248  1
  H  H62  1  0.71352548  0.31455151  0.23161362  1
  H  H63  1  0.31455151  0.71352548  0.26838638  1
  H  H64  1  0.28647452  0.68544849  0.76838638  1
  H  H65  1  0.68544849  0.28647452  0.73161362  1
  H  H66  1  0.41214237  0.08922672  0.14059051  1
  H  H67  1  0.08922672  0.41214237  0.35940949  1
  H  H68  1  0.58785763  0.91077328  0.85940949  1
  H  H69  1  0.91077328  0.58785763  0.64059051  1
  H  H70  1  0.37256138  0.11292161  0.00731057  1
  H  H71  1  0.11292161  0.37256138  0.49268943  1
  H  H72  1  0.62743862  0.88707839  0.99268943  1
  H  H73  1  0.88707839  0.62743862  0.50731057  1
  H  H74  1  0.50195401  0.05968595  0.10988071  1
  H  H75  1  0.05968595  0.50195401  0.39011929  1
  H  H76  1  0.49804599  0.94031405  0.89011929  1
  H  H77  1  0.94031405  0.49804599  0.60988071  1
  C  C78  1  0.72686571  0.71497043  0.96504653  1
  C  C79  1  0.71497043  0.72686571  0.53495347  1
  C  C80  1  0.27313429  0.28502957  0.03495347  1
  C  C81  1  0.28502957  0.27313429  0.46504653  1
  C  C82  1  0.98690639  0.78739232  0.99181344  1
  C  C83  1  0.78739232  0.98690639  0.50818656  1
  C  C84  1  0.01309361  0.21260768  0.00818656  1
  C  C85  1  0.21260768  0.01309361  0.49181344  1
  C  C86  1  0.81078364  0.57986587  0.81879567  1
  C  C87  1  0.57986587  0.81078364  0.68120433  1
  C  C88  1  0.18921636  0.42013413  0.18120433  1
  C  C89  1  0.42013413  0.18921636  0.31879567  1
  C  C90  1  0.74734624  0.31893040  0.95776008  1
  C  C91  1  0.31893040  0.74734624  0.54223992  1
  C  C92  1  0.25265376  0.68106960  0.04223992  1
  C  C93  1  0.68106960  0.25265376  0.45776008  1
  C  C94  1  0.76500028  0.36705071  0.16820485  1
  C  C95  1  0.36705071  0.76500028  0.33179515  1
  C  C96  1  0.23499972  0.63294929  0.83179515  1
  C  C97  1  0.63294929  0.23499972  0.66820485  1
  C  C98  1  0.46984272  0.13617131  0.08280451  1
  C  C99  1  0.13617131  0.46984272  0.41719549  1
  C  C100  1  0.53015728  0.86382869  0.91719549  1
  C  C101  1  0.86382869  0.53015728  0.58280451  1
  N  N102  1  0.79591920  0.66413813  0.96175247  1
  N  N103  1  0.66413813  0.79591920  0.53824753  1
  N  N104  1  0.20408080  0.33586187  0.03824753  1
  N  N105  1  0.33586187  0.20408080  0.46175247  1
  N  N106  1  0.77628349  0.47380927  0.92352918  1
  N  N107  1  0.47380927  0.77628349  0.57647082  1
  N  N108  1  0.22371651  0.52619073  0.07647082  1
  N  N109  1  0.52619073  0.22371651  0.42352918  1
  N  N110  1  0.62562825  0.32326854  0.07221548  1
  N  N111  1  0.32326854  0.62562825  0.42778452  1
  N  N112  1  0.37437175  0.67673146  0.92778452  1
  N  N113  1  0.67673146  0.37437175  0.57221548  1
  Cl  Cl114  1  0.06524112  0.25427086  0.72813451  1
  Cl  Cl115  1  0.25427086  0.06524112  0.77186549  1
  Cl  Cl116  1  0.93475888  0.74572914  0.27186549  1
  Cl  Cl117  1  0.74572914  0.93475888  0.22813451  1
  O  O118  1  0.48930421  0.40418249  0.87998783  1
  O  O119  1  0.40418249  0.48930421  0.62001217  1
  O  O120  1  0.51069579  0.59581751  0.12001217  1
  O  O121  1  0.59581751  0.51069579  0.37998783  1
