# generated using pymatgen
data_Sr5(ReO3)12
_symmetry_space_group_name_H-M   'P 1'
_cell_length_a   8.04366999
_cell_length_b   8.11171420
_cell_length_c   13.14526028
_cell_angle_alpha   89.96216883
_cell_angle_beta   89.94870100
_cell_angle_gamma   109.56799717
_symmetry_Int_Tables_number   1
_chemical_formula_structural   Sr5(ReO3)12
_chemical_formula_sum   'Sr5 Re12 O36'
_cell_volume   808.16374997
_cell_formula_units_Z   1
loop_
 _symmetry_equiv_pos_site_id
 _symmetry_equiv_pos_as_xyz
  1  'x, y, z'
loop_
 _atom_site_type_symbol
 _atom_site_label
 _atom_site_symmetry_multiplicity
 _atom_site_fract_x
 _atom_site_fract_y
 _atom_site_fract_z
 _atom_site_occupancy
  Sr  Sr0  1  0.81637897  0.81224793  0.18453307  1
  Sr  Sr1  1  0.99866452  0.36313354  0.00016400  1
  Sr  Sr2  1  0.50124334  0.13921976  0.49977897  1
  Sr  Sr3  1  0.14557030  0.50183803  0.50028308  1
  Sr  Sr4  1  0.81287199  0.81240420  0.81552816  1
  Re  Re5  1  0.82013146  0.18355418  0.31635930  1
  Re  Re6  1  0.67007819  0.31129672  0.18135939  1
  Re  Re7  1  0.43272597  0.57476228  0.06880931  1
  Re  Re8  1  0.93237906  0.06548448  0.56915243  1
  Re  Re9  1  0.60941166  0.11394965  0.75502963  1
  Re  Re10  1  0.88594080  0.38364441  0.74655582  1
  Re  Re11  1  0.38305192  0.88718949  0.25187680  1
  Re  Re12  1  0.11236760  0.61130109  0.25052546  1
  Re  Re13  1  0.56534927  0.43094723  0.93115560  1
  Re  Re14  1  0.06296080  0.93370666  0.43153274  1
  Re  Re15  1  0.18275771  0.81819414  0.68162241  1
  Re  Re16  1  0.31592362  0.67881627  0.81688843  1
  O  O17  1  0.83352320  0.16524545  0.16403091  1
  O  O18  1  0.96570059  0.03186839  0.32317094  1
  O  O19  1  0.67463504  0.32845912  0.03261088  1
  O  O20  1  0.47438376  0.11113001  0.18192939  1
  O  O21  1  0.88573176  0.52283787  0.17670986  1
  O  O22  1  0.33331053  0.34232602  0.99947163  1
  O  O23  1  0.67134707  0.67161203  0.99867312  1
  O  O24  1  0.53986484  0.47406446  0.17044541  1
  O  O25  1  0.82933156  0.18113936  0.46761770  1
  O  O26  1  0.66268940  0.32402814  0.33371782  1
  O  O27  1  0.28920465  0.99528169  0.35508110  1
  O  O28  1  0.00338034  0.71232332  0.35216311  1
  O  O29  1  0.21173909  0.50860758  0.14619820  1
  O  O30  1  0.49630745  0.78778827  0.14852603  1
  O  O31  1  0.02775276  0.38689326  0.32225362  1
  O  O32  1  0.17054889  0.17022786  0.49976816  1
  O  O33  1  0.83563713  0.83812340  0.49999170  1
  O  O34  1  0.38774124  0.02509808  0.67864207  1
  O  O35  1  0.16105397  0.83129847  0.17095276  1
  O  O36  1  0.61569317  0.97365190  0.31990245  1
  O  O37  1  0.32689261  0.66778142  0.33613835  1
  O  O38  1  0.66674229  0.32582688  0.66548819  1
  O  O39  1  0.97152224  0.61382535  0.67883414  1
  O  O40  1  0.83636438  0.16710239  0.83588154  1
  O  O41  1  0.79234858  0.49545837  0.85621451  1
  O  O42  1  0.51033252  0.21714013  0.85342154  1
  O  O43  1  0.99657578  0.29074618  0.64459202  1
  O  O44  1  0.71442209  0.00828309  0.64983959  1
  O  O45  1  0.32430852  0.66083162  0.66522809  1
  O  O46  1  0.47533214  0.54077702  0.82739027  1
  O  O47  1  0.18208818  0.82977591  0.53058639  1
  O  O48  1  0.11110897  0.47142721  0.82162268  1
  O  O49  1  0.52730544  0.88358670  0.82053605  1
  O  O50  1  0.32279981  0.66535458  0.96600431  1
  O  O51  1  0.03174277  0.96512260  0.67449260  1
  O  O52  1  0.15988206  0.82684080  0.83072225  1
