# generated using pymatgen
data_Mg2Cu2P2(H4O5)3
_symmetry_space_group_name_H-M   'P 1'
_cell_length_a   5.04300772
_cell_length_b   11.63018534
_cell_length_c   10.59216748
_cell_angle_alpha   79.99542339
_cell_angle_beta   90.00138036
_cell_angle_gamma   77.44261357
_symmetry_Int_Tables_number   1
_chemical_formula_structural   Mg2Cu2P2(H4O5)3
_chemical_formula_sum   'Mg4 Cu4 P4 H24 O30'
_cell_volume   596.69902123
_cell_formula_units_Z   2
loop_
 _symmetry_equiv_pos_site_id
 _symmetry_equiv_pos_as_xyz
  1  'x, y, z'
loop_
 _atom_site_type_symbol
 _atom_site_label
 _atom_site_symmetry_multiplicity
 _atom_site_fract_x
 _atom_site_fract_y
 _atom_site_fract_z
 _atom_site_occupancy
  Mg  Mg0  1  0.95228752  0.76138051  0.96578541  1
  Mg  Mg1  1  0.28320458  0.76087384  0.46498019  1
  Mg  Mg2  1  0.72033439  0.23928136  0.53516749  1
  Mg  Mg3  1  0.04235325  0.24063649  0.03537793  1
  Cu  Cu4  1  0.09800601  0.50847318  0.86797579  1
  Cu  Cu5  1  0.60787896  0.49395150  0.63288716  1
  Cu  Cu6  1  0.39621084  0.50775011  0.36535200  1
  Cu  Cu7  1  0.90283108  0.49246900  0.13307503  1
  P  P8  1  0.47589529  0.69401339  0.77172814  1
  P  P9  1  0.82866618  0.69165470  0.27212790  1
  P  P10  1  0.17232862  0.30829820  0.72848460  1
  P  P11  1  0.52042545  0.30749305  0.22821709  1
  H  H12  1  0.55803381  0.96254637  0.85664363  1
  H  H13  1  0.22668158  0.92353867  0.76771662  1
  H  H14  1  0.48455469  0.96089552  0.36070745  1
  H  H15  1  0.03480631  0.81995643  0.66755659  1
  H  H16  1  0.84803465  0.92426537  0.26747718  1
  H  H17  1  0.14430636  0.81747509  0.16526137  1
  H  H18  1  0.79359142  0.79977791  0.58765455  1
  H  H19  1  0.41169686  0.79825357  0.08875353  1
  H  H20  1  0.66812180  0.45664774  0.93013495  1
  H  H21  1  0.13294650  0.53903417  0.57003969  1
  H  H22  1  0.87351223  0.45877264  0.43465562  1
  H  H23  1  0.32871692  0.54376237  0.07045277  1
  H  H24  1  0.59243273  0.20117941  0.91612375  1
  H  H25  1  0.21543225  0.19981687  0.41353528  1
  H  H26  1  0.85448017  0.18268940  0.83519306  1
  H  H27  1  0.14842386  0.07106094  0.73014051  1
  H  H28  1  0.97457058  0.17984847  0.33356933  1
  H  H29  1  0.51854289  0.03917278  0.64114631  1
  H  H30  1  0.77517991  0.00656002  0.93015083  1
  H  H31  1  0.78670112  0.07108039  0.23315596  1
  H  H32  1  0.77918317  -0.00451037  0.56703598  1
  H  H33  1  0.44508375  0.04312841  0.14190743  1
  H  H34  1  0.22265739  0.00239904  0.43592017  1
  H  H35  1  0.22792875  0.99645662  0.06903706  1
  O  O36  1  0.72833197  0.93304241  0.91100501  1
  O  O37  1  0.33595121  0.93116391  0.40883670  1
  O  O38  1  0.95737581  0.83716341  0.57750809  1
  O  O39  1  0.21405642  0.77593181  0.81025529  1
  O  O40  1  0.21029127  0.83385898  0.07640144  1
  O  O41  1  0.53588197  0.73448058  0.62999016  1
  O  O42  1  0.00657812  0.77452903  0.31051732  1
  O  O43  1  0.71994848  0.68482845  0.86115329  1
  O  O44  1  0.72940637  0.73164041  0.13013047  1
  O  O45  1  0.59477137  0.68198313  0.36066078  1
  O  O46  1  0.41940822  0.56082040  0.78040365  1
  O  O47  1  0.27021524  0.57493466  0.52175804  1
  O  O48  1  0.01981346  0.55893263  0.28264662  1
  O  O49  1  0.84354663  0.42550971  0.97780349  1
  O  O50  1  0.15488145  0.57511342  0.02237296  1
  O  O51  1  0.98199614  0.44238664  0.71757997  1
  O  O52  1  0.72915207  0.42628172  0.47990521  1
  O  O53  1  0.57244023  0.44177753  0.21569113  1
  O  O54  1  0.41050803  0.31644006  0.64149732  1
  O  O55  1  0.26759466  0.27086264  0.87078849  1
  O  O56  1  0.27561411  0.31542804  0.14112097  1
  O  O57  1  0.99490471  0.22484198  0.69016586  1
  O  O58  1  0.46630615  0.26930359  0.37135974  1
  O  O59  1  0.79329069  0.16455551  0.92470489  1
  O  O60  1  0.78173911  0.22617437  0.18908872  1
  O  O61  1  0.04964459  0.16415414  0.42360182  1
  O  O62  1  0.65809025  0.06895056  0.58559022  1
  O  O63  1  0.29716472  0.99810088  0.74668933  1
  O  O64  1  0.27113073  0.07012321  0.08927676  1
  O  O65  1  0.70611095  -0.00053197  0.24957089  1
