# generated using pymatgen
data_CdGeO3
_symmetry_space_group_name_H-M   'P 1'
_cell_length_a   10.89885760
_cell_length_b   10.89885760
_cell_length_c   10.89885760
_cell_angle_alpha   109.12437057
_cell_angle_beta   109.12437065
_cell_angle_gamma   110.16717029
_symmetry_Int_Tables_number   1
_chemical_formula_structural   CdGeO3
_chemical_formula_sum   'Cd16 Ge16 O48'
_cell_volume   996.48993568
_cell_formula_units_Z   16
loop_
 _symmetry_equiv_pos_site_id
 _symmetry_equiv_pos_as_xyz
  1  'x, y, z'
loop_
 _atom_site_type_symbol
 _atom_site_label
 _atom_site_symmetry_multiplicity
 _atom_site_fract_x
 _atom_site_fract_y
 _atom_site_fract_z
 _atom_site_occupancy
  O  O0  1  0.42802861  0.11408617  0.10859338  1
  O  O1  1  0.61408617  0.00549280  0.68605756  1
  O  O2  1  0.81943524  0.92802861  0.81394244  1
  O  O3  1  0.50549280  0.31943524  0.39140662  1
  O  O4  1  0.57197139  0.88591383  0.89140662  1
  O  O5  1  0.38591383  0.99450720  0.31394244  1
  O  O6  1  0.18056476  0.07197139  0.18605756  1
  O  O7  1  0.49450720  0.68056476  0.60859338  1
  O  O8  1  0.69659219  0.46607605  0.10068112  1
  O  O9  1  0.96607605  0.36539493  0.76948386  1
  O  O10  1  0.09591107  0.19659219  0.73051614  1
  O  O11  1  0.86539493  0.59591107  0.39931888  1
  O  O12  1  0.30340781  0.53392395  0.89931888  1
  O  O13  1  0.03392395  0.63460507  0.23051614  1
  O  O14  1  0.90408893  0.80340781  0.26948386  1
  O  O15  1  0.13460507  0.40408893  0.60068112  1
  O  O16  1  0.22056947  0.51136837  0.13622004  1
  O  O17  1  0.01136837  0.37514833  0.29079890  1
  O  O18  1  0.58434943  0.72056947  0.20920110  1
  O  O19  1  0.08945133  0.18415934  0.00207319  1
  O  O20  1  0.87514833  0.08434943  0.36377996  1
  O  O21  1  0.98863163  0.62485167  0.70920110  1
  O  O22  1  0.41565057  0.27943053  0.79079890  1
  O  O23  1  0.12485167  0.91565057  0.63622004  1
  O  O24  1  0.30064935  0.41356828  0.33572148  1
  O  O25  1  0.91356828  0.07784680  0.11291894  1
  O  O26  1  0.46492786  0.80064935  0.38708106  1
  O  O27  1  0.57784680  0.96492786  0.16427852  1
  O  O28  1  0.69935065  0.58643172  0.66427852  1
  O  O29  1  0.08643172  0.92215320  0.88708106  1
  O  O30  1  0.53507214  0.19935065  0.61291894  1
  O  O31  1  0.42215320  0.03507214  0.83572148  1
  O  O32  1  0.23728906  0.70021950  0.58874890  1
  O  O33  1  0.20021950  0.11147060  0.46293044  1
  O  O34  1  0.14854016  0.73728906  0.03706956  1
  O  O35  1  0.61147060  0.64854016  0.91125110  1
  O  O36  1  0.76271094  0.29978050  0.41125110  1
  O  O37  1  0.79978050  0.88852940  0.53706956  1
  O  O38  1  0.85145984  0.26271094  0.96293044  1
  O  O39  1  0.38852940  0.35145984  0.08874890  1
  O  O40  1  0.31791385  0.91262187  0.50207319  1
  O  O41  1  0.41262187  0.41054867  0.59470802  1
  O  O42  1  0.31584066  0.81791385  0.90529198  1
  O  O43  1  0.91054867  0.81584066  0.99792681  1
  O  O44  1  0.68208615  0.08737813  0.49792681  1
  O  O45  1  0.58737813  0.58945133  0.40529198  1
  O  O46  1  0.68415934  0.18208615  0.09470802  1
  O  O47  1  0.77943053  0.48863163  0.86377996  1
  Ge  Ge48  1  0.25536662  0.36664431  0.14240923  1
  Ge  Ge49  1  0.86664431  0.22423509  0.11127769  1
  Ge  Ge50  1  0.61295740  0.75536662  0.38872231  1
  Ge  Ge51  1  0.72423509  0.11295740  0.35759077  1
  Ge  Ge52  1  0.74463338  0.63335569  0.85759077  1
  Ge  Ge53  1  0.13335569  0.77576491  0.88872231  1
  Ge  Ge54  1  0.38704260  0.24463338  0.61127769  1
  Ge  Ge55  1  0.27576491  0.88704260  0.64240923  1
  Ge  Ge56  1  0.62500000  0.87500000  0.75000000  1
  Ge  Ge57  1  0.37500000  0.12500000  0.25000000  1
  Ge  Ge58  1  0.12500000  0.37500000  0.75000000  1
  Ge  Ge59  1  0.87500000  0.62500000  0.25000000  1
  Ge  Ge60  1  0.50000000  0.00000000  0.50000000  1
  Ge  Ge61  1  0.50000000  0.50000000  0.50000000  1
  Ge  Ge62  1  0.50000000  0.00000000  0.00000000  1
  Ge  Ge63  1  0.00000000  0.00000000  0.00000000  1
  Cd  Cd64  1  0.00000000  0.50000000  0.50000000  1
  Cd  Cd65  1  0.00000000  0.00000000  0.50000000  1
  Cd  Cd66  1  0.00000000  0.50000000  0.00000000  1
  Cd  Cd67  1  0.50000000  0.50000000  0.00000000  1
  Cd  Cd68  1  0.12411329  0.87411329  0.25000000  1
  Cd  Cd69  1  0.37411329  0.62411329  0.75000000  1
  Cd  Cd70  1  0.87588671  0.12588671  0.75000000  1
  Cd  Cd71  1  0.62588671  0.37588671  0.25000000  1
  Cd  Cd72  1  0.74941159  0.86922967  0.13199723  1
  Cd  Cd73  1  0.36922967  0.73723243  0.11981808  1
  Cd  Cd74  1  0.11741435  0.24941159  0.38018192  1
  Cd  Cd75  1  0.23723243  0.61741435  0.36800277  1
  Cd  Cd76  1  0.25058841  0.13077033  0.86800277  1
  Cd  Cd77  1  0.63077033  0.26276757  0.88018192  1
  Cd  Cd78  1  0.88258565  0.75058841  0.61981808  1
  Cd  Cd79  1  0.76276757  0.38258565  0.63199723  1
