# generated using pymatgen
data_LiLaO2
_symmetry_space_group_name_H-M   'P 1'
_cell_length_a   6.73839730
_cell_length_b   6.21958890
_cell_length_c   6.98770103
_cell_angle_alpha   90.00000000
_cell_angle_beta   121.49699123
_cell_angle_gamma   90.00000000
_symmetry_Int_Tables_number   1
_chemical_formula_structural   LiLaO2
_chemical_formula_sum   'Li4 La4 O8'
_cell_volume   249.70795054
_cell_formula_units_Z   4
loop_
 _symmetry_equiv_pos_site_id
 _symmetry_equiv_pos_as_xyz
  1  'x, y, z'
loop_
 _atom_site_type_symbol
 _atom_site_label
 _atom_site_symmetry_multiplicity
 _atom_site_fract_x
 _atom_site_fract_y
 _atom_site_fract_z
 _atom_site_occupancy
  Li  Li0  1  0.31869212  0.82998881  0.60278808  1
  Li  Li1  1  0.68130788  0.32998881  0.89721192  1
  Li  Li2  1  0.31869212  0.67001119  0.10278808  1
  Li  Li3  1  0.68130788  0.17001119  0.39721192  1
  La  La4  1  0.22109212  0.13880222  0.95907747  1
  La  La5  1  0.22109212  0.36119778  0.45907747  1
  La  La6  1  0.77890788  0.63880222  0.54092253  1
  La  La7  1  0.77890788  0.86119778  0.04092253  1
  O  O8  1  0.03320949  0.80413364  0.89045082  1
  O  O9  1  0.03320949  0.69586636  0.39045082  1
  O  O10  1  0.44508263  0.09972931  0.76289021  1
  O  O11  1  0.55491737  0.59972931  0.73710979  1
  O  O12  1  0.44508263  0.40027069  0.26289021  1
  O  O13  1  0.55491737  0.90027069  0.23710979  1
  O  O14  1  0.96679051  0.30413364  0.60954918  1
  O  O15  1  0.96679051  0.19586636  0.10954918  1
