# generated using pymatgen
data_CaH12(IO6)2
_symmetry_space_group_name_H-M   'P 1'
_cell_length_a   11.99477533
_cell_length_b   8.22122550
_cell_length_c   6.35609234
_cell_angle_alpha   67.25900674
_cell_angle_beta   74.63586737
_cell_angle_gamma   84.12136357
_symmetry_Int_Tables_number   1
_chemical_formula_structural   CaH12(IO6)2
_chemical_formula_sum   'Ca2 H24 I4 O24'
_cell_volume   557.40117548
_cell_formula_units_Z   2
loop_
 _symmetry_equiv_pos_site_id
 _symmetry_equiv_pos_as_xyz
  1  'x, y, z'
loop_
 _atom_site_type_symbol
 _atom_site_label
 _atom_site_symmetry_multiplicity
 _atom_site_fract_x
 _atom_site_fract_y
 _atom_site_fract_z
 _atom_site_occupancy
  Ca  Ca0  1  0.50000000  0.50000000  0.06525275  1
  Ca  Ca1  1  0.00000000  -0.00000000  0.81525275  1
  H  H2  1  0.76106387  0.94890470  0.17157314  1
  H  H3  1  0.44199008  0.89739978  0.90403150  1
  H  H4  1  0.08134763  0.86468692  0.27429643  1
  H  H5  1  0.44575097  0.84569791  0.68967044  1
  H  H6  1  0.80015974  0.76648896  0.14776268  1
  H  H7  1  0.97537613  0.75100108  0.32485173  1
  H  H8  1  0.47537613  0.74899892  0.32585281  1
  H  H9  1  0.30015974  0.73351104  0.16425164  1
  H  H10  1  0.94575097  0.65430209  0.78536835  1
  H  H11  1  0.58134763  0.63531308  0.38898336  1
  H  H12  1  0.94199008  0.60260022  0.05143129  1
  H  H13  1  0.26106387  0.55109530  0.37047685  1
  H  H14  1  0.73893613  0.44890470  0.18263701  1
  H  H15  1  0.05800992  0.39739978  0.59602158  1
  H  H16  1  0.41865237  0.36468692  0.60564406  1
  H  H17  1  0.05424903  0.34569791  0.38542142  1
  H  H18  1  0.69984026  0.26648896  0.19792242  1
  H  H19  1  0.52462387  0.25100108  0.55022786  1
  H  H20  1  0.02462387  0.24899892  0.05122895  1
  H  H21  1  0.19984026  0.23351104  0.71441138  1
  H  H22  1  0.55424903  0.15430209  0.98111932  1
  H  H23  1  0.91865237  0.13531308  0.22033198  1
  H  H24  1  0.55800992  0.10260022  0.24342137  1
  H  H25  1  0.23893613  0.05109530  0.88154171  1
  I  I26  1  0.72063994  0.97215292  0.65395474  1
  I  I27  1  0.22063994  0.52784708  0.87610866  1
  I  I28  1  0.77936006  0.47215292  0.62459468  1
  I  I29  1  0.27936006  0.02784708  0.34674760  1
  O  O30  1  0.30909765  0.96398009  0.08825698  1
  O  O31  1  0.13067578  0.94719709  0.47294498  1
  O  O32  1  0.80423596  0.89587207  0.05503854  1
  O  O33  1  0.35435585  0.83945906  0.52456180  1
  O  O34  1  0.48725996  0.82771784  0.81387862  1
  O  O35  1  0.04263969  0.81038135  0.19756753  1
  O  O36  1  0.54263969  0.68961865  0.25794888  1
  O  O37  1  0.98725996  0.67228216  0.89159646  1
  O  O38  1  0.85435585  0.66054094  0.61402186  1
  O  O39  1  0.30423596  0.60412793  0.20091060  1
  O  O40  1  0.63067578  0.55280291  0.67014207  1
  O  O41  1  0.80909765  0.53601991  0.30223606  1
  O  O42  1  0.19090235  0.46398009  0.64735363  1
  O  O43  1  0.36932422  0.44719709  0.85362076  1
  O  O44  1  0.69576404  0.39587207  0.10927449  1
  O  O45  1  0.14564415  0.33945906  0.12891765  1
  O  O46  1  0.01274004  0.32771784  0.55113758  1
  O  O47  1  0.45736031  0.31038135  0.49020722  1
  O  O48  1  0.95736031  0.18961865  0.05058857  1
  O  O49  1  0.51274004  0.17228216  0.12885642  1
  O  O50  1  0.64564415  0.16054094  0.71837771  1
  O  O51  1  0.19576404  0.10412793  0.75514656  1
  O  O52  1  0.86932422  0.05280291  0.55081785  1
  O  O53  1  0.69090235  0.03601991  0.36133372  1
