# generated using pymatgen
data_TmTaO4
_symmetry_space_group_name_H-M   'P 1'
_cell_length_a   7.56473537
_cell_length_b   5.30164805
_cell_length_c   7.54921400
_cell_angle_alpha   90.00000000
_cell_angle_beta   98.36974141
_cell_angle_gamma   90.00000000
_symmetry_Int_Tables_number   1
_chemical_formula_structural   TmTaO4
_chemical_formula_sum   'Tm4 Ta4 O16'
_cell_volume   299.54083777
_cell_formula_units_Z   4
loop_
 _symmetry_equiv_pos_site_id
 _symmetry_equiv_pos_as_xyz
  1  'x, y, z'
loop_
 _atom_site_type_symbol
 _atom_site_label
 _atom_site_symmetry_multiplicity
 _atom_site_fract_x
 _atom_site_fract_y
 _atom_site_fract_z
 _atom_site_occupancy
  Tm  Tm0  1  0.35497200  0.72126378  0.61358648  1
  Tm  Tm1  1  0.35497200  0.77873622  0.11358648  1
  Tm  Tm2  1  0.64502800  0.22126378  0.88641352  1
  Tm  Tm3  1  0.64502800  0.27873622  0.38641352  1
  Ta  Ta4  1  0.16578833  0.23196568  0.81092430  1
  Ta  Ta5  1  0.16578833  0.26803432  0.31092430  1
  Ta  Ta6  1  0.83421167  0.73196568  0.68907570  1
  Ta  Ta7  1  0.83421167  0.76803432  0.18907570  1
  O  O8  1  0.06682698  0.90012664  0.68967467  1
  O  O9  1  0.06682698  0.59987336  0.18967467  1
  O  O10  1  0.17417953  0.37891985  0.56304332  1
  O  O11  1  0.17417953  0.12108015  0.06304332  1
  O  O12  1  0.32397870  0.51005369  0.88404572  1
  O  O13  1  0.39274561  0.01565214  0.82498212  1
  O  O14  1  0.32397870  0.98994631  0.38404572  1
  O  O15  1  0.39274561  0.48434786  0.32498212  1
  O  O16  1  0.60725439  0.51565214  0.67501788  1
  O  O17  1  0.67602130  0.01005369  0.61595428  1
  O  O18  1  0.60725439  0.98434786  0.17501788  1
  O  O19  1  0.67602130  0.48994631  0.11595428  1
  O  O20  1  0.82582047  0.87891985  0.93695668  1
  O  O21  1  0.82582047  0.62108015  0.43695668  1
  O  O22  1  0.93317302  0.40012664  0.81032533  1
  O  O23  1  0.93317302  0.09987336  0.31032533  1
