# generated using pymatgen
data_Ce6Y2O15
_symmetry_space_group_name_H-M   'P 1'
_cell_length_a   9.43533696
_cell_length_b   9.43576082
_cell_length_c   9.43533696
_cell_angle_alpha   109.49168193
_cell_angle_beta   109.38558225
_cell_angle_gamma   109.53461024
_symmetry_Int_Tables_number   1
_chemical_formula_structural   Ce6Y2O15
_chemical_formula_sum   'Ce12 Y4 O30'
_cell_volume   646.66426002
_cell_formula_units_Z   2
loop_
 _symmetry_equiv_pos_site_id
 _symmetry_equiv_pos_as_xyz
  1  'x, y, z'
loop_
 _atom_site_type_symbol
 _atom_site_label
 _atom_site_symmetry_multiplicity
 _atom_site_fract_x
 _atom_site_fract_y
 _atom_site_fract_z
 _atom_site_occupancy
  Ce  Ce0  1  0.99268645  0.24949454  0.24819603  1
  Ce  Ce1  1  0.74993021  0.49253144  0.26739712  1
  Ce  Ce2  1  0.75141300  0.00387593  0.75066384  1
  Ce  Ce3  1  0.50149029  0.49948369  0.50494637  1
  Ce  Ce4  1  0.50558007  0.73449178  0.24816388  1
  Ce  Ce5  1  0.99453732  0.99948369  0.49799340  1
  Ce  Ce6  1  0.48632790  0.23449178  0.72891172  1
  Ce  Ce7  1  0.24634758  0.74537805  0.49587444  1
  Ce  Ce8  1  0.24950460  0.24537805  0.99903047  1
  Ce  Ce9  1  0.22513432  0.99253144  0.24260124  1
  Ce  Ce10  1  0.25321309  0.50387593  0.75246293  1
  Ce  Ce11  1  0.00129951  0.74949454  0.75680809  1
  Y  Y12  1  0.50105309  0.00553878  0.98109507  1
  Y  Y13  1  0.74510763  0.77128381  0.00043133  1
  Y  Y14  1  0.77085148  0.27128381  0.52617619  1
  Y  Y15  1  0.02444371  0.50553878  0.00448568  1
  O  O16  1  0.98980911  0.00608877  0.25167550  1
  O  O17  1  0.98336574  0.49903375  0.23524938  1
  O  O18  1  0.73465946  0.99977693  0.48535582  1
  O  O19  1  0.97860694  0.73512668  0.00491550  1
  O  O20  1  0.73021219  0.23512668  0.25651974  1
  O  O21  1  0.50057631  0.48999523  0.25690103  1
  O  O22  1  0.49033707  0.22071050  0.47462333  1
  O  O23  1  0.74608717  0.72071050  0.23037342  1
  O  O24  1  0.74968852  0.01011973  0.99349205  1
  O  O25  1  0.75163041  0.27852102  0.77736082  1
  O  O26  1  0.50116021  0.77852102  0.02689061  1
  O  O27  1  0.75441427  0.50608877  0.51627966  1
  O  O28  1  0.26200888  0.49443511  0.00251974  1
  O  O29  1  0.24134473  0.24645253  0.24909539  1
  O  O30  1  0.49191438  0.99443511  0.73242623  1
  O  O31  1  0.00811787  0.25769351  0.50746096  1
  O  O32  1  0.75023255  0.75769351  0.74957564  1
  O  O33  1  0.27696731  0.77125848  0.25040749  1
  O  O34  1  0.24965834  0.49925627  0.49864057  1
  O  O35  1  0.52085099  0.27125848  0.99429117  1
  O  O36  1  0.26378437  0.99903375  0.01566900  1
  O  O37  1  0.49829066  0.74099959  0.49718663  1
  O  O38  1  0.24381296  0.24099959  0.74270893  1
  O  O39  1  0.51442111  0.49977693  0.76511747  1
  O  O40  1  0.23309520  0.98999523  0.48941892  1
  O  O41  1  0.25079958  0.74845288  0.74179395  1
  O  O42  1  0.00665794  0.24845288  0.99765230  1
  O  O43  1  0.01662767  0.51011973  0.76043121  1
  O  O44  1  0.99735714  0.74645253  0.50510780  1
  O  O45  1  0.00061569  0.99925627  0.74959793  1
