# generated using pymatgen
data_Li17V16O32
_symmetry_space_group_name_H-M   'P 1'
_cell_length_a   8.48872792
_cell_length_b   10.41778831
_cell_length_c   8.53588990
_cell_angle_alpha   65.67960051
_cell_angle_beta   90.07962805
_cell_angle_gamma   113.86162294
_symmetry_Int_Tables_number   1
_chemical_formula_structural   Li17V16O32
_chemical_formula_sum   'Li17 V16 O32'
_cell_volume   616.59067820
_cell_formula_units_Z   1
loop_
 _symmetry_equiv_pos_site_id
 _symmetry_equiv_pos_as_xyz
  1  'x, y, z'
loop_
 _atom_site_type_symbol
 _atom_site_label
 _atom_site_symmetry_multiplicity
 _atom_site_fract_x
 _atom_site_fract_y
 _atom_site_fract_z
 _atom_site_occupancy
  Li  Li0  1  0.23956702  0.99531471  0.25162449  1
  Li  Li1  1  0.74479500  0.99271367  0.74687363  1
  Li  Li2  1  0.49824105  0.99384326  0.51191090  1
  Li  Li3  1  0.00440647  0.99620761  0.00284150  1
  Li  Li4  1  0.36896663  0.25168408  0.37857200  1
  Li  Li5  1  0.89151384  0.21434925  0.86249761  1
  Li  Li6  1  0.57661917  0.21677140  0.17894238  1
  Li  Li7  1  0.13081927  0.25035801  0.62197283  1
  Li  Li8  1  0.81246234  0.37514472  0.93799550  1
  Li  Li9  1  0.49561627  0.49964368  0.49372687  1
  Li  Li10  1  0.04815884  0.53239122  0.01879694  1
  Li  Li11  1  0.73398741  0.53557762  0.69758185  1
  Li  Li12  1  0.25048291  0.49592984  0.25757433  1
  Li  Li13  1  0.87781921  0.75678796  0.36695274  1
  Li  Li14  1  0.12601659  0.75379830  0.12931055  1
  Li  Li15  1  0.62431491  0.75983880  0.62009811  1
  Li  Li16  1  0.38216992  0.75484356  0.87075938  1
  V  V17  1  0.50168500  0.99991582  0.00087226  1
  V  V18  1  0.25034327  0.00089036  0.74913671  1
  V  V19  1  0.00130131  0.00630433  0.49741100  1
  V  V20  1  0.74783429  0.00043294  0.24856543  1
  V  V21  1  0.37739694  0.25028619  0.87473509  1
  V  V22  1  0.87450863  0.24689736  0.37881754  1
  V  V23  1  0.12226426  0.24696756  0.12757999  1
  V  V24  1  0.62595834  0.25193360  0.62564650  1
  V  V25  1  0.24787924  0.49849664  0.75175746  1
  V  V26  1  0.00045971  0.50172302  0.50213550  1
  V  V27  1  0.75113594  0.50092633  0.24910246  1
  V  V28  1  0.50027840  0.49977272  0.99965030  1
  V  V29  1  0.87567768  0.75094378  0.87327267  1
  V  V30  1  0.62362283  0.74767462  0.12519700  1
  V  V31  1  0.37514604  0.74933823  0.37671253  1
  V  V32  1  0.12549588  0.75356687  0.62415214  1
  O  O33  1  0.99325474  0.00868155  0.24585681  1
  O  O34  1  0.49503328  0.00370572  0.76058325  1
  O  O35  1  0.75156873  0.00806658  0.48832146  1
  O  O36  1  0.26597035  0.01073559  0.99005098  1
  O  O37  1  0.61868479  0.24731322  0.86686585  1
  O  O38  1  0.11792675  0.25463463  0.36302567  1
  O  O39  1  0.38199074  0.24463367  0.63264395  1
  O  O40  1  0.87025905  0.23981703  0.13405520  1
  O  O41  1  0.13699883  0.25299167  0.88140093  1
  O  O42  1  0.87224337  0.26035870  0.61862607  1
  O  O43  1  0.63473967  0.25810544  0.38367372  1
  O  O44  1  0.37512730  0.25967981  0.11514100  1
  O  O45  1  0.99050118  0.49334413  0.26368788  1
  O  O46  1  0.48655259  0.49175474  0.75973924  1
  O  O47  1  0.25148919  0.49163947  0.99459042  1
  O  O48  1  0.75554905  0.49921463  0.49036798  1
  O  O49  1  0.74849642  0.50527983  0.00621698  1
  O  O50  1  0.24697255  0.50629896  0.50815019  1
  O  O51  1  0.01199625  0.50878237  0.74293261  1
  O  O52  1  0.50987616  0.50710882  0.23778848  1
  O  O53  1  0.36410024  0.74551373  0.61784763  1
  O  O54  1  0.12610492  0.74172536  0.38557714  1
  O  O55  1  0.86302359  0.74345764  0.11880243  1
  O  O56  1  0.62583935  0.73940625  0.88308251  1
  O  O57  1  0.12322922  0.75846981  0.86731601  1
  O  O58  1  0.62367729  0.75879142  0.36476989  1
  O  O59  1  0.38555445  0.75200665  0.13508493  1
  O  O60  1  0.88534019  0.75568948  0.63226938  1
  O  O61  1  0.49942695  0.99155818  0.24470296  1
  O  O62  1  0.00616971  0.99330589  0.75351605  1
  O  O63  1  0.24523885  0.99312435  0.51171085  1
  O  O64  1  0.73650764  0.98832360  0.00834736  1
