# generated using pymatgen
data_NaTiPO5
_symmetry_space_group_name_H-M   'P 1'
_cell_length_a   7.49628273
_cell_length_b   6.54778448
_cell_length_c   7.81701118
_cell_angle_alpha   90.00000000
_cell_angle_beta   90.00000000
_cell_angle_gamma   90.00000000
_symmetry_Int_Tables_number   1
_chemical_formula_structural   NaTiPO5
_chemical_formula_sum   'Na4 Ti4 P4 O20'
_cell_volume   383.69051850
_cell_formula_units_Z   4
loop_
 _symmetry_equiv_pos_site_id
 _symmetry_equiv_pos_as_xyz
  1  'x, y, z'
loop_
 _atom_site_type_symbol
 _atom_site_label
 _atom_site_symmetry_multiplicity
 _atom_site_fract_x
 _atom_site_fract_y
 _atom_site_fract_z
 _atom_site_occupancy
  Na  Na0  1  0.00000000  0.00000000  0.00000000  1
  Na  Na1  1  0.00000000  0.50000000  0.00000000  1
  Na  Na2  1  0.50000000  0.00000000  0.50000000  1
  Na  Na3  1  0.50000000  0.50000000  0.50000000  1
  Ti  Ti4  1  0.16491298  0.25000000  0.71495953  1
  Ti  Ti5  1  0.33508702  0.75000000  0.21495953  1
  Ti  Ti6  1  0.66491298  0.25000000  0.78504047  1
  Ti  Ti7  1  0.83508702  0.75000000  0.28504047  1
  P  P8  1  0.12527430  0.75000000  0.60773657  1
  P  P9  1  0.37472570  0.25000000  0.10773657  1
  P  P10  1  0.62527430  0.75000000  0.89226343  1
  P  P11  1  0.87472570  0.25000000  0.39226343  1
  O  O12  1  0.05356871  0.25000000  0.49263983  1
  O  O13  1  0.10766850  0.75000000  0.17139837  1
  O  O14  1  0.13532087  0.55893266  0.72406805  1
  O  O15  1  0.13532087  0.94106734  0.72406805  1
  O  O16  1  0.21433830  0.25000000  0.97925860  1
  O  O17  1  0.28566170  0.75000000  0.47925860  1
  O  O18  1  0.36467913  0.05893266  0.22406805  1
  O  O19  1  0.36467913  0.44106734  0.22406805  1
  O  O20  1  0.39233150  0.25000000  0.67139837  1
  O  O21  1  0.44643129  0.75000000  0.99263983  1
  O  O22  1  0.55356871  0.25000000  0.00736017  1
  O  O23  1  0.60766850  0.75000000  0.32860163  1
  O  O24  1  0.63532087  0.55893266  0.77593195  1
  O  O25  1  0.63532087  0.94106734  0.77593195  1
  O  O26  1  0.71433830  0.25000000  0.52074140  1
  O  O27  1  0.78566170  0.75000000  0.02074140  1
  O  O28  1  0.86467913  0.05893266  0.27593195  1
  O  O29  1  0.86467913  0.44106734  0.27593195  1
  O  O30  1  0.89233150  0.25000000  0.82860163  1
  O  O31  1  0.94643129  0.75000000  0.50736017  1
