# generated using pymatgen
data_Li2Cr2Si5O13
_symmetry_space_group_name_H-M   'P 1'
_cell_length_a   7.66638802
_cell_length_b   8.00485859
_cell_length_c   9.85915210
_cell_angle_alpha   83.27796143
_cell_angle_beta   68.84208395
_cell_angle_gamma   68.74018088
_symmetry_Int_Tables_number   1
_chemical_formula_structural   Li2Cr2Si5O13
_chemical_formula_sum   'Li4 Cr4 Si10 O26'
_cell_volume   525.78729087
_cell_formula_units_Z   2
loop_
 _symmetry_equiv_pos_site_id
 _symmetry_equiv_pos_as_xyz
  1  'x, y, z'
loop_
 _atom_site_type_symbol
 _atom_site_label
 _atom_site_symmetry_multiplicity
 _atom_site_fract_x
 _atom_site_fract_y
 _atom_site_fract_z
 _atom_site_occupancy
  Li  Li0  1  0.21838151  0.06609720  0.85737732  1
  Li  Li1  1  0.14740175  0.40368973  0.74264937  1
  Li  Li2  1  0.85259825  0.59631027  0.25735063  1
  Li  Li3  1  0.78161849  0.93390280  0.14262268  1
  Cr  Cr4  1  0.04036601  0.14932532  0.60052978  1
  Cr  Cr5  1  0.43552863  0.83966426  0.40417312  1
  Cr  Cr6  1  0.56447137  0.16033574  0.59582688  1
  Cr  Cr7  1  0.95963399  0.85067468  0.39947022  1
  Si  Si8  1  0.16884992  0.22473545  0.26207835  1
  Si  Si9  1  0.20441625  0.69617262  0.04706987  1
  Si  Si10  1  0.31450589  0.45533950  0.40473770  1
  Si  Si11  1  0.24168408  0.75475162  0.73700273  1
  Si  Si12  1  0.61806606  0.70453986  0.04610004  1
  Si  Si13  1  0.38193394  0.29546014  0.95389996  1
  Si  Si14  1  0.75831592  0.24524838  0.26299727  1
  Si  Si15  1  0.68549411  0.54466050  0.59526230  1
  Si  Si16  1  0.79558375  0.30382738  0.95293013  1
  Si  Si17  1  0.83115008  0.77526455  0.73792165  1
  O  O18  1  0.00926973  0.77187300  0.18853971  1
  O  O19  1  0.18994451  0.05992480  0.37466427  1
  O  O20  1  0.31901526  0.16567313  0.09360063  1
  O  O21  1  0.20716747  0.39255527  0.31009119  1
  O  O22  1  0.05975475  0.68678426  0.74590574  1
  O  O23  1  0.40181491  0.69454169  0.07107631  1
  O  O24  1  0.20777786  0.66852962  0.43066516  1
  O  O25  1  0.31619217  0.32862875  0.54618152  1
  O  O26  1  0.55269379  0.41677414  0.29962880  1
  O  O27  1  0.37342803  0.21898573  0.81315855  1
  O  O28  1  0.21885455  0.50045302  0.99914679  1
  O  O29  1  0.26774588  0.91852977  0.62747420  1
  O  O30  1  0.18451646  0.82980822  0.90470759  1
  O  O31  1  0.81548354  0.17019178  0.09529241  1
  O  O32  1  0.73225412  0.08147023  0.37252580  1
  O  O33  1  0.78114545  0.49954698  0.00085321  1
  O  O34  1  0.62657197  0.78101427  0.18684145  1
  O  O35  1  0.44730621  0.58322586  0.70037120  1
  O  O36  1  0.68380783  0.67137125  0.45381848  1
  O  O37  1  0.79222214  0.33147038  0.56933484  1
  O  O38  1  0.59818509  0.30545831  0.92892369  1
  O  O39  1  0.94024525  0.31321574  0.25409426  1
  O  O40  1  0.79283253  0.60744473  0.68990881  1
  O  O41  1  0.68098474  0.83432687  0.90639937  1
  O  O42  1  0.81005549  0.94007520  0.62533573  1
  O  O43  1  0.99073027  0.22812700  0.81146029  1
