# generated using pymatgen
data_NaMnP2H10NO10
_symmetry_space_group_name_H-M   'P 1'
_cell_length_a   9.66154739
_cell_length_b   9.66154739
_cell_length_c   5.62877438
_cell_angle_alpha   82.64433436
_cell_angle_beta   97.35566564
_cell_angle_gamma   63.58290810
_symmetry_Int_Tables_number   1
_chemical_formula_structural   NaMnP2H10NO10
_chemical_formula_sum   'Na2 Mn2 P4 H20 N2 O20'
_cell_volume   456.44956379
_cell_formula_units_Z   2
loop_
 _symmetry_equiv_pos_site_id
 _symmetry_equiv_pos_as_xyz
  1  'x, y, z'
loop_
 _atom_site_type_symbol
 _atom_site_label
 _atom_site_symmetry_multiplicity
 _atom_site_fract_x
 _atom_site_fract_y
 _atom_site_fract_z
 _atom_site_occupancy
  Na  Na0  1  0.77921021  0.09867906  0.65144360  1
  Na  Na1  1  0.90132094  0.22078979  0.15144360  1
  Mn  Mn2  1  0.54958984  0.94027710  0.88009565  1
  Mn  Mn3  1  0.05972290  0.45041016  0.38009565  1
  P  P4  1  0.28029831  0.29346010  0.96000859  1
  P  P5  1  0.13935099  0.11312959  0.75031461  1
  P  P6  1  0.70653990  0.71970169  0.46000859  1
  P  P7  1  0.88687041  0.86064901  0.25031461  1
  H  H8  1  0.07642463  0.84695646  0.79751751  1
  H  H9  1  0.15304354  0.92357537  0.29751751  1
  H  H10  1  0.10584003  0.67951167  0.98427049  1
  H  H11  1  0.09894131  0.68631825  0.67830570  1
  H  H12  1  0.32048833  0.89415997  0.48427049  1
  H  H13  1  0.25519340  0.68320752  0.85456043  1
  H  H14  1  0.31368175  0.90105869  0.17830570  1
  H  H15  1  0.31679248  0.74480660  0.35456043  1
  H  H16  1  0.51612020  0.65683981  0.78115509  1
  H  H17  1  0.34316019  0.48387980  0.28115509  1
  H  H18  1  0.38956434  0.48445445  0.55183576  1
  H  H19  1  0.51554555  0.61043566  0.05183576  1
  H  H20  1  0.59085832  0.38951844  0.90754948  1
  H  H21  1  0.42551620  0.22516633  0.57001811  1
  H  H22  1  0.61048156  0.40914168  0.40754948  1
  H  H23  1  0.87796058  0.50747166  0.87484371  1
  H  H24  1  0.60866604  0.22005377  0.99549198  1
  H  H25  1  0.77483367  0.57448380  0.07001811  1
  H  H26  1  0.49252834  0.12203942  0.37484371  1
  H  H27  1  0.77994623  0.39133396  0.49549198  1
  N  N28  1  0.13335434  0.72369249  0.82836445  1
  N  N29  1  0.27630751  0.86664566  0.32836445  1
  O  O30  1  0.30779281  0.97426020  0.78708142  1
  O  O31  1  0.02573980  0.69220719  0.28708142  1
  O  O32  1  0.78127871  0.92004061  0.99325253  1
  O  O33  1  0.47619686  0.59872473  0.88948605  1
  O  O34  1  0.59782691  0.76689595  0.64351309  1
  O  O35  1  0.15386498  0.22469400  0.94350333  1
  O  O36  1  0.26208013  0.38133964  0.69981033  1
  O  O37  1  0.07995939  0.21872129  0.49325253  1
  O  O38  1  0.02626190  0.06001014  0.84138647  1
  O  O39  1  0.40127527  0.52380314  0.38948605  1
  O  O40  1  0.23310405  0.40217309  0.14351309  1
  O  O41  1  0.77530600  0.84613502  0.44350333  1
  O  O42  1  0.61866036  0.73791987  0.19981033  1
  O  O43  1  0.93998986  0.97373810  0.34138647  1
  O  O44  1  0.65868345  0.27597194  0.91401805  1
  O  O45  1  0.84929618  0.55345721  0.55619362  1
  O  O46  1  0.51501717  0.12739574  0.55086695  1
  O  O47  1  0.72402806  0.34131655  0.41401805  1
  O  O48  1  0.44654279  0.15070382  0.05619362  1
  O  O49  1  0.87260426  0.48498283  0.05086695  1
