# generated using pymatgen
data_Li7V3P8O29
_symmetry_space_group_name_H-M   'P 1'
_cell_length_a   9.84588559
_cell_length_b   9.85762564
_cell_length_c   13.90327266
_cell_angle_alpha   90.19982594
_cell_angle_beta   89.78914706
_cell_angle_gamma   59.86230858
_symmetry_Int_Tables_number   1
_chemical_formula_structural   Li7V3P8O29
_chemical_formula_sum   'Li14 V6 P16 O58'
_cell_volume   1166.96902266
_cell_formula_units_Z   2
loop_
 _symmetry_equiv_pos_site_id
 _symmetry_equiv_pos_as_xyz
  1  'x, y, z'
loop_
 _atom_site_type_symbol
 _atom_site_label
 _atom_site_symmetry_multiplicity
 _atom_site_fract_x
 _atom_site_fract_y
 _atom_site_fract_z
 _atom_site_occupancy
  Li  Li0  1  0.90174741  0.76162657  0.06009389  1
  Li  Li1  1  0.77297570  0.90649245  0.56565519  1
  Li  Li2  1  0.91388779  0.31915868  0.55971248  1
  Li  Li3  1  0.66546901  0.67820322  0.88319508  1
  Li  Li4  1  0.76676404  0.32877309  0.06346842  1
  Li  Li5  1  0.31990825  0.90453960  0.06060591  1
  Li  Li6  1  0.68472778  0.22593294  0.43985954  1
  Li  Li7  1  0.31483829  0.77450552  0.56059742  1
  Li  Li8  1  0.22874449  0.66956427  0.93794771  1
  Li  Li9  1  0.34564260  0.32935863  0.11133707  1
  Li  Li10  1  0.09069978  0.68708673  0.44019490  1
  Li  Li11  1  0.22963669  0.08583174  0.44309440  1
  Li  Li12  1  0.09420063  0.23025885  0.93644948  1
  Li  Li13  1  0.93831171  0.01367928  0.98881386  1
  V  V14  1  0.56898210  0.43263784  0.25051247  1
  V  V15  1  0.43243579  0.56665714  0.74996845  1
  V  V16  1  0.56601684  0.00462413  0.75324941  1
  V  V17  1  0.43729539  0.99829016  0.24723290  1
  V  V18  1  0.99873591  0.56907696  0.25112673  1
  V  V19  1  0.00200731  0.43336862  0.74959631  1
  P  P20  1  0.90872561  0.77549074  0.84280297  1
  P  P21  1  0.76563942  0.91348123  0.34486119  1
  P  P22  1  0.91598936  0.31892844  0.34166969  1
  P  P23  1  0.66675650  0.66885977  0.12378185  1
  P  P24  1  0.66992036  0.66479875  0.62858040  1
  P  P25  1  0.77612826  0.31556153  0.84603640  1
  P  P26  1  0.68478638  0.23139059  0.66001755  1
  P  P27  1  0.31611103  0.90929514  0.84267380  1
  P  P28  1  0.69506127  0.08399824  0.15794061  1
  P  P29  1  0.32134260  0.76885400  0.34147378  1
  P  P30  1  0.22648976  0.68129717  0.15770205  1
  P  P31  1  0.33407817  0.33134929  0.37121691  1
  P  P32  1  0.32656079  0.33960484  0.87339488  1
  P  P33  1  0.09149091  0.67632776  0.65858690  1
  P  P34  1  0.23429783  0.08669057  0.65810752  1
  P  P35  1  0.09143806  0.22682254  0.15527994  1
  O  O36  1  0.00026233  0.75600209  0.56928178  1
  O  O37  1  0.91865468  0.75025250  0.34203493  1
  O  O38  1  0.80175594  0.98425400  0.07782218  1
  O  O39  1  0.74736921  0.91940617  0.84229311  1
  O  O40  1  0.89592112  0.62528413  0.83296739  1
  O  O41  1  0.81198228  0.67694200  0.16167417  1
  O  O42  1  0.89988094  0.48103392  0.31744034  1
  O  O43  1  0.99738570  0.23244708  0.06810530  1
  O  O44  1  0.92236906  0.33443001  0.84305695  1
  O  O45  1  0.67345609  0.81187023  0.66479624  1
  O  O46  1  0.62262888  0.89522460  0.32373663  1
  O  O47  1  0.81796352  0.51461147  0.67605224  1
  O  O48  1  0.65981909  0.68283300  0.01581601  1
  O  O49  1  0.68111237  0.64178645  0.52194847  1
  O  O50  1  0.67246739  0.51681153  0.15740185  1
  O  O51  1  0.47997701  0.88917243  0.83463921  1
  O  O52  1  0.51169497  0.81651604  0.16598448  1
  O  O53  1  0.75601832  0.33090503  0.34408950  1
  O  O54  1  0.79256951  0.21219706  0.75168178  1
  O  O55  1  0.75688780  0.25426780  0.57005460  1
  O  O56  1  0.78312656  0.22559031  0.93506113  1
  O  O57  1  0.62668384  0.47866461  0.83486743  1
  O  O58  1  0.51667979  0.67055573  0.67058309  1
  O  O59  1  0.67028352  0.25038830  0.15532971  1
  O  O60  1  0.48189171  0.62672360  0.32190023  1
  O  O61  1  0.32894586  0.92165760  0.33960973  1
  O  O62  1  0.78395502  0.01174616  0.25856891  1
  O  O63  1  0.75240657  0.99940384  0.43702778  1
  O  O64  1  0.24319008  0.99447457  0.56875412  1
  O  O65  1  0.66926666  0.08587518  0.65729936  1
  O  O66  1  0.52274465  0.38062133  0.68302744  1
  O  O67  1  0.33210558  0.74325114  0.84136392  1
  O  O68  1  0.48672721  0.32718009  0.33674706  1
  O  O69  1  0.37076795  0.51698620  0.16623845  1
  O  O70  1  0.22443357  0.77047090  0.06878338  1
  O  O71  1  0.24278626  0.75717546  0.43190876  1
  O  O72  1  0.20803806  0.78567534  0.25098284  1
  O  O73  1  0.25454362  0.66551449  0.65794620  1
  O  O74  1  0.47294492  0.19699630  0.83462906  1
  O  O75  1  0.53186564  0.09494999  0.16260375  1
  O  O76  1  0.31772356  0.49457826  0.83750822  1
  O  O77  1  0.30556126  0.34948521  0.98165061  1
  O  O78  1  0.32275792  0.31871699  0.47711133  1
  O  O79  1  0.18697316  0.48539907  0.33083692  1
  O  O80  1  0.37753174  0.10115869  0.67528180  1
  O  O81  1  0.33503992  0.18409933  0.31931074  1
  O  O82  1  0.07620754  0.66536882  0.15922135  1
  O  O83  1  0.00268162  0.78668922  0.75054950  1
  O  O84  1  0.00044745  0.77275796  0.93203555  1
  O  O85  1  0.10868536  0.51506893  0.67509751  1
  O  O86  1  0.17733303  0.33459332  0.83221798  1
  O  O87  1  0.10910704  0.37308605  0.16874822  1
  O  O88  1  0.25547651  0.07881801  0.15200477  1
  O  O89  1  0.22249609  0.99840433  0.93133199  1
  O  O90  1  0.21363769  0.99495107  0.74990763  1
  O  O91  1  0.08143900  0.24800212  0.65912541  1
  O  O92  1  0.01114274  0.24940250  0.43084365  1
  O  O93  1  0.00786828  0.20771742  0.25015825  1
