# generated using pymatgen
data_AsRhO4
_symmetry_space_group_name_H-M   'P 1'
_cell_length_a   5.47604149
_cell_length_b   5.47604149
_cell_length_c   5.47604149
_cell_angle_alpha   72.19972405
_cell_angle_beta   107.80027595
_cell_angle_gamma   67.13257107
_symmetry_Int_Tables_number   1
_chemical_formula_structural   AsRhO4
_chemical_formula_sum   'As2 Rh2 O8'
_cell_volume   126.07386298
_cell_formula_units_Z   2
loop_
 _symmetry_equiv_pos_site_id
 _symmetry_equiv_pos_as_xyz
  1  'x, y, z'
loop_
 _atom_site_type_symbol
 _atom_site_label
 _atom_site_symmetry_multiplicity
 _atom_site_fract_x
 _atom_site_fract_y
 _atom_site_fract_z
 _atom_site_occupancy
  As  As0  1  0.75434675  0.74565325  0.50000000  1
  As  As1  1  0.50434675  0.49565325  0.00000000  1
  Rh  Rh2  1  0.24425605  0.25574395  0.50000000  1
  Rh  Rh3  1  0.99425605  0.00574395  0.00000000  1
  O  O4  1  0.07403983  0.73446792  0.80850775  1
  O  O5  1  0.54636631  0.26483348  0.81119980  1
  O  O6  1  0.51553208  0.79297568  0.69149225  1
  O  O7  1  0.98516652  0.32603228  0.68880020  1
  O  O8  1  0.98516652  0.70363369  0.31119980  1
  O  O9  1  0.51553208  0.17596017  0.30850775  1
  O  O10  1  0.92396772  0.26483348  0.18880020  1
  O  O11  1  0.45702432  0.73446792  0.19149225  1
