# generated using pymatgen
data_Tm2Sb2O7
_symmetry_space_group_name_H-M   'P 1'
_cell_length_a   7.53235581
_cell_length_b   7.53235581
_cell_length_c   10.55370137
_cell_angle_alpha   45.52822579
_cell_angle_beta   134.47177421
_cell_angle_gamma   118.83791099
_symmetry_Int_Tables_number   1
_chemical_formula_structural   Tm2Sb2O7
_chemical_formula_sum   'Tm4 Sb4 O14'
_cell_volume   304.86746198
_cell_formula_units_Z   2
loop_
 _symmetry_equiv_pos_site_id
 _symmetry_equiv_pos_as_xyz
  1  'x, y, z'
loop_
 _atom_site_type_symbol
 _atom_site_label
 _atom_site_symmetry_multiplicity
 _atom_site_fract_x
 _atom_site_fract_y
 _atom_site_fract_z
 _atom_site_occupancy
  Tm  Tm0  1  0.74182810  0.74182810  0.00000000  1
  Tm  Tm1  1  0.77983887  0.19719534  0.54132226  1
  Tm  Tm2  1  0.74182810  0.74182810  0.50000000  1
  Tm  Tm3  1  0.19719534  0.77983887  0.45867774  1
  Sb  Sb4  1  0.26480816  0.26480816  0.00000000  1
  Sb  Sb5  1  0.22646547  0.74013604  0.99316472  1
  Sb  Sb6  1  0.26480816  0.26480816  0.50000000  1
  Sb  Sb7  1  0.74013604  0.22646547  0.00683528  1
  O  O8  1  0.93377026  0.01725918  0.08541595  1
  O  O9  1  0.93377026  0.01725918  0.33109512  1
  O  O10  1  0.49889321  0.99414940  0.37050687  1
  O  O11  1  0.42244906  0.55929533  0.04652948  1
  O  O12  1  0.48564078  0.98060213  0.00251883  1
  O  O13  1  0.42244906  0.55929533  0.31662325  1
  O  O14  1  0.49889321  0.99414940  0.63423694  1
  O  O15  1  0.99414940  0.49889321  0.36576306  1
  O  O16  1  0.55929533  0.42244906  0.68337675  1
  O  O17  1  0.98060213  0.48564078  0.99748117  1
  O  O18  1  0.55929533  0.42244906  0.95347052  1
  O  O19  1  0.99414940  0.49889321  0.62949313  1
  O  O20  1  0.01725918  0.93377026  0.66890488  1
  O  O21  1  0.01725918  0.93377026  0.91458405  1
