# generated using pymatgen
data_NaCuP2O7
_symmetry_space_group_name_H-M   'P 1'
_cell_length_a   8.87632424
_cell_length_b   13.80691073
_cell_length_c   4.97162763
_cell_angle_alpha   90.00000000
_cell_angle_beta   92.19980578
_cell_angle_gamma   90.00000000
_symmetry_Int_Tables_number   1
_chemical_formula_structural   NaCuP2O7
_chemical_formula_sum   'Na4 Cu4 P8 O28'
_cell_volume   608.84689406
_cell_formula_units_Z   4
loop_
 _symmetry_equiv_pos_site_id
 _symmetry_equiv_pos_as_xyz
  1  'x, y, z'
loop_
 _atom_site_type_symbol
 _atom_site_label
 _atom_site_symmetry_multiplicity
 _atom_site_fract_x
 _atom_site_fract_y
 _atom_site_fract_z
 _atom_site_occupancy
  Na  Na0  1  0.13631661  0.88031909  0.22030573  1
  Na  Na1  1  0.36368339  0.38031909  0.27969427  1
  Na  Na2  1  0.63631661  0.61968091  0.72030573  1
  Na  Na3  1  0.86368339  0.11968091  0.77969427  1
  Cu  Cu4  1  0.23757486  0.65935149  0.29874731  1
  Cu  Cu5  1  0.26242514  0.15935149  0.20125269  1
  Cu  Cu6  1  0.73757486  0.84064851  0.79874731  1
  Cu  Cu7  1  0.76242514  0.34064851  0.70125269  1
  P  P8  1  0.04368981  0.67889800  0.77192467  1
  P  P9  1  0.23301005  0.03730211  0.71069262  1
  P  P10  1  0.26698995  0.53730211  0.78930738  1
  P  P11  1  0.45631019  0.17889800  0.72807533  1
  P  P12  1  0.54368981  0.82110200  0.27192467  1
  P  P13  1  0.73301005  0.46269789  0.21069262  1
  P  P14  1  0.76698995  0.96269789  0.28930738  1
  P  P15  1  0.95631019  0.32110200  0.22807533  1
  O  O16  1  0.08687852  0.56396846  0.76073662  1
  O  O17  1  0.09487514  0.72489983  0.50332155  1
  O  O18  1  0.14922752  0.72108245  0.00050170  1
  O  O19  1  0.12152083  0.30927513  0.19449167  1
  O  O20  1  0.15477100  0.11311164  0.89525534  1
  O  O21  1  0.18009211  0.05873598  0.41121982  1
  O  O22  1  0.20785231  0.93369049  0.77631520  1
  O  O23  1  0.29214769  0.43369049  0.72368480  1
  O  O24  1  0.31990789  0.55873598  0.08878018  1
  O  O25  1  0.34522900  0.61311164  0.60474466  1
  O  O26  1  0.35077248  0.22108245  0.49949830  1
  O  O27  1  0.37847917  0.80927513  0.30550833  1
  O  O28  1  0.40512486  0.22489983  0.99667845  1
  O  O29  1  0.41312148  0.06396846  0.73926338  1
  O  O30  1  0.58687852  0.93603154  0.26073662  1
  O  O31  1  0.59487514  0.77510017  0.00332155  1
  O  O32  1  0.62152083  0.19072487  0.69449167  1
  O  O33  1  0.64922752  0.77891755  0.50050170  1
  O  O34  1  0.65477100  0.38688836  0.39525534  1
  O  O35  1  0.68009211  0.44126402  0.91121982  1
  O  O36  1  0.70785231  0.56630951  0.27631520  1
  O  O37  1  0.79214769  0.06630951  0.22368480  1
  O  O38  1  0.81990789  0.94126402  0.58878018  1
  O  O39  1  0.84522900  0.88688836  0.10474466  1
  O  O40  1  0.87847917  0.69072487  0.80550833  1
  O  O41  1  0.85077248  0.27891755  0.99949830  1
  O  O42  1  0.90512486  0.27510017  0.49667845  1
  O  O43  1  0.91312148  0.43603154  0.23926338  1
