# generated using pymatgen
data_P4WO12
_symmetry_space_group_name_H-M   'P 1'
_cell_length_a   5.34084718
_cell_length_b   13.87436287
_cell_length_c   7.27955432
_cell_angle_alpha   90.00000000
_cell_angle_beta   97.89960208
_cell_angle_gamma   90.00000000
_symmetry_Int_Tables_number   1
_chemical_formula_structural   P4WO12
_chemical_formula_sum   'P8 W2 O24'
_cell_volume   534.30229473
_cell_formula_units_Z   2
loop_
 _symmetry_equiv_pos_site_id
 _symmetry_equiv_pos_as_xyz
  1  'x, y, z'
loop_
 _atom_site_type_symbol
 _atom_site_label
 _atom_site_symmetry_multiplicity
 _atom_site_fract_x
 _atom_site_fract_y
 _atom_site_fract_z
 _atom_site_occupancy
  P  P0  1  0.00810757  0.12393406  0.55684311  1
  P  P1  1  0.03057652  0.90406442  0.56075446  1
  P  P2  1  0.13476188  0.32898398  0.09148991  1
  P  P3  1  0.21644139  0.67649868  0.10602875  1
  P  P4  1  0.78355861  0.17649868  0.89397125  1
  P  P5  1  0.86523812  0.82898398  0.90851009  1
  P  P6  1  0.96942348  0.40406442  0.43924554  1
  P  P7  1  0.99189243  0.62393406  0.44315689  1
  W  W8  1  0.48910415  0.26520118  0.49601832  1
  W  W9  1  0.51089585  0.76520118  0.50398168  1
  O  O10  1  0.00854739  0.13883262  0.77181018  1
  O  O11  1  0.04916720  0.73664885  0.94771715  1
  O  O12  1  0.03512823  0.89284426  0.77733421  1
  O  O13  1  0.04817539  0.51280052  0.48349891  1
  O  O14  1  0.18606065  0.38473991  0.93117324  1
  O  O15  1  0.16881880  0.34231878  0.54753096  1
  O  O16  1  0.20130849  0.67901256  0.55787993  1
  O  O17  1  0.27277668  0.14240171  0.50885831  1
  O  O18  1  0.29632766  0.88938520  0.51234725  1
  O  O19  1  0.35750783  0.28597774  0.22427826  1
  O  O20  1  0.35013277  0.59661983  0.03100048  1
  O  O21  1  0.37341994  0.75016672  0.23290437  1
  O  O22  1  0.62658006  0.25016672  0.76709563  1
  O  O23  1  0.64986723  0.09661983  0.96899952  1
  O  O24  1  0.64249217  0.78597774  0.77572174  1
  O  O25  1  0.70367234  0.38938520  0.48765275  1
  O  O26  1  0.72722332  0.64240171  0.49114169  1
  O  O27  1  0.79869151  0.17901256  0.44212007  1
  O  O28  1  0.83118120  0.84231878  0.45246904  1
  O  O29  1  0.81393935  0.88473991  0.06882676  1
  O  O30  1  0.95182461  0.01280052  0.51650109  1
  O  O31  1  0.96487177  0.39284426  0.22266579  1
  O  O32  1  0.95083280  0.23664885  0.05228285  1
  O  O33  1  0.99145261  0.63883262  0.22818982  1
