# generated using pymatgen
data_Rb3InO3
_symmetry_space_group_name_H-M   'P 1'
_cell_length_a   14.84019036
_cell_length_b   7.10680428
_cell_length_c   7.16082669
_cell_angle_alpha   90.00000000
_cell_angle_beta   118.29934837
_cell_angle_gamma   90.00000000
_symmetry_Int_Tables_number   1
_chemical_formula_structural   Rb3InO3
_chemical_formula_sum   'Rb12 In4 O12'
_cell_volume   664.96354944
_cell_formula_units_Z   4
loop_
 _symmetry_equiv_pos_site_id
 _symmetry_equiv_pos_as_xyz
  1  'x, y, z'
loop_
 _atom_site_type_symbol
 _atom_site_label
 _atom_site_symmetry_multiplicity
 _atom_site_fract_x
 _atom_site_fract_y
 _atom_site_fract_z
 _atom_site_occupancy
  Rb  Rb0  1  0.89345696  0.55635572  0.21486050  1
  Rb  Rb1  1  0.11569705  0.95187338  0.73171946  1
  Rb  Rb2  1  0.18258778  0.58224586  0.38158554  1
  Rb  Rb3  1  0.31741222  0.08224586  0.61841446  1
  Rb  Rb4  1  0.38430295  0.45187338  0.26828054  1
  Rb  Rb5  1  0.60654304  0.05635572  0.78513950  1
  Rb  Rb6  1  0.39345696  0.94364428  0.21486050  1
  Rb  Rb7  1  0.61569705  0.54812662  0.73171946  1
  Rb  Rb8  1  0.68258778  0.91775414  0.38158554  1
  Rb  Rb9  1  0.81741222  0.41775414  0.61841446  1
  Rb  Rb10  1  0.88430295  0.04812662  0.26828054  1
  Rb  Rb11  1  0.10654304  0.44364428  0.78513950  1
  In  In12  1  0.08591696  0.12883548  0.16507075  1
  In  In13  1  0.41408304  0.62883548  0.83492925  1
  In  In14  1  0.58591696  0.37116452  0.16507075  1
  In  In15  1  0.91408304  0.87116452  0.83492925  1
  O  O16  1  0.07325856  0.25793966  0.41221839  1
  O  O17  1  0.03787854  0.83978494  0.15146915  1
  O  O18  1  0.27783451  0.69529497  0.83627012  1
  O  O19  1  0.22216549  0.19529497  0.16372988  1
  O  O20  1  0.46212146  0.33978494  0.84853085  1
  O  O21  1  0.42674144  0.75793966  0.58778161  1
  O  O22  1  0.57325856  0.24206034  0.41221839  1
  O  O23  1  0.53787854  0.66021506  0.15146915  1
  O  O24  1  0.77783451  0.80470503  0.83627012  1
  O  O25  1  0.72216549  0.30470503  0.16372988  1
  O  O26  1  0.96212146  0.16021506  0.84853085  1
  O  O27  1  0.92674144  0.74206034  0.58778161  1
