# generated using pymatgen
data_Mn3Co(PO4)4
_symmetry_space_group_name_H-M   'P 1'
_cell_length_a   4.89583217
_cell_length_b   9.82057692
_cell_length_c   6.02442550
_cell_angle_alpha   90.00000000
_cell_angle_beta   90.00000000
_cell_angle_gamma   90.22768884
_symmetry_Int_Tables_number   1
_chemical_formula_structural   Mn3Co(PO4)4
_chemical_formula_sum   'Mn3 Co1 P4 O16'
_cell_volume   289.65146672
_cell_formula_units_Z   1
loop_
 _symmetry_equiv_pos_site_id
 _symmetry_equiv_pos_as_xyz
  1  'x, y, z'
loop_
 _atom_site_type_symbol
 _atom_site_label
 _atom_site_symmetry_multiplicity
 _atom_site_fract_x
 _atom_site_fract_y
 _atom_site_fract_z
 _atom_site_occupancy
  Mn  Mn0  1  0.43277056  0.21447400  0.75000000  1
  Mn  Mn1  1  0.55894134  0.77958403  0.25000000  1
  Mn  Mn2  1  0.93419950  0.28561768  0.25000000  1
  Co  Co3  1  0.03321630  0.72452985  0.75000000  1
  P  P4  1  0.08810720  0.60172854  0.25000000  1
  P  P5  1  0.41832250  0.09907209  0.25000000  1
  P  P6  1  0.58100858  0.90007201  0.75000000  1
  P  P7  1  0.91911239  0.40024201  0.75000000  1
  O  O8  1  0.14710487  0.44730014  0.25000000  1
  O  O9  1  0.22967778  0.67123124  0.04771355  1
  O  O10  1  0.22967778  0.67123124  0.45228645  1
  O  O11  1  0.23018895  0.38043226  0.75000000  1
  O  O12  1  0.27019831  0.87803468  0.75000000  1
  O  O13  1  0.27504135  0.17062679  0.05009462  1
  O  O14  1  0.27504135  0.17062679  0.44990538  1
  O  O15  1  0.35520703  0.94555096  0.25000000  1
  O  O16  1  0.64826071  0.05289167  0.75000000  1
  O  O17  1  0.72978911  0.82841732  0.55139451  1
  O  O18  1  0.72978911  0.82841732  0.94860549  1
  O  O19  1  0.73014601  0.11908587  0.25000000  1
  O  O20  1  0.77356762  0.61821875  0.25000000  1
  O  O21  1  0.77493846  0.32887307  0.55038742  1
  O  O22  1  0.77493846  0.32887307  0.94961258  1
  O  O23  1  0.86075673  0.55486563  0.75000000  1
