# generated using pymatgen
data_Li2Ti3BiO8
_symmetry_space_group_name_H-M   'P 1'
_cell_length_a   6.00948061
_cell_length_b   6.00948034
_cell_length_c   6.68617045
_cell_angle_alpha   63.29504108
_cell_angle_beta   116.70495173
_cell_angle_gamma   120.00000419
_symmetry_Int_Tables_number   1
_chemical_formula_structural   Li2Ti3BiO8
_chemical_formula_sum   'Li2 Ti3 Bi1 O8'
_cell_volume   178.75516649
_cell_formula_units_Z   1
loop_
 _symmetry_equiv_pos_site_id
 _symmetry_equiv_pos_as_xyz
  1  'x, y, z'
loop_
 _atom_site_type_symbol
 _atom_site_label
 _atom_site_symmetry_multiplicity
 _atom_site_fract_x
 _atom_site_fract_y
 _atom_site_fract_z
 _atom_site_occupancy
  Li  Li0  1  0.90585715  0.09414285  0.71757246  1
  Li  Li1  1  0.09414285  0.90585715  0.28242754  1
  Ti  Ti2  1  0.50000000  0.50000000  0.00000000  1
  Ti  Ti3  1  0.50000000  0.00000000  0.00000000  1
  Ti  Ti4  1  0.00000000  0.50000000  0.00000000  1
  Bi  Bi5  1  0.50000000  0.50000000  0.50000000  1
  O  O6  1  0.75586956  0.70999007  0.80174905  1
  O  O7  1  0.75586956  0.24413044  0.80174905  1
  O  O8  1  0.27345548  0.72654452  0.82036543  1
  O  O9  1  0.29000993  0.24413044  0.80174905  1
  O  O10  1  0.70999007  0.75586956  0.19825095  1
  O  O11  1  0.72654452  0.27345548  0.17963457  1
  O  O12  1  0.24413044  0.75586956  0.19825095  1
  O  O13  1  0.24413044  0.29000993  0.19825095  1
