# generated using pymatgen
data_LiV2(PO4)3
_symmetry_space_group_name_H-M   'P 1'
_cell_length_a   8.62248107
_cell_length_b   12.04581381
_cell_length_c   8.61460476
_cell_angle_alpha   90.14501460
_cell_angle_beta   90.18453760
_cell_angle_gamma   90.11397496
_symmetry_Int_Tables_number   1
_chemical_formula_structural   LiV2(PO4)3
_chemical_formula_sum   'Li4 V8 P12 O48'
_cell_volume   894.74492314
_cell_formula_units_Z   4
loop_
 _symmetry_equiv_pos_site_id
 _symmetry_equiv_pos_as_xyz
  1  'x, y, z'
loop_
 _atom_site_type_symbol
 _atom_site_label
 _atom_site_symmetry_multiplicity
 _atom_site_fract_x
 _atom_site_fract_y
 _atom_site_fract_z
 _atom_site_occupancy
  Li  Li0  1  0.28673596  0.31830719  0.27344391  1
  Li  Li1  1  0.78362797  0.81861788  0.22603503  1
  Li  Li2  1  0.93487867  0.28977380  0.90838139  1
  Li  Li3  1  0.94188424  0.71263127  0.59402287  1
  V  V4  1  0.25713918  0.38316610  0.95574785  1
  V  V5  1  0.25907831  0.61939694  0.53162006  1
  V  V6  1  0.24983409  0.11539066  0.46822692  1
  V  V7  1  0.25031314  0.88001860  0.03594318  1
  V  V8  1  0.74292284  0.11385856  0.96711348  1
  V  V9  1  0.74144520  0.88877085  0.54226649  1
  V  V10  1  0.75063386  0.38033655  0.46370956  1
  V  V11  1  0.75058827  0.61485533  0.03254316  1
  P  P12  1  0.03818329  0.49977104  0.25056015  1
  P  P13  1  0.10871461  0.14432270  0.10172330  1
  P  P14  1  0.10626752  0.85455613  0.39220949  1
  P  P15  1  0.39708061  0.35561108  0.60327022  1
  P  P16  1  0.39354360  0.64576040  0.89467662  1
  P  P17  1  0.45761767  0.00010527  0.75239641  1
  P  P18  1  0.53314077  0.00048744  0.25040269  1
  P  P19  1  0.61052875  0.35332918  0.10642087  1
  P  P20  1  0.61360737  0.64538171  0.39825766  1
  P  P21  1  0.89540771  0.85517964  0.89713470  1
  P  P22  1  0.89319558  0.14664108  0.60370758  1
  P  P23  1  0.96204272  0.50053422  0.74781304  1
  O  O24  1  0.06125101  0.57929974  0.64824148  1
  O  O25  1  0.05856072  0.42210261  0.85354685  1
  O  O26  1  0.07105157  0.15338081  0.58367161  1
  O  O27  1  0.07202932  0.84617789  0.91056671  1
  O  O28  1  0.16471169  0.02879589  0.06057336  1
  O  O29  1  0.15993187  0.97096977  0.43829674  1
  O  O30  1  0.16159663  0.17755692  0.26758242  1
  O  O31  1  0.14949512  0.82641241  0.22436608  1
  O  O32  1  0.14997126  0.42393006  0.15741003  1
  O  O33  1  0.14152466  0.57591432  0.35292056  1
  O  O34  1  0.17002556  0.23310952  0.98480958  1
  O  O35  1  0.16723242  0.76879696  0.51172852  1
  O  O36  1  0.32119085  0.27273354  0.48722592  1
  O  O37  1  0.32001786  0.72861705  0.00700559  1
  O  O38  1  0.35801852  0.07887666  0.65573273  1
  O  O39  1  0.35710960  0.92380559  0.84868940  1
  O  O40  1  0.35132688  0.66827943  0.72285073  1
  O  O41  1  0.35170018  0.32848628  0.77289451  1
  O  O42  1  0.34012290  0.47130873  0.55703010  1
  O  O43  1  0.33585198  0.52776089  0.93781134  1
  O  O44  1  0.43673934  0.66121374  0.41163659  1
  O  O45  1  0.43094008  0.34032634  0.09331739  1
  O  O46  1  0.43310710  0.07358843  0.35691564  1
  O  O47  1  0.43391517  0.92317509  0.14900097  1
  O  O48  1  0.55961247  0.92417031  0.64881988  1
  O  O49  1  0.56664996  0.07582190  0.85187012  1
  O  O50  1  0.57379120  0.34658518  0.59091535  1
  O  O51  1  0.57164881  0.65219001  0.91330634  1
  O  O52  1  0.66122838  0.47122880  0.06291882  1
  O  O53  1  0.66544207  0.52791570  0.43799120  1
  O  O54  1  0.64899868  0.32679989  0.27628692  1
  O  O55  1  0.66281138  0.67697170  0.23058652  1
  O  O56  1  0.63638850  0.07891207  0.15523787  1
  O  O57  1  0.64410078  0.92252591  0.34245770  1
  O  O58  1  0.69254055  0.27351629  0.99120820  1
  O  O59  1  0.69510868  0.72790381  0.51290342  1
  O  O60  1  0.81949063  0.22811947  0.48989451  1
  O  O61  1  0.81993749  0.77284972  0.01281358  1
  O  O62  1  0.85867154  0.42188677  0.65371417  1
  O  O63  1  0.85896935  0.57859518  0.84468868  1
  O  O64  1  0.85513227  0.17207577  0.77529978  1
  O  O65  1  0.85266757  0.82776091  0.72633493  1
  O  O66  1  0.83442910  0.02806986  0.56363984  1
  O  O67  1  0.83613456  0.97076591  0.94107300  1
  O  O68  1  0.92568642  0.84426067  0.40397635  1
  O  O69  1  0.92955267  0.15474715  0.08677341  1
  O  O70  1  0.93638359  0.42297353  0.34998026  1
  O  O71  1  0.93790808  0.57470319  0.14585671  1
