# generated using pymatgen
data_Li2U(WO5)2
_symmetry_space_group_name_H-M   'P 1'
_cell_length_a   7.87308964
_cell_length_b   13.00271743
_cell_length_c   7.62906418
_cell_angle_alpha   90.21078196
_cell_angle_beta   89.51502824
_cell_angle_gamma   90.05512718
_symmetry_Int_Tables_number   1
_chemical_formula_structural   Li2U(WO5)2
_chemical_formula_sum   'Li8 U4 W8 O40'
_cell_volume   780.96560068
_cell_formula_units_Z   4
loop_
 _symmetry_equiv_pos_site_id
 _symmetry_equiv_pos_as_xyz
  1  'x, y, z'
loop_
 _atom_site_type_symbol
 _atom_site_label
 _atom_site_symmetry_multiplicity
 _atom_site_fract_x
 _atom_site_fract_y
 _atom_site_fract_z
 _atom_site_occupancy
  Li  Li0  1  0.02725298  0.50407341  0.71769496  1
  Li  Li1  1  0.16244004  0.50363368  0.02313277  1
  Li  Li2  1  0.31120004  0.99490336  0.49882751  1
  Li  Li3  1  0.49985253  0.98903671  0.25097724  1
  Li  Li4  1  0.50014484  0.01277082  0.74923675  1
  Li  Li5  1  0.68702491  0.99424035  0.00198860  1
  Li  Li6  1  0.82848294  0.49576203  0.01095123  1
  Li  Li7  1  0.84441405  0.50745126  0.46208050  1
  U  U8  1  0.99970984  0.01868737  0.25115746  1
  U  U9  1  0.99969250  0.98060925  0.74971648  1
  U  U10  1  0.49341627  0.51966819  0.25486642  1
  U  U11  1  0.50038561  0.48072855  0.75199763  1
  W  W12  1  0.02084279  0.74396639  0.49873036  1
  W  W13  1  0.02437809  0.25440544  -0.00004876  1
  W  W14  1  0.47555026  0.24244752  0.50138138  1
  W  W15  1  0.47885153  0.75670414  0.00112568  1
  W  W16  1  0.52007651  0.75797324  0.49969420  1
  W  W17  1  0.52439251  0.24245856  0.00047580  1
  W  W18  1  0.97562852  0.25570682  0.50069857  1
  W  W19  1  0.97916290  0.74286321  0.99821514  1
  O  O20  1  0.00017988  0.21411846  0.25074862  1
  O  O21  1  0.00041823  0.73037503  0.24824155  1
  O  O22  1  0.00187797  0.25803342  0.75104452  1
  O  O23  1  0.00000480  0.78995949  0.74986526  1
  O  O24  1  0.00427866  0.39268812  0.02962726  1
  O  O25  1  0.00783226  0.90109030  0.46939412  1
  O  O26  1  0.99954902  0.09677499  0.97396387  1
  O  O27  1  0.98843815  0.61029882  0.55318541  1
  O  O28  1  0.24437411  0.75198268  0.00095452  1
  O  O29  1  0.24148266  0.25331538  0.49700099  1
  O  O30  1  0.23698808  0.02057413  0.26013083  1
  O  O31  1  0.23661810  0.97793370  0.73932525  1
  O  O32  1  0.25895340  0.24835646  0.00055526  1
  O  O33  1  0.25416793  0.74522858  0.50178745  1
  O  O34  1  0.26414588  0.47917377  0.77259206  1
  O  O35  1  0.26102867  0.52266760  0.24780566  1
  O  O36  1  0.49946078  0.40182327  0.47430005  1
  O  O37  1  0.51027958  0.89196344  0.05063399  1
  O  O38  1  0.49834704  0.59944493  0.97010098  1
  O  O39  1  0.47794881  0.10587517  0.54837730  1
  O  O40  1  0.49782156  0.71105197  0.25074102  1
  O  O41  1  0.49990054  0.23100510  0.25060038  1
  O  O42  1  0.50010987  0.77050678  0.75085818  1
  O  O43  1  0.49965119  0.28726319  0.75136713  1
  O  O44  1  0.48704458  0.89304446  0.45190845  1
  O  O45  1  0.51939166  0.10577317  0.95304571  1
  O  O46  1  0.50617535  0.59960364  0.53280867  1
  O  O47  1  0.50628290  0.40210771  0.03077426  1
  O  O48  1  0.73095417  0.52237750  0.24605736  1
  O  O49  1  0.74551696  0.74609549  0.99925072  1
  O  O50  1  0.74039571  0.24475026  0.50137679  1
  O  O51  1  0.73888444  0.48034961  0.75083309  1
  O  O52  1  0.76244046  0.02039508  0.24032793  1
  O  O53  1  0.76263006  0.97782580  0.76186784  1
  O  O54  1  0.75838294  0.25233998  0.00233688  1
  O  O55  1  0.75362510  0.75652681  0.49507439  1
  O  O56  1  0.99226791  0.90021976  0.03026415  1
  O  O57  1  0.99816231  0.60535278  0.94557401  1
  O  O58  1  0.00030879  0.09562789  0.52731763  1
  O  O59  1  0.98566884  0.39304398  0.47873055  1
