# generated using pymatgen
data_Mn3Ga4P6(H2O5)6
_symmetry_space_group_name_H-M   'P 1'
_cell_length_a   9.04683396
_cell_length_b   10.19927663
_cell_length_c   13.71228705
_cell_angle_alpha   90.00000000
_cell_angle_beta   108.00045542
_cell_angle_gamma   90.00000000
_symmetry_Int_Tables_number   1
_chemical_formula_structural   Mn3Ga4P6(H2O5)6
_chemical_formula_sum   'Mn6 Ga8 P12 H24 O60'
_cell_volume   1203.31987738
_cell_formula_units_Z   2
loop_
 _symmetry_equiv_pos_site_id
 _symmetry_equiv_pos_as_xyz
  1  'x, y, z'
loop_
 _atom_site_type_symbol
 _atom_site_label
 _atom_site_symmetry_multiplicity
 _atom_site_fract_x
 _atom_site_fract_y
 _atom_site_fract_z
 _atom_site_occupancy
  Mn  Mn0  1  0.22192640  0.78084888  0.49289317  1
  Mn  Mn1  1  0.00000000  0.50000000  0.00000000  1
  Mn  Mn2  1  0.72192640  0.71915112  0.99289317  1
  Mn  Mn3  1  0.50000000  0.00000000  0.50000000  1
  Mn  Mn4  1  0.27807360  0.28084888  0.00710683  1
  Mn  Mn5  1  0.77807360  0.21915112  0.50710683  1
  Ga  Ga6  1  0.06921221  0.58098084  0.66779970  1
  Ga  Ga7  1  0.06812981  0.06342125  0.17063072  1
  Ga  Ga8  1  0.43078779  0.08098084  0.83220030  1
  Ga  Ga9  1  0.56812981  0.43657875  0.67063072  1
  Ga  Ga10  1  0.43187019  0.56342125  0.32936928  1
  Ga  Ga11  1  0.56921221  0.91901916  0.16779970  1
  Ga  Ga12  1  0.93187019  0.93657875  0.82936928  1
  Ga  Ga13  1  0.93078779  0.41901916  0.33220030  1
  P  P14  1  0.25092287  0.99632679  0.99928198  1
  P  P15  1  0.17395036  0.88086686  0.70868702  1
  P  P16  1  0.32604964  0.38086686  0.79131298  1
  P  P17  1  0.24907713  0.49632679  0.50071802  1
  P  P18  1  0.18304005  0.35845098  0.21965954  1
  P  P19  1  0.31695995  0.85845098  0.28034046  1
  P  P20  1  0.68304005  0.14154902  0.71965954  1
  P  P21  1  0.81695995  0.64154902  0.78034046  1
  P  P22  1  0.75092287  0.50367321  0.49928198  1
  P  P23  1  0.67395036  0.61913314  0.20868702  1
  P  P24  1  0.82604964  0.11913314  0.29131298  1
  P  P25  1  0.74907713  0.00367321  0.00071802  1
  H  H26  1  0.03069096  0.37959931  0.83040896  1
  H  H27  1  0.17321209  0.72654252  0.97339922  1
  H  H28  1  0.02465193  0.12285721  0.65879974  1
  H  H29  1  0.07562071  0.27031155  0.64529058  1
  H  H30  1  0.28499523  0.60712094  0.97555050  1
  H  H31  1  0.21500477  0.10712094  0.52444950  1
  H  H32  1  0.05439648  0.73769225  0.13469648  1
  H  H33  1  0.42437929  0.77031155  0.85470942  1
  H  H34  1  0.47534807  0.62285721  0.84120026  1
  H  H35  1  0.32678791  0.22654252  0.52660078  1
  H  H36  1  0.46930904  0.87959931  0.66959104  1
  H  H37  1  0.55439648  0.76230775  0.63469648  1
  H  H38  1  0.44560352  0.23769225  0.36530352  1
  H  H39  1  0.53069096  0.12040069  0.33040896  1
  H  H40  1  0.67321209  0.77345748  0.47339922  1
  H  H41  1  0.52465193  0.37714279  0.15879974  1
  H  H42  1  0.57562071  0.22968845  0.14529058  1
  H  H43  1  0.94560352  0.26230775  0.86530352  1
  H  H44  1  0.78499523  0.89287906  0.47555050  1
  H  H45  1  0.71500477  0.39287906  0.02444950  1
  H  H46  1  0.92437929  0.72968845  0.35470942  1
  H  H47  1  0.97534807  0.87714279  0.34120026  1
  H  H48  1  0.82678791  0.27345748  0.02660078  1
  H  H49  1  0.96930904  0.62040069  0.16959104  1
  O  O50  1  0.02488492  0.33152911  0.89167183  1
  O  O51  1  0.11627903  0.90306059  0.94101247  1
  O  O52  1  0.04989955  0.96953171  0.73247241  1
  O  O53  1  0.01080000  0.19625363  0.60928362  1
  O  O54  1  0.18749587  0.63174901  0.98731772  1
  O  O55  1  0.15402491  0.73519464  0.73454546  1
  O  O56  1  0.16010732  0.41548273  0.71452133  1
  O  O57  1  0.29641616  0.09658476  0.92684349  1
  O  O58  1  0.16987628  0.90331060  0.59798352  1
  O  O59  1  0.11117786  0.40609167  0.44805983  1
  O  O60  1  0.33012372  0.40331060  0.90201648  1
  O  O61  1  0.20358384  0.59658476  0.57315651  1
  O  O62  1  0.05634262  0.44534327  0.23979701  1
  O  O63  1  0.33989268  0.91548273  0.78547867  1
  O  O64  1  0.34597509  0.23519464  0.76545454  1
  O  O65  1  0.16529071  0.21176082  0.24090999  1
  O  O66  1  0.31250413  0.13174901  0.51268228  1
  O  O67  1  0.15323284  0.89304875  0.20350036  1
  O  O68  1  0.48920000  0.69625363  0.89071638  1
  O  O69  1  0.45010045  0.46953171  0.76752759  1
  O  O70  1  0.30138458  0.58923780  0.42760985  1
  O  O71  1  0.38372097  0.40306059  0.55898753  1
  O  O72  1  0.17739485  0.38421065  0.10681703  1
  O  O73  1  0.32260515  0.88421065  0.39318297  1
  O  O74  1  0.61117786  0.09390833  0.94805983  1
  O  O75  1  0.19861542  0.08923780  0.07239015  1
  O  O76  1  0.47511508  0.83152911  0.60832817  1
  O  O77  1  0.55634262  0.05465673  0.73979701  1
  O  O78  1  0.34676716  0.39304875  0.29649964  1
  O  O79  1  0.33470929  0.71176082  0.25909001  1
  O  O80  1  0.66529071  0.28823918  0.74090999  1
  O  O81  1  0.65323284  0.60695125  0.70350036  1
  O  O82  1  0.44365738  0.94534427  0.26020299  1
  O  O83  1  0.52488492  0.16847089  0.39167183  1
  O  O84  1  0.80138458  0.91076220  0.92760985  1
  O  O85  1  0.38882214  0.90609167  0.05194017  1
  O  O86  1  0.67739485  0.11578935  0.60681703  1
  O  O87  1  0.82260515  0.61578935  0.89318297  1
  O  O88  1  0.61627903  0.59693941  0.44101247  1
  O  O89  1  0.69861542  0.41076220  0.57239015  1
  O  O90  1  0.54989955  0.53046829  0.23247241  1
  O  O91  1  0.51080000  0.30374637  0.10928362  1
  O  O92  1  0.84676716  0.10695125  0.79649964  1
  O  O93  1  0.68749587  0.86825099  0.48731772  1
  O  O94  1  0.83470929  0.78823918  0.75909001  1
  O  O95  1  0.65402491  0.76480536  0.23454546  1
  O  O96  1  0.66010732  0.08451727  0.21452133  1
  O  O97  1  0.94365738  0.55465573  0.76020299  1
  O  O98  1  0.79641616  0.40341524  0.42684349  1
  O  O99  1  0.66987628  0.59668940  0.09798352  1
  O  O100  1  0.88882214  0.59390833  0.55194017  1
  O  O101  1  0.83012372  0.09668940  0.40201648  1
  O  O102  1  0.70358384  0.90341524  0.07315651  1
  O  O103  1  0.83989268  0.58451727  0.28547867  1
  O  O104  1  0.84597509  0.26480536  0.26545454  1
  O  O105  1  0.81250413  0.36825099  0.01268228  1
  O  O106  1  0.98920000  0.80374637  0.39071638  1
  O  O107  1  0.95010045  0.03046829  0.26752759  1
  O  O108  1  0.88372097  0.09693941  0.05898753  1
  O  O109  1  0.97511508  0.66847089  0.10832817  1
