# generated using pymatgen
data_V2OF5
_symmetry_space_group_name_H-M   'P 1'
_cell_length_a   5.23736244
_cell_length_b   13.52627724
_cell_length_c   5.23736244
_cell_angle_alpha   90.00000418
_cell_angle_beta   120.00001133
_cell_angle_gamma   89.99999582
_symmetry_Int_Tables_number   1
_chemical_formula_structural   V2OF5
_chemical_formula_sum   'V6 O3 F15'
_cell_volume   321.31731179
_cell_formula_units_Z   3
loop_
 _symmetry_equiv_pos_site_id
 _symmetry_equiv_pos_as_xyz
  1  'x, y, z'
loop_
 _atom_site_type_symbol
 _atom_site_label
 _atom_site_symmetry_multiplicity
 _atom_site_fract_x
 _atom_site_fract_y
 _atom_site_fract_z
 _atom_site_occupancy
  V  V0  1  0.00202272  0.49593626  0.02619347  1
  V  V1  1  0.97582925  0.00406374  0.97380653  1
  V  V2  1  0.64047353  0.82927026  0.30916225  1
  V  V3  1  0.33131128  0.67072974  0.69083775  1
  V  V4  1  0.69285947  0.33739674  0.33535572  1
  V  V5  1  0.35750375  0.16260326  0.66464428  1
  O  O6  1  0.42171420  0.75000000  0.00000000  1
  O  O7  1  0.91161880  0.41666700  0.24495180  1
  O  O8  1  0.66666700  0.08333300  0.75504820  1
  F  F9  1  0.99970864  0.75010837  0.40521553  1
  F  F10  1  0.33362436  0.41655863  0.07217389  1
  F  F11  1  0.07188253  0.08322563  0.33304164  1
  F  F12  1  0.31634528  0.91977876  0.24926254  1
  F  F13  1  0.26625026  0.58644576  0.35032172  1
  F  F14  1  0.60103834  0.25000000  1.00000000  1
  F  F15  1  0.01698772  0.24688724  0.59958426  1
  F  F16  1  0.73229466  0.91666700  0.06562766  1
  F  F17  1  0.06708274  0.58022124  0.75073746  1
  F  F18  1  0.41740446  0.25311276  0.40041574  1
  F  F19  1  0.59449311  0.74989163  0.59478447  1
  F  F20  1  0.26145147  0.08344137  0.92782611  1
  F  F21  1  0.73883989  0.41677437  0.66695836  1
  F  F22  1  0.91592954  0.91355424  0.64967828  1
  F  F23  1  0.66666700  0.58333300  0.93437234  1
