# generated using pymatgen
data_Li2CoNi(PO4)2
_symmetry_space_group_name_H-M   'P 1'
_cell_length_a   10.15923178
_cell_length_b   5.92078398
_cell_length_c   4.72106916
_cell_angle_alpha   90.00000000
_cell_angle_beta   89.65165721
_cell_angle_gamma   90.00000000
_symmetry_Int_Tables_number   1
_chemical_formula_structural   Li2CoNi(PO4)2
_chemical_formula_sum   'Li4 Co2 Ni2 P4 O16'
_cell_volume   283.96997352
_cell_formula_units_Z   2
loop_
 _symmetry_equiv_pos_site_id
 _symmetry_equiv_pos_as_xyz
  1  'x, y, z'
loop_
 _atom_site_type_symbol
 _atom_site_label
 _atom_site_symmetry_multiplicity
 _atom_site_fract_x
 _atom_site_fract_y
 _atom_site_fract_z
 _atom_site_occupancy
  Li  Li0  1  0.00000000  0.00000000  0.00000000  1
  Li  Li1  1  0.00000000  0.50000000  0.00000000  1
  Li  Li2  1  0.50000000  0.00000000  0.50000000  1
  Li  Li3  1  0.50000000  0.50000000  0.50000000  1
  Co  Co4  1  0.27720634  0.25000000  0.98093181  1
  Co  Co5  1  0.72279366  0.75000000  0.01906819  1
  Ni  Ni6  1  0.22310051  0.75000000  0.48438967  1
  Ni  Ni7  1  0.77689949  0.25000000  0.51561033  1
  P  P8  1  0.09223668  0.25000000  0.41991405  1
  P  P9  1  0.40403500  0.75000000  0.91779674  1
  P  P10  1  0.59596500  0.25000000  0.08220326  1
  P  P11  1  0.90776332  0.75000000  0.58008595  1
  O  O12  1  0.04904629  0.75000000  0.70299315  1
  O  O13  1  0.09572181  0.25000000  0.74413119  1
  O  O14  1  0.16453319  0.04336257  0.28019442  1
  O  O15  1  0.16453319  0.45663743  0.28019442  1
  O  O16  1  0.33219943  0.54236726  0.77942756  1
  O  O17  1  0.33219943  0.95763274  0.77942756  1
  O  O18  1  0.40067782  0.75000000  0.24206772  1
  O  O19  1  0.45429368  0.25000000  0.20574087  1
  O  O20  1  0.54570632  0.75000000  0.79425913  1
  O  O21  1  0.59932218  0.25000000  0.75793228  1
  O  O22  1  0.66780057  0.04236726  0.22057244  1
  O  O23  1  0.66780057  0.45763274  0.22057244  1
  O  O24  1  0.83546681  0.54336257  0.71980558  1
  O  O25  1  0.83546681  0.95663743  0.71980558  1
  O  O26  1  0.90427819  0.75000000  0.25586881  1
  O  O27  1  0.95095371  0.25000000  0.29700685  1
