# generated using pymatgen
data_Li7V3P8O29
_symmetry_space_group_name_H-M   'P 1'
_cell_length_a   9.85025757
_cell_length_b   9.84208109
_cell_length_c   13.93090265
_cell_angle_alpha   90.14147027
_cell_angle_beta   90.24894022
_cell_angle_gamma   60.18181186
_symmetry_Int_Tables_number   1
_chemical_formula_structural   Li7V3P8O29
_chemical_formula_sum   'Li14 V6 P16 O58'
_cell_volume   1171.74478285
_cell_formula_units_Z   2
loop_
 _symmetry_equiv_pos_site_id
 _symmetry_equiv_pos_as_xyz
  1  'x, y, z'
loop_
 _atom_site_type_symbol
 _atom_site_label
 _atom_site_symmetry_multiplicity
 _atom_site_fract_x
 _atom_site_fract_y
 _atom_site_fract_z
 _atom_site_occupancy
  Li  Li0  1  0.90972489  0.32142446  0.56585662  1
  Li  Li1  1  0.67500198  0.67221206  0.38751548  1
  Li  Li2  1  0.67390748  0.66948168  0.88552005  1
  Li  Li3  1  0.78076034  0.29924271  0.06026921  1
  Li  Li4  1  0.31046639  0.91253107  0.06105035  1
  Li  Li5  1  0.66002518  0.23737297  0.44305348  1
  Li  Li6  1  0.32602859  0.76399248  0.56344478  1
  Li  Li7  1  0.68888808  0.08626244  0.93392048  1
  Li  Li8  1  0.21707482  0.69746738  0.94165120  1
  Li  Li9  1  0.33130114  0.33776258  0.11432988  1
  Li  Li10  1  0.09736022  0.66792908  0.43744280  1
  Li  Li11  1  0.23342677  0.09419416  0.44181327  1
  Li  Li12  1  0.09166009  0.22587542  0.93611305  1
  Li  Li13  1  0.94572757  0.98545660  0.51212927  1
  V  V14  1  0.56602112  0.43191345  0.25113848  1
  V  V15  1  0.43476309  0.56496214  0.75089137  1
  V  V16  1  0.57076217  0.99430941  0.74547186  1
  V  V17  1  0.43404568  0.00343526  0.25138770  1
  V  V18  1  0.99741467  0.57048947  0.24723353  1
  V  V19  1  0.00152505  0.43446937  0.74820038  1
  P  P20  1  0.91121964  0.77266590  0.83830526  1
  P  P21  1  0.77631122  0.91546232  0.33897786  1
  P  P22  1  0.91140458  0.31864090  0.34426355  1
  P  P23  1  0.66018856  0.66784520  0.12759343  1
  P  P24  1  0.66258561  0.66508239  0.62629766  1
  P  P25  1  0.76955675  0.32312393  0.84286990  1
  P  P26  1  0.68358636  0.22832624  0.65869714  1
  P  P27  1  0.32317190  0.90875728  0.84325985  1
  P  P28  1  0.67656503  0.09065071  0.15194789  1
  P  P29  1  0.32080996  0.77112236  0.34379216  1
  P  P30  1  0.23248778  0.67761507  0.15858428  1
  P  P31  1  0.33318602  0.33205256  0.37520828  1
  P  P32  1  0.34030228  0.32849467  0.87266405  1
  P  P33  1  0.08572669  0.68788723  0.65289602  1
  P  P34  1  0.23171934  0.08313064  0.65793967  1
  P  P35  1  0.08990138  0.23223489  0.15778545  1
  O  O36  1  0.01574359  0.77508708  0.56059922  1
  O  O37  1  0.92068600  0.74785719  0.34126616  1
  O  O38  1  0.74441923  0.01014169  0.05994547  1
  O  O39  1  0.74552796  0.91962659  0.84010844  1
  O  O40  1  0.88583853  0.62966070  0.82540870  1
  O  O41  1  0.81581216  0.65538443  0.17164865  1
  O  O42  1  0.89321770  0.48363617  0.33294502  1
  O  O43  1  0.99582853  0.25028506  0.06814061  1
  O  O44  1  0.92113216  0.33133493  0.84447368  1
  O  O45  1  0.66882986  0.80985217  0.67046250  1
  O  O46  1  0.62930206  0.89823898  0.33532262  1
  O  O47  1  0.80860446  0.51107329  0.65773443  1
  O  O48  1  0.65640558  0.66385243  0.02040602  1
  O  O49  1  0.64250232  0.67525571  0.51901925  1
  O  O50  1  0.65801747  0.51877420  0.16978298  1
  O  O51  1  0.48884801  0.88564399  0.82718347  1
  O  O52  1  0.51668625  0.81453333  0.16756927  1
  O  O53  1  0.74809334  0.33282706  0.34416326  1
  O  O54  1  0.78745711  0.21369880  0.75228198  1
  O  O55  1  0.77822501  0.21971301  0.56984040  1
  O  O56  1  0.74744811  0.24974584  0.93150017  1
  O  O57  1  0.62982899  0.49076484  0.82500998  1
  O  O58  1  0.50988937  0.67389781  0.67065694  1
  O  O59  1  0.67080713  0.25204280  0.16052419  1
  O  O60  1  0.48564957  0.62386966  0.33096004  1
  O  O61  1  0.33423083  0.91904404  0.34624053  1
  O  O62  1  0.79107146  0.98843375  0.23903359  1
  O  O63  1  0.78316798  0.01411630  0.41962836  1
  O  O64  1  0.23439164  0.99281445  0.56920131  1
  O  O65  1  0.66055159  0.08683496  0.66173681  1
  O  O66  1  0.53007223  0.38517972  0.66662173  1
  O  O67  1  0.33597580  0.74640676  0.84637732  1
  O  O68  1  0.48386837  0.33439153  0.33157930  1
  O  O69  1  0.37430395  0.50964911  0.17594189  1
  O  O70  1  0.25359206  0.75019289  0.06950986  1
  O  O71  1  0.23463481  0.76093823  0.43031789  1
  O  O72  1  0.22095834  0.78586978  0.24845205  1
  O  O73  1  0.25113521  0.66935181  0.66482735  1
  O  O74  1  0.48811561  0.17832148  0.83264857  1
  O  O75  1  0.50942326  0.12192262  0.17297067  1
  O  O76  1  0.34460647  0.47696091  0.82993309  1
  O  O77  1  0.34626523  0.33584588  0.98036684  1
  O  O78  1  0.35094976  0.32188274  0.48183859  1
  O  O79  1  0.18238667  0.48579423  0.33718330  1
  O  O80  1  0.38250930  0.09084641  0.67122710  1
  O  O81  1  0.32239426  0.19233916  0.33270375  1
  O  O82  1  0.08497481  0.66358066  0.16100747  1
  O  O83  1  0.98385034  0.79823467  0.74035236  1
  O  O84  1  0.00907890  0.76435173  0.92148101  1
  O  O85  1  0.08965391  0.53224147  0.66313949  1
  O  O86  1  0.18994637  0.33156314  0.83752329  1
  O  O87  1  0.11532512  0.37479285  0.17451619  1
  O  O88  1  0.24736240  0.08098944  0.15693612  1
  O  O89  1  0.24558967  0.00347012  0.93213013  1
  O  O90  1  0.21427527  0.99565709  0.75169565  1
  O  O91  1  0.08583480  0.24628195  0.65847893  1
  O  O92  1  0.00311372  0.23182973  0.43241868  1
  O  O93  1  0.99711494  0.21970409  0.24955968  1
