# generated using pymatgen
data_Ta2MnO6
_symmetry_space_group_name_H-M   'P 1'
_cell_length_a   7.57045185
_cell_length_b   7.57045185
_cell_length_c   15.55375296
_cell_angle_alpha   89.36287765
_cell_angle_beta   90.63712235
_cell_angle_gamma   79.15270798
_symmetry_Int_Tables_number   1
_chemical_formula_structural   Ta2MnO6
_chemical_formula_sum   'Ta16 Mn8 O48'
_cell_volume   875.35177101
_cell_formula_units_Z   8
loop_
 _symmetry_equiv_pos_site_id
 _symmetry_equiv_pos_as_xyz
  1  'x, y, z'
loop_
 _atom_site_type_symbol
 _atom_site_label
 _atom_site_symmetry_multiplicity
 _atom_site_fract_x
 _atom_site_fract_y
 _atom_site_fract_z
 _atom_site_occupancy
  Ta  Ta0  1  0.34096399  0.83807507  0.91691957  1
  Ta  Ta1  1  0.16923912  0.66412808  0.74836731  1
  Ta  Ta2  1  0.33769668  0.83500276  0.58696747  1
  Ta  Ta3  1  0.16192493  0.65903601  0.41691957  1
  Ta  Ta4  1  0.33587192  0.83076088  0.24836731  1
  Ta  Ta5  1  0.16499724  0.66230332  0.08696747  1
  Ta  Ta6  1  0.83379453  0.83336207  0.91590777  1
  Ta  Ta7  1  0.83336207  0.83379453  0.58409223  1
  Ta  Ta8  1  0.16663793  0.16620547  0.41590777  1
  Ta  Ta9  1  0.16620547  0.16663793  0.08409223  1
  Ta  Ta10  1  0.83500276  0.33769668  0.91303253  1
  Ta  Ta11  1  0.66412808  0.16923912  0.75163269  1
  Ta  Ta12  1  0.83807507  0.34096399  0.58308043  1
  Ta  Ta13  1  0.66230332  0.16499724  0.41303253  1
  Ta  Ta14  1  0.83076088  0.33587192  0.25163269  1
  Ta  Ta15  1  0.65903601  0.16192493  0.08308043  1
  Mn  Mn16  1  0.33348534  0.34305006  0.91497456  1
  Mn  Mn17  1  0.16939916  0.16939916  0.75000000  1
  Mn  Mn18  1  0.65828339  0.65828339  0.75000000  1
  Mn  Mn19  1  0.34305006  0.33348534  0.58502544  1
  Mn  Mn20  1  0.65694994  0.66651466  0.41497456  1
  Mn  Mn21  1  0.83060084  0.83060084  0.25000000  1
  Mn  Mn22  1  0.34171661  0.34171661  0.25000000  1
  Mn  Mn23  1  0.66651466  0.65694994  0.08502544  1
  O  O24  1  0.06801649  0.80866667  0.86131640  1
  O  O25  1  0.19844737  0.91353660  0.68839514  1
  O  O26  1  0.06737475  0.80436025  0.52856450  1
  O  O27  1  0.19133333  0.93198351  0.36131640  1
  O  O28  1  0.08646340  0.80155263  0.18839514  1
  O  O29  1  0.19563975  0.93262525  0.02856450  1
  O  O30  1  0.30145764  0.60261110  0.98095340  1
  O  O31  1  0.40069226  0.70118784  0.81227529  1
  O  O32  1  0.30673325  0.59176620  0.64494312  1
  O  O33  1  0.39738890  0.69854236  0.48095340  1
  O  O34  1  0.29881216  0.59930774  0.31227529  1
  O  O35  1  0.58076749  0.81079822  0.96225578  1
  O  O36  1  0.40823380  0.69326675  0.14494312  1
  O  O37  1  0.06507513  0.29660814  0.97700434  1
  O  O38  1  0.18406309  0.44049698  0.80021002  1
  O  O39  1  0.70423109  0.92831997  0.80794335  1
  O  O40  1  0.57816535  0.81431062  0.63062556  1
  O  O41  1  0.06783955  0.30709291  0.63028951  1
  O  O42  1  0.18920178  0.41923251  0.46225578  1
  O  O43  1  0.70339186  0.93492487  0.47700434  1
  O  O44  1  0.55950302  0.81593691  0.30021002  1
  O  O45  1  0.07168003  0.29576891  0.30794335  1
  O  O46  1  0.18568938  0.42183465  0.13062556  1
  O  O47  1  0.69290709  0.93215945  0.13028951  1
  O  O48  1  0.30709291  0.06783955  0.86971049  1
  O  O49  1  0.81431062  0.57816535  0.86937444  1
  O  O50  1  0.92831997  0.70423109  0.69205665  1
  O  O51  1  0.44049698  0.18406309  0.69978998  1
  O  O52  1  0.29660814  0.06507513  0.52299566  1
  O  O53  1  0.81079822  0.58076749  0.53774422  1
  O  O54  1  0.93215945  0.69290709  0.36971049  1
  O  O55  1  0.42183465  0.18568938  0.36937444  1
  O  O56  1  0.29576891  0.07168003  0.19205665  1
  O  O57  1  0.81593691  0.55950302  0.19978998  1
  O  O58  1  0.93492487  0.70339186  0.02299566  1
  O  O59  1  0.59176620  0.30673325  0.85505688  1
  O  O60  1  0.41923251  0.18920178  0.03774422  1
  O  O61  1  0.70118784  0.40069226  0.68772471  1
  O  O62  1  0.60261110  0.30145764  0.51904660  1
  O  O63  1  0.69326675  0.40823380  0.35505688  1
  O  O64  1  0.59930774  0.29881216  0.18772471  1
  O  O65  1  0.69854236  0.39738890  0.01904660  1
  O  O66  1  0.80436025  0.06737475  0.97143550  1
  O  O67  1  0.91353660  0.19844737  0.81160486  1
  O  O68  1  0.80866667  0.06801649  0.63868360  1
  O  O69  1  0.93262525  0.19563975  0.47143550  1
  O  O70  1  0.80155263  0.08646340  0.31160486  1
  O  O71  1  0.93198351  0.19133333  0.13868360  1
