# generated using pymatgen
data_LiTi2V3O12
_symmetry_space_group_name_H-M   'P 1'
_cell_length_a   8.90754267
_cell_length_b   12.53573556
_cell_length_c   9.19613267
_cell_angle_alpha   90.16353269
_cell_angle_beta   90.04130747
_cell_angle_gamma   90.53915064
_symmetry_Int_Tables_number   1
_chemical_formula_structural   LiTi2V3O12
_chemical_formula_sum   'Li4 Ti8 V12 O48'
_cell_volume   1026.81414567
_cell_formula_units_Z   4
loop_
 _symmetry_equiv_pos_site_id
 _symmetry_equiv_pos_as_xyz
  1  'x, y, z'
loop_
 _atom_site_type_symbol
 _atom_site_label
 _atom_site_symmetry_multiplicity
 _atom_site_fract_x
 _atom_site_fract_y
 _atom_site_fract_z
 _atom_site_occupancy
  Li  Li0  1  0.67323029  0.68908988  0.72444395  1
  Li  Li1  1  0.81591879  0.81542597  0.21891032  1
  Li  Li2  1  0.93474977  0.65623115  0.48898539  1
  Li  Li3  1  0.93874956  0.29899256  0.91074072  1
  Ti  Ti4  1  0.25124831  0.88430083  0.02343325  1
  Ti  Ti5  1  0.26013300  0.61522699  0.52053311  1
  Ti  Ti6  1  0.25995563  0.37687291  0.97325621  1
  Ti  Ti7  1  0.24871706  0.12295687  0.46808272  1
  Ti  Ti8  1  0.74803867  0.88752222  0.53335666  1
  Ti  Ti9  1  0.75183933  0.61559887  0.03236361  1
  Ti  Ti10  1  0.75383930  0.37852102  0.47563669  1
  Ti  Ti11  1  0.73725935  0.11338039  0.97668257  1
  V  V12  1  0.03356255  0.48955041  0.25057271  1
  V  V13  1  0.11183338  0.85278537  0.38136496  1
  V  V14  1  0.10997039  0.13954440  0.11271868  1
  V  V15  1  0.38722244  0.64659361  0.88303133  1
  V  V16  1  0.38884312  0.36067993  0.61163008  1
  V  V17  1  0.46487477  0.00979150  0.74898384  1
  V  V18  1  0.53207244  0.98908858  0.25251093  1
  V  V19  1  0.61590747  0.64102805  0.38734979  1
  V  V20  1  0.61293493  0.35322835  0.11937325  1
  V  V21  1  0.88731810  0.85732215  0.88504955  1
  V  V22  1  0.89283093  0.14689412  0.62184570  1
  V  V23  1  0.96720199  0.51107250  0.75148520  1
  O  O24  1  0.06694601  0.43641990  0.87659707  1
  O  O25  1  0.07453423  0.89279367  0.89214987  1
  O  O26  1  0.06702511  0.60811330  0.65655478  1
  O  O27  1  0.07342060  0.17736582  0.57385222  1
  O  O28  1  0.09702814  0.58613307  0.37455458  1
  O  O29  1  0.12480390  0.84706997  0.19215029  1
  O  O30  1  0.14456455  0.98062859  0.43620470  1
  O  O31  1  0.13165952  0.25244781  0.99838961  1
  O  O32  1  0.16460766  0.17180193  0.28922078  1
  O  O33  1  0.18207890  0.43332591  0.16050777  1
  O  O34  1  0.23150012  0.76402197  0.47026692  1
  O  O35  1  0.27017103  0.73471839  0.97392039  1
  O  O36  1  0.22469877  0.03777791  0.05501589  1
  O  O37  1  0.27160227  0.46274263  0.55795331  1
  O  O38  1  0.31966217  0.06701018  0.65859490  1
  O  O39  1  0.33636274  0.32853465  0.78922022  1
  O  O40  1  0.34738315  0.51791747  0.93579453  1
  O  O41  1  0.35936093  0.25081193  0.49931384  1
  O  O42  1  0.37288674  0.65334626  0.69213119  1
  O  O43  1  0.39378659  0.91712061  0.87024218  1
  O  O44  1  0.42441833  0.89488115  0.16305648  1
  O  O45  1  0.42789879  0.59927988  0.39221451  1
  O  O46  1  0.42890258  0.31968227  0.07069291  1
  O  O47  1  0.42453529  0.05534579  0.37624461  1
  O  O48  1  0.57745923  0.94025226  0.62247898  1
  O  O49  1  0.57476341  0.67606502  0.92133428  1
  O  O50  1  0.57671183  0.40064012  0.59782751  1
  O  O51  1  0.57639911  0.10754430  0.83616180  1
  O  O52  1  0.60716648  0.08475282  0.13200457  1
  O  O53  1  0.63086891  0.34543836  0.30654959  1
  O  O54  1  0.64194698  0.74263236  0.51350396  1
  O  O55  1  0.64269150  0.48498700  0.07069780  1
  O  O56  1  0.67671249  0.68399390  0.21571072  1
  O  O57  1  0.68649908  0.92262348  0.33489829  1
  O  O58  1  0.74329148  0.54641748  0.44383222  1
  O  O59  1  0.77622694  0.96430971  0.93525271  1
  O  O60  1  0.74095582  0.27155617  0.02496372  1
  O  O61  1  0.77278670  0.23277934  0.52639729  1
  O  O62  1  0.81466542  0.57751570  0.83487526  1
  O  O63  1  0.82558414  0.81284039  0.71289377  1
  O  O64  1  0.85490527  0.75791612  0.01432170  1
  O  O65  1  0.85797158  0.01302611  0.57570697  1
  O  O66  1  0.87355866  0.16564911  0.80888235  1
  O  O67  1  0.88901002  0.41715145  0.63541778  1
  O  O68  1  0.92398392  0.81170208  0.42174784  1
  O  O69  1  0.92526680  0.39298352  0.33734356  1
  O  O70  1  0.92339231  0.10299057  0.10234991  1
  O  O71  1  0.92088926  0.55644292  0.12246360  1
