# generated using pymatgen
data_NaMn2O4
_symmetry_space_group_name_H-M   'P 1'
_cell_length_a   5.04950405
_cell_length_b   6.07245148
_cell_length_c   11.43068062
_cell_angle_alpha   89.97793320
_cell_angle_beta   89.93762339
_cell_angle_gamma   89.51234410
_symmetry_Int_Tables_number   1
_chemical_formula_structural   NaMn2O4
_chemical_formula_sum   'Na4 Mn8 O16'
_cell_volume   350.48452745
_cell_formula_units_Z   4
loop_
 _symmetry_equiv_pos_site_id
 _symmetry_equiv_pos_as_xyz
  1  'x, y, z'
loop_
 _atom_site_type_symbol
 _atom_site_label
 _atom_site_symmetry_multiplicity
 _atom_site_fract_x
 _atom_site_fract_y
 _atom_site_fract_z
 _atom_site_occupancy
  Na  Na0  1  0.00903815  0.74891335  0.25004362  1
  Na  Na1  1  0.36004284  0.74958360  0.75007194  1
  Na  Na2  1  0.63990567  0.25034920  0.24985096  1
  Na  Na3  1  0.99089124  0.25104599  0.74989954  1
  Mn  Mn4  1  0.00181956  0.25446060  0.00638344  1
  Mn  Mn5  1  0.99814765  0.74536416  0.99354642  1
  Mn  Mn6  1  0.00166367  0.24568332  0.49282446  1
  Mn  Mn7  1  0.99860338  0.75425478  0.50699952  1
  Mn  Mn8  1  0.49994483  0.49984692  0.00005757  1
  Mn  Mn9  1  0.49995535  0.00017189  -0.00000031  1
  Mn  Mn10  1  0.50010019  -0.00003086  0.49997202  1
  Mn  Mn11  1  0.50000662  0.50019745  0.49998827  1
  O  O12  1  0.17825927  0.00656203  0.59381241  1
  O  O13  1  0.17375796  0.00374504  0.91027000  1
  O  O14  1  0.17547732  0.50148343  0.59099371  1
  O  O15  1  0.17845973  0.49619820  0.90606806  1
  O  O16  1  0.33541220  0.26220989  0.08907697  1
  O  O17  1  0.33364155  0.23588133  0.40990146  1
  O  O18  1  0.31427313  0.73111651  0.08602266  1
  O  O19  1  0.31844589  0.76513031  0.41538903  1
  O  O20  1  0.68143795  0.23492314  0.58451958  1
  O  O21  1  0.68570502  0.26887548  0.91393416  1
  O  O22  1  0.66677424  0.76417184  0.59023414  1
  O  O23  1  0.66425690  0.73772290  0.91094247  1
  O  O24  1  0.82151778  0.99162422  0.40619816  1
  O  O25  1  0.82487726  0.50050713  0.40922395  1
  O  O26  1  0.82619425  0.99784638  0.08973560  1
  O  O27  1  0.82139039  0.50216175  0.09404020  1
