# generated using pymatgen
data_Li3MnFeCo(PO4)3
_symmetry_space_group_name_H-M   'P 1'
_cell_length_a   10.44697286
_cell_length_b   6.09142294
_cell_length_c   14.31023603
_cell_angle_alpha   90.00000000
_cell_angle_beta   90.09504959
_cell_angle_gamma   90.00000000
_symmetry_Int_Tables_number   1
_chemical_formula_structural   Li3MnFeCo(PO4)3
_chemical_formula_sum   'Li12 Mn4 Fe4 Co4 P12 O48'
_cell_volume   910.65823682
_cell_formula_units_Z   4
loop_
 _symmetry_equiv_pos_site_id
 _symmetry_equiv_pos_as_xyz
  1  'x, y, z'
loop_
 _atom_site_type_symbol
 _atom_site_label
 _atom_site_symmetry_multiplicity
 _atom_site_fract_x
 _atom_site_fract_y
 _atom_site_fract_z
 _atom_site_occupancy
  Li  Li0  1  0.99854671  0.50001523  0.66677816  1
  Li  Li1  1  0.99961035  0.00061335  0.99961436  1
  Li  Li2  1  0.99961035  0.49938665  0.99961436  1
  Li  Li3  1  0.99844760  0.00044540  0.33339212  1
  Li  Li4  1  0.99844760  0.49955460  0.33339212  1
  Li  Li5  1  0.99854671  -0.00001523  0.66677816  1
  Li  Li6  1  0.50112866  0.00006974  0.50025979  1
  Li  Li7  1  0.50112866  0.49993026  0.50025979  1
  Li  Li8  1  0.50099838  0.00055842  0.16697758  1
  Li  Li9  1  0.50099838  0.49944158  0.16697758  1
  Li  Li10  1  0.50152612  0.00024162  0.83301523  1
  Li  Li11  1  0.50152612  0.49975838  0.83301523  1
  Mn  Mn12  1  0.21830822  0.75000000  0.15947811  1
  Mn  Mn13  1  0.28130221  0.25000000  0.65964403  1
  Mn  Mn14  1  0.28106286  0.25000000  0.32659426  1
  Mn  Mn15  1  0.72010644  0.75000000  0.00690130  1
  Fe  Fe16  1  0.21935808  0.75000000  0.49330468  1
  Fe  Fe17  1  0.21869821  0.75000000  0.82617540  1
  Fe  Fe18  1  0.28031474  0.25000000  0.99227980  1
  Fe  Fe19  1  0.71969632  0.75000000  0.34141526  1
  Co  Co20  1  0.72146508  0.75000000  0.67191383  1
  Co  Co21  1  0.78108072  0.25000000  0.83898525  1
  Co  Co22  1  0.77920715  0.25000000  0.50640707  1
  Co  Co23  1  0.77902140  0.25000000  0.17356785  1
  P  P24  1  0.09363450  0.25000000  0.80699393  1
  P  P25  1  0.09268918  0.25000000  0.13799088  1
  P  P26  1  0.09271834  0.25000000  0.47334026  1
  P  P27  1  0.40779562  0.75000000  0.30609440  1
  P  P28  1  0.40670703  0.75000000  0.63910327  1
  P  P29  1  0.40496116  0.75000000  0.97206776  1
  P  P30  1  0.59672633  0.25000000  0.36107273  1
  P  P31  1  0.59417807  0.25000000  0.02834127  1
  P  P32  1  0.59718288  0.25000000  0.69483486  1
  P  P33  1  0.90573641  0.75000000  0.85969625  1
  P  P34  1  0.90443598  0.75000000  0.19490524  1
  P  P35  1  0.90447404  0.75000000  0.52728414  1
  O  O36  1  0.04139110  0.75000000  0.23720054  1
  O  O37  1  0.04174823  0.75000000  0.56846932  1
  O  O38  1  0.04230520  0.75000000  0.90113909  1
  O  O39  1  0.09513622  0.25000000  0.58040689  1
  O  O40  1  0.09654823  0.25000000  0.91414190  1
  O  O41  1  0.09629389  0.25000000  0.24528696  1
  O  O42  1  0.16353986  0.04935215  0.09321313  1
  O  O43  1  0.16353986  0.45064785  0.09321313  1
  O  O44  1  0.16320509  0.04783253  0.42956105  1
  O  O45  1  0.16320509  0.45216747  0.42956105  1
  O  O46  1  0.16386941  0.04795194  0.76290546  1
  O  O47  1  0.16386941  0.45204806  0.76290546  1
  O  O48  1  0.33635467  0.55007040  0.59313289  1
  O  O49  1  0.33635467  0.94992960  0.59313289  1
  O  O50  1  0.33748180  0.54850671  0.26123426  1
  O  O51  1  0.33748180  0.95149329  0.26123426  1
  O  O52  1  0.33336580  0.54842639  0.92838814  1
  O  O53  1  0.33336580  0.95157361  0.92838814  1
  O  O54  1  0.40334624  0.75000000  0.41321889  1
  O  O55  1  0.40451388  0.75000000  0.07912200  1
  O  O56  1  0.40189830  0.75000000  0.74573111  1
  O  O57  1  0.45989449  0.25000000  0.40294832  1
  O  O58  1  0.45626805  0.25000000  0.06793297  1
  O  O59  1  0.45953152  0.25000000  0.73573342  1
  O  O60  1  0.54491365  0.75000000  0.26547293  1
  O  O61  1  0.54143420  0.75000000  0.92977601  1
  O  O62  1  0.54579517  0.75000000  0.59915828  1
  O  O63  1  0.59786506  0.25000000  0.25351701  1
  O  O64  1  0.59837466  0.25000000  0.92083407  1
  O  O65  1  0.59834523  0.25000000  0.58685118  1
  O  O66  1  0.66482245  0.04938163  0.07387945  1
  O  O67  1  0.66757623  0.04788316  0.40508213  1
  O  O68  1  0.66680896  0.04746526  0.73939395  1
  O  O69  1  0.66680896  0.45253474  0.73939395  1
  O  O70  1  0.66482245  0.45061837  0.07387945  1
  O  O71  1  0.66757623  0.45211684  0.40508213  1
  O  O72  1  0.83543522  0.54599943  0.90347925  1
  O  O73  1  0.83543522  0.95400057  0.90347925  1
  O  O74  1  0.83366534  0.54651535  0.23798532  1
  O  O75  1  0.83346203  0.54730217  0.57198448  1
  O  O76  1  0.83366534  0.95348465  0.23798532  1
  O  O77  1  0.83346203  0.95269783  0.57198448  1
  O  O78  1  0.90249028  0.75000000  0.75182341  1
  O  O79  1  0.90277489  0.75000000  0.42004689  1
  O  O80  1  0.90457871  0.75000000  0.08762222  1
  O  O81  1  0.95557912  0.25000000  0.76525915  1
  O  O82  1  0.95421327  0.25000000  0.09807908  1
  O  O83  1  0.95420907  0.25000000  0.43128300  1
