# generated using pymatgen
data_V3OF11
_symmetry_space_group_name_H-M   'P 1'
_cell_length_a   5.46178286
_cell_length_b   5.25948528
_cell_length_c   14.73845403
_cell_angle_alpha   89.99922285
_cell_angle_beta   100.27553101
_cell_angle_gamma   90.20436909
_symmetry_Int_Tables_number   1
_chemical_formula_structural   V3OF11
_chemical_formula_sum   'V6 O2 F22'
_cell_volume   416.58610242
_cell_formula_units_Z   2
loop_
 _symmetry_equiv_pos_site_id
 _symmetry_equiv_pos_as_xyz
  1  'x, y, z'
loop_
 _atom_site_type_symbol
 _atom_site_label
 _atom_site_symmetry_multiplicity
 _atom_site_fract_x
 _atom_site_fract_y
 _atom_site_fract_z
 _atom_site_occupancy
  V  V0  1  0.04096868  0.97518816  0.00325414  1
  V  V1  1  0.16666700  0.50000000  0.33333300  1
  V  V2  1  0.29236432  0.02481184  0.66341286  1
  V  V3  1  0.51127921  0.49156627  0.99917216  1
  V  V4  1  0.66666700  0.00000000  0.33333300  1
  V  V5  1  0.82205479  0.50843373  0.66749484  1
  O  O6  1  0.04113307  0.20350639  0.64377341  1
  O  O7  1  0.29219993  0.79649361  0.02289259  1
  F  F8  1  0.19538968  0.28751485  0.97574474  1
  F  F9  1  0.13794332  0.71248515  0.69092226  1
  F  F10  1  0.03002137  0.09403032  0.11497825  1
  F  F11  1  0.20871896  0.41182625  0.45080056  1
  F  F12  1  0.39279163  0.07328424  0.78310213  1
  F  F13  1  0.12461404  0.58817375  0.21586644  1
  F  F14  1  0.30331163  0.90596968  0.55168775  1
  F  F15  1  0.44963576  0.58772367  0.88221762  1
  F  F16  1  0.35546478  0.19700141  0.30809288  1
  F  F17  1  0.52254494  0.29116305  0.64192585  1
  F  F18  1  0.69290853  0.20608087  0.97590992  1
  F  F19  1  0.47806752  0.69670667  0.35817576  1
  F  F20  1  0.64042447  0.79391913  0.69075708  1
  F  F21  1  0.53673092  0.42286318  0.11803721  1
  F  F22  1  0.70742135  0.08731738  0.45090511  1
  F  F23  1  0.88369724  0.41227633  0.78444838  1
  F  F24  1  0.62591165  0.91268262  0.21576189  1
  F  F25  1  0.79660208  0.57713682  0.54862879  1
  F  F26  1  0.94054137  0.92671576  0.88356487  1
  F  F27  1  0.85526548  0.30329333  0.30849024  1
  F  F28  1  0.81078806  0.70883695  0.02474115  1
  F  F29  1  0.97786922  0.80299859  0.35857412  1
