# generated using pymatgen
data_V3OF11
_symmetry_space_group_name_H-M   'P 1'
_cell_length_a   5.46193486
_cell_length_b   5.25931904
_cell_length_c   14.75146364
_cell_angle_alpha   90.02948560
_cell_angle_beta   100.27448617
_cell_angle_gamma   90.25236283
_symmetry_Int_Tables_number   1
_chemical_formula_structural   V3OF11
_chemical_formula_sum   'V6 O2 F22'
_cell_volume   416.95195171
_cell_formula_units_Z   2
loop_
 _symmetry_equiv_pos_site_id
 _symmetry_equiv_pos_as_xyz
  1  'x, y, z'
loop_
 _atom_site_type_symbol
 _atom_site_label
 _atom_site_symmetry_multiplicity
 _atom_site_fract_x
 _atom_site_fract_y
 _atom_site_fract_z
 _atom_site_occupancy
  V  V0  1  0.04141427  0.97461239  0.00321567  1
  V  V1  1  0.15515988  0.50830213  0.33423523  1
  V  V2  1  0.33333300  0.00000000  0.66666700  1
  V  V3  1  0.51150612  0.49169787  0.99909777  1
  V  V4  1  0.62525173  0.02538761  0.33011733  1
  V  V5  1  0.83333300  0.50000000  0.66666700  1
  O  O6  1  0.37407346  0.20470588  0.31032608  1
  O  O7  1  0.29259254  0.79529412  0.02300692  1
  F  F8  1  0.02226041  0.19698135  0.64163564  1
  F  F9  1  0.19650999  0.28638532  0.97571950  1
  F  F10  1  0.14474469  0.69663668  0.69114389  1
  F  F11  1  0.03068222  0.09372817  0.11494935  1
  F  F12  1  0.21652293  0.41031459  0.45071865  1
  F  F13  1  0.37220043  0.08730294  0.78411925  1
  F  F14  1  0.12966054  0.57701972  0.21530547  1
  F  F15  1  0.29446557  0.91269706  0.54921375  1
  F  F16  1  0.45014407  0.58968541  0.88261435  1
  F  F17  1  0.52192231  0.30336332  0.64219011  1
  F  F18  1  0.69274951  0.20653213  0.97591195  1
  F  F19  1  0.47015701  0.71361468  0.35761350  1
  F  F20  1  0.64440559  0.80301865  0.69169736  1
  F  F21  1  0.53700646  0.42298028  0.11802853  1
  F  F22  1  0.72706591  0.07362289  0.44942411  1
  F  F23  1  0.87559589  0.41447857  0.78423906  1
  F  F24  1  0.63598478  0.90627183  0.21838365  1
  F  F25  1  0.79107111  0.58552143  0.54909394  1
  F  F26  1  0.93960109  0.92637711  0.88390889  1
  F  F27  1  0.85546892  0.29160150  0.30836317  1
  F  F28  1  0.81119808  0.70839850  0.02496983  1
  F  F29  1  0.97391649  0.79346787  0.35742205  1
