# generated using pymatgen
data_Li6V3P8O29
_symmetry_space_group_name_H-M   'P 1'
_cell_length_a   9.82101578
_cell_length_b   9.82030837
_cell_length_c   13.88352940
_cell_angle_alpha   89.87776502
_cell_angle_beta   89.88701845
_cell_angle_gamma   60.03819201
_symmetry_Int_Tables_number   1
_chemical_formula_structural   Li6V3P8O29
_chemical_formula_sum   'Li12 V6 P16 O58'
_cell_volume   1160.05300292
_cell_formula_units_Z   2
loop_
 _symmetry_equiv_pos_site_id
 _symmetry_equiv_pos_as_xyz
  1  'x, y, z'
loop_
 _atom_site_type_symbol
 _atom_site_label
 _atom_site_symmetry_multiplicity
 _atom_site_fract_x
 _atom_site_fract_y
 _atom_site_fract_z
 _atom_site_occupancy
  Li  Li0  1  0.90388490  0.77155818  0.06091406  1
  Li  Li1  1  0.77119705  0.90431768  0.56097314  1
  Li  Li2  1  0.90429793  0.32393825  0.56073102  1
  Li  Li3  1  0.77154517  0.32518667  0.06059927  1
  Li  Li4  1  0.32508316  0.90391362  0.06076782  1
  Li  Li5  1  0.67482748  0.22846712  0.43925706  1
  Li  Li6  1  0.32314371  0.77159048  0.56083699  1
  Li  Li7  1  0.67580721  0.09580050  0.93899189  1
  Li  Li8  1  0.22797528  0.67730074  0.93973279  1
  Li  Li9  1  0.09590502  0.67508011  0.43937694  1
  Li  Li10  1  0.22847018  0.09637446  0.43911872  1
  Li  Li11  1  0.09563492  0.22860804  0.93906637  1
  V  V12  1  0.56769680  0.43272692  0.24974146  1
  V  V13  1  0.43441109  0.56505008  0.75040719  1
  V  V14  1  0.56715814  0.99964478  0.75048357  1
  V  V15  1  0.43255967  0.99974905  0.24991156  1
  V  V16  1  0.00101433  0.56643213  0.25050473  1
  V  V17  1  -0.00009278  0.43289992  0.74933016  1
  P  P18  1  0.91194418  0.76808491  0.84202312  1
  P  P19  1  0.76850662  0.91209206  0.34239264  1
  P  P20  1  0.91211227  0.31924355  0.34241553  1
  P  P21  1  0.66676318  0.66691370  0.12610820  1
  P  P22  1  0.66657764  0.66619589  0.62633424  1
  P  P23  1  0.76907011  0.31884781  0.84198244  1
  P  P24  1  0.68131265  0.23095303  0.65781900  1
  P  P25  1  0.31831063  0.91219930  0.84287779  1
  P  P26  1  0.68078825  0.08795921  0.15764680  1
  P  P27  1  0.31958621  0.76788405  0.34213466  1
  P  P28  1  0.23175308  0.68042183  0.15756431  1
  P  P29  1  0.33342822  0.33298971  0.37395807  1
  P  P30  1  0.33361559  0.33331236  0.87376768  1
  P  P31  1  0.08780056  0.68141415  0.65700550  1
  P  P32  1  0.23187110  0.08796835  0.65790725  1
  P  P33  1  0.08775419  0.23168513  0.15790806  1
  O  O34  1  0.99752744  0.75986314  0.56688989  1
  O  O35  1  0.91725441  0.74740522  0.34166748  1
  O  O36  1  0.76012399  0.99949516  0.06717373  1
  O  O37  1  0.74697201  0.91709384  0.84166760  1
  O  O38  1  0.90112618  0.61919905  0.82522772  1
  O  O39  1  0.81370729  0.67418870  0.16724536  1
  O  O40  1  0.89976847  0.47926274  0.32485079  1
  O  O41  1  0.99940556  0.24101993  0.06756118  1
  O  O42  1  0.91894133  0.33363127  0.84090007  1
  O  O43  1  0.67400830  0.81216142  0.66709317  1
  O  O44  1  0.61952885  0.90141913  0.32504035  1
  O  O45  1  0.81266540  0.51157213  0.66651443  1
  O  O46  1  0.66696271  0.66731597  0.01849922  1
  O  O47  1  0.66338090  0.66640997  0.51899417  1
  O  O48  1  0.67545989  0.51221887  0.16686776  1
  O  O49  1  0.47815127  0.90173094  0.82481950  1
  O  O50  1  0.51228842  0.81272853  0.16695204  1
  O  O51  1  0.74742566  0.33457098  0.34148004  1
  O  O52  1  0.79182896  0.20806901  0.75003718  1
  O  O53  1  0.76086398  0.23966012  0.56741178  1
  O  O54  1  0.75910971  0.24009208  0.93266781  1
  O  O55  1  0.62203201  0.47936712  0.82525087  1
  O  O56  1  0.51290850  0.67131212  0.66895174  1
  O  O57  1  0.66495463  0.25294045  0.15837126  1
  O  O58  1  0.47890773  0.61918646  0.32538725  1
  O  O59  1  0.33532924  0.91725150  0.34128857  1
  O  O60  1  0.79065643  0.00013091  0.24983293  1
  O  O61  1  0.75892053  0.00068271  0.43254599  1
  O  O62  1  0.24135415  0.99899095  0.56742881  1
  O  O63  1  0.66518742  0.08174658  0.65912997  1
  O  O64  1  0.52140666  0.37957814  0.67342809  1
  O  O65  1  0.33349497  0.74859274  0.84293177  1
  O  O66  1  0.48720860  0.32527948  0.33306720  1
  O  O67  1  0.38026241  0.52080135  0.17531881  1
  O  O68  1  0.24139011  0.76040485  0.06724291  1
  O  O69  1  0.23968710  0.75908852  0.43274986  1
  O  O70  1  0.20957269  0.79042867  0.25007903  1
  O  O71  1  0.25097798  0.66694774  0.65738865  1
  O  O72  1  0.48807341  0.18769095  0.83342451  1
  O  O73  1  0.52110213  0.09895317  0.17504502  1
  O  O74  1  0.32830168  0.48779693  0.83133648  1
  O  O75  1  0.33370215  0.33686320  0.98105637  1
  O  O76  1  0.33247172  0.33308787  0.48151440  1
  O  O77  1  0.18625377  0.48838667  0.33297536  1
  O  O78  1  0.38017398  0.09928674  0.67503119  1
  O  O79  1  0.32447739  0.18759668  0.33296691  1
  O  O80  1  0.08275469  0.66576309  0.15834139  1
  O  O81  1  0.99923892  0.79094568  0.74976261  1
  O  O82  1  0.00079199  0.75881561  0.93239315  1
  O  O83  1  0.09885393  0.52147953  0.67540602  1
  O  O84  1  0.18763325  0.32646283  0.83297561  1
  O  O85  1  0.09823657  0.38096484  0.17428471  1
  O  O86  1  0.25283358  0.08279486  0.15862875  1
  O  O87  1  0.24003570  0.00229411  0.93298664  1
  O  O88  1  0.20901190  0.00055651  0.75011317  1
  O  O89  1  0.08274672  0.25297225  0.65821789  1
  O  O90  1  0.00076450  0.23965419  0.43287381  1
  O  O91  1  0.99985140  0.20899902  0.25012096  1
