# generated using pymatgen
data_Na5Fe11O16
_symmetry_space_group_name_H-M   'P 1'
_cell_length_a   6.20487343
_cell_length_b   6.19953911
_cell_length_c   11.03919826
_cell_angle_alpha   90.57888452
_cell_angle_beta   72.88000686
_cell_angle_gamma   120.06691183
_symmetry_Int_Tables_number   1
_chemical_formula_structural   Na5Fe11O16
_chemical_formula_sum   'Na5 Fe11 O16'
_cell_volume   346.34527898
_cell_formula_units_Z   1
loop_
 _symmetry_equiv_pos_site_id
 _symmetry_equiv_pos_as_xyz
  1  'x, y, z'
loop_
 _atom_site_type_symbol
 _atom_site_label
 _atom_site_symmetry_multiplicity
 _atom_site_fract_x
 _atom_site_fract_y
 _atom_site_fract_z
 _atom_site_occupancy
  Na  Na0  1  0.12832978  0.31302876  0.05972195  1
  Na  Na1  1  0.62482027  0.80953054  0.06000053  1
  Na  Na2  1  0.62196594  0.31199567  0.56636206  1
  Na  Na3  1  0.12437527  0.80935817  0.06364670  1
  Na  Na4  1  0.11968525  0.81007061  0.56620213  1
  Fe  Fe5  1  0.62106604  0.06157329  0.31507216  1
  Fe  Fe6  1  0.62547086  0.31313464  0.05812316  1
  Fe  Fe7  1  0.62100676  0.05692491  0.81409065  1
  Fe  Fe8  1  0.62305066  0.56399580  0.31386959  1
  Fe  Fe9  1  0.12283639  0.06257491  0.31297626  1
  Fe  Fe10  1  0.62048489  0.80873934  0.56731550  1
  Fe  Fe11  1  0.12216575  0.56247904  0.31349032  1
  Fe  Fe12  1  0.12397411  0.05817689  0.81461791  1
  Fe  Fe13  1  0.62752218  0.56042720  0.81013344  1
  Fe  Fe14  1  0.11948179  0.31153063  0.56699504  1
  Fe  Fe15  1  0.12444461  0.56171866  0.81504426  1
  O  O16  1  0.83435512  0.41422786  0.20824941  1
  O  O17  1  0.87118884  0.16553211  0.43069468  1
  O  O18  1  0.88218250  0.19570817  0.91962993  1
  O  O19  1  0.85546586  0.93172444  0.21315415  1
  O  O20  1  0.88104840  0.69994311  0.41770145  1
  O  O21  1  0.87829802  0.42042898  0.70013140  1
  O  O22  1  0.36453927  0.42460716  0.20904880  1
  O  O23  1  0.37290535  0.20055209  0.42479461  1
  O  O24  1  0.86191410  0.94996022  0.69245850  1
  O  O25  1  0.37930563  0.96010617  0.20606708  1
  O  O26  1  0.36387787  0.45564386  0.68823965  1
  O  O27  1  0.40509932  0.18869936  0.92543057  1
  O  O28  1  0.87925844  0.66239033  0.92735101  1
  O  O29  1  0.39620737  0.69417931  0.42641674  1
  O  O30  1  0.36788741  0.92512679  0.70609037  1
  O  O31  1  0.38733594  0.69451298  0.91376497  1
