# generated using pymatgen
data_VOF2
_symmetry_space_group_name_H-M   'P 1'
_cell_length_a   5.26148212
_cell_length_b   9.34178410
_cell_length_c   5.21209632
_cell_angle_alpha   105.33401419
_cell_angle_beta   119.29291814
_cell_angle_gamma   74.97389218
_symmetry_Int_Tables_number   1
_chemical_formula_structural   VOF2
_chemical_formula_sum   'V4 O4 F8'
_cell_volume   212.88683378
_cell_formula_units_Z   4
loop_
 _symmetry_equiv_pos_site_id
 _symmetry_equiv_pos_as_xyz
  1  'x, y, z'
loop_
 _atom_site_type_symbol
 _atom_site_label
 _atom_site_symmetry_multiplicity
 _atom_site_fract_x
 _atom_site_fract_y
 _atom_site_fract_z
 _atom_site_occupancy
  V  V0  1  0.99647941  0.99789814  0.99717359  1
  V  V1  1  0.74187508  0.75389361  0.22260753  1
  V  V2  1  0.48272149  0.49965630  0.53155998  1
  V  V3  1  0.25078615  0.24369511  0.77376347  1
  O  O4  1  0.79596870  0.86980521  0.05864654  1
  O  O5  1  0.31403823  0.37691499  0.55012188  1
  O  O6  1  0.19718037  0.13058647  0.94026218  1
  O  O7  1  0.54224010  0.61930759  0.85632280  1
  F  F8  1  0.13423946  0.62029056  0.28492692  1
  F  F9  1  0.02986235  0.13209776  0.36790278  1
  F  F10  1  0.37554624  0.87401033  0.21998040  1
  F  F11  1  0.47122945  0.37892250  0.13573616  1
  F  F12  1  0.70426339  0.62475980  0.44347590  1
  F  F13  1  0.61946851  0.12451140  0.77883856  1
  F  F14  1  0.96527784  0.86651101  0.62758976  1
  F  F15  1  0.87882323  0.38714022  0.71109152  1
