# generated using pymatgen
data_Nb2Ge2O7
_symmetry_space_group_name_H-M   'P 1'
_cell_length_a   13.52116322
_cell_length_b   13.52116322
_cell_length_c   5.87043352
_cell_angle_alpha   90.00000000
_cell_angle_beta   90.00000000
_cell_angle_gamma   16.75555318
_symmetry_Int_Tables_number   1
_chemical_formula_structural   Nb2Ge2O7
_chemical_formula_sum   'Nb4 Ge4 O14'
_cell_volume   309.40438987
_cell_formula_units_Z   2
loop_
 _symmetry_equiv_pos_site_id
 _symmetry_equiv_pos_as_xyz
  1  'x, y, z'
loop_
 _atom_site_type_symbol
 _atom_site_label
 _atom_site_symmetry_multiplicity
 _atom_site_fract_x
 _atom_site_fract_y
 _atom_site_fract_z
 _atom_site_occupancy
  Nb  Nb0  1  0.05726089  0.05726089  0.00280747  1
  Nb  Nb1  1  0.16107519  0.16107519  0.48376103  1
  Nb  Nb2  1  0.83892481  0.83892481  0.98376103  1
  Nb  Nb3  1  0.94273911  0.94273911  0.50280747  1
  Ge  Ge4  1  0.28634792  0.28634792  0.43739767  1
  Ge  Ge5  1  0.56357837  0.56357837  0.56732259  1
  Ge  Ge6  1  0.43642163  0.43642163  0.06732259  1
  Ge  Ge7  1  0.71365208  0.71365208  0.93739767  1
  O  O8  1  0.00799030  0.00799030  0.22154282  1
  O  O9  1  0.11432458  0.11432458  0.18031274  1
  O  O10  1  0.09219415  0.09219415  0.65885851  1
  O  O11  1  0.22284843  0.22284843  0.30196056  1
  O  O12  1  0.19835191  0.19835191  0.76062253  1
  O  O13  1  0.44315411  0.44315411  0.40812974  1
  O  O14  1  0.35200175  0.35200175  0.98770235  1
  O  O15  1  0.55684589  0.55684589  0.90812974  1
  O  O16  1  0.64799825  0.64799825  0.48770235  1
  O  O17  1  0.80164809  0.80164809  0.26062253  1
  O  O18  1  0.88567542  0.88567542  0.68031274  1
  O  O19  1  0.99200970  0.99200970  0.72154282  1
  O  O20  1  0.77715157  0.77715157  0.80196056  1
  O  O21  1  0.90780585  0.90780585  0.15885851  1
