# generated using pymatgen
data_V3O5F
_symmetry_space_group_name_H-M   'P 1'
_cell_length_a   7.09795388
_cell_length_b   5.54126518
_cell_length_c   5.52305269
_cell_angle_alpha   74.68903575
_cell_angle_beta   72.55067144
_cell_angle_gamma   72.68521903
_symmetry_Int_Tables_number   1
_chemical_formula_structural   V3O5F
_chemical_formula_sum   'V6 O10 F2'
_cell_volume   194.16463737
_cell_formula_units_Z   2
loop_
 _symmetry_equiv_pos_site_id
 _symmetry_equiv_pos_as_xyz
  1  'x, y, z'
loop_
 _atom_site_type_symbol
 _atom_site_label
 _atom_site_symmetry_multiplicity
 _atom_site_fract_x
 _atom_site_fract_y
 _atom_site_fract_z
 _atom_site_occupancy
  V  V0  1  0.84883966  0.65392082  0.64868212  1
  V  V1  1  0.66577704  0.29201305  0.37352480  1
  V  V2  1  0.33422296  0.70798695  0.62647520  1
  V  V3  1  0.15116034  0.34607918  0.35131788  1
  V  V4  1  0.50000000  0.00000000  0.00000000  1
  V  V5  1  0.00000000  0.00000000  0.00000000  1
  O  O6  1  0.67267384  0.01850387  0.63650946  1
  O  O7  1  0.95910053  0.23876422  0.23327110  1
  O  O8  1  0.63092542  0.56040291  0.56431544  1
  O  O9  1  0.29807754  0.89617621  0.89636699  1
  O  O10  1  0.70192246  0.10382379  0.10363301  1
  O  O11  1  0.04089947  0.76123578  0.76672890  1
  O  O12  1  0.36907458  0.43959709  0.43568456  1
  O  O13  1  0.00099759  0.28997526  0.70498832  1
  O  O14  1  0.32732616  0.98149613  0.36349054  1
  O  O15  1  0.99900241  0.71002374  0.29501168  1
  F  F16  1  0.32516600  0.37254358  0.97348528  1
  F  F17  1  0.67483400  0.62745642  0.02651472  1
