# generated using pymatgen
data_BaV8O21
_symmetry_space_group_name_H-M   'P 1'
_cell_length_a   7.85129925
_cell_length_b   7.21520980
_cell_length_c   15.17738803
_cell_angle_alpha   90.02764466
_cell_angle_beta   90.23336252
_cell_angle_gamma   76.69680103
_symmetry_Int_Tables_number   1
_chemical_formula_structural   BaV8O21
_chemical_formula_sum   'Ba2 V16 O42'
_cell_volume   836.70202899
_cell_formula_units_Z   2
loop_
 _symmetry_equiv_pos_site_id
 _symmetry_equiv_pos_as_xyz
  1  'x, y, z'
loop_
 _atom_site_type_symbol
 _atom_site_label
 _atom_site_symmetry_multiplicity
 _atom_site_fract_x
 _atom_site_fract_y
 _atom_site_fract_z
 _atom_site_occupancy
  Ba  Ba0  1  0.04595138  0.73866300  0.31192014  1
  Ba  Ba1  1  0.95404862  0.26133700  0.68807986  1
  V  V2  1  0.18395322  0.45403765  0.92558015  1
  V  V3  1  0.18387976  0.95407739  0.92525427  1
  V  V4  1  0.33798003  0.41606681  0.52342236  1
  V  V5  1  0.33852206  0.91485268  0.52394024  1
  V  V6  1  0.37258233  0.15678554  0.07116690  1
  V  V7  1  0.37316228  0.65692792  0.07104244  1
  V  V8  1  0.38418489  0.40654583  0.73187795  1
  V  V9  1  0.38430664  0.90378462  0.73251764  1
  V  V10  1  0.61569336  0.09621538  0.26748236  1
  V  V11  1  0.61581511  0.59345417  0.26812205  1
  V  V12  1  0.62683772  0.34307208  0.92895756  1
  V  V13  1  0.62741767  0.84321446  0.92883310  1
  V  V14  1  0.66201997  0.58393319  0.47657764  1
  V  V15  1  0.66147794  0.08514732  0.47605976  1
  V  V16  1  0.81612024  0.04592261  0.07474573  1
  V  V17  1  0.81604678  0.54596235  0.07441985  1
  O  O18  1  0.00000000  0.00000000  0.00000000  1
  O  O19  1  0.00000000  0.50000000  0.00000000  1
  O  O20  1  0.09647091  0.47116259  0.82630463  1
  O  O21  1  0.09526367  0.98104430  0.82627567  1
  O  O22  1  0.18490737  0.45960954  0.44806716  1
  O  O23  1  0.18566558  0.94744167  0.44835280  1
  O  O24  1  0.21724246  0.19598822  0.14207128  1
  O  O25  1  0.21744323  0.69544916  0.14399056  1
  O  O26  1  0.23604985  0.19107963  0.95246525  1
  O  O27  1  0.23605948  0.69087792  0.95224940  1
  O  O28  1  0.23211764  0.94667911  0.62732968  1
  O  O29  1  0.23230341  0.43702456  0.62698051  1
  O  O30  1  0.33524587  0.66378701  0.74180924  1
  O  O31  1  0.32626069  0.16976970  0.74195192  1
  O  O32  1  0.38727155  0.40399411  0.03282288  1
  O  O33  1  0.38628473  0.90269840  0.03338430  1
  O  O34  1  0.41968341  0.64472568  0.52954157  1
  O  O35  1  0.41915166  0.14555150  0.52823496  1
  O  O36  1  0.42256201  0.14402952  0.31009860  1
  O  O37  1  0.41811455  0.64578635  0.30975015  1
  O  O38  1  0.43199669  0.39142263  0.86068202  1
  O  O39  1  0.43024117  0.89216304  0.86046296  1
  O  O40  1  0.56800331  0.60857737  0.13931798  1
  O  O41  1  0.56975883  0.10783696  0.13953704  1
  O  O42  1  0.57743799  0.85597048  0.68990140  1
  O  O43  1  0.58188545  0.35421365  0.69024985  1
  O  O44  1  0.58031659  0.35527432  0.47045843  1
  O  O45  1  0.58084834  0.85444850  0.47176504  1
  O  O46  1  0.61272845  0.59600589  0.96717712  1
  O  O47  1  0.61371527  0.09730160  0.96661570  1
  O  O48  1  0.66475413  0.33621299  0.25819076  1
  O  O49  1  0.67373931  0.83023030  0.25804808  1
  O  O50  1  0.76769659  0.56297544  0.37301949  1
  O  O51  1  0.76788236  0.05332089  0.37267032  1
  O  O52  1  0.76395015  0.80892037  0.04753475  1
  O  O53  1  0.76394052  0.30912208  0.04775060  1
  O  O54  1  0.78275754  0.80401178  0.85792872  1
  O  O55  1  0.78255677  0.30455084  0.85600944  1
  O  O56  1  0.81433442  0.05255833  0.55164720  1
  O  O57  1  0.81509263  0.54039046  0.55193284  1
  O  O58  1  0.90473633  0.01895570  0.17372433  1
  O  O59  1  0.90352909  0.52883741  0.17369537  1
