# generated using pymatgen
data_AsAuO3
_symmetry_space_group_name_H-M   'P 1'
_cell_length_a   8.89842518
_cell_length_b   8.89842518
_cell_length_c   5.17151280
_cell_angle_alpha   66.95562384
_cell_angle_beta   113.04437616
_cell_angle_gamma   104.83006704
_symmetry_Int_Tables_number   1
_chemical_formula_structural   AsAuO3
_chemical_formula_sum   'As4 Au4 O12'
_cell_volume   344.18403414
_cell_formula_units_Z   4
loop_
 _symmetry_equiv_pos_site_id
 _symmetry_equiv_pos_as_xyz
  1  'x, y, z'
loop_
 _atom_site_type_symbol
 _atom_site_label
 _atom_site_symmetry_multiplicity
 _atom_site_fract_x
 _atom_site_fract_y
 _atom_site_fract_z
 _atom_site_occupancy
  As  As0  1  0.20291621  0.62685210  0.73797811  1
  As  As1  1  0.37314790  0.79708379  0.23797811  1
  As  As2  1  0.62685210  0.20291621  0.76202189  1
  As  As3  1  0.79708379  0.37314790  0.26202189  1
  Au  Au4  1  0.08557139  0.08557139  0.75000000  1
  Au  Au5  1  0.72613522  0.72613522  0.75000000  1
  Au  Au6  1  0.27386478  0.27386478  0.25000000  1
  Au  Au7  1  0.91442861  0.91442861  0.25000000  1
  O  O8  1  0.07562303  0.76794781  0.61879491  1
  O  O9  1  0.23205219  0.92437697  0.11879491  1
  O  O10  1  0.12186487  0.42986165  0.88049075  1
  O  O11  1  0.30736787  0.61791716  0.51010941  1
  O  O12  1  0.57013835  0.87813513  0.38049075  1
  O  O13  1  0.38208284  0.69263213  0.01010941  1
  O  O14  1  0.61791716  0.30736787  0.98989059  1
  O  O15  1  0.42986165  0.12186487  0.61950925  1
  O  O16  1  0.69263213  0.38208284  0.48989059  1
  O  O17  1  0.87813513  0.57013835  0.11950925  1
  O  O18  1  0.76794781  0.07562303  0.88120509  1
  O  O19  1  0.92437697  0.23205219  0.38120509  1
