# generated using pymatgen
data_Li4CuNi3(PO4)4
_symmetry_space_group_name_H-M   'P 1'
_cell_length_a   4.72453882
_cell_length_b   10.06377152
_cell_length_c   5.96208363
_cell_angle_alpha   90.00000000
_cell_angle_beta   90.00000000
_cell_angle_gamma   90.78412246
_symmetry_Int_Tables_number   1
_chemical_formula_structural   Li4CuNi3(PO4)4
_chemical_formula_sum   'Li4 Cu1 Ni3 P4 O16'
_cell_volume   283.45073141
_cell_formula_units_Z   1
loop_
 _symmetry_equiv_pos_site_id
 _symmetry_equiv_pos_as_xyz
  1  'x, y, z'
loop_
 _atom_site_type_symbol
 _atom_site_label
 _atom_site_symmetry_multiplicity
 _atom_site_fract_x
 _atom_site_fract_y
 _atom_site_fract_z
 _atom_site_occupancy
  Li  Li0  1  0.00283258  0.00206271  0.99972370  1
  Li  Li1  1  0.00283258  0.00206271  0.50027630  1
  Li  Li2  1  0.49918913  0.49949800  0.50192841  1
  Li  Li3  1  0.49918913  0.49949800  0.99807159  1
  Cu  Cu4  1  0.95350214  0.28243392  0.25000000  1
  Ni  Ni5  1  0.02019489  0.72506835  0.75000000  1
  Ni  Ni6  1  0.48093054  0.22167406  0.75000000  1
  Ni  Ni7  1  0.52126348  0.77636209  0.25000000  1
  P  P8  1  0.08019163  0.59408095  0.25000000  1
  P  P9  1  0.41625109  0.09615199  0.25000000  1
  P  P10  1  0.58600035  0.90517454  0.75000000  1
  P  P11  1  0.91837318  0.40628026  0.75000000  1
  O  O12  1  0.19075013  0.44830800  0.25000000  1
  O  O13  1  0.22481705  0.66399918  0.04400996  1
  O  O14  1  0.22481705  0.66399918  0.45599004  1
  O  O15  1  0.24160647  0.40144083  0.75000000  1
  O  O16  1  0.26183668  0.89912692  0.75000000  1
  O  O17  1  0.28243954  0.16309017  0.04058354  1
  O  O18  1  0.28243954  0.16309017  0.45941646  1
  O  O19  1  0.30376003  0.95011110  0.25000000  1
  O  O20  1  0.70623771  0.04892419  0.75000000  1
  O  O21  1  0.72589857  0.83379568  0.54404457  1
  O  O22  1  0.72589857  0.83379568  0.95595543  1
  O  O23  1  0.74528715  0.10390646  0.25000000  1
  O  O24  1  0.75639723  0.59893786  0.25000000  1
  O  O25  1  0.77320533  0.33386474  0.54641812  1
  O  O26  1  0.77320533  0.33386474  0.95358188  1
  O  O27  1  0.80065291  0.54939953  0.75000000  1
