# generated using pymatgen
data_MnFe7(PO4)8
_symmetry_space_group_name_H-M   'P 1'
_cell_length_a   4.89037833
_cell_length_b   9.93610342
_cell_length_c   11.91257653
_cell_angle_alpha   90.00000000
_cell_angle_beta   90.00000000
_cell_angle_gamma   90.23034709
_symmetry_Int_Tables_number   1
_chemical_formula_structural   MnFe7(PO4)8
_chemical_formula_sum   'Mn1 Fe7 P8 O32'
_cell_volume   578.84296013
_cell_formula_units_Z   1
loop_
 _symmetry_equiv_pos_site_id
 _symmetry_equiv_pos_as_xyz
  1  'x, y, z'
loop_
 _atom_site_type_symbol
 _atom_site_label
 _atom_site_symmetry_multiplicity
 _atom_site_fract_x
 _atom_site_fract_y
 _atom_site_fract_z
 _atom_site_occupancy
  Mn  Mn0  1  0.06116039  0.71793045  0.37500000  1
  Fe  Fe1  1  0.03032186  0.72750025  0.87500000  1
  Fe  Fe2  1  0.46843437  0.22698838  0.87500000  1
  Fe  Fe3  1  0.46911204  0.22685554  0.37500000  1
  Fe  Fe4  1  0.53380386  0.77459290  0.12587048  1
  Fe  Fe5  1  0.53380386  0.77459290  0.62412952  1
  Fe  Fe6  1  0.96914161  0.27280081  0.12452245  1
  Fe  Fe7  1  0.96914161  0.27280081  0.62547755  1
  P  P8  1  0.08064480  0.59663689  0.12312904  1
  P  P9  1  0.08064480  0.59663689  0.62687096  1
  P  P10  1  0.41668225  0.09661906  0.12499534  1
  P  P11  1  0.41668225  0.09661906  0.62500466  1
  P  P12  1  0.58190015  0.90370259  0.87500000  1
  P  P13  1  0.58069921  0.90007593  0.37500000  1
  P  P14  1  0.92094130  0.40436977  0.37500000  1
  P  P15  1  0.91887671  0.40321539  0.87500000  1
  O  O16  1  0.15003540  0.44660287  0.12424984  1
  O  O17  1  0.15003540  0.44660287  0.62575016  1
  O  O18  1  0.22642121  0.67147709  0.02300721  1
  O  O19  1  0.22885668  0.67156839  0.52661376  1
  O  O20  1  0.22642121  0.67147709  0.72699279  1
  O  O21  1  0.22885668  0.67156839  0.22338624  1
  O  O22  1  0.23012183  0.38302577  0.37500000  1
  O  O23  1  0.22789679  0.38120301  0.87500000  1
  O  O24  1  0.26642966  0.88034410  0.37500000  1
  O  O25  1  0.27253844  0.88168195  0.87500000  1
  O  O26  1  0.27336818  0.17212425  0.02430317  1
  O  O27  1  0.27277517  0.17188445  0.22580647  1
  O  O28  1  0.27336818  0.17212425  0.72569683  1
  O  O29  1  0.27277517  0.17188445  0.52419353  1
  O  O30  1  0.34612979  0.94675834  0.12378559  1
  O  O31  1  0.34612979  0.94675834  0.62621441  1
  O  O32  1  0.64081396  0.05182127  0.37500000  1
  O  O33  1  0.65079975  0.05415416  0.87500000  1
  O  O34  1  0.71830465  0.82833436  0.27279095  1
  O  O35  1  0.71830465  0.82833436  0.47720905  1
  O  O36  1  0.72635150  0.82909279  0.77424410  1
  O  O37  1  0.72635150  0.82909279  0.97575590  1
  O  O38  1  0.72620886  0.11901557  0.12556262  1
  O  O39  1  0.72620886  0.11901557  0.62443738  1
  O  O40  1  0.77222933  0.61869394  0.12424204  1
  O  O41  1  0.77222933  0.61869394  0.62575796  1
  O  O42  1  0.77467449  0.33022047  0.27435305  1
  O  O43  1  0.77467449  0.33022047  0.47564695  1
  O  O44  1  0.77391936  0.32804936  0.77425359  1
  O  O45  1  0.77391936  0.32804936  0.97574641  1
  O  O46  1  0.85119339  0.55508197  0.37500000  1
  O  O47  1  0.84966987  0.55310540  0.87500000  1
