# generated using pymatgen
data_Zr15VO32
_symmetry_space_group_name_H-M   'P 1'
_cell_length_a   10.38895064
_cell_length_b   5.26837127
_cell_length_c   10.76278047
_cell_angle_alpha   90.10545205
_cell_angle_beta   99.62009262
_cell_angle_gamma   90.16377379
_symmetry_Int_Tables_number   1
_chemical_formula_structural   Zr15VO32
_chemical_formula_sum   'Zr15 V1 O32'
_cell_volume   580.78975268
_cell_formula_units_Z   1
loop_
 _symmetry_equiv_pos_site_id
 _symmetry_equiv_pos_as_xyz
  1  'x, y, z'
loop_
 _atom_site_type_symbol
 _atom_site_label
 _atom_site_symmetry_multiplicity
 _atom_site_fract_x
 _atom_site_fract_y
 _atom_site_fract_z
 _atom_site_occupancy
  Zr  Zr0  1  0.13672993  0.45776261  0.85332335  1
  Zr  Zr1  1  0.13536193  0.04394589  0.60547925  1
  Zr  Zr2  1  0.13734432  0.45615233  0.35552760  1
  Zr  Zr3  1  0.13890000  0.04203912  0.10477013  1
  Zr  Zr4  1  0.36149836  0.95715515  0.89488273  1
  Zr  Zr5  1  0.36325631  0.54615583  0.64464744  1
  Zr  Zr6  1  0.36286097  0.95714278  0.39664279  1
  Zr  Zr7  1  0.36234024  0.54181577  0.14601395  1
  Zr  Zr8  1  0.64038389  0.45697741  0.85210648  1
  Zr  Zr9  1  0.64498752  0.04684530  0.60538078  1
  Zr  Zr10  1  0.64124998  0.45918518  0.35852999  1
  Zr  Zr11  1  0.63791015  0.04494804  0.10462011  1
  Zr  Zr12  1  0.86037671  0.95828287  0.89235780  1
  Zr  Zr13  1  0.85868778  0.95695857  0.39638582  1
  Zr  Zr14  1  0.86158094  0.54437094  0.14506440  1
  V  V15  1  0.87055599  0.55319417  0.65019957  1
  O  O16  1  0.03480916  0.16349715  0.91999519  1
  O  O17  1  0.02218931  0.33439300  0.66889063  1
  O  O18  1  0.03389518  0.16011071  0.42439315  1
  O  O19  1  0.03401432  0.33243909  0.17218400  1
  O  O20  1  0.22293562  0.74095127  0.98861098  1
  O  O21  1  0.22323693  0.75790180  0.73906089  1
  O  O22  1  0.22286995  0.74405351  0.49046835  1
  O  O23  1  0.26923600  0.24305781  0.75871367  1
  O  O24  1  0.22452656  0.75697842  0.24009034  1
  O  O25  1  0.27403024  0.25777155  0.51138989  1
  O  O26  1  0.27561867  0.24221704  0.26123668  1
  O  O27  1  0.27539650  0.25720583  0.01014104  1
  O  O28  1  0.46575074  0.66635040  0.82772567  1
  O  O29  1  0.46680481  0.83585182  0.57844008  1
  O  O30  1  0.53463105  0.16704630  0.92110542  1
  O  O31  1  0.46611692  0.66557344  0.32929262  1
  O  O32  1  0.53375911  0.33089315  0.67198992  1
  O  O33  1  0.46454031  0.83484801  0.07769720  1
  O  O34  1  0.53805070  0.16525384  0.42249345  1
  O  O35  1  0.53515378  0.33457835  0.17249590  1
  O  O36  1  0.72396265  0.74375532  0.98787985  1
  O  O37  1  0.73068551  0.75072909  0.73550575  1
  O  O38  1  0.72614982  0.74509918  0.49190598  1
  O  O39  1  0.77728154  0.24335414  0.76005324  1
  O  O40  1  0.72419210  0.75802837  0.23971547  1
  O  O41  1  0.78142633  0.26940624  0.51507324  1
  O  O42  1  0.77565058  0.24208320  0.26152822  1
  O  O43  1  0.77615325  0.25770082  0.00994820  1
  O  O44  1  0.96120640  0.66068388  0.82001749  1
  O  O45  1  0.96047345  0.81721416  0.58246633  1
  O  O46  1  0.96532900  0.66751987  0.32854789  1
  O  O47  1  0.96590150  0.83051629  0.07501205  1
