# generated using pymatgen
data_Li4V3FeO8
_symmetry_space_group_name_H-M   'P 1'
_cell_length_a   5.98905087
_cell_length_b   5.99001842
_cell_length_c   5.98974738
_cell_angle_alpha   60.03113837
_cell_angle_beta   89.93224234
_cell_angle_gamma   119.94611502
_symmetry_Int_Tables_number   1
_chemical_formula_structural   Li4V3FeO8
_chemical_formula_sum   'Li4 V3 Fe1 O8'
_cell_volume   152.04795474
_cell_formula_units_Z   1
loop_
 _symmetry_equiv_pos_site_id
 _symmetry_equiv_pos_as_xyz
  1  'x, y, z'
loop_
 _atom_site_type_symbol
 _atom_site_label
 _atom_site_symmetry_multiplicity
 _atom_site_fract_x
 _atom_site_fract_y
 _atom_site_fract_z
 _atom_site_occupancy
  Li  Li0  1  0.00389131  0.50115326  0.50049790  1
  Li  Li1  1  0.00169067  0.99990351  0.50034411  1
  Li  Li2  1  0.50245023  0.49902070  0.50041108  1
  Li  Li3  1  0.50280785  0.00031615  0.50032304  1
  V  V4  1  0.00217240  0.50011107  0.00047236  1
  V  V5  1  0.50222754  0.50013968  0.00031397  1
  V  V6  1  0.50225611  0.00010969  0.00038062  1
  Fe  Fe7  1  0.00225078  0.00017922  0.00049499  1
  O  O8  1  0.24680423  0.98932317  0.77080492  1
  O  O9  1  0.25998575  0.51618835  0.22638327  1
  O  O10  1  0.24101211  0.48517917  0.77108377  1
  O  O11  1  0.74617365  0.98403234  0.77052753  1
  O  O12  1  0.25837431  0.01611779  0.23022689  1
  O  O13  1  0.76335954  0.51496956  0.22981698  1
  O  O14  1  0.74455067  0.48405467  0.77439871  1
  O  O15  1  0.75773987  0.01095165  0.22996686  1
