# generated using pymatgen
data_LiMnO2
_symmetry_space_group_name_H-M   'P 1'
_cell_length_a   7.31584438
_cell_length_b   5.86962685
_cell_length_c   5.25135804
_cell_angle_alpha   90.71548347
_cell_angle_beta   86.55508771
_cell_angle_gamma   88.98575632
_symmetry_Int_Tables_number   1
_chemical_formula_structural   LiMnO2
_chemical_formula_sum   'Li6 Mn6 O12'
_cell_volume   225.03653542
_cell_formula_units_Z   6
loop_
 _symmetry_equiv_pos_site_id
 _symmetry_equiv_pos_as_xyz
  1  'x, y, z'
loop_
 _atom_site_type_symbol
 _atom_site_label
 _atom_site_symmetry_multiplicity
 _atom_site_fract_x
 _atom_site_fract_y
 _atom_site_fract_z
 _atom_site_occupancy
  Li  Li0  1  0.98792793  0.12589379  0.23975897  1
  Li  Li1  1  0.34540507  0.87410621  0.42690803  1
  Li  Li2  1  0.99341847  0.37010706  0.73871431  1
  Li  Li3  1  0.65856113  0.88043649  0.07054162  1
  Li  Li4  1  0.33991553  0.62989294  0.92795169  1
  Li  Li5  1  0.67477187  0.11956351  0.59612538  1
  Mn  Mn6  1  0.00187127  0.62318098  0.24438295  1
  Mn  Mn7  1  0.33146273  0.37681902  0.42228405  1
  Mn  Mn8  1  0.99943184  0.88436922  0.74919167  1
  Mn  Mn9  1  0.67174790  0.36572623  0.07971980  1
  Mn  Mn10  1  0.33390116  0.11562978  0.91747533  1
  Mn  Mn11  1  0.66158610  0.63427377  0.58694720  1
  O  O12  1  0.17695122  0.37136768  0.11402133  1
  O  O13  1  0.14606664  0.86055912  0.06481317  1
  O  O14  1  0.15638278  0.62863232  0.55264567  1
  O  O15  1  0.18726636  0.13944088  0.60185283  1
  O  O16  1  0.49338856  0.13740397  0.22069999  1
  O  O17  1  0.49970873  0.59941840  0.25260340  1
  O  O18  1  0.49723709  0.38677576  0.72307071  1
  O  O19  1  0.50313135  0.86903447  0.74644177  1
  O  O20  1  0.83362527  0.40058160  0.41406360  1
  O  O21  1  0.83994444  0.86259603  0.44596701  1
  O  O22  1  0.83020165  0.13096553  0.92022523  1
  O  O23  1  0.83609591  0.61322424  0.94359629  1
