# generated using pymatgen
data_Er2H16S3O20
_symmetry_space_group_name_H-M   'P 1'
_cell_length_a   6.69503525
_cell_length_b   7.51997849
_cell_length_c   18.26440799
_cell_angle_alpha   79.56204117
_cell_angle_beta   90.00000000
_cell_angle_gamma   63.56706640
_symmetry_Int_Tables_number   1
_chemical_formula_structural   Er2H16S3O20
_chemical_formula_sum   'Er4 H32 S6 O40'
_cell_volume   806.38698739
_cell_formula_units_Z   2
loop_
 _symmetry_equiv_pos_site_id
 _symmetry_equiv_pos_as_xyz
  1  'x, y, z'
loop_
 _atom_site_type_symbol
 _atom_site_label
 _atom_site_symmetry_multiplicity
 _atom_site_fract_x
 _atom_site_fract_y
 _atom_site_fract_z
 _atom_site_occupancy
  Er  Er0  1  0.64776024  0.66832662  0.89084647  1
  Er  Er1  1  0.68391314  0.66832662  0.39084647  1
  Er  Er2  1  0.31608686  0.33167338  0.60915353  1
  Er  Er3  1  0.35223976  0.33167338  0.10915353  1
  H  H4  1  0.81082268  0.98345896  0.84391446  1
  H  H5  1  0.18069737  0.00588319  0.60592154  1
  H  H6  1  0.65412197  0.89672759  0.64362250  1
  H  H7  1  0.35606772  0.96780516  0.54559280  1
  H  H8  1  0.20571835  0.98345896  0.34391446  1
  H  H9  1  0.81341944  0.00588319  0.10592154  1
  H  H10  1  0.22036153  0.65765896  0.69691564  1
  H  H11  1  0.02914165  0.73570795  0.51422823  1
  H  H12  1  0.27495044  0.71226184  0.51399018  1
  H  H13  1  0.44914945  0.89672759  0.14362250  1
  H  H14  1  0.67612712  0.96780516  0.04559280  1
  H  H15  1  0.71200062  0.54582111  0.74558880  1
  H  H16  1  0.25782173  0.45417889  0.75441120  1
  H  H17  1  0.98721228  0.28773816  0.98600982  1
  H  H18  1  0.76484961  0.26429205  0.98577177  1
  H  H19  1  0.87802048  0.34234104  0.80308436  1
  H  H20  1  0.12197952  0.65765896  0.19691564  1
  H  H21  1  0.23515039  0.73570795  0.01422823  1
  H  H22  1  0.01278772  0.71226184  0.01399018  1
  H  H23  1  0.74217827  0.54582111  0.24558880  1
  H  H24  1  0.28799938  0.45417889  0.25441120  1
  H  H25  1  0.32387288  0.03219484  0.95440720  1
  H  H26  1  0.55085055  0.10327241  0.85637750  1
  H  H27  1  0.72504956  0.28773816  0.48600982  1
  H  H28  1  0.97085835  0.26429205  0.48577177  1
  H  H29  1  0.77963847  0.34234104  0.30308436  1
  H  H30  1  0.18658056  0.99411681  0.89407846  1
  H  H31  1  0.79428165  0.01654104  0.65608554  1
  H  H32  1  0.64393128  0.03219484  0.45440720  1
  H  H33  1  0.34587803  0.10327241  0.35637750  1
  H  H34  1  0.81930263  0.99411681  0.39407846  1
  H  H35  1  0.18917732  0.01654104  0.15608554  1
  S  S36  1  0.25522699  0.44001600  0.91118100  1
  S  S37  1  0.69524298  0.55998400  0.58881900  1
  S  S38  1  0.30475702  0.44001600  0.41118100  1
  S  S39  1  0.74477301  0.55998400  0.08881900  1
  S  S40  1  0.18085437  1.00000000  0.75000000  1
  S  S41  1  0.81914563  0.00000000  0.25000000  1
  O  O42  1  0.68123097  0.96664303  0.86302665  1
  O  O43  1  0.31024607  0.92387842  0.93503522  1
  O  O44  1  0.08899191  0.92801206  0.69305884  1
  O  O45  1  0.39196539  0.83020571  0.78831752  1
  O  O46  1  0.35212599  0.96664303  0.36302665  1
  O  O47  1  0.76587551  0.92387842  0.43503522  1
  O  O48  1  0.02197200  0.60457301  0.89797727  1
  O  O49  1  0.98299603  0.92801206  0.19305884  1
  O  O50  1  0.40999427  0.52888955  0.91788646  1
  O  O51  1  0.63240658  0.67552557  0.64949089  1
  O  O52  1  0.77782890  0.83020571  0.28831752  1
  O  O53  1  0.57729372  0.70336149  0.51560144  1
  O  O54  1  0.17179225  0.67945322  0.54535129  1
  O  O55  1  0.77208418  0.48714601  0.79858305  1
  O  O56  1  0.25923019  0.51285399  0.70141695  1
  O  O57  1  0.85124647  0.32054678  0.95464871  1
  O  O58  1  0.28065521  0.29663851  0.98439856  1
  O  O59  1  0.37345499  0.60457301  0.39797727  1
  O  O60  1  0.30793215  0.32447443  0.85050911  1
  O  O61  1  0.93888482  0.47111045  0.58211354  1
  O  O62  1  0.06111518  0.52888955  0.41788646  1
  O  O63  1  0.69206785  0.67552557  0.14949089  1
  O  O64  1  0.62654501  0.39542699  0.60202273  1
  O  O65  1  0.71934479  0.70336149  0.01560144  1
  O  O66  1  0.14875353  0.67945322  0.04535129  1
  O  O67  1  0.74076981  0.48714601  0.29858305  1
  O  O68  1  0.22791582  0.51285399  0.20141695  1
  O  O69  1  0.82820775  0.32054678  0.45464871  1
  O  O70  1  0.42270628  0.29663851  0.48439856  1
  O  O71  1  0.22217110  0.16979429  0.71168248  1
  O  O72  1  0.36759342  0.32447443  0.35050911  1
  O  O73  1  0.59000573  0.47111045  0.08211354  1
  O  O74  1  0.01700397  0.07198794  0.80694116  1
  O  O75  1  0.97802800  0.39542699  0.10202273  1
  O  O76  1  0.23412449  0.07612158  0.56496478  1
  O  O77  1  0.64787401  0.03335697  0.63697335  1
  O  O78  1  0.60803461  0.16979429  0.21168248  1
  O  O79  1  0.91100809  0.07198794  0.30694116  1
  O  O80  1  0.68975393  0.07612158  0.06496478  1
  O  O81  1  0.31876903  0.03335697  0.13697335  1
