# generated using pymatgen
data_Na5Fe2P2(CO7)2
_symmetry_space_group_name_H-M   'P 1'
_cell_length_a   8.98387901
_cell_length_b   5.22186226
_cell_length_c   6.63407518
_cell_angle_alpha   90.28228230
_cell_angle_beta   89.18070480
_cell_angle_gamma   89.44901358
_symmetry_Int_Tables_number   1
_chemical_formula_structural   Na5Fe2P2(CO7)2
_chemical_formula_sum   'Na5 Fe2 P2 C2 O14'
_cell_volume   311.17137609
_cell_formula_units_Z   1
loop_
 _symmetry_equiv_pos_site_id
 _symmetry_equiv_pos_as_xyz
  1  'x, y, z'
loop_
 _atom_site_type_symbol
 _atom_site_label
 _atom_site_symmetry_multiplicity
 _atom_site_fract_x
 _atom_site_fract_y
 _atom_site_fract_z
 _atom_site_occupancy
  Na  Na0  1  0.08728612  0.76725420  0.23488608  1
  Na  Na1  1  0.26546718  0.24688776  0.48416489  1
  Na  Na2  1  0.73884193  0.74896485  0.49713971  1
  Na  Na3  1  0.73910810  0.74794047  0.00122474  1
  Na  Na4  1  0.92412760  0.24174290  0.75978482  1
  Fe  Fe5  1  0.34648063  0.78766281  0.76405108  1
  Fe  Fe6  1  0.64378935  0.22676172  0.24939289  1
  P  P7  1  0.41787747  0.70119188  0.25409645  1
  P  P8  1  0.57991273  0.28702081  0.74924057  1
  C  C9  1  0.06323917  0.73167792  0.74358117  1
  C  C10  1  0.93847591  0.27259672  0.25324687  1
  O  O11  1  0.07910744  0.29226506  0.26894048  1
  O  O12  1  0.12719895  0.95576731  0.74647431  1
  O  O13  1  0.15193906  0.53306621  0.74312976  1
  O  O14  1  0.32371743  0.76799918  0.06399464  1
  O  O15  1  0.31960358  0.78223176  0.44200236  1
  O  O16  1  0.43329764  0.13302894  0.74314277  1
  O  O17  1  0.44810078  0.41020123  0.26458125  1
  O  O18  1  0.53717079  0.58210373  0.74992330  1
  O  O19  1  0.56759018  0.84218732  0.25038529  1
  O  O20  1  0.68273364  0.22977389  0.56526801  1
  O  O21  1  0.67586494  0.22661047  0.93432004  1
  O  O22  1  0.85172414  0.47606963  0.24454046  1
  O  O23  1  0.87326190  0.04824900  0.24464625  1
  O  O24  1  0.92060434  0.71116423  0.74538182  1
