# generated using pymatgen
data_La19(RuO6)8
_symmetry_space_group_name_H-M   'P 1'
_cell_length_a   5.61978601
_cell_length_b   10.20279383
_cell_length_c   19.14246967
_cell_angle_alpha   90.57022946
_cell_angle_beta   91.32157475
_cell_angle_gamma   90.03455900
_symmetry_Int_Tables_number   1
_chemical_formula_structural   La19(RuO6)8
_chemical_formula_sum   'La19 Ru8 O48'
_cell_volume   1097.23501349
_cell_formula_units_Z   1
loop_
 _symmetry_equiv_pos_site_id
 _symmetry_equiv_pos_as_xyz
  1  'x, y, z'
loop_
 _atom_site_type_symbol
 _atom_site_label
 _atom_site_symmetry_multiplicity
 _atom_site_fract_x
 _atom_site_fract_y
 _atom_site_fract_z
 _atom_site_occupancy
  La  La0  1  0.21868959  0.33923127  0.64904924  1
  La  La1  1  0.20256945  0.14412195  0.16319236  1
  La  La2  1  0.24336194  0.07182577  0.94946534  1
  La  La3  1  0.24303330  0.72038895  0.67456340  1
  La  La4  1  0.24154041  0.41116295  0.45279597  1
  La  La5  1  0.27138148  0.48027130  0.83707512  1
  La  La6  1  0.24256651  0.77957632  0.17772000  1
  La  La7  1  0.26452101  0.02547083  0.34896225  1
  La  La8  1  0.25807845  0.40619223  0.03438720  1
  La  La9  1  0.74153561  0.59436850  0.96472758  1
  La  La10  1  0.72682084  0.98641526  0.65493987  1
  La  La11  1  0.75747244  0.22100669  0.82238233  1
  La  La12  1  0.73913896  0.92191565  0.47115387  1
  La  La13  1  0.72850326  0.51932321  0.16092508  1
  La  La14  1  0.74957166  0.57392465  0.54805353  1
  La  La15  1  0.75640485  0.27928958  0.32550797  1
  La  La16  1  0.75608682  0.92757332  0.04995926  1
  La  La17  1  0.80157131  0.85521040  0.83568563  1
  La  La18  1  0.79304804  0.64783793  0.34521586  1
  Ru  Ru19  1  0.23807987  0.08732873  0.74858165  1
  Ru  Ru20  1  0.23662029  0.41323091  0.24966150  1
  Ru  Ru21  1  0.25096282  0.75002629  0.50606955  1
  Ru  Ru22  1  0.25017000  0.75024194  0.00732342  1
  Ru  Ru23  1  0.74928392  0.24951279  0.99301198  1
  Ru  Ru24  1  0.74659669  0.24874430  0.49366981  1
  Ru  Ru25  1  0.76200310  0.58661286  0.74951863  1
  Ru  Ru26  1  0.76307832  0.91240666  0.25255110  1
  O  O27  1  0.02392789  0.86171567  0.95130855  1
  O  O28  1  0.03118852  0.28981525  0.93348539  1
  O  O29  1  0.02958175  0.63191653  0.45157532  1
  O  O30  1  0.01644439  0.21458344  0.42664629  1
  O  O31  1  0.05499551  0.67450568  0.78917133  1
  O  O32  1  0.06420488  0.05010756  0.83787600  1
  O  O33  1  0.05283396  0.82524353  0.28984392  1
  O  O34  1  0.07047607  0.45177699  0.33638409  1
  O  O35  1  0.09408397  0.92328361  0.71594260  1
  O  O36  1  0.10330489  0.57613189  0.21363247  1
  O  O37  1  0.16982598  0.58658301  0.95003788  1
  O  O38  1  0.16402156  0.89930679  0.44731990  1
  O  O39  1  0.32264389  0.58992040  0.56444385  1
  O  O40  1  0.34451823  0.26273542  0.78661706  1
  O  O41  1  0.32747355  0.90953169  0.06608449  1
  O  O42  1  0.34332374  0.23755070  0.28375441  1
  O  O43  1  0.38971982  0.12714941  0.66235315  1
  O  O44  1  0.37750836  0.37360708  0.15633420  1
  O  O45  1  0.44789061  0.51287922  0.71776827  1
  O  O46  1  0.46727630  0.85225702  0.56877472  1
  O  O47  1  0.44970046  0.98636302  0.21966169  1
  O  O48  1  0.48823297  0.31617051  0.55036467  1
  O  O49  1  0.45687462  0.62579853  0.06642574  1
  O  O50  1  0.46916554  0.19571405  0.04715551  1
  O  O51  1  0.52959660  0.80485139  0.95329417  1
  O  O52  1  0.54350159  0.37430227  0.93412777  1
  O  O53  1  0.53564647  0.69998300  0.45165868  1
  O  O54  1  0.55056163  0.01281216  0.78208283  1
  O  O55  1  0.55946592  0.13580875  0.42656441  1
  O  O56  1  0.55237629  0.48724943  0.28098055  1
  O  O57  1  0.62227063  0.62632974  0.84352978  1
  O  O58  1  0.62312729  0.87696191  0.34451627  1
  O  O59  1  0.65365266  0.76290094  0.71659662  1
  O  O60  1  0.67203974  0.09072755  0.93464802  1
  O  O61  1  0.65381267  0.73699603  0.21579948  1
  O  O62  1  0.66982233  0.41069548  0.43419861  1
  O  O63  1  0.81605198  0.09594449  0.54981136  1
  O  O64  1  0.83055633  0.41375100  0.04990787  1
  O  O65  1  0.89253259  0.42472197  0.78718521  1
  O  O66  1  0.90476865  0.07658916  0.28464971  1
  O  O67  1  0.93084109  0.54920106  0.66326478  1
  O  O68  1  0.94764665  0.17507114  0.71021412  1
  O  O69  1  0.93196827  0.94922726  0.16329702  1
  O  O70  1  0.94617810  0.32510407  0.21015772  1
  O  O71  1  0.97037876  0.78874493  0.56663924  1
  O  O72  1  0.97028327  0.36636413  0.54741932  1
  O  O73  1  0.96770489  0.70990065  0.06690800  1
  O  O74  1  0.97502521  0.13736924  0.04901246  1
