# generated using pymatgen
data_BaV8O16
_symmetry_space_group_name_H-M   'P 1'
_cell_length_a   7.40060873
_cell_length_b   5.78019316
_cell_length_c   7.39737302
_cell_angle_alpha   101.25355185
_cell_angle_beta   92.19121300
_cell_angle_gamma   78.72888751
_symmetry_Int_Tables_number   1
_chemical_formula_structural   BaV8O16
_chemical_formula_sum   'Ba1 V8 O16'
_cell_volume   304.36728612
_cell_formula_units_Z   1
loop_
 _symmetry_equiv_pos_site_id
 _symmetry_equiv_pos_as_xyz
  1  'x, y, z'
loop_
 _atom_site_type_symbol
 _atom_site_label
 _atom_site_symmetry_multiplicity
 _atom_site_fract_x
 _atom_site_fract_y
 _atom_site_fract_z
 _atom_site_occupancy
  Ba  Ba0  1  0.99944475  0.78768170  0.00008087  1
  V  V1  1  0.51827482  0.91871490  0.18513168  1
  V  V2  1  0.52568982  0.41604792  0.18195349  1
  V  V3  1  0.81500780  0.67712328  0.51728223  1
  V  V4  1  0.81816626  0.17951473  0.52672962  1
  V  V5  1  0.18476542  0.82493424  0.48185047  1
  V  V6  1  0.18219439  0.32603678  0.47400741  1
  V  V7  1  0.48315882  0.58458946  0.81553199  1
  V  V8  1  0.47288776  0.08885025  0.81743819  1
  O  O9  1  0.64678785  0.60495597  0.04465088  1
  O  O10  1  0.64509404  0.09873783  0.04361006  1
  O  O11  1  0.70621503  0.92040837  0.37439515  1
  O  O12  1  0.70378745  0.41881134  0.37762110  1
  O  O13  1  0.95591270  0.92242793  0.64728810  1
  O  O14  1  0.95603467  0.42753452  0.64459388  1
  O  O15  1  0.37453372  0.73080653  0.29449373  1
  O  O16  1  0.37726836  0.23270417  0.29519150  1
  O  O17  1  0.62539231  0.77358619  0.70610996  1
  O  O18  1  0.62299443  0.27014439  0.70419723  1
  O  O19  1  0.04387154  0.58262226  0.35321862  1
  O  O20  1  0.04414719  0.07678031  0.35472228  1
  O  O21  1  0.29479487  0.58385651  0.62589528  1
  O  O22  1  0.29521843  0.08440648  0.62218541  1
  O  O23  1  0.35571514  0.40555291  0.95598371  1
  O  O24  1  0.35264341  0.90059501  0.95583814  1
