# generated using pymatgen
data_Dy(ClO4)3
_symmetry_space_group_name_H-M   'P 1'
_cell_length_a   9.28715177
_cell_length_b   9.28713354
_cell_length_c   5.73330454
_cell_angle_alpha   90.00000000
_cell_angle_beta   90.00000000
_cell_angle_gamma   119.99974929
_symmetry_Int_Tables_number   1
_chemical_formula_structural   Dy(ClO4)3
_chemical_formula_sum   'Dy2 Cl6 O24'
_cell_volume   428.25355148
_cell_formula_units_Z   2
loop_
 _symmetry_equiv_pos_site_id
 _symmetry_equiv_pos_as_xyz
  1  'x, y, z'
loop_
 _atom_site_type_symbol
 _atom_site_label
 _atom_site_symmetry_multiplicity
 _atom_site_fract_x
 _atom_site_fract_y
 _atom_site_fract_z
 _atom_site_occupancy
  Dy  Dy0  1  0.33335950  0.66667521  0.75000000  1
  Dy  Dy1  1  0.66668504  0.33332418  0.25000000  1
  Cl  Cl2  1  0.09069770  0.70821353  0.25000000  1
  Cl  Cl3  1  0.29178884  0.38248152  0.25000000  1
  Cl  Cl4  1  0.61752097  0.90930663  0.25000000  1
  Cl  Cl5  1  0.38248356  0.09069512  0.75000000  1
  Cl  Cl6  1  0.70821634  0.61751825  0.75000000  1
  Cl  Cl7  1  0.90931327  0.29179051  0.75000000  1
  O  O8  1  0.01997352  0.81241047  0.25000000  1
  O  O9  1  0.03458406  0.46967831  0.75000000  1
  O  O10  1  0.19724231  0.74197372  0.04371343  1
  O  O11  1  0.19724231  0.74197372  0.45628657  1
  O  O12  1  0.43510120  0.96542036  0.75000000  1
  O  O13  1  0.25802692  0.45526700  0.45628606  1
  O  O14  1  0.25802692  0.45526700  0.04371394  1
  O  O15  1  0.18758670  0.20756012  0.25000000  1
  O  O16  1  0.54473723  0.80276050  0.04371590  1
  O  O17  1  0.54473723  0.80276050  0.45628410  1
  O  O18  1  0.20756139  0.01997198  0.75000000  1
  O  O19  1  0.46967794  0.43509381  0.25000000  1
  O  O20  1  0.53032468  0.56490383  0.75000000  1
  O  O21  1  0.79244219  0.98003043  0.25000000  1
  O  O22  1  0.45526710  0.19723967  0.54371303  1
  O  O23  1  0.45526710  0.19723967  0.95628697  1
  O  O24  1  0.81241290  0.79244030  0.75000000  1
  O  O25  1  0.74197340  0.54473288  0.54371290  1
  O  O26  1  0.74197340  0.54473288  0.95628710  1
  O  O27  1  0.56490129  0.03457830  0.25000000  1
  O  O28  1  0.80276213  0.25802642  0.95628452  1
  O  O29  1  0.80276213  0.25802642  0.54371548  1
  O  O30  1  0.96542173  0.53032259  0.25000000  1
  O  O31  1  0.98002801  0.18758619  0.75000000  1
