# generated using pymatgen
data_Ti6Fe8O21
_symmetry_space_group_name_H-M   'P 1'
_cell_length_a   8.94514742
_cell_length_b   7.60095625
_cell_length_c   12.36968768
_cell_angle_alpha   95.49903934
_cell_angle_beta   82.84697014
_cell_angle_gamma   113.43027378
_symmetry_Int_Tables_number   1
_chemical_formula_structural   Ti6Fe8O21
_chemical_formula_sum   'Ti12 Fe16 O42'
_cell_volume   764.69042172
_cell_formula_units_Z   2
loop_
 _symmetry_equiv_pos_site_id
 _symmetry_equiv_pos_as_xyz
  1  'x, y, z'
loop_
 _atom_site_type_symbol
 _atom_site_label
 _atom_site_symmetry_multiplicity
 _atom_site_fract_x
 _atom_site_fract_y
 _atom_site_fract_z
 _atom_site_occupancy
  Ti  Ti0  1  0.93457763  0.62027350  0.59219719  1
  Ti  Ti1  1  0.77189016  0.24036924  0.83810545  1
  Ti  Ti2  1  0.33945318  0.53417526  0.98700422  1
  Ti  Ti3  1  0.79422874  0.03664801  0.30292563  1
  Ti  Ti4  1  0.51768982  0.89439674  0.72728078  1
  Ti  Ti5  1  0.92256537  0.80829850  0.12208881  1
  Ti  Ti6  1  0.37224972  0.33421568  0.45004059  1
  Ti  Ti7  1  0.48489228  0.09435632  0.26424441  1
  Ti  Ti8  1  0.65230993  0.47400646  0.01701457  1
  Ti  Ti9  1  0.08525284  0.18820176  0.87618055  1
  Ti  Ti10  1  0.20483207  0.95456554  0.69727143  1
  Ti  Ti11  1  0.06291426  0.39192299  0.41136037  1
  Fe  Fe12  1  0.93675765  0.11134011  0.58952603  1
  Fe  Fe13  1  0.77408792  0.74264400  0.84269000  1
  Fe  Fe14  1  0.63363892  0.66912696  0.55295623  1
  Fe  Fe15  1  0.34400951  0.02206148  0.97951906  1
  Fe  Fe16  1  0.63679568  0.17243077  0.55496048  1
  Fe  Fe17  1  0.80103129  0.54383680  0.30414257  1
  Fe  Fe18  1  0.92038535  0.31723089  0.12475997  1
  Fe  Fe19  1  0.51313349  0.40650952  0.73476694  1
  Fe  Fe20  1  0.48097045  0.59670691  0.26913584  1
  Fe  Fe21  1  0.08305508  0.68592800  0.87159600  1
  Fe  Fe22  1  0.19813813  0.45600030  0.69706125  1
  Fe  Fe23  1  0.65900487  0.97257070  0.01722475  1
  Fe  Fe24  1  0.37617255  0.83186509  0.44515016  1
  Fe  Fe25  1  0.22034732  0.25614023  0.15932552  1
  Fe  Fe26  1  0.05611171  0.88473520  0.41014243  1
  Fe  Fe27  1  0.22350408  0.75944504  0.16132977  1
  O  O28  1  0.89470590  0.18508068  0.96270060  1
  O  O29  1  0.96243710  0.24349132  0.75158540  1
  O  O30  1  0.83671408  0.50220950  0.88673666  1
  O  O31  1  0.59647620  0.21454775  0.97582885  1
  O  O32  1  0.88952116  0.36190780  0.54005858  1
  O  O33  1  0.95162528  0.07574604  0.40408888  1
  O  O34  1  0.65958109  0.93965378  0.83484939  1
  O  O35  1  0.75854258  0.61678340  0.68318405  1
  O  O36  1  0.83969866  0.66399622  0.45293067  1
  O  O37  1  0.53395604  0.52119207  0.90173437  1
  O  O38  1  0.62413926  0.21456712  0.73536097  1
  O  O39  1  0.90551772  0.35282496  0.31019712  1
  O  O40  1  0.96762184  0.06666320  0.17422742  1
  O  O41  1  0.69502969  0.94796456  0.60569996  1
  O  O42  1  0.71862779  0.77085526  0.26645773  1
  O  O43  1  0.44139227  0.63121142  0.69608458  1
  O  O44  1  0.23300374  0.21400388  0.97892503  1
  O  O45  1  0.51185632  0.35361669  0.54813844  1
  O  O46  1  0.80190707  0.51345585  0.13098772  1
  O  O47  1  0.32318696  0.90737993  0.81255063  1
  O  O48  1  0.60930803  0.04532634  0.39801389  1
  O  O49  1  0.38537971  0.94024518  0.59909733  1
  O  O50  1  0.67988015  0.09941282  0.18354293  1
  O  O51  1  0.77013224  0.77604403  0.02195806  1
  O  O52  1  0.19756191  0.48891722  0.87943561  1
  O  O53  1  0.46243559  0.62639834  0.43844958  1
  O  O54  1  0.26066580  0.21402425  0.73845615  1
  O  O55  1  0.55590665  0.36959949  0.31460862  1
  O  O56  1  0.30123635  0.05897251  0.39967738  1
  O  O57  1  0.02042892  0.92636250  0.82754934  1
  O  O58  1  0.08700976  0.65252797  0.69232694  1
  O  O59  1  0.39470641  0.80217266  0.27583642  1
  O  O60  1  0.47176329  0.48832682  0.11518767  1
  O  O61  1  0.17726285  0.32915818  0.53074307  1
  O  O62  1  0.24783397  0.38324566  0.31627111  1
  O  O63  1  0.34528668  0.07495431  0.16614656  1
  O  O64  1  0.05523593  0.91511615  0.58329828  1
  O  O65  1  0.41575073  0.79735958  0.01820042  1
  O  O66  1  0.13851521  0.65771674  0.44782827  1
  O  O67  1  0.16211331  0.48060744  0.10858604  1
  O  O68  1  0.01744434  0.76457478  0.26135533  1
  O  O69  1  0.09860042  0.81178760  0.03110195  1
