# generated using pymatgen
data_Li13Ni9O22
_symmetry_space_group_name_H-M   'P 1'
_cell_length_a   6.37881020
_cell_length_b   10.00723903
_cell_length_c   6.41955957
_cell_angle_alpha   83.67744328
_cell_angle_beta   108.47790273
_cell_angle_gamma   75.44602691
_symmetry_Int_Tables_number   1
_chemical_formula_structural   Li13Ni9O22
_chemical_formula_sum   'Li13 Ni9 O22'
_cell_volume   368.06458232
_cell_formula_units_Z   1
loop_
 _symmetry_equiv_pos_site_id
 _symmetry_equiv_pos_as_xyz
  1  'x, y, z'
loop_
 _atom_site_type_symbol
 _atom_site_label
 _atom_site_symmetry_multiplicity
 _atom_site_fract_x
 _atom_site_fract_y
 _atom_site_fract_z
 _atom_site_occupancy
  Li  Li0  1  0.35985327  0.95531226  0.81429118  1
  Li  Li1  1  0.09361603  0.86324349  0.45170926  1
  Li  Li2  1  0.45386081  0.81776819  0.27164648  1
  Li  Li3  1  0.54711248  0.68261373  0.72726597  1
  Li  Li4  1  0.81324991  0.77245849  0.09807912  1
  Li  Li5  1  0.27272700  0.59090900  0.36363600  1
  Li  Li6  1  0.99834252  0.49920427  0.00000703  1
  Li  Li7  1  0.73220509  0.40935951  0.62919388  1
  Li  Li8  1  0.09159319  0.36404981  0.45562652  1
  Li  Li9  1  0.18560173  0.22650674  0.91298182  1
  Li  Li10  1  0.45183797  0.31857451  0.27556374  1
  Li  Li11  1  0.91390885  0.13734774  0.54540244  1
  Li  Li12  1  0.63154615  0.04447026  0.18186956  1
  Ni  Ni13  1  0.72606647  0.91039272  0.63016983  1
  Ni  Ni14  1  0.18094025  0.72804761  0.90594838  1
  Ni  Ni15  1  0.90866062  0.63632863  0.54392827  1
  Ni  Ni16  1  0.36451475  0.45377039  0.82132462  1
  Ni  Ni17  1  0.63679338  0.54549037  0.18334373  1
  Ni  Ni18  1  0.54348945  0.18312454  0.72587885  1
  Ni  Ni19  1  0.81938753  0.27142628  0.09710317  1
  Ni  Ni20  1  0.27272700  0.09090900  0.36363600  1
  Ni  Ni21  1  0.00196455  0.99869446  0.00139415  1
  O  O22  1  0.02734899  0.93385109  0.72812741  1
  O  O23  1  0.68985526  0.98686292  0.88927792  1
  O  O24  1  0.41796859  0.90262068  0.53821746  1
  O  O25  1  0.20874889  0.65987270  0.64149238  1
  O  O26  1  0.78079433  0.82862123  0.38950501  1
  O  O27  1  0.12425562  0.80436748  0.14803909  1
  O  O28  1  0.87842104  0.70209272  0.80233097  1
  O  O29  1  0.66703296  0.47972528  0.92494203  1
  O  O30  1  0.49245390  0.73378097  0.00567986  1
  O  O31  1  0.05300010  0.44803703  0.72159314  1
  O  O32  1  0.61480568  0.60676064  0.44685188  1
  O  O33  1  0.42119938  0.37745052  0.57923391  1
  O  O34  1  0.93064932  0.57505736  0.28042012  1
  O  O35  1  0.51810501  0.24796791  0.99914559  1
  O  O36  1  0.33670511  0.52194530  0.08578062  1
  O  O37  1  0.12748541  0.27919732  0.18905554  1
  O  O38  1  0.85559974  0.19495508  0.83799508  1
  O  O39  1  0.24753002  0.15580797  0.62495656  1
  O  O40  1  0.76466067  0.35319677  0.33776699  1
  O  O41  1  0.56774246  0.11685228  0.44982623  1
  O  O42  1  0.29792498  0.02601003  0.10231644  1
  O  O43  1  0.97771154  0.06496572  0.27744677  1
