# generated using pymatgen
data_Na5Fe2P2(CO7)2
_symmetry_space_group_name_H-M   'P 1'
_cell_length_a   9.01531254
_cell_length_b   10.50311971
_cell_length_c   6.59432209
_cell_angle_alpha   90.00000000
_cell_angle_beta   90.00000000
_cell_angle_gamma   89.52206668
_symmetry_Int_Tables_number   1
_chemical_formula_structural   Na5Fe2P2(CO7)2
_chemical_formula_sum   'Na10 Fe4 P4 C4 O28'
_cell_volume   624.38742671
_cell_formula_units_Z   2
loop_
 _symmetry_equiv_pos_site_id
 _symmetry_equiv_pos_as_xyz
  1  'x, y, z'
loop_
 _atom_site_type_symbol
 _atom_site_label
 _atom_site_symmetry_multiplicity
 _atom_site_fract_x
 _atom_site_fract_y
 _atom_site_fract_z
 _atom_site_occupancy
  Na  Na0  1  0.08687577  0.38397078  0.24859435  1
  Na  Na1  1  0.08687577  0.88397078  0.25140565  1
  Na  Na2  1  0.26693776  0.12604919  0.01972656  1
  Na  Na3  1  0.26693776  0.62604919  0.48027344  1
  Na  Na4  1  0.73838942  0.37511683  0.49657716  1
  Na  Na5  1  0.73866968  0.37246875  0.00305929  1
  Na  Na6  1  0.73866968  0.87246875  0.49694071  1
  Na  Na7  1  0.73838942  0.87511683  0.00342284  1
  Na  Na8  1  0.92659582  0.12116863  0.74094558  1
  Na  Na9  1  0.92659582  0.62116863  0.75905442  1
  Fe  Fe10  1  0.34589091  0.39305489  0.75322717  1
  Fe  Fe11  1  0.34589091  0.89305489  0.74677283  1
  Fe  Fe12  1  0.64778500  0.11155915  0.25203717  1
  Fe  Fe13  1  0.64778500  0.61155915  0.24796283  1
  P  P14  1  0.41775174  0.35028990  0.25036407  1
  P  P15  1  0.41775174  0.85028990  0.24963593  1
  P  P16  1  0.57888263  0.14344418  0.75135197  1
  P  P17  1  0.57888263  0.64344418  0.74864803  1
  C  C18  1  0.06361542  0.36584095  0.74838748  1
  C  C19  1  0.06361542  0.86584095  0.75161252  1
  C  C20  1  0.93812664  0.13646019  0.24540626  1
  C  C21  1  0.93812664  0.63646019  0.25459374  1
  O  O22  1  0.07792901  0.14750143  0.23221288  1
  O  O23  1  0.07792901  0.64750143  0.26778712  1
  O  O24  1  0.12706525  0.47679583  0.73419869  1
  O  O25  1  0.12706525  0.97679583  0.76580131  1
  O  O26  1  0.15123702  0.26748428  0.76160308  1
  O  O27  1  0.15123702  0.76748428  0.73839692  1
  O  O28  1  0.32164661  0.38320540  0.05797046  1
  O  O29  1  0.32300745  0.39284017  0.43869510  1
  O  O30  1  0.32300745  0.89284017  0.06130490  1
  O  O31  1  0.32164661  0.88320540  0.44202954  1
  O  O32  1  0.43417977  0.06544303  0.75825467  1
  O  O33  1  0.43417977  0.56544303  0.74174533  1
  O  O34  1  0.44546433  0.20556354  0.24980577  1
  O  O35  1  0.44546433  0.70556354  0.25019423  1
  O  O36  1  0.53586144  0.28907491  0.74966681  1
  O  O37  1  0.53586144  0.78907491  0.75033319  1
  O  O38  1  0.56630021  0.42255666  0.24812623  1
  O  O39  1  0.56630021  0.92255666  0.25187377  1
  O  O40  1  0.67724393  0.11210796  0.56539990  1
  O  O41  1  0.68054728  0.11633657  0.93684018  1
  O  O42  1  0.68054728  0.61633657  0.56315982  1
  O  O43  1  0.67724393  0.61210796  0.93460010  1
  O  O44  1  0.85077018  0.23737254  0.25321620  1
  O  O45  1  0.85077018  0.73737254  0.24678380  1
  O  O46  1  0.87477740  0.02408646  0.25228103  1
  O  O47  1  0.87477740  0.52408646  0.24771897  1
  O  O48  1  0.92097033  0.35541577  0.74947274  1
  O  O49  1  0.92097033  0.85541577  0.75052726  1
