# generated using pymatgen
data_LiCu2PO4
_symmetry_space_group_name_H-M   'P 1'
_cell_length_a   6.20900151
_cell_length_b   5.53605936
_cell_length_c   5.16790269
_cell_angle_alpha   90.32945151
_cell_angle_beta   90.02727402
_cell_angle_gamma   89.38329269
_symmetry_Int_Tables_number   1
_chemical_formula_structural   LiCu2PO4
_chemical_formula_sum   'Li2 Cu4 P2 O8'
_cell_volume   177.62514928
_cell_formula_units_Z   2
loop_
 _symmetry_equiv_pos_site_id
 _symmetry_equiv_pos_as_xyz
  1  'x, y, z'
loop_
 _atom_site_type_symbol
 _atom_site_label
 _atom_site_symmetry_multiplicity
 _atom_site_fract_x
 _atom_site_fract_y
 _atom_site_fract_z
 _atom_site_occupancy
  Li  Li0  1  0.99997198  0.15567925  0.49682772  1
  Li  Li1  1  0.24804959  0.32936766  0.99612795  1
  Cu  Cu2  1  0.26476411  0.65622725  0.49852177  1
  Cu  Cu3  1  0.50068009  0.80516272  0.98509941  1
  Cu  Cu4  1  0.73359020  0.65539341  0.48830883  1
  Cu  Cu5  1  0.74873987  0.33522883  0.00025593  1
  P  P6  1  0.00483622  0.83830618  0.00181460  1
  P  P7  1  0.49539663  0.18137981  0.49859703  1
  O  O8  1  0.01241553  0.09731237  0.88659085  1
  O  O9  1  0.00084620  0.84725287  0.30220695  1
  O  O10  1  0.20349452  0.68382605  0.90756042  1
  O  O11  1  0.28923181  0.30598219  0.38395270  1
  O  O12  1  0.48823333  0.18864405  0.79867994  1
  O  O13  1  0.49859719  0.91601429  0.39653541  1
  O  O14  1  0.70960215  0.30173049  0.40351302  1
  O  O15  1  0.80154959  0.70249058  0.89799846  1
