# generated using pymatgen
data_Li7V6Ni5O24
_symmetry_space_group_name_H-M   'P 1'
_cell_length_a   5.83460094
_cell_length_b   5.89768180
_cell_length_c   13.10150141
_cell_angle_alpha   103.50071359
_cell_angle_beta   102.58188738
_cell_angle_gamma   90.25817976
_symmetry_Int_Tables_number   1
_chemical_formula_structural   Li7V6Ni5O24
_chemical_formula_sum   'Li7 V6 Ni5 O24'
_cell_volume   427.11714700
_cell_formula_units_Z   1
loop_
 _symmetry_equiv_pos_site_id
 _symmetry_equiv_pos_as_xyz
  1  'x, y, z'
loop_
 _atom_site_type_symbol
 _atom_site_label
 _atom_site_symmetry_multiplicity
 _atom_site_fract_x
 _atom_site_fract_y
 _atom_site_fract_z
 _atom_site_occupancy
  Li  Li0  1  0.50009416  0.50389328  0.00111083  1
  Li  Li1  1  0.00081958  0.50445684  0.00171882  1
  Li  Li2  1  0.32899119  0.83253001  0.16534040  1
  Li  Li3  1  0.16666700  0.16666700  0.33333300  1
  Li  Li4  1  0.00434181  0.50080299  0.50132660  1
  Li  Li5  1  0.33251342  0.82887716  0.66494818  1
  Li  Li6  1  0.83323884  0.82944072  0.66555617  1
  V  V7  1  0.79068856  0.04331693  0.08168890  1
  V  V8  1  0.87261450  0.62232797  0.25085490  1
  V  V9  1  0.46071850  0.71100503  0.41581210  1
  V  V10  1  0.54264444  0.29001707  0.58497810  1
  V  V11  1  0.12472003  0.37402258  0.74962255  1
  V  V12  1  0.20861297  0.95931042  0.91704445  1
  Ni  Ni13  1  0.32954839  0.33354157  0.16548480  1
  Ni  Ni14  1  0.66666700  0.16666700  0.33333300  1
  Ni  Ni15  1  0.00378561  0.99979143  0.50118220  1
  Ni  Ni16  1  0.66666700  0.66666700  0.83333300  1
  Ni  Ni17  1  0.66666700  0.16666700  0.83333300  1
  O  O18  1  0.74900108  0.23756800  0.99878496  1
  O  O19  1  0.74952911  0.75961861  0.99932356  1
  O  O20  1  0.07496308  0.08656727  0.16198945  1
  O  O21  1  0.58565297  0.08817947  0.16712033  1
  O  O22  1  0.59047880  0.57822127  0.16896654  1
  O  O23  1  0.07956109  0.58038703  0.17086469  1
  O  O24  1  0.90749527  0.41971931  0.32967760  1
  O  O25  1  0.91247643  0.91445547  0.33424843  1
  O  O26  1  0.42583873  0.91361469  0.33698840  1
  O  O27  1  0.42085657  0.41887853  0.33241757  1
  O  O28  1  0.74285520  0.75511173  0.49770046  1
  O  O29  1  0.25377191  0.75294697  0.49580231  1
  O  O30  1  0.25837092  0.24676573  0.50467755  1
  O  O31  1  0.74768103  0.24515453  0.49954667  1
  O  O32  1  0.58380389  0.57371539  0.66734344  1
  O  O33  1  0.58433192  0.09576500  0.66788204  1
  O  O34  1  0.08592662  0.57218575  0.67322583  1
  O  O35  1  0.08256765  0.09336487  0.66658520  1
  O  O36  1  0.41801186  0.41487773  0.83152940  1
  O  O37  1  0.91132734  0.41551504  0.83187667  1
  O  O38  1  0.91532214  0.91845627  0.83513660  1
  O  O39  1  0.42200566  0.91781896  0.83479033  1
  O  O40  1  0.25076635  0.23996913  0.00008180  1
  O  O41  1  0.24740638  0.76114725  0.99344117  1
