# generated using pymatgen
data_Tm2GeO5
_symmetry_space_group_name_H-M   'P 1'
_cell_length_a   9.21915015
_cell_length_b   6.94201849
_cell_length_c   6.68855813
_cell_angle_alpha   90.00000000
_cell_angle_beta   103.57016959
_cell_angle_gamma   90.00000000
_symmetry_Int_Tables_number   1
_chemical_formula_structural   Tm2GeO5
_chemical_formula_sum   'Tm8 Ge4 O20'
_cell_volume   416.11429887
_cell_formula_units_Z   4
loop_
 _symmetry_equiv_pos_site_id
 _symmetry_equiv_pos_as_xyz
  1  'x, y, z'
loop_
 _atom_site_type_symbol
 _atom_site_label
 _atom_site_symmetry_multiplicity
 _atom_site_fract_x
 _atom_site_fract_y
 _atom_site_fract_z
 _atom_site_occupancy
  Tm  Tm0  1  0.02913971  0.12762184  0.72856746  1
  Tm  Tm1  1  0.02913971  0.37237816  0.22856746  1
  Tm  Tm2  1  0.35988630  0.13731895  0.53093213  1
  Tm  Tm3  1  0.35988630  0.36268105  0.03093213  1
  Tm  Tm4  1  0.64011370  0.63731895  0.96906787  1
  Tm  Tm5  1  0.64011370  0.86268105  0.46906787  1
  Tm  Tm6  1  0.97086029  0.62762184  0.77143254  1
  Tm  Tm7  1  0.97086029  0.87237816  0.27143254  1
  Ge  Ge8  1  0.30143076  0.59474263  0.52194676  1
  Ge  Ge9  1  0.30143076  0.90525737  0.02194676  1
  Ge  Ge10  1  0.69856924  0.09474263  0.97805324  1
  Ge  Ge11  1  0.69856924  0.40525737  0.47805324  1
  O  O12  1  0.10520240  0.86086985  0.99024750  1
  O  O13  1  0.10948877  0.38654699  0.92629880  1
  O  O14  1  0.10520240  0.63913015  0.49024750  1
  O  O15  1  0.10948877  0.11345301  0.42629880  1
  O  O16  1  0.28149687  0.08465402  0.81875450  1
  O  O17  1  0.39201004  0.69403358  0.98543412  1
  O  O18  1  0.28149687  0.41534598  0.31875450  1
  O  O19  1  0.39011458  0.42927607  0.71175558  1
  O  O20  1  0.39201004  0.80596642  0.48543412  1
  O  O21  1  0.39011458  0.07072393  0.21175558  1
  O  O22  1  0.60988542  0.92927607  0.78824442  1
  O  O23  1  0.60798996  0.19403358  0.51456588  1
  O  O24  1  0.60988542  0.57072393  0.28824442  1
  O  O25  1  0.71850313  0.58465402  0.68124550  1
  O  O26  1  0.60798996  0.30596642  0.01456588  1
  O  O27  1  0.71850313  0.91534598  0.18124550  1
  O  O28  1  0.89051123  0.88654699  0.57370120  1
  O  O29  1  0.89479760  0.36086985  0.50975250  1
  O  O30  1  0.89051123  0.61345301  0.07370120  1
  O  O31  1  0.89479760  0.13913015  0.00975250  1
