# generated using pymatgen
data_Na4V2C4SO16
_symmetry_space_group_name_H-M   'P 1'
_cell_length_a   9.96776404
_cell_length_b   9.89242832
_cell_length_c   9.89419524
_cell_angle_alpha   60.49851090
_cell_angle_beta   59.74197098
_cell_angle_gamma   59.75951812
_symmetry_Int_Tables_number   1
_chemical_formula_structural   Na4V2C4SO16
_chemical_formula_sum   'Na8 V4 C8 S2 O32'
_cell_volume   689.78945579
_cell_formula_units_Z   2
loop_
 _symmetry_equiv_pos_site_id
 _symmetry_equiv_pos_as_xyz
  1  'x, y, z'
loop_
 _atom_site_type_symbol
 _atom_site_label
 _atom_site_symmetry_multiplicity
 _atom_site_fract_x
 _atom_site_fract_y
 _atom_site_fract_z
 _atom_site_occupancy
  Na  Na0  1  0.67022013  0.07977987  0.07977987  1
  Na  Na1  1  0.91133261  0.33866739  0.33866739  1
  Na  Na2  1  0.33881412  0.91118588  0.33881412  1
  Na  Na3  1  0.33686323  0.33686323  0.91313677  1
  Na  Na4  1  0.91313677  0.91313677  0.33686323  1
  Na  Na5  1  0.91118588  0.33881412  0.91118588  1
  Na  Na6  1  0.07977987  0.67022013  0.67022013  1
  Na  Na7  1  0.33866739  0.91133261  0.91133261  1
  V  V8  1  0.49806400  0.50258970  0.00003614  1
  V  V9  1  0.49931016  0.00003614  0.50258970  1
  V  V10  1  0.00003614  0.49931016  0.49806400  1
  V  V11  1  0.50258970  0.49806400  0.49931016  1
  C  C12  1  0.64263697  0.28474139  0.28199679  1
  C  C13  1  0.29062385  0.28199679  0.28474139  1
  C  C14  1  0.28474139  0.64263697  0.29062385  1
  C  C15  1  0.28199679  0.29062385  0.64263697  1
  C  C16  1  0.71217821  0.36126178  0.71157408  1
  C  C17  1  0.71498592  0.71157408  0.36126178  1
  C  C18  1  0.36126178  0.71217821  0.71498592  1
  C  C19  1  0.71157408  0.71498592  0.71217821  1
  S  S20  1  0.12500000  0.12500000  0.12500000  1
  S  S21  1  0.87500000  0.87500000  0.87500000  1
  O  O22  1  0.30978232  0.06303174  0.06317724  1
  O  O23  1  0.06400969  0.06317724  0.06303174  1
  O  O24  1  0.06303174  0.30978232  0.06400969  1
  O  O25  1  0.06317724  0.06400969  0.30978232  1
  O  O26  1  0.64900532  0.13865407  0.31062338  1
  O  O27  1  0.40171623  0.31062338  0.13865407  1
  O  O28  1  0.64469069  0.39344655  0.13724577  1
  O  O29  1  0.32461698  0.13724577  0.39344655  1
  O  O30  1  0.14642892  0.39181834  0.31807364  1
  O  O31  1  0.64367811  0.31807364  0.39181834  1
  O  O32  1  0.31807364  0.64367811  0.14642892  1
  O  O33  1  0.39181834  0.14642892  0.64367811  1
  O  O34  1  0.85133556  0.36502270  0.59504947  1
  O  O35  1  0.68859228  0.59504947  0.36502270  1
  O  O36  1  0.39344655  0.64469069  0.32461698  1
  O  O37  1  0.13724577  0.32461698  0.64469069  1
  O  O38  1  0.59645497  0.36200386  0.68589020  1
  O  O39  1  0.85564997  0.68589020  0.36200386  1
  O  O40  1  0.31062338  0.40171623  0.64900532  1
  O  O41  1  0.13865407  0.64900532  0.40171623  1
  O  O42  1  0.60226784  0.85809206  0.35304903  1
  O  O43  1  0.68659207  0.35304903  0.85809206  1
  O  O44  1  0.35304903  0.68659207  0.60226784  1
  O  O45  1  0.85809206  0.60226784  0.68659207  1
  O  O46  1  0.36200386  0.59645497  0.85564997  1
  O  O47  1  0.68589020  0.85564997  0.59645497  1
  O  O48  1  0.36502270  0.85133556  0.68859228  1
  O  O49  1  0.59504947  0.68859228  0.85133556  1
  O  O50  1  0.93864828  0.93282715  0.68967774  1
  O  O51  1  0.93884683  0.68967774  0.93282715  1
  O  O52  1  0.68967774  0.93884683  0.93864828  1
  O  O53  1  0.93282715  0.93864828  0.93884683  1
