# generated using pymatgen
data_Li2FePCO7
_symmetry_space_group_name_H-M   'P 1'
_cell_length_a   5.06367887
_cell_length_b   6.42583763
_cell_length_c   8.50557586
_cell_angle_alpha   96.27594897
_cell_angle_beta   95.97306080
_cell_angle_gamma   92.85018061
_symmetry_Int_Tables_number   1
_chemical_formula_structural   Li2FePCO7
_chemical_formula_sum   'Li4 Fe2 P2 C2 O14'
_cell_volume   273.08243462
_cell_formula_units_Z   2
loop_
 _symmetry_equiv_pos_site_id
 _symmetry_equiv_pos_as_xyz
  1  'x, y, z'
loop_
 _atom_site_type_symbol
 _atom_site_label
 _atom_site_symmetry_multiplicity
 _atom_site_fract_x
 _atom_site_fract_y
 _atom_site_fract_z
 _atom_site_occupancy
  Li  Li0  1  0.30763771  0.01794931  0.72182519  1
  Li  Li1  1  0.64480334  0.57471747  0.22067497  1
  Li  Li2  1  0.80190654  0.74507867  0.88944367  1
  Li  Li3  1  0.75509698  0.13945959  0.22193805  1
  Fe  Fe4  1  0.21713366  0.84561576  0.31592079  1
  Fe  Fe5  1  0.84209312  0.35972253  0.63894074  1
  P  P6  1  0.29719217  0.35402514  0.39917468  1
  P  P7  1  0.76113195  0.84791994  0.55072343  1
  C  C8  1  0.33379602  0.84969958  0.03033861  1
  C  C9  1  0.71391152  0.33576721  0.91768761  1
  O  O10  1  0.08767223  0.83875835  0.06185534  1
  O  O11  1  0.18128543  0.41552596  0.55630216  1
  O  O12  1  0.14160412  0.15215690  0.31045867  1
  O  O13  1  0.28041875  0.53372732  0.29043054  1
  O  O14  1  0.41037946  0.84183687  0.89323244  1
  O  O15  1  0.46426008  0.89940099  0.51613942  1
  O  O16  1  0.55223031  0.25884280  0.79379638  1
  O  O17  1  0.51090291  0.86587607  0.15948317  1
  O  O18  1  0.60017540  0.31145085  0.42792724  1
  O  O19  1  0.66732301  0.33049555  0.06188862  1
  O  O20  1  0.77828915  0.67326168  0.66102093  1
  O  O21  1  0.86904702  0.77355568  0.39003500  1
  O  O22  1  0.93349645  0.42920617  0.88108910  1
  O  O23  1  0.92950167  0.04450962  0.63483826  1
