# generated using pymatgen
data_Li4Cr3GaO8
_symmetry_space_group_name_H-M   'P 1'
_cell_length_a   5.14083176
_cell_length_b   5.92751412
_cell_length_c   5.13302110
_cell_angle_alpha   89.99931603
_cell_angle_beta   80.41434397
_cell_angle_gamma   73.24761561
_symmetry_Int_Tables_number   1
_chemical_formula_structural   Li4Cr3GaO8
_chemical_formula_sum   'Li4 Cr3 Ga1 O8'
_cell_volume   147.49479663
_cell_formula_units_Z   1
loop_
 _symmetry_equiv_pos_site_id
 _symmetry_equiv_pos_as_xyz
  1  'x, y, z'
loop_
 _atom_site_type_symbol
 _atom_site_label
 _atom_site_symmetry_multiplicity
 _atom_site_fract_x
 _atom_site_fract_y
 _atom_site_fract_z
 _atom_site_occupancy
  Li  Li0  1  0.99961915  0.00023857  0.99987064  1
  Li  Li1  1  0.00036210  0.24975738  0.50013904  1
  Li  Li2  1  0.00002942  0.49984788  0.00038591  1
  Li  Li3  1  0.99997659  0.75014525  0.49961955  1
  Cr  Cr4  1  0.49998567  0.12502564  0.75001196  1
  Cr  Cr5  1  0.49992464  0.37527212  0.25006020  1
  Cr  Cr6  1  0.50011739  0.87467125  0.24992397  1
  Ga  Ga7  1  0.49996620  0.62503400  0.74998757  1
  O  O8  1  0.27590479  0.18092057  0.12062868  1
  O  O9  1  0.72407855  0.06903297  0.37937960  1
  O  O10  1  0.27439209  0.43170210  0.62122499  1
  O  O11  1  0.72555638  0.31889331  0.87898407  1
  O  O12  1  0.27421963  0.68150638  0.12069899  1
  O  O13  1  0.72582546  0.56843547  0.37929065  1
  O  O14  1  0.27443535  0.93115639  0.62103861  1
  O  O15  1  0.72560561  0.81835973  0.87875559  1
