# generated using pymatgen
data_Li4Cr3GaO8
_symmetry_space_group_name_H-M   'P 1'
_cell_length_a   5.13872603
_cell_length_b   5.92839410
_cell_length_c   10.26889366
_cell_angle_alpha   90.00376632
_cell_angle_beta   80.40942804
_cell_angle_gamma   73.22055531
_symmetry_Int_Tables_number   1
_chemical_formula_structural   Li4Cr3GaO8
_chemical_formula_sum   'Li8 Cr6 Ga2 O16'
_cell_volume   294.94525738
_cell_formula_units_Z   2
loop_
 _symmetry_equiv_pos_site_id
 _symmetry_equiv_pos_as_xyz
  1  'x, y, z'
loop_
 _atom_site_type_symbol
 _atom_site_label
 _atom_site_symmetry_multiplicity
 _atom_site_fract_x
 _atom_site_fract_y
 _atom_site_fract_z
 _atom_site_occupancy
  Li  Li0  1  0.00003181  0.99984737  0.00013654  1
  Li  Li1  1  0.00047106  0.99975729  0.50003542  1
  Li  Li2  1  0.00000039  0.25000067  0.25000011  1
  Li  Li3  1  0.00000162  0.25000014  0.75000019  1
  Li  Li4  1  0.99953057  0.50024480  0.99996450  1
  Li  Li5  1  0.99996902  0.50015382  0.49986353  1
  Li  Li6  1  0.00000017  0.75000097  0.24999996  1
  Li  Li7  1  0.00000099  0.75000143  0.75000017  1
  Cr  Cr8  1  0.49998437  0.12518154  0.37517624  1
  Cr  Cr9  1  0.50002380  0.37481735  0.12482750  1
  Cr  Cr10  1  0.50006147  0.62485650  0.37517127  1
  Cr  Cr11  1  0.50020008  0.62478686  0.87477572  1
  Cr  Cr12  1  0.49990628  0.87514470  0.12483010  1
  Cr  Cr13  1  0.49981025  0.87519600  0.62521595  1
  Ga  Ga14  1  0.49999508  0.12517858  0.87489481  1
  Ga  Ga15  1  0.50000759  0.37482033  0.62510523  1
  O  O16  1  0.27381528  0.18158197  0.06030726  1
  O  O17  1  0.27420903  0.18182048  0.56065668  1
  O  O18  1  0.72487752  0.06852021  0.18962028  1
  O  O19  1  0.72633092  0.06917214  0.68966810  1
  O  O20  1  0.27512985  0.43147982  0.31038014  1
  O  O21  1  0.72618402  0.31842187  0.43969278  1
  O  O22  1  0.27366764  0.43083070  0.81033256  1
  O  O23  1  0.72579278  0.31817751  0.93934220  1
  O  O24  1  0.27535359  0.68120184  0.06022878  1
  O  O25  1  0.72469484  0.56889677  0.18970202  1
  O  O26  1  0.27444954  0.68109825  0.56062895  1
  O  O27  1  0.72559298  0.56842063  0.68933881  1
  O  O28  1  0.27530213  0.93110717  0.31029730  1
  O  O29  1  0.72464498  0.81879899  0.43977118  1
  O  O30  1  0.27440959  0.93157776  0.81065953  1
  O  O31  1  0.72555075  0.81890655  0.93937419  1
