# generated using pymatgen
data_Li4Cr3GaO8
_symmetry_space_group_name_H-M   'P 1'
_cell_length_a   5.13331732
_cell_length_b   5.93130758
_cell_length_c   5.92809153
_cell_angle_alpha   60.01605390
_cell_angle_beta   89.99961110
_cell_angle_gamma   73.25113221
_symmetry_Int_Tables_number   1
_chemical_formula_structural   Li4Cr3GaO8
_chemical_formula_sum   'Li4 Cr3 Ga1 O8'
_cell_volume   147.43172687
_cell_formula_units_Z   1
loop_
 _symmetry_equiv_pos_site_id
 _symmetry_equiv_pos_as_xyz
  1  'x, y, z'
loop_
 _atom_site_type_symbol
 _atom_site_label
 _atom_site_symmetry_multiplicity
 _atom_site_fract_x
 _atom_site_fract_y
 _atom_site_fract_z
 _atom_site_occupancy
  Li  Li0  1  0.99935513  0.00033434  0.99983483  1
  Li  Li1  1  0.00064387  0.99966566  0.50016517  1
  Li  Li2  1  0.50000000  0.00000000  0.25000000  1
  Li  Li3  1  0.50000000  0.00000000  0.75000000  1
  Cr  Cr4  1  0.99999542  0.49999932  0.00027354  1
  Cr  Cr5  1  0.00000458  0.50000068  0.49972646  1
  Cr  Cr6  1  0.50000000  0.50000000  0.75000000  1
  Ga  Ga7  1  0.50000000  0.50000000  0.25000000  1
  O  O8  1  0.24229934  0.27399546  0.36301571  1
  O  O9  1  0.24147365  0.27561792  0.86220040  1
  O  O10  1  0.74154885  0.27423969  0.11320481  1
  O  O11  1  0.25845015  0.72576131  0.38679519  1
  O  O12  1  0.25846093  0.72574886  0.88746863  1
  O  O13  1  0.75770166  0.72600454  0.13698429  1
  O  O14  1  0.74153907  0.27425114  0.61253037  1
  O  O15  1  0.75852635  0.72438108  0.63780060  1
