# generated using pymatgen
data_Li4Cr3GaO8
_symmetry_space_group_name_H-M   'P 1'
_cell_length_a   5.13963374
_cell_length_b   5.92813657
_cell_length_c   5.13292378
_cell_angle_alpha   89.99997370
_cell_angle_beta   70.57653340
_cell_angle_gamma   90.00005021
_symmetry_Int_Tables_number   1
_chemical_formula_structural   Li4Cr3GaO8
_chemical_formula_sum   'Li4 Cr3 Ga1 O8'
_cell_volume   147.49141132
_cell_formula_units_Z   1
loop_
 _symmetry_equiv_pos_site_id
 _symmetry_equiv_pos_as_xyz
  1  'x, y, z'
loop_
 _atom_site_type_symbol
 _atom_site_label
 _atom_site_symmetry_multiplicity
 _atom_site_fract_x
 _atom_site_fract_y
 _atom_site_fract_z
 _atom_site_occupancy
  Li  Li0  1  0.00000007  0.99999861  0.00000320  1
  Li  Li1  1  0.00000030  0.49999738  0.00000370  1
  Li  Li2  1  0.00000070  0.25028010  0.49999884  1
  Li  Li3  1  0.99999900  0.74971631  0.50000060  1
  Cr  Cr4  1  0.50001006  0.24973462  -0.00000049  1
  Cr  Cr5  1  0.50000055  0.75026936  0.99999580  1
  Cr  Cr6  1  0.49999209  0.50000377  0.50000313  1
  Ga  Ga7  1  0.49999332  0.99999934  0.49999768  1
  O  O8  1  0.27425580  0.00000122  0.24212034  1
  O  O9  1  0.27591014  0.50000047  0.24145675  1
  O  O10  1  0.72560311  0.24980597  0.25849807  1
  O  O11  1  0.27440077  0.24980565  0.74150552  1
  O  O12  1  0.72559911  0.75019434  0.25849634  1
  O  O13  1  0.72574823  0.99999743  0.75787508  1
  O  O14  1  0.27439281  0.75019378  0.74150690  1
  O  O15  1  0.72409494  0.50000164  0.75853953  1
