# generated using pymatgen
data_Li4Cr3GaO8
_symmetry_space_group_name_H-M   'P 1'
_cell_length_a   5.14049412
_cell_length_b   5.92846109
_cell_length_c   10.68850839
_cell_angle_alpha   106.10805975
_cell_angle_beta   85.41026192
_cell_angle_gamma   73.23145855
_symmetry_Int_Tables_number   1
_chemical_formula_structural   Li4Cr3GaO8
_chemical_formula_sum   'Li8 Cr6 Ga2 O16'
_cell_volume   295.06810804
_cell_formula_units_Z   2
loop_
 _symmetry_equiv_pos_site_id
 _symmetry_equiv_pos_as_xyz
  1  'x, y, z'
loop_
 _atom_site_type_symbol
 _atom_site_label
 _atom_site_symmetry_multiplicity
 _atom_site_fract_x
 _atom_site_fract_y
 _atom_site_fract_z
 _atom_site_occupancy
  Li  Li0  1  0.00000571  0.12499827  0.75000023  1
  Li  Li1  1  0.00001573  0.99994114  0.00014470  1
  Li  Li2  1  0.99998205  0.25006598  0.49985685  1
  Li  Li3  1  0.00000044  0.37498607  0.24989439  1
  Li  Li4  1  0.00000715  0.62500247  0.74999896  1
  Li  Li5  1  0.99952054  0.50020232  0.99994905  1
  Li  Li6  1  0.00048161  0.74980055  0.50005186  1
  Li  Li7  1  -0.00001348  0.87502396  0.25010670  1
  Cr  Cr8  1  0.50003171  0.31240851  0.37510412  1
  Cr  Cr9  1  0.50022310  0.56223644  0.87483113  1
  Cr  Cr10  1  0.50002236  0.43729599  0.12482410  1
  Cr  Cr11  1  0.49982140  0.68774899  0.62516591  1
  Cr  Cr12  1  0.49991423  0.81272180  0.37517529  1
  Cr  Cr13  1  0.49991774  0.93760063  0.12489065  1
  Ga  Ga14  1  0.49999235  0.06259639  0.87489333  1
  Ga  Ga15  1  0.50006323  0.18739930  0.62511480  1
  O  O16  1  0.27530560  0.08634543  0.31040357  1
  O  O17  1  0.72598596  0.03832702  0.43961988  1
  O  O18  1  0.27379011  0.33601836  0.81036731  1
  O  O19  1  0.72566743  0.28799271  0.93936190  1
  O  O20  1  0.72460923  0.16368693  0.18959525  1
  O  O21  1  0.27396712  0.21164623  0.06036819  1
  O  O22  1  0.27467426  0.46147124  0.56053342  1
  O  O23  1  0.72543272  0.41334288  0.68938966  1
  O  O24  1  0.27560755  0.58629030  0.31022426  1
  O  O25  1  0.72437852  0.53863329  0.43977074  1
  O  O26  1  0.27463643  0.83661466  0.81060506  1
  O  O27  1  0.72536024  0.78856558  0.93948311  1
  O  O28  1  0.27558817  0.71133202  0.06020835  1
  O  O29  1  0.27438556  0.96203315  0.56065564  1
  O  O30  1  0.72431664  0.66374403  0.18977353  1
  O  O31  1  0.72631057  0.91393137  0.68963708  1
