# generated using pymatgen
data_V7(PO4)6
_symmetry_space_group_name_H-M   'P 1'
_cell_length_a   6.45119516
_cell_length_b   8.20985058
_cell_length_c   9.41338037
_cell_angle_alpha   105.21011516
_cell_angle_beta   71.63438879
_cell_angle_gamma   78.11521254
_symmetry_Int_Tables_number   1
_chemical_formula_structural   V7(PO4)6
_chemical_formula_sum   'V7 P6 O24'
_cell_volume   433.32965723
_cell_formula_units_Z   1
loop_
 _symmetry_equiv_pos_site_id
 _symmetry_equiv_pos_as_xyz
  1  'x, y, z'
loop_
 _atom_site_type_symbol
 _atom_site_label
 _atom_site_symmetry_multiplicity
 _atom_site_fract_x
 _atom_site_fract_y
 _atom_site_fract_z
 _atom_site_occupancy
  V  V0  1  0.95738126  0.71437437  0.52006045  1
  V  V1  1  0.71994957  0.80715091  0.28287849  1
  V  V2  1  0.39098096  0.54231953  0.89016402  1
  V  V3  1  0.60901904  0.45768047  0.10983598  1
  V  V4  1  0.28005043  0.19284909  0.71712151  1
  V  V5  1  0.04261874  0.28562563  0.47994055  1
  V  V6  1  0.00000000  0.00000000  0.00000000  1
  P  P7  1  0.91058772  0.59261438  0.83296533  1
  P  P8  1  0.77589464  0.13916986  0.76835273  1
  P  P9  1  0.39853328  0.76566878  0.62824960  1
  P  P10  1  0.60146672  0.23433122  0.37175040  1
  P  P11  1  0.22410536  0.86083014  0.23164727  1
  P  P12  1  0.08941228  0.40738562  0.16703467  1
  O  O13  1  0.88488053  0.78179417  0.92160357  1
  O  O14  1  0.93846134  0.54757739  0.65394207  1
  O  O15  1  0.79690931  0.94398659  0.70046161  1
  O  O16  1  0.98503236  0.18368243  0.66428062  1
  O  O17  1  0.77525355  0.18710937  0.94057004  1
  O  O18  1  0.69776442  0.53945199  0.91450135  1
  O  O19  1  0.87296912  0.53603793  0.16612447  1
  O  O20  1  0.63216734  0.76341729  0.50237739  1
  O  O21  1  0.75147781  0.27694654  0.46596484  1
  O  O22  1  0.54876258  0.25547557  0.77213953  1
  O  O23  1  0.45282318  0.63430272  0.70748633  1
  O  O24  1  0.27649933  0.95856961  0.75712197  1
  O  O25  1  0.72350067  0.04143039  0.24287803  1
  O  O26  1  0.54717682  0.36569728  0.29251367  1
  O  O27  1  0.45123742  0.74452443  0.22786047  1
  O  O28  1  0.24852219  0.72305346  0.53403516  1
  O  O29  1  0.36783266  0.23658271  0.49762261  1
  O  O30  1  0.12703088  0.46396207  0.83387553  1
  O  O31  1  0.30223558  0.46054801  0.08549865  1
  O  O32  1  0.22474645  0.81289063  0.05942996  1
  O  O33  1  0.01496764  0.81631757  0.33571938  1
  O  O34  1  0.20309069  0.05601341  0.29953839  1
  O  O35  1  0.06153866  0.45242261  0.34605793  1
  O  O36  1  0.11511947  0.21820583  0.07839643  1
