# generated using pymatgen
data_WN2
_symmetry_space_group_name_H-M   'P 1'
_cell_length_a   9.43438276
_cell_length_b   5.70539696
_cell_length_c   5.36493200
_cell_angle_alpha   90.00000000
_cell_angle_beta   90.00000000
_cell_angle_gamma   90.00000000
_symmetry_Int_Tables_number   1
_chemical_formula_structural   WN2
_chemical_formula_sum   'W8 N16'
_cell_volume   288.77765139
_cell_formula_units_Z   8
loop_
 _symmetry_equiv_pos_site_id
 _symmetry_equiv_pos_as_xyz
  1  'x, y, z'
loop_
 _atom_site_type_symbol
 _atom_site_label
 _atom_site_symmetry_multiplicity
 _atom_site_fract_x
 _atom_site_fract_y
 _atom_site_fract_z
 _atom_site_occupancy
  W  W0  1  0.12655141  0.09209099  0.83325158  1
  W  W1  1  0.12655141  0.40790901  0.33325158  1
  W  W2  1  0.37344859  0.59209099  0.83325158  1
  W  W3  1  0.37344859  0.90790901  0.33325158  1
  W  W4  1  0.62655141  0.09209099  0.66674842  1
  W  W5  1  0.62655141  0.40790901  0.16674842  1
  W  W6  1  0.87344859  0.59209099  0.66674842  1
  W  W7  1  0.87344859  0.90790901  0.16674842  1
  N  N8  1  0.00714559  0.14407231  0.20574732  1
  N  N9  1  0.00714559  0.35592769  0.70574732  1
  N  N10  1  0.22954781  0.08264860  0.53632344  1
  N  N11  1  0.22954781  0.41735140  0.03632344  1
  N  N12  1  0.27045219  0.58264860  0.53632344  1
  N  N13  1  0.27045219  0.91735140  0.03632344  1
  N  N14  1  0.49285441  0.85592769  0.70574732  1
  N  N15  1  0.49285441  0.64407231  0.20574732  1
  N  N16  1  0.50714559  0.14407231  0.29425268  1
  N  N17  1  0.50714559  0.35592769  0.79425268  1
  N  N18  1  0.72954781  0.08264860  0.96367656  1
  N  N19  1  0.72954781  0.41735140  0.46367656  1
  N  N20  1  0.77045219  0.58264860  0.96367656  1
  N  N21  1  0.77045219  0.91735140  0.46367656  1
  N  N22  1  0.99285441  0.64407231  0.29425268  1
  N  N23  1  0.99285441  0.85592769  0.79425268  1
