# generated using pymatgen
data_Na5LiFe2P2(CO7)2
_symmetry_space_group_name_H-M   'P 1'
_cell_length_a   8.97891162
_cell_length_b   5.18411095
_cell_length_c   6.70115829
_cell_angle_alpha   90.00000000
_cell_angle_beta   90.00000000
_cell_angle_gamma   89.01957972
_symmetry_Int_Tables_number   1
_chemical_formula_structural   Na5LiFe2P2(CO7)2
_chemical_formula_sum   'Na5 Li1 Fe2 P2 C2 O14'
_cell_volume   311.87766684
_cell_formula_units_Z   1
loop_
 _symmetry_equiv_pos_site_id
 _symmetry_equiv_pos_as_xyz
  1  'x, y, z'
loop_
 _atom_site_type_symbol
 _atom_site_label
 _atom_site_symmetry_multiplicity
 _atom_site_fract_x
 _atom_site_fract_y
 _atom_site_fract_z
 _atom_site_occupancy
  Na  Na0  1  0.26290879  0.24961772  0.00251793  1
  Na  Na1  1  0.26290879  0.24961772  0.49748207  1
  Na  Na2  1  0.73702212  0.75009212  0.50203022  1
  Na  Na3  1  0.73702212  0.75009212  0.99796978  1
  Na  Na4  1  0.91833239  0.23609008  0.75000000  1
  Li  Li5  1  0.08356078  0.76174056  0.25000000  1
  Fe  Fe6  1  0.35143269  0.77961436  0.75000000  1
  Fe  Fe7  1  0.64760938  0.21998334  0.25000000  1
  P  P8  1  0.40968407  0.70295508  0.25000000  1
  P  P9  1  0.58718420  0.29697438  0.75000000  1
  C  C10  1  0.05919404  0.72887526  0.75000000  1
  C  C11  1  0.94430186  0.27165160  0.25000000  1
  O  O12  1  0.08746036  0.29776607  0.25000000  1
  O  O13  1  0.12286202  0.95301371  0.75000000  1
  O  O14  1  0.14245945  0.52050059  0.75000000  1
  O  O15  1  0.31242965  0.78034411  0.06512431  1
  O  O16  1  0.31242965  0.78034411  0.43487569  1
  O  O17  1  0.43465368  0.16379407  0.75000000  1
  O  O18  1  0.43609277  0.40476520  0.25000000  1
  O  O19  1  0.56311836  0.59581623  0.75000000  1
  O  O20  1  0.56262464  0.83643378  0.25000000  1
  O  O21  1  0.68250854  0.21903044  0.56349602  1
  O  O22  1  0.68250854  0.21903044  0.93650398  1
  O  O23  1  0.85773864  0.47598813  0.25000000  1
  O  O24  1  0.88652148  0.04194768  0.25000000  1
  O  O25  1  0.91542799  0.71392211  0.75000000  1
