# generated using pymatgen
data_Mn2PO5
_symmetry_space_group_name_H-M   'P 1'
_cell_length_a   7.47791221
_cell_length_b   6.55550370
_cell_length_c   7.83041624
_cell_angle_alpha   90.00000000
_cell_angle_beta   90.00000000
_cell_angle_gamma   90.00000000
_symmetry_Int_Tables_number   1
_chemical_formula_structural   Mn2PO5
_chemical_formula_sum   'Mn8 P4 O20'
_cell_volume   383.85860219
_cell_formula_units_Z   4
loop_
 _symmetry_equiv_pos_site_id
 _symmetry_equiv_pos_as_xyz
  1  'x, y, z'
loop_
 _atom_site_type_symbol
 _atom_site_label
 _atom_site_symmetry_multiplicity
 _atom_site_fract_x
 _atom_site_fract_y
 _atom_site_fract_z
 _atom_site_occupancy
  Mn  Mn0  1  0.00000000  0.00000000  0.00000000  1
  Mn  Mn1  1  0.00000000  0.50000000  0.00000000  1
  Mn  Mn2  1  0.14846057  0.25000000  0.70913416  1
  Mn  Mn3  1  0.35153943  0.75000000  0.20913416  1
  Mn  Mn4  1  0.50000000  0.00000000  0.50000000  1
  Mn  Mn5  1  0.50000000  0.50000000  0.50000000  1
  Mn  Mn6  1  0.64846057  0.25000000  0.79086584  1
  Mn  Mn7  1  0.85153943  0.75000000  0.29086584  1
  P  P8  1  0.12150530  0.75000000  0.64121863  1
  P  P9  1  0.37849470  0.25000000  0.14121863  1
  P  P10  1  0.62150530  0.75000000  0.85878137  1
  P  P11  1  0.87849470  0.25000000  0.35878137  1
  O  O12  1  0.04510242  0.25000000  0.46762302  1
  O  O13  1  0.09372507  0.75000000  0.13369301  1
  O  O14  1  0.12895019  0.94028870  0.76253443  1
  O  O15  1  0.12895019  0.55971130  0.76253443  1
  O  O16  1  0.20430529  0.25000000  0.02964537  1
  O  O17  1  0.29569471  0.75000000  0.52964537  1
  O  O18  1  0.37104981  0.05971130  0.26253443  1
  O  O19  1  0.37104981  0.44028870  0.26253443  1
  O  O20  1  0.40627493  0.25000000  0.63369301  1
  O  O21  1  0.45489758  0.75000000  0.96762302  1
  O  O22  1  0.54510242  0.25000000  0.03237698  1
  O  O23  1  0.59372507  0.75000000  0.36630699  1
  O  O24  1  0.62895019  0.55971130  0.73746557  1
  O  O25  1  0.62895019  0.94028870  0.73746557  1
  O  O26  1  0.70430529  0.25000000  0.47035463  1
  O  O27  1  0.79569471  0.75000000  0.97035463  1
  O  O28  1  0.87104981  0.05971130  0.23746557  1
  O  O29  1  0.87104981  0.44028870  0.23746557  1
  O  O30  1  0.90627493  0.25000000  0.86630699  1
  O  O31  1  0.95489758  0.75000000  0.53237698  1
