# generated using pymatgen
data_Li2CoPO4F
_symmetry_space_group_name_H-M   'P 1'
_cell_length_a   10.58536813
_cell_length_b   6.42273788
_cell_length_c   10.96840142
_cell_angle_alpha   90.00000000
_cell_angle_beta   90.00000000
_cell_angle_gamma   90.00000000
_symmetry_Int_Tables_number   1
_chemical_formula_structural   Li2CoPO4F
_chemical_formula_sum   'Li16 Co8 P8 O32 F8'
_cell_volume   745.70919941
_cell_formula_units_Z   8
loop_
 _symmetry_equiv_pos_site_id
 _symmetry_equiv_pos_as_xyz
  1  'x, y, z'
loop_
 _atom_site_type_symbol
 _atom_site_label
 _atom_site_symmetry_multiplicity
 _atom_site_fract_x
 _atom_site_fract_y
 _atom_site_fract_z
 _atom_site_occupancy
  Li  Li0  1  0.02655645  0.75000000  0.27376569  1
  Li  Li1  1  0.22895727  0.25000000  0.08227088  1
  Li  Li2  1  0.24015906  0.51037392  0.33472990  1
  Li  Li3  1  0.24015906  0.98962608  0.33472990  1
  Li  Li4  1  0.25984094  0.01037392  0.83472990  1
  Li  Li5  1  0.25984094  0.48962608  0.83472990  1
  Li  Li6  1  0.27104273  0.75000000  0.58227088  1
  Li  Li7  1  0.47344355  0.25000000  0.77376569  1
  Li  Li8  1  0.52655645  0.75000000  0.22623431  1
  Li  Li9  1  0.72895727  0.25000000  0.41772912  1
  Li  Li10  1  0.74015906  0.51037392  0.16527010  1
  Li  Li11  1  0.74015906  0.98962608  0.16527010  1
  Li  Li12  1  0.75984094  0.01037392  0.66527010  1
  Li  Li13  1  0.75984094  0.48962608  0.66527010  1
  Li  Li14  1  0.77104273  0.75000000  0.91772912  1
  Li  Li15  1  0.97344355  0.25000000  0.72623431  1
  Co  Co16  1  0.00000000  0.00000000  0.00000000  1
  Co  Co17  1  0.00000000  0.50000000  0.00000000  1
  Co  Co18  1  0.00000000  0.00000000  0.50000000  1
  Co  Co19  1  0.00000000  0.50000000  0.50000000  1
  Co  Co20  1  0.50000000  0.00000000  0.50000000  1
  Co  Co21  1  0.50000000  0.50000000  0.50000000  1
  Co  Co22  1  0.50000000  0.00000000  0.00000000  1
  Co  Co23  1  0.50000000  0.50000000  0.00000000  1
  P  P24  1  0.02341983  0.75000000  0.74419057  1
  P  P25  1  0.24364690  0.75000000  0.07814758  1
  P  P26  1  0.25635310  0.25000000  0.57814758  1
  P  P27  1  0.47658017  0.25000000  0.24419057  1
  P  P28  1  0.52341983  0.75000000  0.75580943  1
  P  P29  1  0.74364690  0.75000000  0.42185242  1
  P  P30  1  0.75635310  0.25000000  0.92185242  1
  P  P31  1  0.97658017  0.25000000  0.25580943  1
  O  O32  1  0.02731619  0.25000000  0.12147112  1
  O  O33  1  0.03304463  0.05412531  0.31948747  1
  O  O34  1  0.03304463  0.44587469  0.31948747  1
  O  O35  1  0.11072527  0.25000000  0.55395480  1
  O  O36  1  0.16969534  0.75000000  0.74422124  1
  O  O37  1  0.18997119  0.55123683  0.01531342  1
  O  O38  1  0.18997119  0.94876317  0.01531342  1
  O  O39  1  0.21767889  0.75000000  0.21655856  1
  O  O40  1  0.28232111  0.25000000  0.71655856  1
  O  O41  1  0.31002881  0.05123683  0.51531342  1
  O  O42  1  0.31002881  0.44876317  0.51531342  1
  O  O43  1  0.33030466  0.25000000  0.24422124  1
  O  O44  1  0.38927473  0.75000000  0.05395480  1
  O  O45  1  0.46695537  0.55412531  0.81948747  1
  O  O46  1  0.46695537  0.94587469  0.81948747  1
  O  O47  1  0.47268381  0.75000000  0.62147112  1
  O  O48  1  0.52731619  0.25000000  0.37852888  1
  O  O49  1  0.53304463  0.05412531  0.18051253  1
  O  O50  1  0.53304463  0.44587469  0.18051253  1
  O  O51  1  0.61072527  0.25000000  0.94604520  1
  O  O52  1  0.66969534  0.75000000  0.75577876  1
  O  O53  1  0.68997119  0.55123683  0.48468658  1
  O  O54  1  0.68997119  0.94876317  0.48468658  1
  O  O55  1  0.71767889  0.75000000  0.28344144  1
  O  O56  1  0.78232111  0.25000000  0.78344144  1
  O  O57  1  0.81002881  0.05123683  0.98468658  1
  O  O58  1  0.81002881  0.44876317  0.98468658  1
  O  O59  1  0.83030466  0.25000000  0.25577876  1
  O  O60  1  0.88927473  0.75000000  0.44604520  1
  O  O61  1  0.96695537  0.55412531  0.68051253  1
  O  O62  1  0.96695537  0.94587469  0.68051253  1
  O  O63  1  0.97268381  0.75000000  0.87852888  1
  F  F64  1  0.05210197  0.25000000  0.88034875  1
  F  F65  1  0.13271661  0.75000000  0.46860169  1
  F  F66  1  0.36728339  0.25000000  0.96860169  1
  F  F67  1  0.44789803  0.75000000  0.38034875  1
  F  F68  1  0.55210197  0.25000000  0.61965125  1
  F  F69  1  0.63271661  0.75000000  0.03139831  1
  F  F70  1  0.86728339  0.25000000  0.53139831  1
  F  F71  1  0.94789803  0.75000000  0.11965125  1
