# generated using pymatgen
data_Li4Cr3GaO8
_symmetry_space_group_name_H-M   'P 1'
_cell_length_a   5.13779493
_cell_length_b   5.92809499
_cell_length_c   5.92792402
_cell_angle_alpha   119.99917883
_cell_angle_beta   90.00010358
_cell_angle_gamma   73.23960197
_symmetry_Int_Tables_number   1
_chemical_formula_structural   Li4Cr3GaO8
_chemical_formula_sum   'Li4 Cr3 Ga1 O8'
_cell_volume   147.43835137
_cell_formula_units_Z   1
loop_
 _symmetry_equiv_pos_site_id
 _symmetry_equiv_pos_as_xyz
  1  'x, y, z'
loop_
 _atom_site_type_symbol
 _atom_site_label
 _atom_site_symmetry_multiplicity
 _atom_site_fract_x
 _atom_site_fract_y
 _atom_site_fract_z
 _atom_site_occupancy
  Li  Li0  1  0.00037970  0.99976633  0.49988316  1
  Li  Li1  1  0.99962030  0.00023367  0.00011684  1
  Li  Li2  1  0.00000000  0.50000000  0.49983590  1
  Li  Li3  1  0.00000000  0.50000000  0.00016410  1
  Cr  Cr4  1  0.50000000  0.00000000  0.75000000  1
  Cr  Cr5  1  0.49999900  0.00000000  0.25000000  1
  Cr  Cr6  1  0.50000000  0.50000000  0.25000000  1
  Ga  Ga7  1  0.50000000  0.50000000  0.75000000  1
  O  O8  1  0.27425093  0.24241932  0.62120966  1
  O  O9  1  0.72580605  0.25839687  0.87887566  1
  O  O10  1  0.27545960  0.24155452  0.12077676  1
  O  O11  1  0.72580705  0.25839787  0.37952221  1
  O  O12  1  0.27419395  0.74160313  0.62112434  1
  O  O13  1  0.72574907  0.75758068  0.87879034  1
  O  O14  1  0.27419295  0.74160213  0.12047779  1
  O  O15  1  0.72453940  0.75844548  0.37922324  1
