# generated using pymatgen
data_Li4Cr3GaO8
_symmetry_space_group_name_H-M   'P 1'
_cell_length_a   5.14017742
_cell_length_b   5.92843949
_cell_length_c   10.68771652
_cell_angle_alpha   106.10460530
_cell_angle_beta   85.41293654
_cell_angle_gamma   73.24077760
_symmetry_Int_Tables_number   1
_chemical_formula_structural   Li4Cr3GaO8
_chemical_formula_sum   'Li8 Cr6 Ga2 O16'
_cell_volume   295.05332221
_cell_formula_units_Z   2
loop_
 _symmetry_equiv_pos_site_id
 _symmetry_equiv_pos_as_xyz
  1  'x, y, z'
loop_
 _atom_site_type_symbol
 _atom_site_label
 _atom_site_symmetry_multiplicity
 _atom_site_fract_x
 _atom_site_fract_y
 _atom_site_fract_z
 _atom_site_occupancy
  Li  Li0  1  0.00040768  0.12475132  0.74992722  1
  Li  Li1  1  0.99967449  0.00019402  0.99995043  1
  Li  Li2  1  0.99960004  0.25024592  0.50007304  1
  Li  Li3  1  0.00032118  0.37480586  0.25004989  1
  Li  Li4  1  0.00002306  0.62504992  0.74989528  1
  Li  Li5  1  0.00000862  0.49995156  0.00017936  1
  Li  Li6  1  0.99998440  0.74994903  0.50010429  1
  Li  Li7  1  -0.00001327  0.87505357  0.24982037  1
  Cr  Cr8  1  0.49999672  0.06247780  0.87497173  1
  Cr  Cr9  1  0.50004762  0.18748907  0.62500396  1
  Cr  Cr10  1  0.49999151  0.31252466  0.37502611  1
  Cr  Cr11  1  0.49990609  0.43775489  0.12502390  1
  Cr  Cr12  1  0.50003105  0.68748970  0.62499957  1
  Cr  Cr13  1  0.50006621  0.93724553  0.12497653  1
  Ga  Ga14  1  0.50002470  0.56251160  0.87501101  1
  Ga  Ga15  1  0.49993676  0.81249673  0.37498453  1
  O  O16  1  0.27435899  0.08655591  0.31047671  1
  O  O17  1  0.72561344  0.03792409  0.43940824  1
  O  O18  1  0.27438314  0.33704551  0.81057520  1
  O  O19  1  0.72559693  0.28848880  0.93952013  1
  O  O20  1  0.72409774  0.16392983  0.18975283  1
  O  O21  1  0.27585443  0.21106757  0.06024544  1
  O  O22  1  0.27567037  0.46136385  0.56043606  1
  O  O23  1  0.72572711  0.41348925  0.68973706  1
  O  O24  1  0.27431583  0.58682708  0.31056022  1
  O  O25  1  0.72564480  0.53864031  0.43945315  1
  O  O26  1  0.27436309  0.83631959  0.81053002  1
  O  O27  1  0.72564888  0.78821111  0.93944091  1
  O  O28  1  0.27413709  0.71174423  0.06044704  1
  O  O29  1  0.27435977  0.96150792  0.56027809  1
  O  O30  1  0.72580975  0.66326095  0.18955585  1
  O  O31  1  0.72440977  0.91363081  0.68958684  1
