# generated using pymatgen
data_K4Co2O5
_symmetry_space_group_name_H-M   'P 1'
_cell_length_a   7.10215055
_cell_length_b   7.10252837
_cell_length_c   10.40151423
_cell_angle_alpha   90.00000000
_cell_angle_beta   90.00000000
_cell_angle_gamma   90.00279326
_symmetry_Int_Tables_number   1
_chemical_formula_structural   K4Co2O5
_chemical_formula_sum   'K8 Co4 O10'
_cell_volume   524.68593034
_cell_formula_units_Z   2
loop_
 _symmetry_equiv_pos_site_id
 _symmetry_equiv_pos_as_xyz
  1  'x, y, z'
loop_
 _atom_site_type_symbol
 _atom_site_label
 _atom_site_symmetry_multiplicity
 _atom_site_fract_x
 _atom_site_fract_y
 _atom_site_fract_z
 _atom_site_occupancy
  K  K0  1  0.00066158  0.00122481  0.26830011  1
  K  K1  1  0.00101390  0.50030241  0.25003482  1
  K  K2  1  0.00066158  0.00122481  0.73169989  1
  K  K3  1  0.00101390  0.50030241  0.74996518  1
  K  K4  1  0.50073109  0.49880173  0.23170308  1
  K  K5  1  0.50073109  0.49880173  0.76829692  1
  K  K6  1  0.50096499  0.99969093  0.24995873  1
  K  K7  1  0.50096499  0.99969093  0.75004127  1
  Co  Co8  1  0.17602204  0.82417070  0.00000000  1
  Co  Co9  1  0.31818503  0.31783492  0.50000000  1
  Co  Co10  1  0.67603885  0.67580730  0.50000000  1
  Co  Co11  1  0.81815609  0.18215980  0.00000000  1
  O  O12  1  0.99836470  0.00139344  0.00000000  1
  O  O13  1  0.25852791  0.25787040  0.34443108  1
  O  O14  1  0.25852791  0.25787040  0.65556892  1
  O  O15  1  0.24350603  0.75707179  0.84615702  1
  O  O16  1  0.24350603  0.75707179  0.15384298  1
  O  O17  1  0.49842827  0.49856601  0.50000000  1
  O  O18  1  0.75850360  0.24215535  0.15557491  1
  O  O19  1  0.75850360  0.24215535  0.84442509  1
  O  O20  1  0.74351289  0.74293648  0.65384480  1
  O  O21  1  0.74351289  0.74293648  0.34615520  1
