# generated using pymatgen
data_LiNiO2
_symmetry_space_group_name_H-M   'P 1'
_cell_length_a   4.03584776
_cell_length_b   5.10037319
_cell_length_c   4.03584776
_cell_angle_alpha   66.69396132
_cell_angle_beta   90.00000000
_cell_angle_gamma   113.30603868
_symmetry_Int_Tables_number   1
_chemical_formula_structural   LiNiO2
_chemical_formula_sum   'Li2 Ni2 O4'
_cell_volume   68.85399113
_cell_formula_units_Z   2
loop_
 _symmetry_equiv_pos_site_id
 _symmetry_equiv_pos_as_xyz
  1  'x, y, z'
loop_
 _atom_site_type_symbol
 _atom_site_label
 _atom_site_symmetry_multiplicity
 _atom_site_fract_x
 _atom_site_fract_y
 _atom_site_fract_z
 _atom_site_occupancy
  Li  Li0  1  0.25000000  0.50000000  0.25000000  1
  Li  Li1  1  0.50000000  0.00000000  0.50000000  1
  Ni  Ni2  1  0.00000000  0.00000000  0.00000000  1
  Ni  Ni3  1  0.75000000  0.50000000  0.75000000  1
  O  O4  1  0.77151599  0.54303199  0.22848401  1
  O  O5  1  0.22848401  0.45696801  0.77151599  1
  O  O6  1  0.52151599  0.04303199  0.97848401  1
  O  O7  1  0.97848401  0.95696801  0.52151599  1
