# generated using pymatgen
data_Li2Fe2(SO4)3
_symmetry_space_group_name_H-M   'P 1'
_cell_length_a   7.96796349
_cell_length_b   7.96796349
_cell_length_c   8.86178728
_cell_angle_alpha   68.09915264
_cell_angle_beta   111.90084736
_cell_angle_gamma   113.92989352
_symmetry_Int_Tables_number   1
_chemical_formula_structural   Li2Fe2(SO4)3
_chemical_formula_sum   'Li4 Fe4 S6 O24'
_cell_volume   460.55298642
_cell_formula_units_Z   2
loop_
 _symmetry_equiv_pos_site_id
 _symmetry_equiv_pos_as_xyz
  1  'x, y, z'
loop_
 _atom_site_type_symbol
 _atom_site_label
 _atom_site_symmetry_multiplicity
 _atom_site_fract_x
 _atom_site_fract_y
 _atom_site_fract_z
 _atom_site_occupancy
  Li  Li0  1  0.33116613  0.86278479  0.55586210  1
  Li  Li1  1  0.13721521  0.66883387  0.05586210  1
  Li  Li2  1  0.86278479  0.33116613  0.94413790  1
  Li  Li3  1  0.66883387  0.13721521  0.44413790  1
  Fe  Fe4  1  0.63225113  0.87333924  0.98538993  1
  Fe  Fe5  1  0.12666076  0.36774887  0.48538993  1
  Fe  Fe6  1  0.87333924  0.63225113  0.51461007  1
  Fe  Fe7  1  0.36774887  0.12666076  0.01461007  1
  S  S8  1  0.24924348  0.54124860  0.82309216  1
  S  S9  1  0.45875140  0.75075652  0.32309216  1
  S  S10  1  0.93998203  0.93998203  0.75000000  1
  S  S11  1  0.06001797  0.06001797  0.25000000  1
  S  S12  1  0.54124860  0.24924348  0.67690784  1
  S  S13  1  0.75075652  0.45875140  0.17690784  1
  O  O14  1  0.12687281  0.95159269  0.88362004  1
  O  O15  1  0.04840731  0.87312719  0.38362004  1
  O  O16  1  0.12556234  0.50396161  0.92818658  1
  O  O17  1  0.38778179  0.73804781  0.81209684  1
  O  O18  1  0.13236364  0.54418823  0.64106796  1
  O  O19  1  0.49603839  0.87443766  0.42818658  1
  O  O20  1  0.78751019  0.90208315  0.82375757  1
  O  O21  1  0.34599093  0.39806596  0.88266077  1
  O  O22  1  0.26195219  0.61221821  0.31209684  1
  O  O23  1  0.45581177  0.86763636  0.14106796  1
  O  O24  1  0.09791685  0.21248981  0.32375757  1
  O  O25  1  0.39806596  0.34599093  0.61733923  1
  O  O26  1  0.60193404  0.65400907  0.38266077  1
  O  O27  1  0.90208315  0.78751019  0.67624243  1
  O  O28  1  0.54418823  0.13236364  0.85893204  1
  O  O29  1  0.73804781  0.38778179  0.68790316  1
  O  O30  1  0.65400907  0.60193404  0.11733923  1
  O  O31  1  0.21248981  0.09791685  0.17624243  1
  O  O32  1  0.50396161  0.12556234  0.57181342  1
  O  O33  1  0.86763636  0.45581177  0.35893204  1
  O  O34  1  0.61221821  0.26195219  0.18790316  1
  O  O35  1  0.87443766  0.49603839  0.07181342  1
  O  O36  1  0.95159269  0.12687281  0.61637996  1
  O  O37  1  0.87312719  0.04840731  0.11637996  1
