# generated using pymatgen
data_Li4Cr3GaO8
_symmetry_space_group_name_H-M   'P 1'
_cell_length_a   5.13967169
_cell_length_b   7.84369262
_cell_length_c   7.84165371
_cell_angle_alpha   81.78944303
_cell_angle_beta   70.92541223
_cell_angle_gamma   83.76198191
_symmetry_Int_Tables_number   1
_chemical_formula_structural   Li4Cr3GaO8
_chemical_formula_sum   'Li8 Cr6 Ga2 O16'
_cell_volume   295.05864895
_cell_formula_units_Z   2
loop_
 _symmetry_equiv_pos_site_id
 _symmetry_equiv_pos_as_xyz
  1  'x, y, z'
loop_
 _atom_site_type_symbol
 _atom_site_label
 _atom_site_symmetry_multiplicity
 _atom_site_fract_x
 _atom_site_fract_y
 _atom_site_fract_z
 _atom_site_occupancy
  Li  Li0  1  0.00046641  0.99996602  0.99991266  1
  Li  Li1  1  0.00002600  0.25032101  0.24994550  1
  Li  Li2  1  0.00045096  0.62494639  0.12492969  1
  Li  Li3  1  0.99954904  0.12505361  0.62506931  1
  Li  Li4  1  0.99997400  0.49967899  0.50005450  1
  Li  Li5  1  0.00000000  0.87500000  0.37500000  1
  Li  Li6  1  0.00000000  0.37500000  0.87500000  1
  Li  Li7  1  0.99953359  0.75003398  0.75008734  1
  Cr  Cr8  1  0.49997880  0.43745816  0.18773152  1
  Cr  Cr9  1  0.49971054  0.81258499  0.06291012  1
  Cr  Cr10  1  0.50002120  0.31254284  0.56226848  1
  Cr  Cr11  1  0.49990938  0.18744649  0.93770625  1
  Cr  Cr12  1  0.50009062  0.56255351  0.81229375  1
  Cr  Cr13  1  0.50028946  0.93741501  0.68709088  1
  Ga  Ga14  1  0.50004911  0.06235802  0.31255128  1
  Ga  Ga15  1  0.49995089  0.68764198  0.43744872  1
  O  O16  1  0.27420091  0.03027896  0.15136961  1
  O  O17  1  0.72582924  0.21981204  0.09888070  1
  O  O18  1  0.27569380  0.40517949  0.02598121  1
  O  O19  1  0.72561573  0.09487400  0.47375144  1
  O  O20  1  0.27434492  0.27996562  0.40110921  1
  O  O21  1  0.27438427  0.65512600  0.27624756  1
  O  O22  1  0.72565508  0.47003438  0.34889179  1
  O  O23  1  0.27575411  0.15501020  0.77567805  1
  O  O24  1  0.27417076  0.53018696  0.65111930  1
  O  O25  1  0.72655635  0.84494502  0.22423978  1
  O  O26  1  0.72430520  0.34481951  0.72401879  1
  O  O27  1  0.27344365  0.90505498  0.52576022  1
  O  O28  1  0.72579709  0.71972104  0.59863139  1
  O  O29  1  0.27587897  0.78026168  0.90078085  1
  O  O30  1  0.72424589  0.59499080  0.97432095  1
  O  O31  1  0.72412303  0.96973732  0.84921815  1
