# generated using pymatgen
data_Li5NbO5
_symmetry_space_group_name_H-M   'P 1'
_cell_length_a   5.50807780
_cell_length_b   5.50807780
_cell_length_c   9.46069535
_cell_angle_alpha   78.95406083
_cell_angle_beta   101.04593917
_cell_angle_gamma   62.96373303
_symmetry_Int_Tables_number   1
_chemical_formula_structural   Li5NbO5
_chemical_formula_sum   'Li10 Nb2 O10'
_cell_volume   237.83285486
_cell_formula_units_Z   2
loop_
 _symmetry_equiv_pos_site_id
 _symmetry_equiv_pos_as_xyz
  1  'x, y, z'
loop_
 _atom_site_type_symbol
 _atom_site_label
 _atom_site_symmetry_multiplicity
 _atom_site_fract_x
 _atom_site_fract_y
 _atom_site_fract_z
 _atom_site_occupancy
  Li  Li0  1  0.25703235  0.89730336  0.56125223  1
  Li  Li1  1  0.50261162  0.76559654  0.95773084  1
  Li  Li2  1  0.42201768  0.42201768  0.75000000  1
  Li  Li3  1  0.10269664  0.74296765  0.06125223  1
  Li  Li4  1  0.23440346  0.49738838  0.45773084  1
  Li  Li5  1  0.76559654  0.50261162  0.54226916  1
  Li  Li6  1  0.89730336  0.25703235  0.93874777  1
  Li  Li7  1  0.57798232  0.57798232  0.25000000  1
  Li  Li8  1  0.49738838  0.23440346  0.04226916  1
  Li  Li9  1  0.74296765  0.10269664  0.43874777  1
  Nb  Nb10  1  0.83783438  0.83783438  0.75000000  1
  Nb  Nb11  1  0.16216562  0.16216562  0.25000000  1
  O  O12  1  0.22068432  0.62172674  0.89451311  1
  O  O13  1  0.01780456  0.70811529  0.58862263  1
  O  O14  1  0.37827326  0.77931568  0.39451311  1
  O  O15  1  0.29188471  0.98219544  0.08862263  1
  O  O16  1  0.63633898  0.63633898  0.75000000  1
  O  O17  1  0.36366102  0.36366102  0.25000000  1
  O  O18  1  0.70811529  0.01780456  0.91137737  1
  O  O19  1  0.62172674  0.22068432  0.60548689  1
  O  O20  1  0.98219544  0.29188471  0.41137737  1
  O  O21  1  0.77931568  0.37827326  0.10548689  1
