# generated using pymatgen
data_Li4Cr3GaO8
_symmetry_space_group_name_H-M   'P 1'
_cell_length_a   5.13888965
_cell_length_b   7.84337976
_cell_length_c   7.84203587
_cell_angle_alpha   81.78006970
_cell_angle_beta   70.94471597
_cell_angle_gamma   83.75558678
_symmetry_Int_Tables_number   1
_chemical_formula_structural   Li4Cr3GaO8
_chemical_formula_sum   'Li8 Cr6 Ga2 O16'
_cell_volume   295.04169246
_cell_formula_units_Z   2
loop_
 _symmetry_equiv_pos_site_id
 _symmetry_equiv_pos_as_xyz
  1  'x, y, z'
loop_
 _atom_site_type_symbol
 _atom_site_label
 _atom_site_symmetry_multiplicity
 _atom_site_fract_x
 _atom_site_fract_y
 _atom_site_fract_z
 _atom_site_occupancy
  Li  Li0  1  0.99963101  0.99990052  0.00013656  1
  Li  Li1  1  -0.00003255  0.25002563  0.25012249  1
  Li  Li2  1  0.00037242  0.62509800  0.12486349  1
  Li  Li3  1  0.99989600  0.12516378  0.62497860  1
  Li  Li4  1  0.00010178  0.49983525  0.50002390  1
  Li  Li5  1  0.00028853  0.87517732  0.37471847  1
  Li  Li6  1  0.00003621  0.37497364  0.87487895  1
  Li  Li7  1  0.99971246  0.74982312  0.75028199  1
  Cr  Cr8  1  0.50018074  0.06224839  0.31274066  1
  Cr  Cr9  1  0.49997347  0.43766961  0.18767356  1
  Cr  Cr10  1  0.50001582  0.81250293  0.06249224  1
  Cr  Cr11  1  0.50000454  0.31250618  0.56249747  1
  Cr  Cr12  1  0.50001694  0.18732432  0.93733144  1
  Cr  Cr13  1  0.49983731  0.56275222  0.81225810  1
  Ga  Ga14  1  0.49994785  0.68764224  0.43761418  1
  Ga  Ga15  1  0.50000899  0.93737422  0.68736579  1
  O  O16  1  0.27570384  0.03015672  0.15091784  1
  O  O17  1  0.72419323  0.21991344  0.09922025  1
  O  O18  1  0.27579011  0.40510756  0.02577639  1
  O  O19  1  0.72579755  0.09479807  0.47400346  1
  O  O20  1  0.27569458  0.28002458  0.40088783  1
  O  O21  1  0.27440985  0.65534492  0.27634766  1
  O  O22  1  0.72582718  0.47005916  0.34901820  1
  O  O23  1  0.27414847  0.15495985  0.77598277  1
  O  O24  1  0.27423049  0.53018068  0.65099547  1
  O  O25  1  0.72572496  0.84468706  0.22396988  1
  O  O26  1  0.72432817  0.34495023  0.72411901  1
  O  O27  1  0.27353635  0.90479596  0.52675772  1
  O  O28  1  0.72643789  0.72022601  0.59824973  1
  O  O29  1  0.27429820  0.78029158  0.90103336  1
  O  O30  1  0.72432134  0.59481831  0.97409107  1
  O  O31  1  0.72556728  0.96967250  0.84865146  1
