# generated using pymatgen
data_La2Fe2O5
_symmetry_space_group_name_H-M   'P 1'
_cell_length_a   7.54805742
_cell_length_b   4.07424250
_cell_length_c   4.13094776
_cell_angle_alpha   89.48298279
_cell_angle_beta   91.00952489
_cell_angle_gamma   85.93540143
_symmetry_Int_Tables_number   1
_chemical_formula_structural   La2Fe2O5
_chemical_formula_sum   'La2 Fe2 O5'
_cell_volume   126.69153317
_cell_formula_units_Z   1
loop_
 _symmetry_equiv_pos_site_id
 _symmetry_equiv_pos_as_xyz
  1  'x, y, z'
loop_
 _atom_site_type_symbol
 _atom_site_label
 _atom_site_symmetry_multiplicity
 _atom_site_fract_x
 _atom_site_fract_y
 _atom_site_fract_z
 _atom_site_occupancy
  La  La0  1  0.99676563  0.00088525  0.00493793  1
  La  La1  1  0.49956249  0.86844655  0.99095717  1
  Fe  Fe2  1  0.23626981  0.47204292  0.50728344  1
  Fe  Fe3  1  0.76970597  0.50543312  0.49511365  1
  O  O4  1  0.22497742  0.50181946  0.00343541  1
  O  O5  1  0.78657651  0.53657409  0.99654516  1
  O  O6  1  0.49850976  0.59929020  0.49451749  1
  O  O7  1  0.18770504  0.00649470  0.51333664  1
  O  O8  1  0.79992637  0.00900270  0.49386411  1
