# generated using pymatgen
data_Na3FeSiBO7
_symmetry_space_group_name_H-M   'P 1'
_cell_length_a   8.97514951
_cell_length_b   6.70342615
_cell_length_c   5.27498961
_cell_angle_alpha   90.00000000
_cell_angle_beta   88.16011856
_cell_angle_gamma   90.00000000
_symmetry_Int_Tables_number   1
_chemical_formula_structural   Na3FeSiBO7
_chemical_formula_sum   'Na6 Fe2 Si2 B2 O14'
_cell_volume   317.20218714
_cell_formula_units_Z   2
loop_
 _symmetry_equiv_pos_site_id
 _symmetry_equiv_pos_as_xyz
  1  'x, y, z'
loop_
 _atom_site_type_symbol
 _atom_site_label
 _atom_site_symmetry_multiplicity
 _atom_site_fract_x
 _atom_site_fract_y
 _atom_site_fract_z
 _atom_site_occupancy
  Na  Na0  1  0.08707124  0.25000000  0.76632949  1
  Na  Na1  1  0.26710967  0.00793225  0.25622413  1
  Na  Na2  1  0.26710967  0.49206775  0.25622413  1
  Na  Na3  1  0.73289033  0.50793225  0.74377587  1
  Na  Na4  1  0.73289033  0.99206775  0.74377587  1
  Na  Na5  1  0.91292876  0.75000000  0.23367051  1
  Fe  Fe6  1  0.34395912  0.75000000  0.78373450  1
  Fe  Fe7  1  0.65604088  0.25000000  0.21626550  1
  Si  Si8  1  0.42103170  0.25000000  0.72185663  1
  Si  Si9  1  0.57896830  0.75000000  0.27814337  1
  B  B10  1  0.06684749  0.75000000  0.73019489  1
  B  B11  1  0.93315251  0.25000000  0.26980511  1
  O  O12  1  0.08122091  0.25000000  0.30072927  1
  O  O13  1  0.13197863  0.75000000  0.96486728  1
  O  O14  1  0.17205496  0.75000000  0.53021364  1
  O  O15  1  0.31495671  0.05469258  0.78010950  1
  O  O16  1  0.31495671  0.44530742  0.78010950  1
  O  O17  1  0.47184805  0.25000000  0.41564053  1
  O  O18  1  0.42644089  0.75000000  0.11571022  1
  O  O19  1  0.57355911  0.25000000  0.88428978  1
  O  O20  1  0.52815195  0.75000000  0.58435947  1
  O  O21  1  0.68504329  0.55469258  0.21989050  1
  O  O22  1  0.68504329  0.94530742  0.21989050  1
  O  O23  1  0.82794504  0.25000000  0.46978636  1
  O  O24  1  0.86802137  0.25000000  0.03513272  1
  O  O25  1  0.91877909  0.75000000  0.69927073  1
