# generated using pymatgen
data_Li4Ni3SnO8
_symmetry_space_group_name_H-M   'P 1'
_cell_length_a   10.33973461
_cell_length_b   10.35034335
_cell_length_c   14.65289649
_cell_angle_alpha   19.42691236
_cell_angle_beta   19.43160090
_cell_angle_gamma   33.43344681
_symmetry_Int_Tables_number   1
_chemical_formula_structural   Li4Ni3SnO8
_chemical_formula_sum   'Li4 Ni3 Sn1 O8'
_cell_volume   150.72347812
_cell_formula_units_Z   1
loop_
 _symmetry_equiv_pos_site_id
 _symmetry_equiv_pos_as_xyz
  1  'x, y, z'
loop_
 _atom_site_type_symbol
 _atom_site_label
 _atom_site_symmetry_multiplicity
 _atom_site_fract_x
 _atom_site_fract_y
 _atom_site_fract_z
 _atom_site_occupancy
  Li  Li0  1  0.99995071  0.99994180  0.50006608  1
  Li  Li1  1  0.99993454  0.49992542  0.50008779  1
  Li  Li2  1  0.49993109  0.99992925  0.50008807  1
  Li  Li3  1  0.49997830  0.49997195  0.50002979  1
  Ni  Ni4  1  0.00021328  0.50015160  -0.00024254  1
  Ni  Ni5  1  0.50010230  0.00018293  -0.00019897  1
  Ni  Ni6  1  0.49985524  0.49987531  0.00016836  1
  Sn  Sn7  1  0.00033276  0.00034005  -0.00042563  1
  O  O8  1  0.99225068  0.99417039  0.27402313  1
  O  O9  1  0.00746302  0.50489024  0.24475928  1
  O  O10  1  0.50406701  0.00149507  0.24867608  1
  O  O11  1  0.00758145  0.00566139  0.72621582  1
  O  O12  1  0.50237979  0.50307323  0.25140421  1
  O  O13  1  0.99244976  0.49510638  0.75531222  1
  O  O14  1  0.49593100  0.99841157  0.75139590  1
  O  O15  1  0.49758008  0.49687444  0.74864040  1
