# generated using pymatgen
data_Li24Ti5Cr7O36
_symmetry_space_group_name_H-M   'P 1'
_cell_length_a   5.05810241
_cell_length_b   13.39389767
_cell_length_c   9.80127182
_cell_angle_alpha   97.51536256
_cell_angle_beta   94.77712982
_cell_angle_gamma   101.13156885
_symmetry_Int_Tables_number   1
_chemical_formula_structural   Li24Ti5Cr7O36
_chemical_formula_sum   'Li24 Ti5 Cr7 O36'
_cell_volume   641.89172259
_cell_formula_units_Z   1
loop_
 _symmetry_equiv_pos_site_id
 _symmetry_equiv_pos_as_xyz
  1  'x, y, z'
loop_
 _atom_site_type_symbol
 _atom_site_label
 _atom_site_symmetry_multiplicity
 _atom_site_fract_x
 _atom_site_fract_y
 _atom_site_fract_z
 _atom_site_occupancy
  Li  Li0  1  0.82893681  0.16826238  0.00017115  1
  Li  Li1  1  0.95256457  0.38670922  0.00035528  1
  Li  Li2  1  0.00119862  0.75044457  0.24923790  1
  Li  Li3  1  0.66663930  0.08259175  0.25009845  1
  Li  Li4  1  0.94854896  0.88640114  0.49996269  1
  Li  Li5  1  0.62317257  0.21972175  0.49975051  1
  Li  Li6  1  0.82863932  0.66658853  0.50126948  1
  Li  Li7  1  0.49791751  0.00071629  0.49905885  1
  Li  Li8  1  0.71596205  0.44625746  0.49959583  1
  Li  Li9  1  0.66962481  0.58405912  0.75003993  1
  Li  Li10  1  0.49316898  0.50088496  0.00119283  1
  Li  Li11  1  0.71621905  0.94529850  0.00171062  1
  Li  Li12  1  0.38417737  0.27933419  0.00097316  1
  Li  Li13  1  0.62186196  0.72094498  0.00050594  1
  Li  Li14  1  0.28362877  0.05392525  0.99932508  1
  Li  Li15  1  0.33680934  0.41751208  0.24984420  1
  Li  Li16  1  0.28942322  0.55409605  0.50004412  1
  Li  Li17  1  0.16010461  0.33460421  0.49894079  1
  Li  Li18  1  0.38497530  0.77939471  0.50005473  1
  Li  Li19  1  0.04968250  0.11360134  0.49942705  1
  Li  Li20  1  0.33418503  0.91560063  0.74940898  1
  Li  Li21  1  0.16377171  0.83384968  0.99954213  1
  Li  Li22  1  0.00051366  0.24958593  0.75078207  1
  Li  Li23  1  0.04797375  0.61196977  0.99969803  1
  Ti  Ti24  1  0.88394754  0.02959070  0.74682374  1
  Ti  Ti25  1  0.88600589  0.52717102  0.24876177  1
  Ti  Ti26  1  0.55776598  0.36051783  0.75372464  1
  Ti  Ti27  1  0.22427762  0.19284589  0.25362716  1
  Ti  Ti28  1  0.22020789  0.69331314  0.75034111  1
  Cr  Cr29  1  0.78174817  0.30599725  0.24952324  1
  Cr  Cr30  1  0.78098616  0.80698280  0.75052751  1
  Cr  Cr31  1  0.43979607  0.13772107  0.74951390  1
  Cr  Cr32  1  0.55043375  0.86378616  0.24805115  1
  Cr  Cr33  1  0.44782508  0.64144282  0.25199324  1
  Cr  Cr34  1  0.11560421  0.47231389  0.74893715  1
  Cr  Cr35  1  0.10470185  0.96923358  0.24866391  1
  O  O36  1  0.99939058  0.06874983  0.13674426  1
  O  O37  1  0.93123634  0.21334083  0.36658795  1
  O  O38  1  0.99800120  0.57175722  0.63547329  1
  O  O39  1  0.86081137  0.35809288  0.63785536  1
  O  O40  1  0.74078176  0.11852104  0.63255156  1
  O  O41  1  0.66331056  0.40530587  0.13543508  1
  O  O42  1  0.93274910  0.71399593  0.86697993  1
  O  O43  1  0.81390113  0.47744105  0.86238924  1
  O  O44  1  0.59037931  0.05028780  0.86447614  1
  O  O45  1  0.86295179  0.85823880  0.13809448  1
  O  O46  1  0.73131937  0.61971771  0.13538899  1
  O  O47  1  0.52735259  0.19061503  0.13821964  1
  O  O48  1  0.66692691  0.26032341  0.86221064  1
  O  O49  1  0.80328090  0.97256876  0.36253281  1
  O  O50  1  0.59986854  0.54793834  0.36728181  1
  O  O51  1  0.48133610  0.31066306  0.36234852  1
  O  O52  1  0.66533866  0.76053570  0.36021444  1
  O  O53  1  0.33235681  0.09352061  0.36247050  1
  O  O54  1  0.66260677  0.90507060  0.63562161  1
  O  O55  1  0.33344072  0.23527220  0.63762046  1
  O  O56  1  0.52742857  0.69112129  0.63836611  1
  O  O57  1  0.39768239  0.45194238  0.63548493  1
  O  O58  1  0.19708157  0.02454593  0.63763645  1
  O  O59  1  0.33671629  0.74074829  0.13764252  1
  O  O60  1  0.48274546  0.81130394  0.86220311  1
  O  O61  1  0.26385526  0.38091505  0.86560729  1
  O  O62  1  0.14008929  0.14329997  0.86428269  1
  O  O63  1  0.40687394  0.95030532  0.13459130  1
  O  O64  1  0.19403690  0.52517257  0.13858307  1
  O  O65  1  0.06253705  0.28563360  0.13585244  1
  O  O66  1  0.33213511  0.59268843  0.86249475  1
  O  O67  1  0.25825789  0.88417394  0.36321425  1
  O  O68  1  0.14892818  0.64485180  0.36266596  1
  O  O69  1  0.99932879  0.42552453  0.36202573  1
  O  O70  1  0.06321564  0.78624981  0.63525016  1
  O  O71  1  0.99874916  0.92629583  0.86212920  1
