# generated using pymatgen
data_Li5Fe2Ni3O10
_symmetry_space_group_name_H-M   'P 1'
_cell_length_a   5.09981246
_cell_length_b   5.08320061
_cell_length_c   7.77588498
_cell_angle_alpha   109.80192549
_cell_angle_beta   102.95496536
_cell_angle_gamma   98.73771367
_symmetry_Int_Tables_number   1
_chemical_formula_structural   Li5Fe2Ni3O10
_chemical_formula_sum   'Li5 Fe2 Ni3 O10'
_cell_volume   179.03235650
_cell_formula_units_Z   1
loop_
 _symmetry_equiv_pos_site_id
 _symmetry_equiv_pos_as_xyz
  1  'x, y, z'
loop_
 _atom_site_type_symbol
 _atom_site_label
 _atom_site_symmetry_multiplicity
 _atom_site_fract_x
 _atom_site_fract_y
 _atom_site_fract_z
 _atom_site_occupancy
  Li  Li0  1  0.21268903  0.91192885  0.40848527  1
  Li  Li1  1  0.39956743  0.29216739  0.79119011  1
  Li  Li2  1  0.50000000  0.50000000  0.50000000  1
  Li  Li3  1  0.60043257  0.70783261  0.20880989  1
  Li  Li4  1  0.78731097  0.08807115  0.59151473  1
  Fe  Fe5  1  0.10100528  0.69848971  0.69246407  1
  Fe  Fe6  1  0.89899472  0.30151029  0.30753593  1
  Ni  Ni7  1  0.00000000  0.50000000  0.00000000  1
  Ni  Ni8  1  0.69793917  0.89782011  0.89884400  1
  Ni  Ni9  1  0.30206083  0.10217989  0.10115600  1
  O  O10  1  0.06097682  0.09809224  0.86492016  1
  O  O11  1  0.33913814  0.72189370  0.95550679  1
  O  O12  1  0.13253101  0.30864548  0.55101409  1
  O  O13  1  0.23534850  0.46583671  0.23716457  1
  O  O14  1  0.45549908  0.89416417  0.66959977  1
  O  O15  1  0.54450092  0.10583583  0.33040023  1
  O  O16  1  0.76465150  0.53416329  0.76283543  1
  O  O17  1  0.86746899  0.69135452  0.44898591  1
  O  O18  1  0.66086186  0.27810630  0.04449321  1
  O  O19  1  0.93902318  0.90190776  0.13507984  1
