# generated using pymatgen
data_Li5Cu2Ni5O12
_symmetry_space_group_name_H-M   'P 1'
_cell_length_a   5.04423076
_cell_length_b   5.04423005
_cell_length_c   9.63413145
_cell_angle_alpha   86.17171656
_cell_angle_beta   93.82828573
_cell_angle_gamma   62.61747637
_symmetry_Int_Tables_number   1
_chemical_formula_structural   Li5Cu2Ni5O12
_chemical_formula_sum   'Li5 Cu2 Ni5 O12'
_cell_volume   215.86344748
_cell_formula_units_Z   1
loop_
 _symmetry_equiv_pos_site_id
 _symmetry_equiv_pos_as_xyz
  1  'x, y, z'
loop_
 _atom_site_type_symbol
 _atom_site_label
 _atom_site_symmetry_multiplicity
 _atom_site_fract_x
 _atom_site_fract_y
 _atom_site_fract_z
 _atom_site_occupancy
  Li  Li0  1  0.16272446  0.65259562  0.50595920  1
  Li  Li1  1  0.33874252  0.84063962  0.99580669  1
  Li  Li2  1  0.65259562  0.16272446  0.99404080  1
  Li  Li3  1  0.84063962  0.33874252  0.50419331  1
  Li  Li4  1  0.91968784  0.91968784  0.75000000  1
  Cu  Cu5  1  0.26032975  0.26032975  0.75000000  1
  Cu  Cu6  1  0.74354414  0.74354414  0.25000000  1
  Ni  Ni7  1  0.08134623  0.08134623  0.25000000  1
  Ni  Ni8  1  0.99852277  0.49804154  0.99716581  1
  Ni  Ni9  1  0.49804154  0.99852277  0.50283419  1
  Ni  Ni10  1  0.40816309  0.40816309  0.25000000  1
  Ni  Ni11  1  0.58996659  0.58996659  0.75000000  1
  O  O12  1  0.98547475  0.22803914  0.86419439  1
  O  O13  1  0.22803914  0.98547475  0.63580561  1
  O  O14  1  0.16894228  0.32304238  0.39113006  1
  O  O15  1  0.32304238  0.16894228  0.10886994  1
  O  O16  1  0.31843593  0.52289326  0.86318697  1
  O  O17  1  0.52289326  0.31843593  0.63681303  1
  O  O18  1  0.46317585  0.71599863  0.36079152  1
  O  O19  1  0.71599863  0.46317585  0.13920848  1
  O  O20  1  0.67140867  0.81545229  0.88188739  1
  O  O21  1  0.81545229  0.67140867  0.61811261  1
  O  O22  1  0.77455058  0.01828108  0.36591171  1
  O  O23  1  0.01828108  0.77455058  0.13408829  1
