# generated using pymatgen
data_Te(WO4)3
_symmetry_space_group_name_H-M   'P 1'
_cell_length_a   5.38404059
_cell_length_b   10.76154218
_cell_length_c   9.39110230
_cell_angle_alpha   29.21614378
_cell_angle_beta   53.15726689
_cell_angle_gamma   58.43911988
_symmetry_Int_Tables_number   1
_chemical_formula_structural   Te(WO4)3
_chemical_formula_sum   'Te1 W3 O12'
_cell_volume   212.54824765
_cell_formula_units_Z   1
loop_
 _symmetry_equiv_pos_site_id
 _symmetry_equiv_pos_as_xyz
  1  'x, y, z'
loop_
 _atom_site_type_symbol
 _atom_site_label
 _atom_site_symmetry_multiplicity
 _atom_site_fract_x
 _atom_site_fract_y
 _atom_site_fract_z
 _atom_site_occupancy
  Te  Te0  1  0.99795551  0.50036701  0.99918129  1
  W  W1  1  0.50910786  0.99786547  0.49077602  1
  W  W2  1  0.48002699  0.50182409  0.49786099  1
  W  W3  1  0.99116096  0.99992676  0.98853592  1
  O  O4  1  0.33682491  0.29285669  0.15837509  1
  O  O5  1  0.24825471  0.08203306  0.66315073  1
  O  O6  1  0.16182185  0.29065033  0.74766922  1
  O  O7  1  0.83807020  0.20888623  0.24260032  1
  O  O8  1  0.32694528  0.79256863  0.16444973  1
  O  O9  1  0.74661204  0.40843866  0.33978173  1
  O  O10  1  0.24655351  0.59092442  0.65836052  1
  O  O11  1  0.66218025  0.20911093  0.82885284  1
  O  O12  1  0.16097030  0.79188089  0.75244693  1
  O  O13  1  0.82649454  0.70792421  0.24877549  1
  O  O14  1  0.75100382  0.91759505  0.32789325  1
  O  O15  1  0.66121727  0.70714657  0.83648891  1
