# generated using pymatgen
data_Li5Co7O16
_symmetry_space_group_name_H-M   'P 1'
_cell_length_a   8.07553090
_cell_length_b   8.13808336
_cell_length_c   8.15291820
_cell_angle_alpha   90.02231116
_cell_angle_beta   90.00294875
_cell_angle_gamma   89.63692967
_symmetry_Int_Tables_number   1
_chemical_formula_structural   Li5Co7O16
_chemical_formula_sum   'Li10 Co14 O32'
_cell_volume   535.79363438
_cell_formula_units_Z   2
loop_
 _symmetry_equiv_pos_site_id
 _symmetry_equiv_pos_as_xyz
  1  'x, y, z'
loop_
 _atom_site_type_symbol
 _atom_site_label
 _atom_site_symmetry_multiplicity
 _atom_site_fract_x
 _atom_site_fract_y
 _atom_site_fract_z
 _atom_site_occupancy
  Li  Li0  1  0.00026394  0.49983469  0.49678927  1
  Li  Li1  1  0.12226785  0.86768620  0.37664349  1
  Li  Li2  1  0.24943906  0.74534136  0.74863842  1
  Li  Li3  1  0.25034176  0.25449316  0.24863570  1
  Li  Li4  1  0.37744472  0.13299880  0.87717579  1
  Li  Li5  1  0.49958556  0.49994325  0.99655384  1
  Li  Li6  1  0.62680337  0.62041582  0.62549288  1
  Li  Li7  1  0.75304125  0.74335309  0.25195581  1
  Li  Li8  1  0.74712976  0.25653199  0.75188339  1
  Li  Li9  1  0.87308618  0.37956923  0.12552653  1
  Co  Co10  1  0.12743776  0.62105442  0.12011568  1
  Co  Co11  1  0.12164541  0.38135197  0.87366803  1
  Co  Co12  1  0.11904450  0.12417823  0.62112726  1
  Co  Co13  1  0.38087783  0.87591013  0.12088425  1
  Co  Co14  1  0.37839319  0.61865626  0.37355304  1
  Co  Co15  1  0.37272929  0.37886129  0.61996784  1
  Co  Co16  1  0.49184239  0.99719129  0.50136765  1
  Co  Co17  1  0.62405418  0.88034926  0.88164121  1
  Co  Co18  1  0.62635576  0.12115883  0.12841035  1
  Co  Co19  1  0.62196993  0.36866274  0.37324345  1
  Co  Co20  1  0.87812986  0.63153872  0.87300014  1
  Co  Co21  1  0.87369790  0.87897996  0.62820684  1
  Co  Co22  1  0.87594016  0.11984566  0.38179735  1
  Co  Co23  1  0.00814659  0.00302268  0.00138832  1
  O  O24  1  0.10425932  0.90330969  0.63049887  1
  O  O25  1  0.10082302  0.13198741  0.39789055  1
  O  O26  1  0.11234495  0.61254373  0.88371260  1
  O  O27  1  0.13328263  0.39882441  0.09823740  1
  O  O28  1  0.11946585  0.14304214  0.86197846  1
  O  O29  1  0.13778230  0.35684198  0.63857202  1
  O  O30  1  0.14213071  0.86397259  0.11965349  1
  O  O31  1  0.14584303  0.62177028  0.35058916  1
  O  O32  1  0.35442690  0.37802510  0.85080437  1
  O  O33  1  0.35784722  0.13614173  0.61990095  1
  O  O34  1  0.36227228  0.64324219  0.13836720  1
  O  O35  1  0.38044251  0.85704702  0.36160751  1
  O  O36  1  0.36644008  0.60097152  0.59814150  1
  O  O37  1  0.38777831  0.38733492  0.38364871  1
  O  O38  1  0.39913887  0.86794715  0.89758333  1
  O  O39  1  0.39561802  0.09665053  0.13032626  1
  O  O40  1  0.60436461  0.59849678  0.36967248  1
  O  O41  1  0.59577999  0.37047750  0.60384747  1
  O  O42  1  0.61489263  0.88678511  0.11287206  1
  O  O43  1  0.62867849  0.10314799  0.89944500  1
  O  O44  1  0.61728955  0.34323899  0.14467263  1
  O  O45  1  0.63631407  0.12913479  0.36644702  1
  O  O46  1  0.65440510  0.64878784  0.87892719  1
  O  O47  1  0.63933805  0.88426880  0.64458776  1
  O  O48  1  0.86053863  0.11605054  0.14455835  1
  O  O49  1  0.84572322  0.35112724  0.37896684  1
  O  O50  1  0.86374937  0.87070919  0.86646527  1
  O  O51  1  0.88247749  0.65645902  0.64467944  1
  O  O52  1  0.87142113  0.89682435  0.39938786  1
  O  O53  1  0.88510336  0.11320721  0.61291891  1
  O  O54  1  0.90444250  0.62951524  0.10386437  1
  O  O55  1  0.89591858  0.40122997  0.86954844  1
