# generated using pymatgen
data_Li4TiCrO6
_symmetry_space_group_name_H-M   'P 1'
_cell_length_a   5.09227995
_cell_length_b   5.04449144
_cell_length_c   19.62065184
_cell_angle_alpha   85.75421674
_cell_angle_beta   95.62111951
_cell_angle_gamma   59.83371779
_symmetry_Int_Tables_number   1
_chemical_formula_structural   Li4TiCrO6
_chemical_formula_sum   'Li16 Ti4 Cr4 O24'
_cell_volume   429.18815099
_cell_formula_units_Z   4
loop_
 _symmetry_equiv_pos_site_id
 _symmetry_equiv_pos_as_xyz
  1  'x, y, z'
loop_
 _atom_site_type_symbol
 _atom_site_label
 _atom_site_symmetry_multiplicity
 _atom_site_fract_x
 _atom_site_fract_y
 _atom_site_fract_z
 _atom_site_occupancy
  Li  Li0  1  0.00000000  0.50000000  0.50000000  1
  Li  Li1  1  0.25181504  0.24667654  0.87503240  1
  Li  Li2  1  0.15991750  0.65968049  0.74960372  1
  Li  Li3  1  0.00000000  0.50000000  0.00000000  1
  Li  Li4  1  0.24818067  0.25292408  0.37497371  1
  Li  Li5  1  0.50113524  0.00667275  0.75004541  1
  Li  Li6  1  0.15939566  0.66546244  0.24942586  1
  Li  Li7  1  0.49886476  0.99332725  0.24995459  1
  Li  Li8  1  0.33143636  0.84916516  0.99991269  1
  Li  Li9  1  0.65579167  0.16894883  0.49966525  1
  Li  Li10  1  0.34420833  0.83105117  0.50033475  1
  Li  Li11  1  0.66856364  0.15083484  0.00008731  1
  Li  Li12  1  0.84060434  0.33453756  0.75057414  1
  Li  Li13  1  0.75181933  0.74707592  0.62502629  1
  Li  Li14  1  0.84008250  0.34031951  0.25039628  1
  Li  Li15  1  0.74818496  0.75332346  0.12496760  1
  Ti  Ti16  1  0.08055604  0.08740377  0.62472048  1
  Ti  Ti17  1  0.42076146  0.41151750  0.12521470  1
  Ti  Ti18  1  0.57923854  0.58848250  0.87478530  1
  Ti  Ti19  1  0.91944396  0.91259623  0.37527952  1
  Cr  Cr20  1  0.08041632  0.08708623  0.12487110  1
  Cr  Cr21  1  0.41946766  0.41341629  0.62524649  1
  Cr  Cr22  1  0.58053234  0.58658371  0.37475351  1
  Cr  Cr23  1  0.91958368  0.91291377  0.87512890  1
  O  O24  1  0.14297664  0.35553979  0.68317815  1
  O  O25  1  0.35669013  0.14960120  0.56782052  1
  O  O26  1  0.14314697  0.34993097  0.18223220  1
  O  O27  1  0.27865882  0.57585981  0.93110804  1
  O  O28  1  0.07234955  0.78178235  0.56876215  1
  O  O29  1  0.35707281  0.14504212  0.06675778  1
  O  O30  1  0.21430765  0.93107661  0.81767984  1
  O  O31  1  0.28532803  0.56810705  0.43178958  1
  O  O32  1  0.06762334  0.79163265  0.06907108  1
  O  O33  1  0.57222624  0.28130598  0.81906326  1
  O  O34  1  0.43228355  0.70800084  0.68123372  1
  O  O35  1  0.22123973  0.92528649  0.31911683  1
  O  O36  1  0.77876027  0.07471351  0.68088317  1
  O  O37  1  0.56771645  0.29199916  0.31876628  1
  O  O38  1  0.42777376  0.71869402  0.18093674  1
  O  O39  1  0.93237666  0.20836735  0.93092892  1
  O  O40  1  0.71467197  0.43189295  0.56821042  1
  O  O41  1  0.78569235  0.06892339  0.18232016  1
  O  O42  1  0.64292719  0.85495788  0.93324222  1
  O  O43  1  0.92765045  0.21821765  0.43123785  1
  O  O44  1  0.72134118  0.42414019  0.06889196  1
  O  O45  1  0.85685303  0.65006903  0.81776780  1
  O  O46  1  0.64330987  0.85039880  0.43217948  1
  O  O47  1  0.85702336  0.64446021  0.31682185  1
