# generated using pymatgen
data_Li6FeS4
_symmetry_space_group_name_H-M   'P 1'
_cell_length_a   8.04344553
_cell_length_b   8.11080312
_cell_length_c   6.28647525
_cell_angle_alpha   89.63740283
_cell_angle_beta   90.36893134
_cell_angle_gamma   119.74595148
_symmetry_Int_Tables_number   1
_chemical_formula_structural   Li6FeS4
_chemical_formula_sum   'Li12 Fe2 S8'
_cell_volume   356.07221724
_cell_formula_units_Z   2
loop_
 _symmetry_equiv_pos_site_id
 _symmetry_equiv_pos_as_xyz
  1  'x, y, z'
loop_
 _atom_site_type_symbol
 _atom_site_label
 _atom_site_symmetry_multiplicity
 _atom_site_fract_x
 _atom_site_fract_y
 _atom_site_fract_z
 _atom_site_occupancy
  Li  Li0  1  0.15106064  0.84734728  0.52627284  1
  Li  Li1  1  0.07822918  0.54203005  0.88669242  1
  Li  Li2  1  0.46064811  0.92161830  0.87609938  1
  Li  Li3  1  0.14829320  0.29654807  0.52827779  1
  Li  Li4  1  0.46377832  0.54180619  0.88739433  1
  Li  Li5  1  0.30382984  0.15270309  0.02613243  1
  Li  Li6  1  0.69678044  0.84764639  0.52644692  1
  Li  Li7  1  0.53704951  0.45747141  0.38846926  1
  Li  Li8  1  0.85139805  0.70292438  0.02778218  1
  Li  Li9  1  0.53999503  0.07965618  0.37699968  1
  Li  Li10  1  0.92036951  0.45725103  0.38757400  1
  Li  Li11  1  0.84855116  0.15297472  0.02545575  1
  Fe  Fe12  1  0.33310653  0.66583285  0.25301492  1
  Fe  Fe13  1  0.66710972  0.33411829  0.75316995  1
  S  S14  1  0.18168652  0.82597872  0.13334337  1
  S  S15  1  0.33070808  0.66055659  0.61934798  1
  S  S16  1  0.17803499  0.35663889  0.13626587  1
  S  S17  1  0.64426601  0.82630876  0.13353921  1
  S  S18  1  0.35597443  0.17384231  0.63353887  1
  S  S19  1  0.82165732  0.64313960  0.63607612  1
  S  S20  1  0.66964347  0.33973125  0.11906483  1
  S  S21  1  0.81792894  0.17417166  0.63364188  1
