# generated using pymatgen
data_Na3MnPCO7
_symmetry_space_group_name_H-M   'P 1'
_cell_length_a   9.09796293
_cell_length_b   5.33014408
_cell_length_c   6.70510983
_cell_angle_alpha   90.00000000
_cell_angle_beta   90.00000000
_cell_angle_gamma   90.51786946
_symmetry_Int_Tables_number   1
_chemical_formula_structural   Na3MnPCO7
_chemical_formula_sum   'Na6 Mn2 P2 C2 O14'
_cell_volume   325.14064829
_cell_formula_units_Z   2
loop_
 _symmetry_equiv_pos_site_id
 _symmetry_equiv_pos_as_xyz
  1  'x, y, z'
loop_
 _atom_site_type_symbol
 _atom_site_label
 _atom_site_symmetry_multiplicity
 _atom_site_fract_x
 _atom_site_fract_y
 _atom_site_fract_z
 _atom_site_occupancy
  Na  Na0  1  0.00539228  0.99936462  0.48854631  1
  Na  Na1  1  0.16741671  0.46049634  0.18650365  1
  Na  Na2  1  0.48664634  0.49871677  0.48454029  1
  Na  Na3  1  0.51335366  0.50128323  0.98454029  1
  Na  Na4  1  0.83258329  0.53950366  0.68650365  1
  Na  Na5  1  0.99460772  0.00063538  0.98854631  1
  Mn  Mn6  1  0.29642093  0.00851252  0.74645955  1
  Mn  Mn7  1  0.70357907  0.99148748  0.24645955  1
  P  P8  1  0.34363772  0.97987773  0.24069041  1
  P  P9  1  0.65636228  0.02012227  0.74069041  1
  C  C10  1  0.14630907  0.48778742  0.74090189  1
  C  C11  1  0.85369093  0.51221258  0.24090189  1
  O  O12  1  0.04577313  0.31233467  0.73997226  1
  O  O13  1  0.10583334  0.72342965  0.75079349  1
  O  O14  1  0.24835054  0.07369526  0.06051575  1
  O  O15  1  0.25353607  0.03749920  0.43273725  1
  O  O16  1  0.28424922  0.43184867  0.73604210  1
  O  O17  1  0.37346281  0.69757017  0.22080216  1
  O  O18  1  0.49061038  0.13424795  0.24609589  1
  O  O19  1  0.50938962  0.86575205  0.74609589  1
  O  O20  1  0.62653719  0.30242983  0.72080216  1
  O  O21  1  0.71575078  0.56815133  0.23604210  1
  O  O22  1  0.74646393  0.96250080  0.93273725  1
  O  O23  1  0.75164946  0.92630474  0.56051575  1
  O  O24  1  0.89416666  0.27657035  0.25079349  1
  O  O25  1  0.95422687  0.68766533  0.23997226  1
