# generated using pymatgen
data_Li7Cr5O12
_symmetry_space_group_name_H-M   'P 1'
_cell_length_a   5.07741774
_cell_length_b   5.09347869
_cell_length_c   9.78683348
_cell_angle_alpha   84.98760711
_cell_angle_beta   100.09583714
_cell_angle_gamma   119.89574557
_symmetry_Int_Tables_number   1
_chemical_formula_structural   Li7Cr5O12
_chemical_formula_sum   'Li7 Cr5 O12'
_cell_volume   216.02710569
_cell_formula_units_Z   1
loop_
 _symmetry_equiv_pos_site_id
 _symmetry_equiv_pos_as_xyz
  1  'x, y, z'
loop_
 _atom_site_type_symbol
 _atom_site_label
 _atom_site_symmetry_multiplicity
 _atom_site_fract_x
 _atom_site_fract_y
 _atom_site_fract_z
 _atom_site_occupancy
  Li  Li0  1  0.99537288  0.50299102  0.00372648  1
  Li  Li1  1  0.33831996  0.17213081  0.00408375  1
  Li  Li2  1  0.15551739  0.82402042  0.49608477  1
  Li  Li3  1  0.50761815  0.50299102  0.49627352  1
  Li  Li4  1  0.83381185  0.17213081  0.49591625  1
  Li  Li5  1  0.66850403  0.82402042  0.00391523  1
  Li  Li6  1  0.75056289  0.50112477  0.25000000  1
  Cr  Cr7  1  0.08649849  0.17299798  0.25000000  1
  Cr  Cr8  1  0.25118134  0.50236168  0.75000000  1
  Cr  Cr9  1  0.58428752  0.16857604  0.75000000  1
  Cr  Cr10  1  0.41718537  0.83437173  0.25000000  1
  Cr  Cr11  1  0.91800219  0.83600337  0.75000000  1
  O  O12  1  0.21291160  0.16898901  0.63679861  1
  O  O13  1  0.42025724  0.13472074  0.36175583  1
  O  O14  1  0.14750893  0.49930039  0.36202711  1
  O  O15  1  0.71446350  0.13472074  0.13824417  1
  O  O16  1  0.95607741  0.16898901  0.86320139  1
  O  O17  1  0.35179146  0.49930039  0.13797289  1
  O  O18  1  0.62324106  0.50167197  0.86565665  1
  O  O19  1  0.06881254  0.85319538  0.13780101  1
  O  O20  1  0.28911888  0.83526148  0.86324193  1
  O  O21  1  0.87843190  0.50167197  0.63434335  1
  O  O22  1  0.54614260  0.83526148  0.63675807  1
  O  O23  1  0.78438284  0.85319538  0.36219899  1
