# generated using pymatgen
data_Li2Mg3Ti6O16
_symmetry_space_group_name_H-M   'P 1'
_cell_length_a   8.47021172
_cell_length_b   8.47210548
_cell_length_c   8.47538746
_cell_angle_alpha   90.00000000
_cell_angle_beta   90.00000000
_cell_angle_gamma   89.63307869
_symmetry_Int_Tables_number   1
_chemical_formula_structural   Li2Mg3Ti6O16
_chemical_formula_sum   'Li4 Mg6 Ti12 O32'
_cell_volume   608.18580057
_cell_formula_units_Z   2
loop_
 _symmetry_equiv_pos_site_id
 _symmetry_equiv_pos_as_xyz
  1  'x, y, z'
loop_
 _atom_site_type_symbol
 _atom_site_label
 _atom_site_symmetry_multiplicity
 _atom_site_fract_x
 _atom_site_fract_y
 _atom_site_fract_z
 _atom_site_occupancy
  Li  Li0  1  0.50315914  0.00225495  0.49550867  1
  Li  Li1  1  0.62413117  0.62565813  0.62437686  1
  Li  Li2  1  0.87586883  0.37434187  0.12437686  1
  Li  Li3  1  0.99684086  0.99774505  0.99550867  1
  Mg  Mg4  1  0.00295523  0.49564694  0.50163851  1
  Mg  Mg5  1  0.24757229  0.74700535  0.75555314  1
  Mg  Mg6  1  0.25242771  0.25299465  0.25555314  1
  Mg  Mg7  1  0.49704477  0.50435306  0.00163851  1
  Mg  Mg8  1  0.74458266  0.75390749  0.24814342  1
  Mg  Mg9  1  0.75541734  0.24609251  0.74814342  1
  Ti  Ti10  1  0.11910202  0.63394213  0.13317282  1
  Ti  Ti11  1  0.12655816  0.35997883  0.88419645  1
  Ti  Ti12  1  0.13753523  0.11284670  0.62659708  1
  Ti  Ti13  1  0.36246477  0.88715330  0.12659708  1
  Ti  Ti14  1  0.37344184  0.64002117  0.38419645  1
  Ti  Ti15  1  0.38089798  0.36605787  0.63317282  1
  Ti  Ti16  1  0.61543886  0.88216995  0.86320215  1
  Ti  Ti17  1  0.62456087  0.12859382  0.11958761  1
  Ti  Ti18  1  0.63064408  0.37652719  0.37516003  1
  Ti  Ti19  1  0.86935592  0.62347281  0.87516003  1
  Ti  Ti20  1  0.87543913  0.87140618  0.61958761  1
  Ti  Ti21  1  0.88456114  0.11783005  0.36320215  1
  O  O22  1  0.10271302  0.14171201  0.39379920  1
  O  O23  1  0.10952031  0.61285885  0.88944749  1
  O  O24  1  0.10799141  0.89344685  0.63851469  1
  O  O25  1  0.11167658  0.14618083  0.85474381  1
  O  O26  1  0.12974611  0.38810322  0.10561799  1
  O  O27  1  0.14152243  0.61085934  0.35399556  1
  O  O28  1  0.13931980  0.36381103  0.63869024  1
  O  O29  1  0.14483031  0.85712682  0.11196265  1
  O  O30  1  0.35516969  0.14287318  0.61196265  1
  O  O31  1  0.36068020  0.63618897  0.13869024  1
  O  O32  1  0.35847757  0.38914066  0.85399556  1
  O  O33  1  0.37025389  0.61189678  0.60561799  1
  O  O34  1  0.38832342  0.85381917  0.35474381  1
  O  O35  1  0.39200859  0.10655315  0.13851469  1
  O  O36  1  0.39047969  0.38714115  0.38944749  1
  O  O37  1  0.39728698  0.85828799  0.89379920  1
  O  O38  1  0.60779879  0.37236483  0.61231272  1
  O  O39  1  0.61284553  0.89046185  0.11135407  1
  O  O40  1  0.61031985  0.60470012  0.37003655  1
  O  O41  1  0.62048427  0.35700022  0.13773268  1
  O  O42  1  0.63846649  0.10911757  0.89539622  1
  O  O43  1  0.64057118  0.87779271  0.64486789  1
  O  O44  1  0.63982609  0.14224128  0.36020771  1
  O  O45  1  0.64507057  0.63784737  0.87918579  1
  O  O46  1  0.85492943  0.36215263  0.37918579  1
  O  O47  1  0.86017391  0.85775872  0.86020771  1
  O  O48  1  0.85942882  0.12220729  0.14486789  1
  O  O49  1  0.86153351  0.89088343  0.39539622  1
  O  O50  1  0.87951573  0.64299978  0.63773268  1
  O  O51  1  0.88968015  0.39529988  0.87003655  1
  O  O52  1  0.88715447  0.10953815  0.61135407  1
  O  O53  1  0.89220121  0.62763517  0.11231272  1
