# generated using pymatgen
data_Li2AlFeO4
_symmetry_space_group_name_H-M   'P 1'
_cell_length_a   6.43021032
_cell_length_b   5.47084956
_cell_length_c   5.03826055
_cell_angle_alpha   90.02048874
_cell_angle_beta   90.04324778
_cell_angle_gamma   90.00508368
_symmetry_Int_Tables_number   1
_chemical_formula_structural   Li2AlFeO4
_chemical_formula_sum   'Li4 Al2 Fe2 O8'
_cell_volume   177.23946096
_cell_formula_units_Z   2
loop_
 _symmetry_equiv_pos_site_id
 _symmetry_equiv_pos_as_xyz
  1  'x, y, z'
loop_
 _atom_site_type_symbol
 _atom_site_label
 _atom_site_symmetry_multiplicity
 _atom_site_fract_x
 _atom_site_fract_y
 _atom_site_fract_z
 _atom_site_occupancy
  Li  Li0  1  0.25057849  0.32936768  0.49680453  1
  Li  Li1  1  0.49771571  0.16618144  0.99760420  1
  Li  Li2  1  0.75056412  0.67125846  0.99826487  1
  Li  Li3  1  0.99786446  0.83442394  0.49891735  1
  Al  Al4  1  0.99982164  0.16936606  0.00403726  1
  Al  Al5  1  0.49985472  0.83120996  0.50418212  1
  Fe  Fe6  1  0.24703324  0.66914347  0.00148650  1
  Fe  Fe7  1  0.74700271  0.33131135  0.50163313  1
  O  O8  1  0.00976015  0.85789986  0.90074254  1
  O  O9  1  0.22574752  0.33435200  0.89872674  1
  O  O10  1  0.27079568  0.68436719  0.38034529  1
  O  O11  1  0.48895632  0.81953094  0.85859315  1
  O  O12  1  0.50985964  0.14251173  0.39992019  1
  O  O13  1  0.72593939  0.66619241  0.39984025  1
  O  O14  1  0.77067237  0.31616729  0.88048458  1
  O  O15  1  0.98895084  0.18122322  0.35855430  1
