# generated using pymatgen
data_Mn3Cu(PO4)4
_symmetry_space_group_name_H-M   'P 1'
_cell_length_a   4.90491359
_cell_length_b   9.82965361
_cell_length_c   6.00918686
_cell_angle_alpha   90.00000000
_cell_angle_beta   90.00000000
_cell_angle_gamma   90.78920913
_symmetry_Int_Tables_number   1
_chemical_formula_structural   Mn3Cu(PO4)4
_chemical_formula_sum   'Mn3 Cu1 P4 O16'
_cell_volume   289.69705631
_cell_formula_units_Z   1
loop_
 _symmetry_equiv_pos_site_id
 _symmetry_equiv_pos_as_xyz
  1  'x, y, z'
loop_
 _atom_site_type_symbol
 _atom_site_label
 _atom_site_symmetry_multiplicity
 _atom_site_fract_x
 _atom_site_fract_y
 _atom_site_fract_z
 _atom_site_occupancy
  Mn  Mn0  1  0.43525753  0.21445781  0.75000000  1
  Mn  Mn1  1  0.55822107  0.78593750  0.25000000  1
  Mn  Mn2  1  0.93389947  0.28316595  0.25000000  1
  Cu  Cu3  1  0.09324273  0.71002496  0.75000000  1
  P  P4  1  0.07988781  0.60064847  0.25000000  1
  P  P5  1  0.41234589  0.09849353  0.25000000  1
  P  P6  1  0.57936763  0.89895466  0.75000000  1
  P  P7  1  0.92319716  0.40070579  0.75000000  1
  O  O8  1  0.14529378  0.44822459  0.25000000  1
  O  O9  1  0.23249951  0.67332400  0.05217882  1
  O  O10  1  0.23249951  0.67332400  0.44782118  1
  O  O11  1  0.23309506  0.37988559  0.75000000  1
  O  O12  1  0.26417376  0.88195018  0.75000000  1
  O  O13  1  0.27197465  0.17078154  0.04989079  1
  O  O14  1  0.27197465  0.17078154  0.45010921  1
  O  O15  1  0.34164199  0.94579717  0.25000000  1
  O  O16  1  0.64554503  0.05298929  0.75000000  1
  O  O17  1  0.71568086  0.83005714  0.54684839  1
  O  O18  1  0.71568086  0.83005714  0.95315161  1
  O  O19  1  0.72469175  0.11672177  0.25000000  1
  O  O20  1  0.77192413  0.62162639  0.25000000  1
  O  O21  1  0.77481354  0.32873992  0.55077729  1
  O  O22  1  0.77481354  0.32873992  0.94922271  1
  O  O23  1  0.86827810  0.55461114  0.75000000  1
