# generated using pymatgen
data_Ti3MnCr(PO4)6
_symmetry_space_group_name_H-M   'P 1'
_cell_length_a   8.62865415
_cell_length_b   8.62865444
_cell_length_c   8.62865426
_cell_angle_alpha   60.21527864
_cell_angle_beta   60.21528084
_cell_angle_gamma   60.21528050
_symmetry_Int_Tables_number   1
_chemical_formula_structural   Ti3MnCr(PO4)6
_chemical_formula_sum   'Ti3 Mn1 Cr1 P6 O24'
_cell_volume   456.48439320
_cell_formula_units_Z   1
loop_
 _symmetry_equiv_pos_site_id
 _symmetry_equiv_pos_as_xyz
  1  'x, y, z'
loop_
 _atom_site_type_symbol
 _atom_site_label
 _atom_site_symmetry_multiplicity
 _atom_site_fract_x
 _atom_site_fract_y
 _atom_site_fract_z
 _atom_site_occupancy
  Ti  Ti0  1  0.13497863  0.13497863  0.13497863  1
  Ti  Ti1  1  0.35373209  0.35373209  0.35373209  1
  Ti  Ti2  1  0.86458190  0.86458190  0.86458190  1
  Mn  Mn3  1  0.50016550  0.50016550  0.50016550  1
  Cr  Cr4  1  0.64436217  0.64436217  0.64436217  1
  P  P5  1  0.04019023  0.74733112  0.46750078  1
  P  P6  1  0.53504209  0.95606730  0.25277053  1
  P  P7  1  0.25277053  0.53504209  0.95606730  1
  P  P8  1  0.74733112  0.46750078  0.04019023  1
  P  P9  1  0.46750078  0.04019023  0.74733112  1
  P  P10  1  0.95606730  0.25277053  0.53504209  1
  O  O11  1  0.06321327  0.91160612  0.27765112  1
  O  O12  1  0.00028543  0.80029348  0.63182301  1
  O  O13  1  0.08884897  0.72373338  0.93866077  1
  O  O14  1  0.49762429  0.88202206  0.69072831  1
  O  O15  1  0.23460227  0.58109951  0.44817067  1
  O  O16  1  0.55414787  0.76376506  0.41984131  1
  O  O17  1  0.72373338  0.93866077  0.08884897  1
  O  O18  1  0.99760142  0.20094913  0.36977876  1
  O  O19  1  0.31119259  0.49601647  0.11962138  1
  O  O20  1  0.20094913  0.36977876  0.99760142  1
  O  O21  1  0.11962138  0.31119259  0.49601647  1
  O  O22  1  0.41984131  0.55414787  0.76376506  1
  O  O23  1  0.58109951  0.44817067  0.23460227  1
  O  O24  1  0.88202206  0.69072831  0.49762429  1
  O  O25  1  0.80029348  0.63182301  0.00028543  1
  O  O26  1  0.69072831  0.49762429  0.88202206  1
  O  O27  1  0.27765112  0.06321327  0.91160612  1
  O  O28  1  0.44817067  0.23460227  0.58109951  1
  O  O29  1  0.76376506  0.41984131  0.55414787  1
  O  O30  1  0.49601647  0.11962138  0.31119259  1
  O  O31  1  0.36977876  0.99760142  0.20094913  1
  O  O32  1  0.63182301  0.00028543  0.80029348  1
  O  O33  1  0.91160612  0.27765112  0.06321327  1
  O  O34  1  0.93866077  0.08884897  0.72373338  1
