# generated using pymatgen
data_Ba2SrI6
_symmetry_space_group_name_H-M   'P 1'
_cell_length_a   8.58513748
_cell_length_b   8.31457643
_cell_length_c   25.24408104
_cell_angle_alpha   90.00000000
_cell_angle_beta   93.47932704
_cell_angle_gamma   90.00000000
_symmetry_Int_Tables_number   1
_chemical_formula_structural   Ba2SrI6
_chemical_formula_sum   'Ba8 Sr4 I24'
_cell_volume   1798.64602487
_cell_formula_units_Z   4
loop_
 _symmetry_equiv_pos_site_id
 _symmetry_equiv_pos_as_xyz
  1  'x, y, z'
loop_
 _atom_site_type_symbol
 _atom_site_label
 _atom_site_symmetry_multiplicity
 _atom_site_fract_x
 _atom_site_fract_y
 _atom_site_fract_z
 _atom_site_occupancy
  Ba  Ba0  1  0.23103459  0.55171181  0.73964130  1
  Ba  Ba1  1  0.33148484  0.97881755  0.90828557  1
  Ba  Ba2  1  0.23103459  0.94828819  0.23964130  1
  Ba  Ba3  1  0.33148484  0.52118245  0.40828557  1
  Ba  Ba4  1  0.66851516  0.47881755  0.59171443  1
  Ba  Ba5  1  0.76896541  0.05171181  0.76035870  1
  Ba  Ba6  1  0.66851516  0.02118245  0.09171443  1
  Ba  Ba7  1  0.76896541  0.44828819  0.26035870  1
  Sr  Sr8  1  0.15782640  0.03454627  0.58969934  1
  Sr  Sr9  1  0.15782640  0.46545373  0.08969934  1
  Sr  Sr10  1  0.84217360  0.53454627  0.91030066  1
  Sr  Sr11  1  0.84217360  0.96545373  0.41030066  1
  I  I12  1  0.02898320  0.78832060  0.82789483  1
  I  I13  1  0.07649963  0.28647796  0.83934117  1
  I  I14  1  0.13531956  0.69910555  0.98462564  1
  I  I15  1  0.02898320  0.71167940  0.32789483  1
  I  I16  1  0.07649963  0.21352204  0.33934117  1
  I  I17  1  0.13531956  0.80089445  0.48462564  1
  I  I18  1  0.36102638  0.28843733  0.52098302  1
  I  I19  1  0.41188658  0.76192286  0.64226228  1
  I  I20  1  0.46133976  0.24631669  0.68478119  1
  I  I21  1  0.53866024  0.74631669  0.81521881  1
  I  I22  1  0.36102638  0.21156267  0.02098302  1
  I  I23  1  0.58811342  0.26192286  0.85773772  1
  I  I24  1  0.41188658  0.73807714  0.14226228  1
  I  I25  1  0.63897362  0.78843733  0.97901698  1
  I  I26  1  0.46133976  0.25368331  0.18478119  1
  I  I27  1  0.53866024  0.75368331  0.31521881  1
  I  I28  1  0.58811342  0.23807714  0.35773772  1
  I  I29  1  0.63897362  0.71156267  0.47901698  1
  I  I30  1  0.86468044  0.19910555  0.51537436  1
  I  I31  1  0.92350037  0.78647796  0.66065883  1
  I  I32  1  0.97101680  0.28832060  0.67210517  1
  I  I33  1  0.86468044  0.30089445  0.01537436  1
  I  I34  1  0.92350037  0.71352204  0.16065883  1
  I  I35  1  0.97101680  0.21167940  0.17210517  1
