# generated using pymatgen
data_Li4Fe3CoO8
_symmetry_space_group_name_H-M   'P 1'
_cell_length_a   10.33037226
_cell_length_b   10.33014890
_cell_length_c   14.63319746
_cell_angle_alpha   19.20576709
_cell_angle_beta   19.20577041
_cell_angle_gamma   33.10322147
_symmetry_Int_Tables_number   1
_chemical_formula_structural   Li4Fe3CoO8
_chemical_formula_sum   'Li4 Fe3 Co1 O8'
_cell_volume   146.35736043
_cell_formula_units_Z   1
loop_
 _symmetry_equiv_pos_site_id
 _symmetry_equiv_pos_as_xyz
  1  'x, y, z'
loop_
 _atom_site_type_symbol
 _atom_site_label
 _atom_site_symmetry_multiplicity
 _atom_site_fract_x
 _atom_site_fract_y
 _atom_site_fract_z
 _atom_site_occupancy
  Li  Li0  1  0.99999963  0.00000043  0.49999938  1
  Li  Li1  1  0.99999968  0.50000042  0.49999938  1
  Li  Li2  1  0.50000062  0.00000028  0.49999945  1
  Li  Li3  1  0.50000064  0.50000038  0.49999936  1
  Fe  Fe4  1  0.99999712  0.49999765  0.00000369  1
  Fe  Fe5  1  0.49999949  0.00000174  0.99999867  1
  Fe  Fe6  1  0.49999525  0.49999823  0.00000461  1
  Co  Co7  1  0.00000034  0.00000029  0.99999962  1
  O  O8  1  0.00010065  0.00008829  0.25637713  1
  O  O9  1  0.00003140  0.51423878  0.24860134  1
  O  O10  1  0.51426284  0.00002005  0.24859383  1
  O  O11  1  0.99990146  0.99991235  0.74362120  1
  O  O12  1  0.48558065  0.48556224  0.27736639  1
  O  O13  1  0.99997224  0.48576278  0.75139477  1
  O  O14  1  0.48573625  0.99998126  0.75140645  1
  O  O15  1  0.51442074  0.51443583  0.72263374  1
