# generated using pymatgen
data_Li5Ni7O12
_symmetry_space_group_name_H-M   'P 1'
_cell_length_a   5.03649261
_cell_length_b   5.03649261
_cell_length_c   9.61046932
_cell_angle_alpha   84.97680710
_cell_angle_beta   95.02319545
_cell_angle_gamma   60.01161153
_symmetry_Int_Tables_number   1
_chemical_formula_structural   Li5Ni7O12
_chemical_formula_sum   'Li5 Ni7 O12'
_cell_volume   207.88420608
_cell_formula_units_Z   1
loop_
 _symmetry_equiv_pos_site_id
 _symmetry_equiv_pos_as_xyz
  1  'x, y, z'
loop_
 _atom_site_type_symbol
 _atom_site_label
 _atom_site_symmetry_multiplicity
 _atom_site_fract_x
 _atom_site_fract_y
 _atom_site_fract_z
 _atom_site_occupancy
  Li  Li0  1  0.15917399  0.66117689  0.50143838  1
  Li  Li1  1  0.33818105  0.83654048  0.99930296  1
  Li  Li2  1  0.66117689  0.15917399  0.99856162  1
  Li  Li3  1  0.83654048  0.33818105  0.50069704  1
  Li  Li4  1  0.91562730  0.91562730  0.75000000  1
  Ni  Ni5  1  0.08347644  0.08347644  0.25000000  1
  Ni  Ni6  1  0.99989943  0.50338156  0.99775615  1
  Ni  Ni7  1  0.25447365  0.25447365  0.75000000  1
  Ni  Ni8  1  0.50338156  0.99989943  0.50224385  1
  Ni  Ni9  1  0.41554120  0.41554120  0.25000000  1
  Ni  Ni10  1  0.58206253  0.58206253  0.75000000  1
  Ni  Ni11  1  0.74829134  0.74829134  0.25000000  1
  O  O12  1  0.98077434  0.22747585  0.86803169  1
  O  O13  1  0.22747585  0.98077434  0.63196831  1
  O  O14  1  0.14080135  0.35798239  0.37928964  1
  O  O15  1  0.35798239  0.14080135  0.12071036  1
  O  O16  1  0.30614326  0.52100772  0.86308578  1
  O  O17  1  0.52100772  0.30614326  0.63691422  1
  O  O18  1  0.47637915  0.71285301  0.36572642  1
  O  O19  1  0.71285301  0.47637915  0.13427358  1
  O  O20  1  0.63254303  0.84499963  0.87078197  1
  O  O21  1  0.84499963  0.63254303  0.62921803  1
  O  O22  1  0.78401955  0.01719585  0.37004837  1
  O  O23  1  0.01719585  0.78401955  0.12995163  1
