# generated using pymatgen
data_BaSr2I6
_symmetry_space_group_name_H-M   'P 1'
_cell_length_a   7.62737900
_cell_length_b   28.29832800
_cell_length_c   8.56908400
_cell_angle_alpha   90.00000000
_cell_angle_beta   90.00000000
_cell_angle_gamma   90.00000000
_symmetry_Int_Tables_number   1
_chemical_formula_structural   BaSr2I6
_chemical_formula_sum   'Ba4 Sr8 I24'
_cell_volume   1849.56885189
_cell_formula_units_Z   4
loop_
 _symmetry_equiv_pos_site_id
 _symmetry_equiv_pos_as_xyz
  1  'x, y, z'
loop_
 _atom_site_type_symbol
 _atom_site_label
 _atom_site_symmetry_multiplicity
 _atom_site_fract_x
 _atom_site_fract_y
 _atom_site_fract_z
 _atom_site_occupancy
  Ba  Ba0  1  0.00000000  0.38100900  0.25000000  1
  Ba  Ba1  1  0.00000000  0.61899100  0.75000000  1
  Ba  Ba2  1  0.50000000  0.88100900  0.25000000  1
  Ba  Ba3  1  0.50000000  0.11899100  0.75000000  1
  Sr  Sr4  1  0.00000000  0.04731800  0.25000000  1
  Sr  Sr5  1  0.00000000  0.28530300  0.75000000  1
  Sr  Sr6  1  0.00000000  0.71469700  0.25000000  1
  Sr  Sr7  1  0.00000000  0.95268200  0.75000000  1
  Sr  Sr8  1  0.50000000  0.21469700  0.25000000  1
  Sr  Sr9  1  0.50000000  0.54731800  0.25000000  1
  Sr  Sr10  1  0.50000000  0.78530300  0.75000000  1
  Sr  Sr11  1  0.50000000  0.45268200  0.75000000  1
  I  I12  1  0.23515900  0.03494500  0.57051900  1
  I  I13  1  0.23515900  0.96505500  0.07051900  1
  I  I14  1  0.24976800  0.20644800  0.56614300  1
  I  I15  1  0.24976800  0.79355200  0.06614300  1
  I  I16  1  0.24119400  0.37105300  0.59171700  1
  I  I17  1  0.24119400  0.62894700  0.09171700  1
  I  I18  1  0.25880600  0.87105300  0.59171700  1
  I  I19  1  0.25880600  0.12894700  0.09171700  1
  I  I20  1  0.25023200  0.29355200  0.06614300  1
  I  I21  1  0.25023200  0.70644800  0.56614300  1
  I  I22  1  0.26484100  0.46505500  0.07051900  1
  I  I23  1  0.26484100  0.53494500  0.57051900  1
  I  I24  1  0.73515900  0.46505500  0.42948100  1
  I  I25  1  0.73515900  0.53494500  0.92948100  1
  I  I26  1  0.74976800  0.29355200  0.43385700  1
  I  I27  1  0.74976800  0.70644800  0.93385700  1
  I  I28  1  0.74119400  0.12894700  0.40828300  1
  I  I29  1  0.74119400  0.87105300  0.90828300  1
  I  I30  1  0.75880600  0.37105300  0.90828300  1
  I  I31  1  0.75880600  0.62894700  0.40828300  1
  I  I32  1  0.75023200  0.79355200  0.43385700  1
  I  I33  1  0.75023200  0.20644800  0.93385700  1
  I  I34  1  0.76484100  0.03494500  0.92948100  1
  I  I35  1  0.76484100  0.96505500  0.42948100  1
