# generated using pymatgen
data_Rb3Sn4Au
_symmetry_space_group_name_H-M   'P 1'
_cell_length_a   7.32048512
_cell_length_b   14.81804558
_cell_length_c   6.68692874
_cell_angle_alpha   90.00000000
_cell_angle_beta   90.00000000
_cell_angle_gamma   90.00000000
_symmetry_Int_Tables_number   1
_chemical_formula_structural   Rb3Sn4Au
_chemical_formula_sum   'Rb6 Sn8 Au2'
_cell_volume   725.36648196
_cell_formula_units_Z   2
loop_
 _symmetry_equiv_pos_site_id
 _symmetry_equiv_pos_as_xyz
  1  'x, y, z'
loop_
 _atom_site_type_symbol
 _atom_site_label
 _atom_site_symmetry_multiplicity
 _atom_site_fract_x
 _atom_site_fract_y
 _atom_site_fract_z
 _atom_site_occupancy
  Rb  Rb0  1  0.25000000  0.25000000  0.51281560  1
  Rb  Rb1  1  0.25000000  0.44609658  0.93257427  1
  Rb  Rb2  1  0.25000000  0.05390342  0.93257427  1
  Rb  Rb3  1  0.75000000  0.94609658  0.06742573  1
  Rb  Rb4  1  0.75000000  0.55390342  0.06742573  1
  Rb  Rb5  1  0.75000000  0.75000000  0.48718440  1
  Sn  Sn6  1  0.03870124  0.75000000  0.93589863  1
  Sn  Sn7  1  0.25000000  0.64435442  0.62968997  1
  Sn  Sn8  1  0.25000000  0.85564558  0.62968997  1
  Sn  Sn9  1  0.46129876  0.75000000  0.93589863  1
  Sn  Sn10  1  0.53870124  0.25000000  0.06410137  1
  Sn  Sn11  1  0.75000000  0.14435442  0.37031003  1
  Sn  Sn12  1  0.75000000  0.35564558  0.37031003  1
  Sn  Sn13  1  0.96129876  0.25000000  0.06410137  1
  Au  Au14  1  0.25000000  0.75000000  0.28415580  1
  Au  Au15  1  0.75000000  0.25000000  0.71584420  1
