# generated using pymatgen
data_Mn3(P2O7)2
_symmetry_space_group_name_H-M   'P 1'
_cell_length_a   8.91395963
_cell_length_b   12.46576398
_cell_length_c   10.59680320
_cell_angle_alpha   90.00000000
_cell_angle_beta   90.00000000
_cell_angle_gamma   90.00000000
_symmetry_Int_Tables_number   1
_chemical_formula_structural   Mn3(P2O7)2
_chemical_formula_sum   'Mn12 P16 O56'
_cell_volume   1177.50953264
_cell_formula_units_Z   4
loop_
 _symmetry_equiv_pos_site_id
 _symmetry_equiv_pos_as_xyz
  1  'x, y, z'
loop_
 _atom_site_type_symbol
 _atom_site_label
 _atom_site_symmetry_multiplicity
 _atom_site_fract_x
 _atom_site_fract_y
 _atom_site_fract_z
 _atom_site_occupancy
  Mn  Mn0  1  0.23177677  0.75000000  0.61862147  1
  Mn  Mn1  1  0.24686548  0.01092915  0.12216478  1
  Mn  Mn2  1  0.24686548  0.48907085  0.12216478  1
  Mn  Mn3  1  0.25313452  0.51092915  0.62216478  1
  Mn  Mn4  1  0.25313452  0.98907085  0.62216478  1
  Mn  Mn5  1  0.26822323  0.25000000  0.11862147  1
  Mn  Mn6  1  0.73177677  0.75000000  0.88137853  1
  Mn  Mn7  1  0.74686548  0.01092915  0.37783522  1
  Mn  Mn8  1  0.74686548  0.48907085  0.37783522  1
  Mn  Mn9  1  0.75313452  0.51092915  0.87783522  1
  Mn  Mn10  1  0.75313452  0.98907085  0.87783522  1
  Mn  Mn11  1  0.76822323  0.25000000  0.38137853  1
  P  P12  1  0.06609410  0.62759633  0.36543294  1
  P  P13  1  0.06609410  0.87240367  0.36543294  1
  P  P14  1  0.08207331  0.63095146  0.87934441  1
  P  P15  1  0.08207331  0.86904854  0.87934441  1
  P  P16  1  0.41792669  0.36904854  0.37934441  1
  P  P17  1  0.41792669  0.13095146  0.37934441  1
  P  P18  1  0.43390590  0.12759633  0.86543294  1
  P  P19  1  0.43390590  0.37240367  0.86543294  1
  P  P20  1  0.56609410  0.87240367  0.13456706  1
  P  P21  1  0.56609410  0.62759633  0.13456706  1
  P  P22  1  0.58207331  0.86904854  0.62065559  1
  P  P23  1  0.58207331  0.63095146  0.62065559  1
  P  P24  1  0.91792669  0.13095146  0.12065559  1
  P  P25  1  0.91792669  0.36904854  0.12065559  1
  P  P26  1  0.93390590  0.12759633  0.63456706  1
  P  P27  1  0.93390590  0.37240367  0.63456706  1
  O  O28  1  0.03688717  0.75000000  0.32114760  1
  O  O29  1  0.08914496  0.41792573  0.60178637  1
  O  O30  1  0.08914496  0.08207427  0.60178637  1
  O  O31  1  0.09259572  0.12675940  0.12788030  1
  O  O32  1  0.09259572  0.37324060  0.12788030  1
  O  O33  1  0.11633241  0.75000000  0.93324248  1
  O  O34  1  0.14669221  0.55102152  0.96821367  1
  O  O35  1  0.14669221  0.94897848  0.96821367  1
  O  O36  1  0.14503156  0.57304752  0.25787589  1
  O  O37  1  0.14503156  0.92695248  0.25787589  1
  O  O38  1  0.14819325  0.62749174  0.74576054  1
  O  O39  1  0.14819325  0.87250826  0.74576054  1
  O  O40  1  0.15733428  0.63236708  0.48837146  1
  O  O41  1  0.15733428  0.86763292  0.48837146  1
  O  O42  1  0.34266572  0.13236708  0.98837146  1
  O  O43  1  0.34266572  0.36763292  0.98837146  1
  O  O44  1  0.35180675  0.12749174  0.24576054  1
  O  O45  1  0.35180675  0.37250826  0.24576054  1
  O  O46  1  0.35496844  0.07304752  0.75787589  1
  O  O47  1  0.35496844  0.42695248  0.75787589  1
  O  O48  1  0.35330779  0.05102152  0.46821367  1
  O  O49  1  0.35330779  0.44897848  0.46821367  1
  O  O50  1  0.38366759  0.25000000  0.43324248  1
  O  O51  1  0.40740428  0.62675940  0.62788030  1
  O  O52  1  0.40740428  0.87324060  0.62788030  1
  O  O53  1  0.41085504  0.58207427  0.10178637  1
  O  O54  1  0.41085504  0.91792573  0.10178637  1
  O  O55  1  0.46311283  0.25000000  0.82114760  1
  O  O56  1  0.53688717  0.75000000  0.17885240  1
  O  O57  1  0.58914496  0.08207427  0.89821363  1
  O  O58  1  0.58914496  0.41792573  0.89821363  1
  O  O59  1  0.59259572  0.12675940  0.37211970  1
  O  O60  1  0.59259572  0.37324060  0.37211970  1
  O  O61  1  0.61633241  0.75000000  0.56675752  1
  O  O62  1  0.64669221  0.55102152  0.53178633  1
  O  O63  1  0.64669221  0.94897848  0.53178633  1
  O  O64  1  0.64503156  0.57304752  0.24212411  1
  O  O65  1  0.64503156  0.92695248  0.24212411  1
  O  O66  1  0.64819325  0.87250826  0.75423946  1
  O  O67  1  0.64819325  0.62749174  0.75423946  1
  O  O68  1  0.65733428  0.86763292  0.01162854  1
  O  O69  1  0.65733428  0.63236708  0.01162854  1
  O  O70  1  0.84266572  0.13236708  0.51162854  1
  O  O71  1  0.84266572  0.36763292  0.51162854  1
  O  O72  1  0.85180675  0.12749174  0.25423946  1
  O  O73  1  0.85180675  0.37250826  0.25423946  1
  O  O74  1  0.85496844  0.07304752  0.74212411  1
  O  O75  1  0.85496844  0.42695248  0.74212411  1
  O  O76  1  0.85330779  0.05102152  0.03178633  1
  O  O77  1  0.85330779  0.44897848  0.03178633  1
  O  O78  1  0.88366759  0.25000000  0.06675752  1
  O  O79  1  0.90740428  0.62675940  0.87211970  1
  O  O80  1  0.90740428  0.87324060  0.87211970  1
  O  O81  1  0.91085504  0.91792573  0.39821363  1
  O  O82  1  0.91085504  0.58207427  0.39821363  1
  O  O83  1  0.96311283  0.25000000  0.67885240  1
