# generated using pymatgen
data_Li3Fe(PO4)2
_symmetry_space_group_name_H-M   'P 1'
_cell_length_a   10.16454940
_cell_length_b   5.94378169
_cell_length_c   4.74339135
_cell_angle_alpha   90.00000000
_cell_angle_beta   90.36396977
_cell_angle_gamma   90.00000000
_symmetry_Int_Tables_number   1
_chemical_formula_structural   Li3Fe(PO4)2
_chemical_formula_sum   'Li6 Fe2 P4 O16'
_cell_volume   286.57029796
_cell_formula_units_Z   2
loop_
 _symmetry_equiv_pos_site_id
 _symmetry_equiv_pos_as_xyz
  1  'x, y, z'
loop_
 _atom_site_type_symbol
 _atom_site_label
 _atom_site_symmetry_multiplicity
 _atom_site_fract_x
 _atom_site_fract_y
 _atom_site_fract_z
 _atom_site_occupancy
  Li  Li0  1  0.00000000  0.00000000  0.00000000  1
  Li  Li1  1  0.00000000  0.50000000  0.00000000  1
  Li  Li2  1  0.21939596  0.75000000  0.47539994  1
  Li  Li3  1  0.50000000  0.00000000  0.50000000  1
  Li  Li4  1  0.50000000  0.50000000  0.50000000  1
  Li  Li5  1  0.78060404  0.25000000  0.52460006  1
  Fe  Fe6  1  0.27882801  0.25000000  0.99175693  1
  Fe  Fe7  1  0.72117199  0.75000000  0.00824307  1
  P  P8  1  0.09748283  0.25000000  0.41177795  1
  P  P9  1  0.40613849  0.75000000  0.93025889  1
  P  P10  1  0.59386151  0.25000000  0.06974111  1
  P  P11  1  0.90251717  0.75000000  0.58822205  1
  O  O12  1  0.04488708  0.75000000  0.69533217  1
  O  O13  1  0.10923096  0.25000000  0.73821015  1
  O  O14  1  0.17176687  0.04706435  0.26985934  1
  O  O15  1  0.17176687  0.45293565  0.26985934  1
  O  O16  1  0.33665302  0.53870911  0.79900996  1
  O  O17  1  0.33665302  0.96129089  0.79900996  1
  O  O18  1  0.41021302  0.75000000  0.25110797  1
  O  O19  1  0.45189048  0.25000000  0.20499075  1
  O  O20  1  0.54810952  0.75000000  0.79500925  1
  O  O21  1  0.58978698  0.25000000  0.74889203  1
  O  O22  1  0.66334698  0.03870911  0.20099004  1
  O  O23  1  0.66334698  0.46129089  0.20099004  1
  O  O24  1  0.82823313  0.54706435  0.73014066  1
  O  O25  1  0.82823313  0.95293565  0.73014066  1
  O  O26  1  0.89076904  0.75000000  0.26178985  1
  O  O27  1  0.95511292  0.25000000  0.30466783  1
