# generated using pymatgen
data_KNb2PO8
_symmetry_space_group_name_H-M   'P 1'
_cell_length_a   8.52236327
_cell_length_b   8.52236397
_cell_length_c   8.52236393
_cell_angle_alpha   104.13103050
_cell_angle_beta   104.13102714
_cell_angle_gamma   104.13102869
_symmetry_Int_Tables_number   1
_chemical_formula_structural   KNb2PO8
_chemical_formula_sum   'K3 Nb6 P3 O24'
_cell_volume   550.89082323
_cell_formula_units_Z   3
loop_
 _symmetry_equiv_pos_site_id
 _symmetry_equiv_pos_as_xyz
  1  'x, y, z'
loop_
 _atom_site_type_symbol
 _atom_site_label
 _atom_site_symmetry_multiplicity
 _atom_site_fract_x
 _atom_site_fract_y
 _atom_site_fract_z
 _atom_site_occupancy
  K  K0  1  0.31096090  0.59552073  0.90865177  1
  K  K1  1  0.59552073  0.90865177  0.31096090  1
  K  K2  1  0.90865177  0.31096090  0.59552073  1
  Nb  Nb3  1  0.03618690  0.35320631  0.15949923  1
  Nb  Nb4  1  0.15949923  0.03618690  0.35320631  1
  Nb  Nb5  1  0.64976151  0.96656075  0.84184926  1
  Nb  Nb6  1  0.35320631  0.15949923  0.03618690  1
  Nb  Nb7  1  0.84184926  0.64976151  0.96656075  1
  Nb  Nb8  1  0.96656075  0.84184926  0.64976151  1
  P  P9  1  0.27552686  0.72351745  0.50029353  1
  P  P10  1  0.50029353  0.27552686  0.72351745  1
  P  P11  1  0.72351745  0.50029353  0.27552686  1
  O  O12  1  0.02417329  0.97440451  0.49918106  1
  O  O13  1  0.99988318  0.84655006  0.15321719  1
  O  O14  1  0.13234454  0.70769246  0.58412109  1
  O  O15  1  0.06300309  0.20623188  0.31532168  1
  O  O16  1  0.15321719  0.99988318  0.84655006  1
  O  O17  1  0.29179977  0.86716670  0.41705367  1
  O  O18  1  0.23383313  0.55290855  0.35791297  1
  O  O19  1  0.44614996  0.76434704  0.64216582  1
  O  O20  1  0.20623188  0.31532168  0.06300309  1
  O  O21  1  0.41705367  0.29179977  0.86716670  1
  O  O22  1  0.35791297  0.23383313  0.55290855  1
  O  O23  1  0.31532168  0.06300309  0.20623188  1
  O  O24  1  0.49918106  0.02417329  0.97440451  1
  O  O25  1  0.68285419  0.79294761  0.93658237  1
  O  O26  1  0.64216582  0.44614996  0.76434704  1
  O  O27  1  0.58412109  0.13234454  0.70769246  1
  O  O28  1  0.79294761  0.93658237  0.68285419  1
  O  O29  1  0.55290855  0.35791297  0.23383313  1
  O  O30  1  0.76434704  0.64216582  0.44614996  1
  O  O31  1  0.70769246  0.58412109  0.13234454  1
  O  O32  1  0.93658237  0.68285419  0.79294761  1
  O  O33  1  0.86716670  0.41705367  0.29179977  1
  O  O34  1  0.84655006  0.15321719  0.99988318  1
  O  O35  1  0.97440451  0.49918106  0.02417329  1
