# generated using pymatgen
data_Ba8LiNb7O24
_symmetry_space_group_name_H-M   'P 1'
_cell_length_a   5.92242296
_cell_length_b   5.92235283
_cell_length_c   19.22246625
_cell_angle_alpha   89.99367521
_cell_angle_beta   90.00137324
_cell_angle_gamma   119.99746400
_symmetry_Int_Tables_number   1
_chemical_formula_structural   Ba8LiNb7O24
_chemical_formula_sum   'Ba8 Li1 Nb7 O24'
_cell_volume   583.90814147
_cell_formula_units_Z   1
loop_
 _symmetry_equiv_pos_site_id
 _symmetry_equiv_pos_as_xyz
  1  'x, y, z'
loop_
 _atom_site_type_symbol
 _atom_site_label
 _atom_site_symmetry_multiplicity
 _atom_site_fract_x
 _atom_site_fract_y
 _atom_site_fract_z
 _atom_site_occupancy
  Ba  Ba0  1  0.33334919  0.66666204  0.13215332  1
  Ba  Ba1  1  0.33333192  0.66668383  0.75208201  1
  Ba  Ba2  1  0.99998598  0.99997870  0.99420799  1
  Ba  Ba3  1  0.33333944  0.66666400  0.36521970  1
  Ba  Ba4  1  0.00000132  0.00001395  0.50217667  1
  Ba  Ba5  1  0.66668961  0.33336705  0.24966558  1
  Ba  Ba6  1  0.66666553  0.33333478  0.85679742  1
  Ba  Ba7  1  0.66663036  0.33343292  0.63479942  1
  Li  Li8  1  0.99999209  0.00000751  0.83142738  1
  Nb  Nb9  1  0.33333598  0.66670239  0.56044345  1
  Nb  Nb10  1  0.00002186  0.00000385  0.18245981  1
  Nb  Nb11  1  0.00001769  0.00001433  0.31793156  1
  Nb  Nb12  1  0.00000003  0.00005097  0.69002138  1
  Nb  Nb13  1  0.33330420  0.66662601  0.93404214  1
  Nb  Nb14  1  0.66665090  0.33331535  0.05990067  1
  Nb  Nb15  1  0.66667667  0.33334359  0.43947902  1
  O  O16  1  0.16180331  0.83828709  0.24980881  1
  O  O17  1  0.99830455  0.49913714  0.00376162  1
  O  O18  1  0.00104205  0.50053293  0.49915226  1
  O  O19  1  0.16851073  0.83150976  0.62068408  1
  O  O20  1  0.17367737  0.82630580  0.88114005  1
  O  O21  1  0.16848448  0.33698092  0.62068452  1
  O  O22  1  0.17370045  0.34738397  0.88114069  1
  O  O23  1  0.16176432  0.32350724  0.24979945  1
  O  O24  1  0.31713945  0.15859645  0.74349780  1
  O  O25  1  0.66301972  0.83151759  0.62068159  1
  O  O26  1  0.65261164  0.82629627  0.88114653  1
  O  O27  1  0.50083675  0.49912942  0.00376195  1
  O  O28  1  0.49949013  0.50051979  0.49915357  1
  O  O29  1  0.33894280  0.16947456  0.12428682  1
  O  O30  1  0.33775486  0.16887088  0.37673715  1
  O  O31  1  0.67652903  0.83820944  0.24980613  1
  O  O32  1  0.83115423  0.66226545  0.37673332  1
  O  O33  1  0.50087392  0.00173359  0.00376610  1
  O  O34  1  0.49947573  0.99895579  0.49914689  1
  O  O35  1  0.83056286  0.66108410  0.12428354  1
  O  O36  1  0.84145527  0.68285284  0.74349918  1
  O  O37  1  0.83055186  0.16948623  0.12429430  1
  O  O38  1  0.83113737  0.16888921  0.37672960  1
  O  O39  1  0.84138936  0.15857027  0.74349452  1
