# generated using pymatgen
data_Na2LiFePCO7
_symmetry_space_group_name_H-M   'P 1'
_cell_length_a   8.82365331
_cell_length_b   6.80647525
_cell_length_c   10.22272557
_cell_angle_alpha   90.06068396
_cell_angle_beta   88.13501436
_cell_angle_gamma   89.60749232
_symmetry_Int_Tables_number   1
_chemical_formula_structural   Na2LiFePCO7
_chemical_formula_sum   'Na8 Li4 Fe4 P4 C4 O28'
_cell_volume   613.61610392
_cell_formula_units_Z   4
loop_
 _symmetry_equiv_pos_site_id
 _symmetry_equiv_pos_as_xyz
  1  'x, y, z'
loop_
 _atom_site_type_symbol
 _atom_site_label
 _atom_site_symmetry_multiplicity
 _atom_site_fract_x
 _atom_site_fract_y
 _atom_site_fract_z
 _atom_site_occupancy
  Na  Na0  1  0.08447520  0.24499226  0.88023625  1
  Na  Na1  1  0.26261450  0.00140100  0.62643321  1
  Na  Na2  1  0.26253302  0.49713483  0.62465399  1
  Na  Na3  1  0.26176419  0.00271583  0.12686352  1
  Na  Na4  1  0.26149740  0.49964684  0.12686532  1
  Na  Na5  1  0.74283298  0.50065145  0.87094699  1
  Na  Na6  1  0.73803484  0.50247538  0.37798369  1
  Na  Na7  1  0.73759368  0.99858472  0.37494698  1
  Li  Li8  1  0.08918601  0.24891197  0.37638079  1
  Li  Li9  1  0.71868168  0.96938982  0.88395647  1
  Li  Li10  1  0.90139654  0.76251606  0.62325904  1
  Li  Li11  1  0.90012976  0.75508795  0.12479756  1
  Fe  Fe12  1  0.35899959  0.74735891  0.88388692  1
  Fe  Fe13  1  0.35017013  0.75183708  0.39131098  1
  Fe  Fe14  1  0.65071172  0.24671811  0.61521846  1
  Fe  Fe15  1  0.65250554  0.24743662  0.10778626  1
  P  P16  1  0.41625146  0.24184049  0.85287694  1
  P  P17  1  0.40801912  0.25147451  0.35666956  1
  P  P18  1  0.59964652  0.75365380  0.64636112  1
  P  P19  1  0.59062823  0.74925083  0.14148542  1
  C  C20  1  0.04375571  0.75887539  0.86634963  1
  C  C21  1  0.04883582  0.75087092  0.35957195  1
  C  C22  1  0.95181433  0.25002584  0.62952569  1
  C  C23  1  0.94299731  0.25056756  0.14590074  1
  O  O24  1  0.09314683  0.25112787  0.65509665  1
  O  O25  1  0.08611123  0.25246454  0.16871375  1
  O  O26  1  0.07177422  0.75225682  0.99015393  1
  O  O27  1  0.08092139  0.75251555  0.48312123  1
  O  O28  1  0.15725381  0.74583843  0.77996856  1
  O  O29  1  0.16024200  0.75239415  0.27160332  1
  O  O30  1  0.31550074  0.06349187  0.89282380  1
  O  O31  1  0.32755950  0.42953769  0.89848907  1
  O  O32  1  0.30907672  0.06997121  0.39478623  1
  O  O33  1  0.30801405  0.43415319  0.39396733  1
  O  O34  1  0.43674489  0.24683105  0.70031430  1
  O  O35  1  0.44146767  0.74894839  0.58412547  1
  O  O36  1  0.44071843  0.25095269  0.20495927  1
  O  O37  1  0.43577538  0.75140034  0.07473856  1
  O  O38  1  0.57665565  0.22701754  0.91066302  1
  O  O39  1  0.57528024  0.76840801  0.79903777  1
  O  O40  1  0.56131773  0.25233166  0.42607153  1
  O  O41  1  0.56085877  0.75704833  0.29278672  1
  O  O42  1  0.69720846  0.56844503  0.61238386  1
  O  O43  1  0.69764715  0.93010690  0.59896584  1
  O  O44  1  0.68702228  0.56333886  0.10540091  1
  O  O45  1  0.69220026  0.92609357  0.09612550  1
  O  O46  1  0.84980276  0.24839763  0.72583047  1
  O  O47  1  0.84397579  0.24381185  0.24264690  1
  O  O48  1  0.90712439  0.24995538  0.50953040  1
  O  O49  1  0.89265702  0.25450393  0.02756718  1
  O  O50  1  0.90747445  0.77723713  0.82481858  1
  O  O51  1  0.91139190  0.74800424  0.32104037  1
