# generated using pymatgen
data_V3Fe(PO4)6
_symmetry_space_group_name_H-M   'P 1'
_cell_length_a   8.75347525
_cell_length_b   8.75347582
_cell_length_c   8.75347591
_cell_angle_alpha   58.40213569
_cell_angle_beta   58.40212612
_cell_angle_gamma   58.40212678
_symmetry_Int_Tables_number   1
_chemical_formula_structural   V3Fe(PO4)6
_chemical_formula_sum   'V3 Fe1 P6 O24'
_cell_volume   456.92566466
_cell_formula_units_Z   1
loop_
 _symmetry_equiv_pos_site_id
 _symmetry_equiv_pos_as_xyz
  1  'x, y, z'
loop_
 _atom_site_type_symbol
 _atom_site_label
 _atom_site_symmetry_multiplicity
 _atom_site_fract_x
 _atom_site_fract_y
 _atom_site_fract_z
 _atom_site_occupancy
  V  V0  1  0.13988601  0.13988601  0.13988601  1
  V  V1  1  0.35919048  0.35919048  0.35919048  1
  V  V2  1  0.63896411  0.63896411  0.63896411  1
  Fe  Fe3  1  0.85933129  0.85933129  0.85933129  1
  P  P4  1  0.03238781  0.74993264  0.46706423  1
  P  P5  1  0.46706423  0.03238781  0.74993264  1
  P  P6  1  0.74993264  0.46706423  0.03238781  1
  P  P7  1  0.25035801  0.53138028  0.96878863  1
  P  P8  1  0.53138028  0.96878863  0.25035801  1
  P  P9  1  0.96878863  0.25035801  0.53138028  1
  O  O10  1  0.13899579  0.29014604  0.49469700  1
  O  O11  1  0.29014604  0.49469700  0.13899579  1
  O  O12  1  0.06349734  0.92665435  0.28177865  1
  O  O13  1  0.49469700  0.13899579  0.29014604  1
  O  O14  1  0.21625279  0.57628649  0.42675824  1
  O  O15  1  0.01590144  0.77265296  0.63445398  1
  O  O16  1  0.28177865  0.06349734  0.92665435  1
  O  O17  1  0.42675824  0.21625279  0.57628649  1
  O  O18  1  0.57628649  0.42675824  0.21625279  1
  O  O19  1  0.22508189  0.35526984  0.99589643  1
  O  O20  1  0.08297816  0.71285452  0.94244434  1
  O  O21  1  0.35526984  0.99589643  0.22508189  1
  O  O22  1  0.63445398  0.01590144  0.77265296  1
  O  O23  1  0.92665435  0.28177865  0.06349734  1
  O  O24  1  0.77265296  0.63445398  0.01590144  1
  O  O25  1  0.43264760  0.55559300  0.78656633  1
  O  O26  1  0.55559300  0.78656633  0.43264760  1
  O  O27  1  0.71285452  0.94244434  0.08297816  1
  O  O28  1  0.99589643  0.22508189  0.35526984  1
  O  O29  1  0.78656633  0.43264760  0.55559300  1
  O  O30  1  0.49444724  0.85838693  0.72247513  1
  O  O31  1  0.94244434  0.08297816  0.71285452  1
  O  O32  1  0.72247513  0.49444724  0.85838693  1
  O  O33  1  0.85838693  0.72247513  0.49444724  1
