# generated using pymatgen
data_Li3Mn(FeO3)2
_symmetry_space_group_name_H-M   'P 1'
_cell_length_a   15.47352794
_cell_length_b   9.95272489
_cell_length_c   9.95272461
_cell_angle_alpha   17.52162065
_cell_angle_beta   16.75382805
_cell_angle_gamma   16.75383344
_symmetry_Int_Tables_number   1
_chemical_formula_structural   Li3Mn(FeO3)2
_chemical_formula_sum   'Li3 Mn1 Fe2 O6'
_cell_volume   114.26919754
_cell_formula_units_Z   1
loop_
 _symmetry_equiv_pos_site_id
 _symmetry_equiv_pos_as_xyz
  1  'x, y, z'
loop_
 _atom_site_type_symbol
 _atom_site_label
 _atom_site_symmetry_multiplicity
 _atom_site_fract_x
 _atom_site_fract_y
 _atom_site_fract_z
 _atom_site_occupancy
  Li  Li0  1  0.16666700  0.50000000  0.50000000  1
  Li  Li1  1  0.50876667  0.49477396  0.49477396  1
  Li  Li2  1  0.82456633  0.50522604  0.50522604  1
  Mn  Mn3  1  0.66666700  0.00000000  0.00000000  1
  Fe  Fe4  1  0.00046169  0.00168592  0.00168592  1
  Fe  Fe5  1  0.33287131  0.99831408  0.99831408  1
  O  O6  1  0.25705670  0.25191016  0.25191017  1
  O  O7  1  0.58455093  0.25460352  0.25460352  1
  O  O8  1  0.07627730  0.74808984  0.74808983  1
  O  O9  1  0.92147116  0.24992818  0.24992818  1
  O  O10  1  0.41186184  0.75007182  0.75007182  1
  O  O11  1  0.74878207  0.74539648  0.74539648  1
