# generated using pymatgen
data_Li5Nb2Cu5O12
_symmetry_space_group_name_H-M   'P 1'
_cell_length_a   5.19232925
_cell_length_b   5.19232972
_cell_length_c   9.87790888
_cell_angle_alpha   88.84441214
_cell_angle_beta   91.15558896
_cell_angle_gamma   65.74689508
_symmetry_Int_Tables_number   1
_chemical_formula_structural   Li5Nb2Cu5O12
_chemical_formula_sum   'Li5 Nb2 Cu5 O12'
_cell_volume   242.63889701
_cell_formula_units_Z   1
loop_
 _symmetry_equiv_pos_site_id
 _symmetry_equiv_pos_as_xyz
  1  'x, y, z'
loop_
 _atom_site_type_symbol
 _atom_site_label
 _atom_site_symmetry_multiplicity
 _atom_site_fract_x
 _atom_site_fract_y
 _atom_site_fract_z
 _atom_site_occupancy
  Li  Li0  1  0.15917059  0.68362797  0.50276636  1
  Li  Li1  1  0.31592454  0.84824548  0.99078809  1
  Li  Li2  1  0.68362797  0.15917059  0.99723364  1
  Li  Li3  1  0.84824548  0.31592454  0.50921191  1
  Li  Li4  1  0.91122446  0.91122446  0.75000000  1
  Nb  Nb5  1  0.24677757  0.24677757  0.75000000  1
  Nb  Nb6  1  0.74073506  0.74073506  0.25000000  1
  Cu  Cu7  1  0.07758373  0.07758373  0.25000000  1
  Cu  Cu8  1  0.99894938  0.51033338  0.99691103  1
  Cu  Cu9  1  0.51033338  0.99894938  0.50308897  1
  Cu  Cu10  1  0.41098391  0.41098391  0.25000000  1
  Cu  Cu11  1  0.58971591  0.58971591  0.75000000  1
  O  O12  1  0.99148218  0.20190233  0.88400632  1
  O  O13  1  0.20190233  0.99148218  0.61599368  1
  O  O14  1  0.07434217  0.41784712  0.35027474  1
  O  O15  1  0.41784712  0.07434217  0.14972526  1
  O  O16  1  0.30777424  0.53938191  0.86993045  1
  O  O17  1  0.53938191  0.30777424  0.63006955  1
  O  O18  1  0.47294327  0.68819408  0.37845603  1
  O  O19  1  0.68819408  0.47294327  0.12154397  1
  O  O20  1  0.57516550  0.92208451  0.85132726  1
  O  O21  1  0.92208451  0.57516550  0.64867274  1
  O  O22  1  0.80902569  0.00658300  0.38236900  1
  O  O23  1  0.00658300  0.80902569  0.11763100  1
