# generated using pymatgen
data_Na5LiMn2P2(CO7)2
_symmetry_space_group_name_H-M   'P 1'
_cell_length_a   8.98001470
_cell_length_b   6.81305466
_cell_length_c   10.35178570
_cell_angle_alpha   90.14909618
_cell_angle_beta   89.85514388
_cell_angle_gamma   89.70552684
_symmetry_Int_Tables_number   1
_chemical_formula_structural   Na5LiMn2P2(CO7)2
_chemical_formula_sum   'Na10 Li2 Mn4 P4 C4 O28'
_cell_volume   633.32347232
_cell_formula_units_Z   2
loop_
 _symmetry_equiv_pos_site_id
 _symmetry_equiv_pos_as_xyz
  1  'x, y, z'
loop_
 _atom_site_type_symbol
 _atom_site_label
 _atom_site_symmetry_multiplicity
 _atom_site_fract_x
 _atom_site_fract_y
 _atom_site_fract_z
 _atom_site_occupancy
  Na  Na0  1  0.08220281  0.24784495  0.87949045  1
  Na  Na1  1  0.08240807  0.25029276  0.38064561  1
  Na  Na2  1  0.25804560  0.00068155  0.62392901  1
  Na  Na3  1  0.25833959  0.49928688  0.62372518  1
  Na  Na4  1  0.25923814  0.00201461  0.12432072  1
  Na  Na5  1  0.25938935  0.49819639  0.12401028  1
  Na  Na6  1  0.74185721  0.50200343  0.87503940  1
  Na  Na7  1  0.74077532  0.50148858  0.37743752  1
  Na  Na8  1  0.74118486  0.99863909  0.37749313  1
  Na  Na9  1  0.91578109  0.75179411  0.11970889  1
  Li  Li10  1  0.73253243  0.99198723  0.87787342  1
  Li  Li11  1  0.91523475  0.75284573  0.62260481  1
  Mn  Mn12  1  0.36282361  0.74957858  0.88785034  1
  Mn  Mn13  1  0.36252153  0.75008710  0.38977208  1
  Mn  Mn14  1  0.64075067  0.24889621  0.61269200  1
  Mn  Mn15  1  0.63906587  0.24778842  0.10913203  1
  P  P16  1  0.41437284  0.24588462  0.85031177  1
  P  P17  1  0.41173277  0.24998193  0.35181246  1
  P  P18  1  0.59540854  0.75303169  0.64999082  1
  P  P19  1  0.58858279  0.74981130  0.14665094  1
  C  C20  1  0.05521480  0.75577284  0.86428739  1
  C  C21  1  0.05602300  0.75006316  0.37171443  1
  C  C22  1  0.93886468  0.24833896  0.63321142  1
  C  C23  1  0.93905752  0.24905105  0.13153337  1
  O  O24  1  0.08284779  0.25057768  0.64381665  1
  O  O25  1  0.08305397  0.25080516  0.14204859  1
  O  O26  1  0.11649945  0.75017451  0.97836568  1
  O  O27  1  0.10979392  0.75062763  0.48867976  1
  O  O28  1  0.14054687  0.74921952  0.76243587  1
  O  O29  1  0.14620660  0.75047286  0.27252978  1
  O  O30  1  0.31921405  0.06559899  0.89090893  1
  O  O31  1  0.32618050  0.43243175  0.89348716  1
  O  O32  1  0.31948514  0.06685332  0.39200968  1
  O  O33  1  0.31898460  0.43418682  0.39214208  1
  O  O34  1  0.42977430  0.24863222  0.70009955  1
  O  O35  1  0.43752157  0.75036834  0.58851622  1
  O  O36  1  0.43028361  0.24944350  0.20163190  1
  O  O37  1  0.43058800  0.74977640  0.08633059  1
  O  O38  1  0.57365480  0.23637804  0.90886692  1
  O  O39  1  0.57649627  0.76195911  0.80055068  1
  O  O40  1  0.56831569  0.25030195  0.41408201  1
  O  O41  1  0.57084828  0.75293752  0.29688661  1
  O  O42  1  0.68880698  0.56822605  0.61230334  1
  O  O43  1  0.68934292  0.93215810  0.60632319  1
  O  O44  1  0.68025386  0.56483841  0.10689138  1
  O  O45  1  0.68060036  0.93117707  0.10290255  1
  O  O46  1  0.85474791  0.24515937  0.73580717  1
  O  O47  1  0.85529392  0.24840664  0.23435727  1
  O  O48  1  0.87722747  0.24971717  0.51949986  1
  O  O49  1  0.87692099  0.24796406  0.01812209  1
  O  O50  1  0.91152160  0.76704874  0.85100148  1
  O  O51  1  0.91357674  0.74920191  0.35416754  1
