# generated using pymatgen
data_Na5LiMn2P2(CO7)2
_symmetry_space_group_name_H-M   'P 1'
_cell_length_a   8.96060734
_cell_length_b   13.62493298
_cell_length_c   5.16002037
_cell_angle_alpha   90.11956625
_cell_angle_beta   89.79964242
_cell_angle_gamma   89.76481743
_symmetry_Int_Tables_number   1
_chemical_formula_structural   Na5LiMn2P2(CO7)2
_chemical_formula_sum   'Na10 Li2 Mn4 P4 C4 O28'
_cell_volume   629.96433797
_cell_formula_units_Z   2
loop_
 _symmetry_equiv_pos_site_id
 _symmetry_equiv_pos_as_xyz
  1  'x, y, z'
loop_
 _atom_site_type_symbol
 _atom_site_label
 _atom_site_symmetry_multiplicity
 _atom_site_fract_x
 _atom_site_fract_y
 _atom_site_fract_z
 _atom_site_occupancy
  Na  Na0  1  0.08305899  0.12496222  0.76020930  1
  Na  Na1  1  0.08204978  0.62424706  0.76020396  1
  Na  Na2  1  0.25859180  0.00066289  0.24816515  1
  Na  Na3  1  0.25892201  0.24918721  0.24767663  1
  Na  Na4  1  0.25875423  0.50118574  0.24801388  1
  Na  Na5  1  0.25852360  0.74902108  0.24774444  1
  Na  Na6  1  0.74107355  0.25237546  0.75267238  1
  Na  Na7  1  0.74182396  0.74982706  0.75234499  1
  Na  Na8  1  0.74155640  0.99878615  0.75227559  1
  Na  Na9  1  0.91585033  0.37689014  0.23985442  1
  Li  Li10  1  0.73316192  0.49651143  0.75986904  1
  Li  Li11  1  0.91456566  0.87488563  0.24423930  1
  Mn  Mn12  1  0.36191260  0.37516912  0.77811594  1
  Mn  Mn13  1  0.36154838  0.87468529  0.77752549  1
  Mn  Mn14  1  0.63978545  0.12485759  0.22245700  1
  Mn  Mn15  1  0.64082138  0.62388265  0.22124717  1
  P  P16  1  0.41328153  0.62353096  0.70098425  1
  P  P17  1  0.41084994  0.12483384  0.70218625  1
  P  P18  1  0.59089910  0.37648040  0.29721504  1
  P  P19  1  0.59353038  0.87470913  0.29747119  1
  C  C20  1  0.05682192  0.37755114  0.73637539  1
  C  C21  1  0.05496714  0.87478023  0.73475990  1
  C  C22  1  0.93914137  0.62370311  0.26521637  1
  C  C23  1  0.94012326  0.12526874  0.26445438  1
  O  O24  1  0.08470709  0.12525040  0.28554534  1
  O  O25  1  0.08382232  0.62518944  0.28676829  1
  O  O26  1  0.10720467  0.87499319  0.97068776  1
  O  O27  1  0.12043310  0.37537733  0.96266917  1
  O  O28  1  0.14659625  0.87463898  0.53732210  1
  O  O29  1  0.14081013  0.37481809  0.52945752  1
  O  O30  1  0.31859126  0.03336914  0.78533320  1
  O  O31  1  0.31869831  0.21692922  0.78482625  1
  O  O32  1  0.31863865  0.53308401  0.78335651  1
  O  O33  1  0.32339978  0.71608229  0.78893187  1
  O  O34  1  0.42801440  0.12453759  0.40058905  1
  O  O35  1  0.42828209  0.62506483  0.39907723  1
  O  O36  1  0.43094765  0.37485140  0.18188789  1
  O  O37  1  0.43487019  0.87505461  0.17534235  1
  O  O38  1  0.56911570  0.12496582  0.82270954  1
  O  O39  1  0.57343099  0.61942524  0.81663735  1
  O  O40  1  0.57734494  0.38145419  0.60056329  1
  O  O41  1  0.57287797  0.87475957  0.59845487  1
  O  O42  1  0.68154971  0.28330449  0.21918404  1
  O  O43  1  0.68200098  0.46612896  0.20022962  1
  O  O44  1  0.68799236  0.78363480  0.21486919  1
  O  O45  1  0.68795937  0.96551235  0.21652941  1
  O  O46  1  0.85624014  0.12566408  0.47108168  1
  O  O47  1  0.85486460  0.62215145  0.47167871  1
  O  O48  1  0.87789962  0.12521525  0.03736320  1
  O  O49  1  0.87743568  0.62365148  0.03762013  1
  O  O50  1  0.91255352  0.87467616  0.69326218  1
  O  O51  1  0.91210486  0.38222134  0.71674381  1
