# generated using pymatgen
data_Na5LiMn2P2(CO7)2
_symmetry_space_group_name_H-M   'P 1'
_cell_length_a   8.96649428
_cell_length_b   6.81677414
_cell_length_c   10.33163375
_cell_angle_alpha   89.88888425
_cell_angle_beta   89.78104000
_cell_angle_gamma   90.29750426
_symmetry_Int_Tables_number   1
_chemical_formula_structural   Na5LiMn2P2(CO7)2
_chemical_formula_sum   'Na10 Li2 Mn4 P4 C4 O28'
_cell_volume   631.48163260
_cell_formula_units_Z   2
loop_
 _symmetry_equiv_pos_site_id
 _symmetry_equiv_pos_as_xyz
  1  'x, y, z'
loop_
 _atom_site_type_symbol
 _atom_site_label
 _atom_site_symmetry_multiplicity
 _atom_site_fract_x
 _atom_site_fract_y
 _atom_site_fract_z
 _atom_site_occupancy
  Na  Na0  1  0.08307221  0.25234925  0.87871188  1
  Na  Na1  1  0.08372500  0.25190600  0.38111901  1
  Na  Na2  1  0.25760617  0.00129028  0.62400406  1
  Na  Na3  1  0.25958156  0.00176741  0.12370432  1
  Na  Na4  1  0.25913101  0.49834233  0.12359342  1
  Na  Na5  1  0.74184598  0.50180100  0.87510671  1
  Na  Na6  1  0.74145090  0.99831620  0.87529037  1
  Na  Na7  1  0.74114639  0.50190831  0.37703922  1
  Na  Na8  1  0.74104195  0.99822414  0.37739139  1
  Na  Na9  1  0.91676734  0.75029832  0.12059910  1
  Li  Li10  1  0.26665027  0.49073654  0.62044426  1
  Li  Li11  1  0.91785481  0.74592037  0.62215877  1
  Mn  Mn12  1  0.36062595  0.74902236  0.88681341  1
  Mn  Mn13  1  0.36035293  0.74768539  0.39116603  1
  Mn  Mn14  1  0.63990706  0.24968407  0.61206167  1
  Mn  Mn15  1  0.63787484  0.25013208  0.11040037  1
  P  P16  1  0.40927196  0.25309984  0.84951430  1
  P  P17  1  0.41050254  0.24978424  0.35374172  1
  P  P18  1  0.59145889  0.74630355  0.64945461  1
  P  P19  1  0.58845835  0.75002318  0.14871501  1
  C  C20  1  0.05938421  0.74832413  0.86212007  1
  C  C21  1  0.05536563  0.74917208  0.37245003  1
  C  C22  1  0.94394083  0.25610045  0.63159699  1
  C  C23  1  0.93985221  0.25006728  0.13215272  1
  O  O24  1  0.08854216  0.26764443  0.64119414  1
  O  O25  1  0.08395729  0.24911581  0.14283039  1
  O  O26  1  0.11759615  0.74962390  0.97759635  1
  O  O27  1  0.10889456  0.74842239  0.48939164  1
  O  O28  1  0.14653717  0.74485899  0.76110754  1
  O  O29  1  0.14585194  0.74815263  0.27267948  1
  O  O30  1  0.31808230  0.06709902  0.88876956  1
  O  O31  1  0.31810124  0.43350544  0.89515000  1
  O  O32  1  0.31870865  0.06476899  0.39378931  1
  O  O33  1  0.31832260  0.43120688  0.39817367  1
  O  O34  1  0.42419513  0.26201614  0.69815563  1
  O  O35  1  0.43153522  0.73656694  0.59043356  1
  O  O36  1  0.42741093  0.25288976  0.20292946  1
  O  O37  1  0.43071550  0.75041478  0.08757460  1
  O  O38  1  0.56810840  0.25016733  0.90877230  1
  O  O39  1  0.57291987  0.74871641  0.79981993  1
  O  O40  1  0.56894220  0.24984533  0.41319207  1
  O  O41  1  0.57020830  0.74940257  0.29929328  1
  O  O42  1  0.68943837  0.56797803  0.60936512  1
  O  O43  1  0.68143819  0.93166311  0.60682075  1
  O  O44  1  0.68071229  0.56735573  0.10755638  1
  O  O45  1  0.68125762  0.93364630  0.10750488  1
  O  O46  1  0.86022900  0.24966566  0.73513551  1
  O  O47  1  0.85543785  0.25044112  0.23512845  1
  O  O48  1  0.88017734  0.25014080  0.51880491  1
  O  O49  1  0.87765983  0.25074354  0.01849994  1
  O  O50  1  0.91563322  0.75082178  0.84649784  1
  O  O51  1  0.91251871  0.75086437  0.35448087  1
