# generated using pymatgen
data_Li3MnCr2O6
_symmetry_space_group_name_H-M   'P 1'
_cell_length_a   15.65588281
_cell_length_b   9.90794506
_cell_length_c   9.90794513
_cell_angle_alpha   17.07579074
_cell_angle_beta   16.72168659
_cell_angle_gamma   16.72168427
_symmetry_Int_Tables_number   1
_chemical_formula_structural   Li3MnCr2O6
_chemical_formula_sum   'Li3 Mn1 Cr2 O6'
_cell_volume   112.47163840
_cell_formula_units_Z   1
loop_
 _symmetry_equiv_pos_site_id
 _symmetry_equiv_pos_as_xyz
  1  'x, y, z'
loop_
 _atom_site_type_symbol
 _atom_site_label
 _atom_site_symmetry_multiplicity
 _atom_site_fract_x
 _atom_site_fract_y
 _atom_site_fract_z
 _atom_site_occupancy
  Li  Li0  1  0.16666700  0.50000000  0.50000000  1
  Li  Li1  1  0.47671845  0.51614869  0.51614869  1
  Li  Li2  1  0.85661455  0.48385131  0.48385131  1
  Mn  Mn3  1  0.66666700  0.00000000  0.00000000  1
  Cr  Cr4  1  0.99517349  0.00155352  0.00155352  1
  Cr  Cr5  1  0.33815951  0.99844648  0.99844648  1
  O  O6  1  0.22942337  0.26816391  0.26816391  1
  O  O7  1  0.58173973  0.25786114  0.25786114  1
  O  O8  1  0.10390963  0.73183609  0.73183609  1
  O  O9  1  0.92355749  0.25404623  0.25404623  1
  O  O10  1  0.40977651  0.74595377  0.74595377  1
  O  O11  1  0.75159327  0.74213886  0.74213886  1
