# generated using pymatgen
data_LiNb(PO3)4
_symmetry_space_group_name_H-M   'P 1'
_cell_length_a   7.18096612
_cell_length_b   8.32131901
_cell_length_c   7.70903719
_cell_angle_alpha   90.00000000
_cell_angle_beta   93.91072558
_cell_angle_gamma   90.00000000
_symmetry_Int_Tables_number   1
_chemical_formula_structural   LiNb(PO3)4
_chemical_formula_sum   'Li2 Nb2 P8 O24'
_cell_volume   459.58174462
_cell_formula_units_Z   2
loop_
 _symmetry_equiv_pos_site_id
 _symmetry_equiv_pos_as_xyz
  1  'x, y, z'
loop_
 _atom_site_type_symbol
 _atom_site_label
 _atom_site_symmetry_multiplicity
 _atom_site_fract_x
 _atom_site_fract_y
 _atom_site_fract_z
 _atom_site_occupancy
  Li  Li0  1  0.34078562  0.61250207  0.64391275  1
  Li  Li1  1  0.65921438  0.11250207  0.35608725  1
  Nb  Nb2  1  0.25083068  0.21965980  0.22320387  1
  Nb  Nb3  1  0.74916932  0.71965980  0.77679513  1
  P  P4  1  0.00661088  0.12381714  0.58324917  1
  P  P5  1  0.08553431  0.82699671  0.10473613  1
  P  P6  1  0.37792866  0.98724853  0.59005075  1
  P  P7  1  0.42041063  0.60895221  0.09945897  1
  P  P8  1  0.57958937  0.10895221  0.90054103  1
  P  P9  1  0.62207134  0.48724853  0.40994925  1
  P  P10  1  0.91446569  0.32699671  0.89526387  1
  P  P11  1  0.99338912  0.62381714  0.41675083  1
  O  O12  1  0.02359573  0.21103018  0.77087438  1
  O  O13  1  0.00517176  0.79630463  0.92267465  1
  O  O14  1  0.07881302  0.23235928  0.44846121  1
  O  O15  1  0.08772058  0.99490514  0.17669784  1
  O  O16  1  0.16141805  0.98323455  0.62406024  1
  O  O17  1  0.18381362  0.55364758  0.44898653  1
  O  O18  1  0.29894004  0.76889020  0.11635126  1
  O  O19  1  0.30596051  0.45842646  0.09595336  1
  O  O20  1  0.40511345  0.03951072  0.40515363  1
  O  O21  1  0.45699958  0.13303811  0.04760277  1
  O  O22  1  0.45700451  0.12691466  0.71758725  1
  O  O23  1  0.45904802  0.82706103  0.64629059  1
  O  O24  1  0.54095198  0.32706103  0.35370941  1
  O  O25  1  0.54299549  0.62691466  0.28241275  1
  O  O26  1  0.54300042  0.63303811  0.95239723  1
  O  O27  1  0.59488655  0.53951072  0.59484637  1
  O  O28  1  0.69403949  0.95842646  0.90404664  1
  O  O29  1  0.70105996  0.26889020  0.88364874  1
  O  O30  1  0.81618638  0.05364758  0.55101347  1
  O  O31  1  0.83858195  0.48323455  0.37593976  1
  O  O32  1  0.91227942  0.49490514  0.82330216  1
  O  O33  1  0.92118698  0.73235928  0.55153879  1
  O  O34  1  0.99482824  0.29630463  0.07732535  1
  O  O35  1  0.97640427  0.71103018  0.22912562  1
