# generated using pymatgen
data_Na13Ti24O54
_symmetry_space_group_name_H-M   'P 1'
_cell_length_a   11.73492249
_cell_length_b   11.13339190
_cell_length_c   8.85964908
_cell_angle_alpha   74.60521444
_cell_angle_beta   82.70145011
_cell_angle_gamma   75.98463134
_symmetry_Int_Tables_number   1
_chemical_formula_structural   Na13Ti24O54
_chemical_formula_sum   'Na13 Ti24 O54'
_cell_volume   1080.31620653
_cell_formula_units_Z   1
loop_
 _symmetry_equiv_pos_site_id
 _symmetry_equiv_pos_as_xyz
  1  'x, y, z'
loop_
 _atom_site_type_symbol
 _atom_site_label
 _atom_site_symmetry_multiplicity
 _atom_site_fract_x
 _atom_site_fract_y
 _atom_site_fract_z
 _atom_site_occupancy
  Na  Na0  1  0.14055734  0.69457614  0.42759745  1
  Na  Na1  1  0.14316063  0.69709144  0.06203311  1
  Na  Na2  1  0.27277549  0.40465843  0.81964459  1
  Na  Na3  1  0.27463632  0.39576015  0.15641310  1
  Na  Na4  1  0.27265499  0.39706477  0.48793366  1
  Na  Na5  1  0.28386234  0.90104441  0.46944829  1
  Na  Na6  1  0.28305500  0.90085244  0.83429706  1
  Na  Na7  1  0.71706985  0.09964036  0.84010126  1
  Na  Na8  1  0.72647827  0.59487060  0.51415267  1
  Na  Na9  1  0.72844248  0.60215134  0.84504965  1
  Na  Na10  1  0.72490089  0.60242396  0.17783874  1
  Na  Na11  1  0.85840605  0.30517299  0.90745056  1
  Na  Na12  1  0.85340872  0.29429042  0.28282407  1
  Ti  Ti13  1  0.00098804  0.99751241  0.00064214  1
  Ti  Ti14  1  0.99803770  0.00131425  0.33276060  1
  Ti  Ti15  1  0.99885457  0.00216099  0.66580505  1
  Ti  Ti16  1  0.99092445  0.49180294  0.50412222  1
  Ti  Ti17  1  0.00941308  0.50822493  0.82839330  1
  Ti  Ti18  1  0.99962362  0.49755364  0.16714406  1
  Ti  Ti19  1  0.12379280  0.18555487  0.08388386  1
  Ti  Ti20  1  0.12204992  0.18844492  0.41656914  1
  Ti  Ti21  1  0.12036489  0.19196890  0.75024900  1
  Ti  Ti22  1  0.42722082  0.11692782  0.05584641  1
  Ti  Ti23  1  0.43362743  0.12460591  0.38565522  1
  Ti  Ti24  1  0.43033341  0.12278358  0.71994079  1
  Ti  Ti25  1  0.44577807  0.62589532  0.55173214  1
  Ti  Ti26  1  0.44543748  0.62338687  0.88352620  1
  Ti  Ti27  1  0.44209451  0.62662672  0.21727274  1
  Ti  Ti28  1  0.55266644  0.37563047  0.78161753  1
  Ti  Ti29  1  0.55625155  0.37258178  0.11608139  1
  Ti  Ti30  1  0.55761458  0.37417858  0.45037026  1
  Ti  Ti31  1  0.57184159  0.88045376  0.27846235  1
  Ti  Ti32  1  0.57346868  0.88205981  0.61081864  1
  Ti  Ti33  1  0.56828270  0.87444679  0.94793255  1
  Ti  Ti34  1  0.87624863  0.81266590  0.25088327  1
  Ti  Ti35  1  0.87833627  0.81215094  0.58131528  1
  Ti  Ti36  1  0.87963705  0.80785926  0.91776391  1
  O  O37  1  0.06096081  0.30595538  0.88834623  1
  O  O38  1  0.05979139  0.30461167  0.22243213  1
  O  O39  1  0.06045995  0.30571699  0.55394356  1
  O  O40  1  0.14984202  0.05768270  0.95316505  1
  O  O41  1  0.15071642  0.05605065  0.29079988  1
  O  O42  1  0.15134332  0.05474102  0.62472676  1
  O  O43  1  0.10958356  0.51098889  0.64271493  1
  O  O44  1  0.11178911  0.51298480  0.97917148  1
  O  O45  1  0.10698580  0.51699389  0.30883926  1
  O  O46  1  0.04421170  0.87332917  0.20103773  1
  O  O47  1  0.04903286  0.87639978  0.86930283  1
  O  O48  1  0.04537665  0.87690738  0.53143692  1
  O  O49  1  0.27388954  0.21947320  0.04663326  1
  O  O50  1  0.27448061  0.21627843  0.38251285  1
  O  O51  1  0.27352334  0.21856882  0.71567517  1
  O  O52  1  0.40705690  0.00899752  0.26417962  1
  O  O53  1  0.40581300  0.00880860  0.59708752  1
  O  O54  1  0.40474797  0.00831004  0.92737728  1
  O  O55  1  0.34262927  0.68067603  0.38478211  1
  O  O56  1  0.34691114  0.68793303  0.71275648  1
  O  O57  1  0.34268443  0.68107247  0.04747149  1
  O  O58  1  0.42955511  0.44773303  0.61411540  1
  O  O59  1  0.43025023  0.44808497  0.27862497  1
  O  O60  1  0.42895868  0.44730162  0.94463250  1
  O  O61  1  0.48726037  0.21632650  0.84739649  1
  O  O62  1  0.48157758  0.22151858  0.17839924  1
  O  O63  1  0.48259248  0.22187277  0.51229058  1
  O  O64  1  0.51387164  0.78287921  0.48579992  1
  O  O65  1  0.51293924  0.78248346  0.82013166  1
  O  O66  1  0.51772816  0.77767385  0.15512300  1
  O  O67  1  0.56928681  0.55398715  0.72067654  1
  O  O68  1  0.56839310  0.55370608  0.38858050  1
  O  O69  1  0.56761933  0.55393582  0.05208528  1
  O  O70  1  0.65567821  0.32106883  0.94828872  1
  O  O71  1  0.65589702  0.32798215  0.28034226  1
  O  O72  1  0.65324987  0.31971378  0.62010889  1
  O  O73  1  0.59155216  0.98997388  0.06837507  1
  O  O74  1  0.59259379  0.99084362  0.40469372  1
  O  O75  1  0.59347457  0.99070296  0.73956691  1
  O  O76  1  0.72624709  0.77971309  0.28586769  1
  O  O77  1  0.72699101  0.78021608  0.61895021  1
  O  O78  1  0.72680610  0.78104678  0.95132054  1
  O  O79  1  0.95716037  0.12641253  0.13207199  1
  O  O80  1  0.95853530  0.12391811  0.46530812  1
  O  O81  1  0.95315187  0.12371612  0.80147534  1
  O  O82  1  0.89079135  0.48888071  0.69069112  1
  O  O83  1  0.89267918  0.48356624  0.02469725  1
  O  O84  1  0.88790781  0.48678883  0.35439445  1
  O  O85  1  0.85160714  0.93995069  0.37798383  1
  O  O86  1  0.85282188  0.94037261  0.71454239  1
  O  O87  1  0.85067516  0.94133291  0.04110301  1
  O  O88  1  0.93834539  0.69424668  0.44572485  1
  O  O89  1  0.94024525  0.69442953  0.77824550  1
  O  O90  1  0.94087132  0.69459655  0.11157129  1
