# generated using pymatgen
data_Li2MnV3O8
_symmetry_space_group_name_H-M   'P 1'
_cell_length_a   5.93114883
_cell_length_b   5.93093430
_cell_length_c   9.92888155
_cell_angle_alpha   89.99373422
_cell_angle_beta   90.00313978
_cell_angle_gamma   119.99880034
_symmetry_Int_Tables_number   1
_chemical_formula_structural   Li2MnV3O8
_chemical_formula_sum   'Li4 Mn2 V6 O16'
_cell_volume   302.48103076
_cell_formula_units_Z   2
loop_
 _symmetry_equiv_pos_site_id
 _symmetry_equiv_pos_as_xyz
  1  'x, y, z'
loop_
 _atom_site_type_symbol
 _atom_site_label
 _atom_site_symmetry_multiplicity
 _atom_site_fract_x
 _atom_site_fract_y
 _atom_site_fract_z
 _atom_site_occupancy
  Li  Li0  1  0.33336271  0.66665532  0.89413005  1
  Li  Li1  1  0.99988403  0.00001835  0.99689006  1
  Li  Li2  1  0.00011597  0.00013532  0.49689006  1
  Li  Li3  1  0.66663729  0.33329261  0.39413005  1
  Mn  Mn4  1  0.33338647  0.66672410  0.49741227  1
  Mn  Mn5  1  0.66661353  0.33333762  0.99741227  1
  V  V6  1  0.15822163  0.82028241  0.21445030  1
  V  V7  1  0.17959851  0.33797221  0.21446490  1
  V  V8  1  0.66190375  0.84163910  0.21446807  1
  V  V9  1  0.33809625  0.17973535  0.71446807  1
  V  V10  1  0.84177837  0.66206078  0.71445030  1
  V  V11  1  0.82040149  0.15837270  0.71446490  1
  O  O12  1  0.16924534  0.85838371  0.60925931  1
  O  O13  1  0.03366210  0.53272519  0.32579212  1
  O  O14  1  0.33325436  0.66664932  0.10310710  1
  O  O15  1  0.99990257  0.99993421  0.31383867  1
  O  O16  1  0.00009743  0.00003164  0.81383867  1
  O  O17  1  0.14178412  0.31092201  0.60926802  1
  O  O18  1  0.49897236  0.96623908  0.32579596  1
  O  O19  1  0.46715119  0.50087100  0.32579005  1
  O  O20  1  0.31075209  0.14167363  0.10925413  1
  O  O21  1  0.68924791  0.83092154  0.60925413  1
  O  O22  1  0.50102764  0.46726771  0.82579596  1
  O  O23  1  0.53284881  0.03371981  0.82579005  1
  O  O24  1  0.66674564  0.33339496  0.60310710  1
  O  O25  1  0.83075466  0.68913837  0.10925931  1
  O  O26  1  0.96633790  0.49906408  0.82579212  1
  O  O27  1  0.85821588  0.16913788  0.10926802  1
