# generated using pymatgen
data_TiBi2O5
_symmetry_space_group_name_H-M   'P 1'
_cell_length_a   10.90170928
_cell_length_b   11.62458783
_cell_length_c   3.87467797
_cell_angle_alpha   90.00000000
_cell_angle_beta   90.00000000
_cell_angle_gamma   90.00000000
_symmetry_Int_Tables_number   1
_chemical_formula_structural   TiBi2O5
_chemical_formula_sum   'Ti4 Bi8 O20'
_cell_volume   491.02971328
_cell_formula_units_Z   4
loop_
 _symmetry_equiv_pos_site_id
 _symmetry_equiv_pos_as_xyz
  1  'x, y, z'
loop_
 _atom_site_type_symbol
 _atom_site_label
 _atom_site_symmetry_multiplicity
 _atom_site_fract_x
 _atom_site_fract_y
 _atom_site_fract_z
 _atom_site_occupancy
  Ti  Ti0  1  0.18420465  0.37709165  0.25000000  1
  Ti  Ti1  1  0.31579535  0.87709165  0.75000000  1
  Ti  Ti2  1  0.68420465  0.12290835  0.25000000  1
  Ti  Ti3  1  0.81579535  0.62290835  0.75000000  1
  Bi  Bi4  1  0.10665781  0.72225702  0.25000000  1
  Bi  Bi5  1  0.13737894  0.05244914  0.25000000  1
  Bi  Bi6  1  0.36262106  0.55244914  0.75000000  1
  Bi  Bi7  1  0.39334219  0.22225702  0.75000000  1
  Bi  Bi8  1  0.60665781  0.77774298  0.25000000  1
  Bi  Bi9  1  0.63737894  0.44755086  0.25000000  1
  Bi  Bi10  1  0.86262106  0.94755086  0.75000000  1
  Bi  Bi11  1  0.89334219  0.27774298  0.75000000  1
  O  O12  1  0.00141212  0.10266513  0.75000000  1
  O  O13  1  0.02570857  0.34215982  0.25000000  1
  O  O14  1  0.22834925  0.53616008  0.25000000  1
  O  O15  1  0.22686760  0.73385352  0.75000000  1
  O  O16  1  0.23984350  0.37960227  0.75000000  1
  O  O17  1  0.26015650  0.87960227  0.25000000  1
  O  O18  1  0.27313240  0.23385352  0.25000000  1
  O  O19  1  0.27165075  0.03616008  0.75000000  1
  O  O20  1  0.47429143  0.84215982  0.75000000  1
  O  O21  1  0.49858788  0.60266513  0.25000000  1
  O  O22  1  0.50141212  0.39733487  0.75000000  1
  O  O23  1  0.52570857  0.15784018  0.25000000  1
  O  O24  1  0.72834925  0.96383992  0.25000000  1
  O  O25  1  0.72686760  0.76614648  0.75000000  1
  O  O26  1  0.73984350  0.12039773  0.75000000  1
  O  O27  1  0.76015650  0.62039773  0.25000000  1
  O  O28  1  0.77313240  0.26614648  0.25000000  1
  O  O29  1  0.77165075  0.46383992  0.75000000  1
  O  O30  1  0.97429143  0.65784018  0.75000000  1
  O  O31  1  0.99858788  0.89733487  0.25000000  1
