# generated using pymatgen
data_Li3Y14Ti14(S2O5)7
_symmetry_space_group_name_H-M   'P 1'
_cell_length_a   11.65726906
_cell_length_b   12.17272601
_cell_length_c   8.63834159
_cell_angle_alpha   82.06657423
_cell_angle_beta   77.17766672
_cell_angle_gamma   84.04174291
_symmetry_Int_Tables_number   1
_chemical_formula_structural   Li3Y14Ti14(S2O5)7
_chemical_formula_sum   'Li3 Y14 Ti14 S14 O35'
_cell_volume   1180.37729583
_cell_formula_units_Z   1
loop_
 _symmetry_equiv_pos_site_id
 _symmetry_equiv_pos_as_xyz
  1  'x, y, z'
loop_
 _atom_site_type_symbol
 _atom_site_label
 _atom_site_symmetry_multiplicity
 _atom_site_fract_x
 _atom_site_fract_y
 _atom_site_fract_z
 _atom_site_occupancy
  Li  Li0  1  0.00000000  0.85714300  0.92857100  1
  Li  Li1  1  0.00002780  0.21000653  0.35648654  1
  Li  Li2  1  0.99997220  0.50427947  0.50065546  1
  Y  Y3  1  0.66524976  0.23789986  0.95364010  1
  Y  Y4  1  0.33482571  0.19021428  0.76151893  1
  Y  Y5  1  0.33475024  0.47638614  0.90350290  1
  Y  Y6  1  0.66846759  0.09447464  0.38235221  1
  Y  Y7  1  0.67110665  0.38071179  0.52208765  1
  Y  Y8  1  0.66853800  0.66748813  0.66387503  1
  Y  Y9  1  0.66898328  0.95092455  0.80850226  1
  Y  Y10  1  0.33146200  0.04679787  0.19326797  1
  Y  Y11  1  0.32889335  0.33357421  0.33505535  1
  Y  Y12  1  0.33153241  0.61981036  0.47479079  1
  Y  Y13  1  0.33187946  0.90379905  0.61901327  1
  Y  Y14  1  0.66517429  0.52407072  0.09562407  1
  Y  Y15  1  0.66812054  0.81048695  0.23812973  1
  Y  Y16  1  0.33101672  0.76336145  0.04864074  1
  Ti  Ti17  1  0.83596656  0.15193259  0.62570414  1
  Ti  Ti18  1  0.83620443  0.43727591  0.76512953  1
  Ti  Ti19  1  0.83568910  0.72202063  0.90000212  1
  Ti  Ti20  1  0.16457187  0.12828669  0.53171453  1
  Ti  Ti21  1  0.16428781  0.41383112  0.67143602  1
  Ti  Ti22  1  0.16425762  0.69871556  0.80605849  1
  Ti  Ti23  1  0.16431090  0.99226437  0.95714088  1
  Ti  Ti24  1  0.83574238  0.01557044  0.05108451  1
  Ti  Ti25  1  0.83571219  0.30045488  0.18570698  1
  Ti  Ti26  1  0.83542813  0.58599931  0.32542847  1
  Ti  Ti27  1  0.83929869  0.86869074  0.47434413  1
  Ti  Ti28  1  0.16379557  0.27701009  0.09201347  1
  Ti  Ti29  1  0.16403344  0.56235341  0.23143886  1
  Ti  Ti30  1  0.16070131  0.84559526  0.38279887  1
  S  S31  1  0.59096367  0.17266319  0.68605046  1
  S  S32  1  0.59162928  0.74482155  0.97361419  1
  S  S33  1  0.59036692  0.45905092  0.82749502  1
  S  S34  1  0.40848442  0.11445360  0.45187111  1
  S  S35  1  0.40927585  0.40053705  0.59360458  1
  S  S36  1  0.40827286  0.68667428  0.74122196  1
  S  S37  1  0.40837072  0.96946445  0.88352781  1
  S  S38  1  0.59072415  0.31374895  0.26353842  1
  S  S39  1  0.59172714  0.02761172  0.11592104  1
  S  S40  1  0.59151558  0.59983140  0.40527189  1
  S  S41  1  0.58752266  0.88703735  0.54683171  1
  S  S42  1  0.40963308  0.25523508  0.02964798  1
  S  S43  1  0.40903633  0.54162281  0.17109254  1
  S  S44  1  0.41247734  0.82724865  0.31031129  1
  O  O45  1  0.79813563  0.08553545  0.84668576  1
  O  O46  1  0.79574195  0.37178758  0.98687875  1
  O  O47  1  0.20425805  0.34249842  0.87026425  1
  O  O48  1  0.20200245  0.05667844  0.73138792  1
  O  O49  1  0.79849840  0.01364296  0.55991164  1
  O  O50  1  0.79843226  0.58398161  0.84213386  1
  O  O51  1  0.81362648  0.87046524  0.98156913  1
  O  O52  1  0.79711097  0.29918992  0.70292947  1
  O  O53  1  0.00006662  0.14399232  0.56832585  1
  O  O54  1  0.20259580  0.27015834  0.58707515  1
  O  O55  1  0.81391627  0.51282057  0.55203114  1
  O  O56  1  0.20145405  0.55534296  0.72698142  1
  O  O57  1  0.00005032  0.42933223  0.70813838  1
  O  O58  1  0.81385881  0.22810929  0.41172800  1
  O  O59  1  -0.00000881  0.71713157  0.85662536  1
  O  O60  1  0.18637352  0.84381976  0.87557287  1
  O  O61  1  0.79854944  0.79885300  0.69876370  1
  O  O62  1  0.79854595  0.15894304  0.13016158  1
  O  O63  1  0.18608373  0.20146543  0.30511186  1
  O  O64  1  0.79740420  0.44412666  0.27006785  1
  O  O65  1  0.79843561  0.72969168  0.41247526  1
  O  O66  1  0.18614119  0.48617671  0.44541500  1
  O  O67  1  0.20165466  0.76998561  0.58373531  1
  O  O68  1  0.20156774  0.13030339  0.01500914  1
  O  O69  1  0.20150160  0.70064304  0.29723136  1
  O  O70  1  0.99994968  0.28495377  0.14900462  1
  O  O71  1  0.20288903  0.41509508  0.15421353  1
  O  O72  1  0.79799755  0.65760656  0.12575508  1
  O  O73  1  0.99993338  0.57029368  0.28881715  1
  O  O74  1  0.00000000  0.85714300  0.42857100  1
  O  O75  1  0.20156439  0.98459432  0.44466674  1
  O  O76  1  0.00000881  0.99715343  0.00051764  1
  O  O77  1  0.79834534  0.94430039  0.27340769  1
  O  O78  1  0.20186437  0.62875055  0.01045724  1
  O  O79  1  0.20145056  0.91543300  0.15837830  1
