# generated using pymatgen
data_Er2(WO4)3
_symmetry_space_group_name_H-M   'P 1'
_cell_length_a   10.09129144
_cell_length_b   10.20388066
_cell_length_c   14.06208412
_cell_angle_alpha   90.00000000
_cell_angle_beta   90.29066929
_cell_angle_gamma   90.00000000
_symmetry_Int_Tables_number   1
_chemical_formula_structural   Er2(WO4)3
_chemical_formula_sum   'Er8 W12 O48'
_cell_volume   1447.95885928
_cell_formula_units_Z   4
loop_
 _symmetry_equiv_pos_site_id
 _symmetry_equiv_pos_as_xyz
  1  'x, y, z'
loop_
 _atom_site_type_symbol
 _atom_site_label
 _atom_site_symmetry_multiplicity
 _atom_site_fract_x
 _atom_site_fract_y
 _atom_site_fract_z
 _atom_site_occupancy
  Er  Er0  1  0.24753257  0.97064011  0.88178108  1
  Er  Er1  1  0.24424621  0.03356980  0.38192949  1
  Er  Er2  1  0.25575379  0.53356980  0.11807051  1
  Er  Er3  1  0.25246743  0.47064011  0.61821892  1
  Er  Er4  1  0.74753257  0.52935989  0.38178108  1
  Er  Er5  1  0.74424621  0.46643020  0.88192949  1
  Er  Er6  1  0.75575379  0.96643020  0.61807051  1
  Er  Er7  1  0.75246743  0.02935989  0.11821892  1
  W  W8  1  0.02594981  0.74866344  0.50016640  1
  W  W9  1  0.10360733  0.61942046  0.85642221  1
  W  W10  1  0.10729859  0.87990402  0.14291320  1
  W  W11  1  0.39270141  0.37990402  0.35708680  1
  W  W12  1  0.39639267  0.11942046  0.64357779  1
  W  W13  1  0.47405019  0.24866344  0.99983360  1
  W  W14  1  0.52594981  0.75133656  0.00016640  1
  W  W15  1  0.60360733  0.88057954  0.35642221  1
  W  W16  1  0.60729859  0.62009598  0.64291320  1
  W  W17  1  0.89270141  0.12009598  0.85708680  1
  W  W18  1  0.89639267  0.38057954  0.14357779  1
  W  W19  1  0.97405019  0.25133656  0.49983360  1
  O  O20  1  0.07087028  0.10001369  0.86833841  1
  O  O21  1  0.07783473  0.34438114  0.58133028  1
  O  O22  1  0.07662178  0.17529117  0.40961181  1
  O  O23  1  0.07380720  0.40974934  0.13696092  1
  O  O24  1  0.11324276  0.87400520  0.43378101  1
  O  O25  1  0.13214023  0.79262504  0.83377055  1
  O  O26  1  0.14255645  0.70863118  0.16713759  1
  O  O27  1  0.14548398  0.64159183  0.55708186  1
  O  O28  1  0.17009050  0.98287718  0.23827760  1
  O  O29  1  0.17675340  0.51919260  0.76328395  1
  O  O30  1  0.18075809  0.57781155  0.96919442  1
  O  O31  1  0.18579166  0.92775133  0.03278760  1
  O  O32  1  0.31420834  0.42775133  0.46721240  1
  O  O33  1  0.31924191  0.07781155  0.53080558  1
  O  O34  1  0.32324660  0.01919260  0.73671605  1
  O  O35  1  0.32990950  0.48287718  0.26172240  1
  O  O36  1  0.35451602  0.14159183  0.94291814  1
  O  O37  1  0.35744355  0.20863118  0.33286241  1
  O  O38  1  0.36785977  0.29262504  0.66622945  1
  O  O39  1  0.38675724  0.37400520  0.06621899  1
  O  O40  1  0.42216527  0.84438114  0.91866972  1
  O  O41  1  0.42619280  0.90974934  0.36303908  1
  O  O42  1  0.42337822  0.67529117  0.09038819  1
  O  O43  1  0.42912972  0.60001369  0.63166159  1
  O  O44  1  0.57087028  0.39998631  0.36833841  1
  O  O45  1  0.57662178  0.32470883  0.90961181  1
  O  O46  1  0.57380720  0.09025066  0.63696092  1
  O  O47  1  0.57783473  0.15561886  0.08133028  1
  O  O48  1  0.61324276  0.62599480  0.93378101  1
  O  O49  1  0.63214023  0.70737496  0.33377055  1
  O  O50  1  0.64255645  0.79136882  0.66713759  1
  O  O51  1  0.64548398  0.85840817  0.05708186  1
  O  O52  1  0.67009050  0.51712282  0.73827760  1
  O  O53  1  0.67675340  0.98080740  0.26328395  1
  O  O54  1  0.68075809  0.92218845  0.46919442  1
  O  O55  1  0.68579166  0.57224867  0.53278760  1
  O  O56  1  0.81420834  0.07224867  0.96721240  1
  O  O57  1  0.81924191  0.42218845  0.03080558  1
  O  O58  1  0.82324660  0.48080740  0.23671605  1
  O  O59  1  0.82990950  0.01712282  0.76172240  1
  O  O60  1  0.85451602  0.35840817  0.44291814  1
  O  O61  1  0.85744355  0.29136882  0.83286241  1
  O  O62  1  0.86785977  0.20737496  0.16622945  1
  O  O63  1  0.88675724  0.12599480  0.56621899  1
  O  O64  1  0.92619280  0.59025066  0.86303908  1
  O  O65  1  0.92337822  0.82470883  0.59038819  1
  O  O66  1  0.92216527  0.65561886  0.41866972  1
  O  O67  1  0.92912972  0.89998631  0.13166159  1
