# generated using pymatgen
data_Na2Co2O3
_symmetry_space_group_name_H-M   'P 1'
_cell_length_a   5.91006061
_cell_length_b   5.88645728
_cell_length_c   6.07809053
_cell_angle_alpha   90.00000000
_cell_angle_beta   118.72155066
_cell_angle_gamma   90.00000000
_symmetry_Int_Tables_number   1
_chemical_formula_structural   Na2Co2O3
_chemical_formula_sum   'Na4 Co4 O6'
_cell_volume   185.43665795
_cell_formula_units_Z   2
loop_
 _symmetry_equiv_pos_site_id
 _symmetry_equiv_pos_as_xyz
  1  'x, y, z'
loop_
 _atom_site_type_symbol
 _atom_site_label
 _atom_site_symmetry_multiplicity
 _atom_site_fract_x
 _atom_site_fract_y
 _atom_site_fract_z
 _atom_site_occupancy
  Na  Na0  1  0.14319677  0.65290799  0.90240214  1
  Na  Na1  1  0.14319677  0.84709201  0.40240214  1
  Na  Na2  1  0.85680323  0.15290799  0.59759786  1
  Na  Na3  1  0.85680323  0.34709201  0.09759786  1
  Co  Co4  1  0.33836581  0.37449937  0.58012804  1
  Co  Co5  1  0.66163419  0.87449937  0.91987196  1
  Co  Co6  1  0.33836581  0.12550063  0.08012804  1
  Co  Co7  1  0.66163419  0.62550063  0.41987196  1
  O  O8  1  0.00000000  0.50000000  0.50000000  1
  O  O9  1  0.00000000  0.00000000  0.00000000  1
  O  O10  1  0.35839295  0.08695824  0.75273734  1
  O  O11  1  0.35839295  0.41304176  0.25273734  1
  O  O12  1  0.64160705  0.58695824  0.74726266  1
  O  O13  1  0.64160705  0.91304176  0.24726266  1
