# generated using pymatgen
data_Na5LiMn2P2(CO7)2
_symmetry_space_group_name_H-M   'P 1'
_cell_length_a   8.96273795
_cell_length_b   6.81277370
_cell_length_c   10.32978841
_cell_angle_alpha   90.11229147
_cell_angle_beta   89.88059518
_cell_angle_gamma   89.76562661
_symmetry_Int_Tables_number   1
_chemical_formula_structural   Na5LiMn2P2(CO7)2
_chemical_formula_sum   'Na10 Li2 Mn4 P4 C4 O28'
_cell_volume   630.74042950
_cell_formula_units_Z   2
loop_
 _symmetry_equiv_pos_site_id
 _symmetry_equiv_pos_as_xyz
  1  'x, y, z'
loop_
 _atom_site_type_symbol
 _atom_site_label
 _atom_site_symmetry_multiplicity
 _atom_site_fract_x
 _atom_site_fract_y
 _atom_site_fract_z
 _atom_site_occupancy
  Na  Na0  1  0.08287439  0.25011504  0.87973785  1
  Na  Na1  1  0.08235339  0.24890246  0.38057872  1
  Na  Na2  1  0.25850121  0.00172586  0.62418044  1
  Na  Na3  1  0.25853790  0.49838432  0.62406253  1
  Na  Na4  1  0.25929007  0.00232183  0.12395660  1
  Na  Na5  1  0.25941029  0.49775882  0.12386023  1
  Na  Na6  1  0.74087361  0.50183839  0.87537236  1
  Na  Na7  1  0.74104237  0.99817871  0.87548610  1
  Na  Na8  1  0.74149074  0.50262364  0.37687593  1
  Na  Na9  1  0.91627952  0.75103371  0.12059874  1
  Li  Li10  1  0.73588598  0.99432736  0.37868643  1
  Li  Li11  1  0.91608103  0.75111392  0.61974407  1
  Mn  Mn12  1  0.36130245  0.74999027  0.88853843  1
  Mn  Mn13  1  0.36179313  0.75015172  0.38879222  1
  Mn  Mn14  1  0.64091517  0.24837975  0.61028197  1
  Mn  Mn15  1  0.63963124  0.24913468  0.11231969  1
  P  P16  1  0.41115909  0.24994073  0.85084162  1
  P  P17  1  0.41258629  0.24731290  0.35072155  1
  P  P18  1  0.59263672  0.75006330  0.64781468  1
  P  P19  1  0.59033924  0.75207786  0.14993538  1
  C  C20  1  0.05890220  0.75004450  0.86520726  1
  C  C21  1  0.05428207  0.75378617  0.37086809  1
  C  C22  1  0.94005375  0.24927713  0.63160835  1
  C  C23  1  0.93978166  0.24874867  0.13289726  1
  O  O24  1  0.08342832  0.25032707  0.64196194  1
  O  O25  1  0.08331409  0.25035031  0.14320691  1
  O  O26  1  0.12050415  0.75024504  0.97972994  1
  O  O27  1  0.11240499  0.74960171  0.48656976  1
  O  O28  1  0.14371232  0.75021224  0.76288069  1
  O  O29  1  0.14201338  0.74951804  0.26964615  1
  O  O30  1  0.31876205  0.06718415  0.89214639  1
  O  O31  1  0.31836876  0.43344675  0.89231600  1
  O  O32  1  0.31852788  0.06631641  0.39233920  1
  O  O33  1  0.32233128  0.43245477  0.39347558  1
  O  O34  1  0.42892148  0.24969624  0.70007421  1
  O  O35  1  0.43370900  0.75004266  0.58811729  1
  O  O36  1  0.42767828  0.24953445  0.20004138  1
  O  O37  1  0.43113818  0.75020400  0.09084974  1
  O  O38  1  0.56920693  0.25001581  0.91137499  1
  O  O39  1  0.57303216  0.75177538  0.79835456  1
  O  O40  1  0.57305176  0.24013974  0.40854363  1
  O  O41  1  0.57589896  0.75790765  0.30130437  1
  O  O42  1  0.68687809  0.56713008  0.60757627  1
  O  O43  1  0.68717135  0.93049963  0.60453816  1
  O  O44  1  0.68162029  0.56722232  0.10877380  1
  O  O45  1  0.68186396  0.93347741  0.10609282  1
  O  O46  1  0.85571935  0.24938245  0.73482913  1
  O  O47  1  0.85516867  0.24634790  0.23599087  1
  O  O48  1  0.87667588  0.24821740  0.51787831  1
  O  O49  1  0.87699328  0.24990485  0.01897354  1
  O  O50  1  0.91530823  0.74973817  0.85240471  1
  O  O51  1  0.91059643  0.76187363  0.35704516  1
