# generated using pymatgen
data_LiTiP2O7
_symmetry_space_group_name_H-M   'P 1'
_cell_length_a   5.27045301
_cell_length_b   8.20202958
_cell_length_c   13.39785875
_cell_angle_alpha   90.00000000
_cell_angle_beta   90.05058717
_cell_angle_gamma   90.00000000
_symmetry_Int_Tables_number   1
_chemical_formula_structural   LiTiP2O7
_chemical_formula_sum   'Li4 Ti4 P8 O28'
_cell_volume   579.16792497
_cell_formula_units_Z   4
loop_
 _symmetry_equiv_pos_site_id
 _symmetry_equiv_pos_as_xyz
  1  'x, y, z'
loop_
 _atom_site_type_symbol
 _atom_site_label
 _atom_site_symmetry_multiplicity
 _atom_site_fract_x
 _atom_site_fract_y
 _atom_site_fract_z
 _atom_site_occupancy
  Li  Li0  1  0.19866488  0.76352463  0.25591197  1
  Li  Li1  1  0.30133512  0.26352463  0.24408803  1
  Li  Li2  1  0.69866488  0.73647537  0.75591197  1
  Li  Li3  1  0.80133512  0.23647537  0.74408803  1
  Ti  Ti4  1  0.20203340  0.65070522  0.87576839  1
  Ti  Ti5  1  0.29796660  0.15070522  0.62423161  1
  Ti  Ti6  1  0.70203340  0.84929478  0.37576839  1
  Ti  Ti7  1  0.79796660  0.34929478  0.12423161  1
  P  P8  1  0.19411267  0.79605565  0.52209862  1
  P  P9  1  0.22069770  0.54217373  0.67799396  1
  P  P10  1  0.27930230  0.04217373  0.82200604  1
  P  P11  1  0.30588733  0.29605565  0.97790138  1
  P  P12  1  0.69411267  0.70394435  0.02209862  1
  P  P13  1  0.72069770  0.95782627  0.17799396  1
  P  P14  1  0.77930230  0.45782627  0.32200604  1
  P  P15  1  0.80588733  0.20394435  0.47790138  1
  O  O16  1  0.97042751  0.93649753  0.23310980  1
  O  O17  1  0.01694193  0.63572668  0.73755367  1
  O  O18  1  0.08815207  0.18097169  0.49362294  1
  O  O19  1  0.19219695  0.41421675  0.90022123  1
  O  O20  1  0.14105984  0.36345784  0.66340391  1
  O  O21  1  0.15057932  0.29497507  0.07574836  1
  O  O22  1  0.23666205  0.61371953  0.56640237  1
  O  O23  1  0.26333795  0.11371953  0.93359763  1
  O  O24  1  0.34942068  0.79497507  0.42425164  1
  O  O25  1  0.35894016  0.86345784  0.83659609  1
  O  O26  1  0.30780305  0.91421675  0.59977877  1
  O  O27  1  0.41184793  0.68097169  0.00637706  1
  O  O28  1  0.48305807  0.13572668  0.76244633  1
  O  O29  1  0.52957249  0.43649753  0.26689020  1
  O  O30  1  0.47042751  0.56350247  0.73310980  1
  O  O31  1  0.51694193  0.86427332  0.23755367  1
  O  O32  1  0.58815207  0.31902831  0.99362294  1
  O  O33  1  0.69219695  0.08578325  0.40022123  1
  O  O34  1  0.64105984  0.13654216  0.16340391  1
  O  O35  1  0.65057932  0.20502493  0.57574836  1
  O  O36  1  0.73666205  0.88628047  0.06640237  1
  O  O37  1  0.76333795  0.38628047  0.43359763  1
  O  O38  1  0.84942068  0.70502493  0.92425164  1
  O  O39  1  0.85894016  0.63654216  0.33659609  1
  O  O40  1  0.80780305  0.58578325  0.09977877  1
  O  O41  1  0.91184793  0.81902831  0.50637706  1
  O  O42  1  0.98305807  0.36427332  0.26244633  1
  O  O43  1  0.02957249  0.06350247  0.76689020  1
