# generated using pymatgen
data_Li4Ti3V5O16
_symmetry_space_group_name_H-M   'P 1'
_cell_length_a   5.93854804
_cell_length_b   5.90904767
_cell_length_c   9.67146588
_cell_angle_alpha   90.55917500
_cell_angle_beta   90.55512949
_cell_angle_gamma   119.59731868
_symmetry_Int_Tables_number   1
_chemical_formula_structural   Li4Ti3V5O16
_chemical_formula_sum   'Li4 Ti3 V5 O16'
_cell_volume   295.04449404
_cell_formula_units_Z   1
loop_
 _symmetry_equiv_pos_site_id
 _symmetry_equiv_pos_as_xyz
  1  'x, y, z'
loop_
 _atom_site_type_symbol
 _atom_site_label
 _atom_site_symmetry_multiplicity
 _atom_site_fract_x
 _atom_site_fract_y
 _atom_site_fract_z
 _atom_site_occupancy
  Li  Li0  1  0.33777369  0.66786396  0.89501360  1
  Li  Li1  1  0.99270546  0.99589981  0.99495885  1
  Li  Li2  1  0.00258959  0.00251500  0.49738547  1
  Li  Li3  1  0.66787171  0.33346158  0.39442280  1
  Ti  Ti4  1  0.17674012  0.83844699  0.21601923  1
  Ti  Ti5  1  0.17175113  0.33943407  0.21639777  1
  Ti  Ti6  1  0.34204462  0.17006742  0.72167727  1
  V  V7  1  0.33639593  0.67145924  0.48772239  1
  V  V8  1  0.65808068  0.82937076  0.21005513  1
  V  V9  1  0.67343107  0.33538761  0.98730179  1
  V  V10  1  0.84092494  0.18296678  0.71048942  1
  V  V11  1  0.83365948  0.65897628  0.70908321  1
  O  O12  1  0.16447995  0.83461904  0.60172395  1
  O  O13  1  0.04039829  0.52106582  0.33782980  1
  O  O14  1  0.30699256  0.65172717  0.10218871  1
  O  O15  1  0.00882274  0.00594150  0.31227546  1
  O  O16  1  0.00973216  0.01105191  0.81035358  1
  O  O17  1  0.16292146  0.32804120  0.60550417  1
  O  O18  1  0.47437031  0.96428719  0.33566985  1
  O  O19  1  0.47454904  0.51541491  0.33901684  1
  O  O20  1  0.32009102  0.15958091  0.10499404  1
  O  O21  1  0.67612558  0.84547495  0.60316464  1
  O  O22  1  0.52316508  0.48019968  0.83887200  1
  O  O23  1  0.52069185  0.04008880  0.83822933  1
  O  O24  1  0.64810006  0.31327033  0.59981223  1
  O  O25  1  0.83407303  0.67092907  0.10142646  1
  O  O26  1  0.96807775  0.47085733  0.83375643  1
  O  O27  1  0.83344271  0.16189969  0.10249659  1
