# generated using pymatgen
data_Ti3Cu2Sn(PO4)6
_symmetry_space_group_name_H-M   'P 1'
_cell_length_a   8.70600210
_cell_length_b   8.70600155
_cell_length_c   8.70600159
_cell_angle_alpha   59.85058737
_cell_angle_beta   59.85058949
_cell_angle_gamma   59.85058932
_symmetry_Int_Tables_number   1
_chemical_formula_structural   Ti3Cu2Sn(PO4)6
_chemical_formula_sum   'Ti3 Cu2 Sn1 P6 O24'
_cell_volume   465.01417179
_cell_formula_units_Z   1
loop_
 _symmetry_equiv_pos_site_id
 _symmetry_equiv_pos_as_xyz
  1  'x, y, z'
loop_
 _atom_site_type_symbol
 _atom_site_label
 _atom_site_symmetry_multiplicity
 _atom_site_fract_x
 _atom_site_fract_y
 _atom_site_fract_z
 _atom_site_occupancy
  Ti  Ti0  1  0.14149456  0.14149456  0.14149456  1
  Ti  Ti1  1  0.35764126  0.35764126  0.35764126  1
  Ti  Ti2  1  0.64158325  0.64158325  0.64158325  1
  Cu  Cu3  1  0.00377644  0.00377644  0.00377644  1
  Cu  Cu4  1  0.49993760  0.49993760  0.49993760  1
  Sn  Sn5  1  0.85739985  0.85739985  0.85739985  1
  P  P6  1  0.74859584  0.45656933  0.04118635  1
  P  P7  1  0.25217474  0.53681555  0.96152766  1
  P  P8  1  0.53681555  0.96152766  0.25217474  1
  P  P9  1  0.96152766  0.25217474  0.53681555  1
  P  P10  1  0.04118635  0.74859584  0.45656933  1
  P  P11  1  0.45656933  0.04118635  0.74859584  1
  O  O12  1  0.12462545  0.30539065  0.49651111  1
  O  O13  1  0.30539065  0.49651111  0.12462545  1
  O  O14  1  0.05966533  0.91579682  0.26883812  1
  O  O15  1  0.49651111  0.12462545  0.30539065  1
  O  O16  1  0.01441133  0.79956594  0.61496022  1
  O  O17  1  0.22921010  0.58215259  0.43585567  1
  O  O18  1  0.26883812  0.05966533  0.91579682  1
  O  O19  1  0.43585567  0.22921010  0.58215259  1
  O  O20  1  0.19776049  0.37472022  0.00014909  1
  O  O21  1  0.58215259  0.43585567  0.22921010  1
  O  O22  1  0.08799385  0.72861249  0.94545093  1
  O  O23  1  0.37472022  0.00014909  0.19776049  1
  O  O24  1  0.61496022  0.01441133  0.79956594  1
  O  O25  1  0.91579682  0.26883812  0.05966533  1
  O  O26  1  0.41828365  0.55671296  0.77205631  1
  O  O27  1  0.79956594  0.61496022  0.01441133  1
  O  O28  1  0.55671296  0.77205631  0.41828365  1
  O  O29  1  0.72861249  0.94545093  0.08799385  1
  O  O30  1  0.77205631  0.41828365  0.55671296  1
  O  O31  1  0.00014909  0.19776049  0.37472022  1
  O  O32  1  0.50047531  0.87404095  0.69805798  1
  O  O33  1  0.94545093  0.08799385  0.72861249  1
  O  O34  1  0.69805798  0.50047531  0.87404095  1
  O  O35  1  0.87404095  0.69805798  0.50047531  1
