# generated using pymatgen
data_V2O3F
_symmetry_space_group_name_H-M   'P 1'
_cell_length_a   4.66308330
_cell_length_b   4.66308330
_cell_length_c   15.24241483
_cell_angle_alpha   90.00000000
_cell_angle_beta   90.00000000
_cell_angle_gamma   93.54685196
_symmetry_Int_Tables_number   1
_chemical_formula_structural   V2O3F
_chemical_formula_sum   'V10 O15 F5'
_cell_volume   330.80148779
_cell_formula_units_Z   5
loop_
 _symmetry_equiv_pos_site_id
 _symmetry_equiv_pos_as_xyz
  1  'x, y, z'
loop_
 _atom_site_type_symbol
 _atom_site_label
 _atom_site_symmetry_multiplicity
 _atom_site_fract_x
 _atom_site_fract_y
 _atom_site_fract_z
 _atom_site_occupancy
  V  V0  1  0.00048663  0.99951337  0.40054284  1
  V  V1  1  0.99255287  0.00744613  0.20000000  1
  V  V2  1  0.00048663  0.99951337  0.99945716  1
  V  V3  1  0.01637417  0.98362583  0.60132183  1
  V  V4  1  0.01637417  0.98362583  0.79867817  1
  V  V5  1  0.53952729  0.46047271  0.10003714  1
  V  V6  1  0.46248411  0.53751589  0.49902848  1
  V  V7  1  0.48600735  0.51399265  0.70000000  1
  V  V8  1  0.46248411  0.53751589  0.90097152  1
  V  V9  1  0.53952729  0.46047271  0.29996286  1
  O  O10  1  0.19690034  0.80309966  0.89953900  1
  O  O11  1  0.19381404  0.80618596  0.70000000  1
  O  O12  1  0.19690034  0.80309966  0.50046100  1
  O  O13  1  0.30773886  0.30763207  0.00029607  1
  O  O14  1  0.30883124  0.30563979  0.20000000  1
  O  O15  1  0.30773886  0.30763207  0.39970393  1
  O  O16  1  0.29442198  0.30170910  0.59666032  1
  O  O17  1  0.29442198  0.30170910  0.80333968  1
  O  O18  1  0.69236793  0.69226114  0.00029607  1
  O  O19  1  0.69436021  0.69116876  0.20000000  1
  O  O20  1  0.69236793  0.69226114  0.39970393  1
  O  O21  1  0.69829090  0.70557802  0.59666032  1
  O  O22  1  0.69829090  0.70557802  0.80333968  1
  O  O23  1  0.80260038  0.19739962  0.09943475  1
  O  O24  1  0.80260038  0.19739962  0.30056525  1
  F  F25  1  0.20069054  0.79930946  0.10044407  1
  F  F26  1  0.20069054  0.79930946  0.29955593  1
  F  F27  1  0.80049137  0.19950863  0.50118638  1
  F  F28  1  0.80049137  0.19950863  0.89881362  1
  F  F29  1  0.79968727  0.20031273  0.70000000  1
