# generated using pymatgen
data_Li4Co3Sn3(SbO8)2
_symmetry_space_group_name_H-M   'P 1'
_cell_length_a   6.18695173
_cell_length_b   6.17777892
_cell_length_c   9.86566323
_cell_angle_alpha   90.00664962
_cell_angle_beta   90.47887963
_cell_angle_gamma   119.93920138
_symmetry_Int_Tables_number   1
_chemical_formula_structural   Li4Co3Sn3(SbO8)2
_chemical_formula_sum   'Li4 Co3 Sn3 Sb2 O16'
_cell_volume   326.74674240
_cell_formula_units_Z   1
loop_
 _symmetry_equiv_pos_site_id
 _symmetry_equiv_pos_as_xyz
  1  'x, y, z'
loop_
 _atom_site_type_symbol
 _atom_site_label
 _atom_site_symmetry_multiplicity
 _atom_site_fract_x
 _atom_site_fract_y
 _atom_site_fract_z
 _atom_site_occupancy
  Li  Li0  1  0.33347090  0.66681344  0.89717828  1
  Li  Li1  1  0.96540581  0.98271137  0.97843650  1
  Li  Li2  1  0.98054973  0.99052055  0.49831181  1
  Li  Li3  1  0.66275535  0.33129406  0.41105229  1
  Co  Co4  1  0.65892125  0.82943518  0.21365315  1
  Co  Co5  1  0.83467485  0.65862857  0.71200827  1
  Co  Co6  1  0.83464612  0.17603411  0.71205254  1
  Sn  Sn7  1  0.17168032  0.83213883  0.21340708  1
  Sn  Sn8  1  0.17172027  0.33956946  0.21339596  1
  Sn  Sn9  1  0.34289285  0.17146793  0.71279302  1
  Sb  Sb10  1  0.34711584  0.67357560  0.49309909  1
  Sb  Sb11  1  0.68436911  0.34220368  0.97868419  1
  O  O12  1  0.17550619  0.83358982  0.58810230  1
  O  O13  1  0.03696950  0.51854502  0.34684509  1
  O  O14  1  0.32745490  0.66371093  0.10303900  1
  O  O15  1  0.00177779  0.00096887  0.30801563  1
  O  O16  1  0.00551748  0.00275384  0.79604100  1
  O  O17  1  0.17548392  0.34193902  0.58807938  1
  O  O18  1  0.47614072  0.95978240  0.34737849  1
  O  O19  1  0.47618006  0.51628703  0.34734996  1
  O  O20  1  0.33581386  0.16787370  0.09577515  1
  O  O21  1  0.66576843  0.83282768  0.59063100  1
  O  O22  1  0.51591716  0.47767680  0.85622768  1
  O  O23  1  0.51607563  0.03829823  0.85621731  1
  O  O24  1  0.66214538  0.33106174  0.60815802  1
  O  O25  1  0.83597339  0.66541568  0.09480774  1
  O  O26  1  0.96913569  0.48456347  0.85224643  1
  O  O27  1  0.83593850  0.17061300  0.09485563  1
