# generated using pymatgen
data_Li2FeNi3O8
_symmetry_space_group_name_H-M   'P 1'
_cell_length_a   8.14140274
_cell_length_b   8.10247499
_cell_length_c   8.30533084
_cell_angle_alpha   90.24108257
_cell_angle_beta   90.11939421
_cell_angle_gamma   89.96893133
_symmetry_Int_Tables_number   1
_chemical_formula_structural   Li2FeNi3O8
_chemical_formula_sum   'Li8 Fe4 Ni12 O32'
_cell_volume   547.85928435
_cell_formula_units_Z   4
loop_
 _symmetry_equiv_pos_site_id
 _symmetry_equiv_pos_as_xyz
  1  'x, y, z'
loop_
 _atom_site_type_symbol
 _atom_site_label
 _atom_site_symmetry_multiplicity
 _atom_site_fract_x
 _atom_site_fract_y
 _atom_site_fract_z
 _atom_site_occupancy
  Li  Li0  1  0.99447808  -0.00023872  0.99888903  1
  Li  Li1  1  0.25470058  0.25066767  0.25283970  1
  Li  Li2  1  0.25222792  0.74957074  0.75578720  1
  Li  Li3  1  0.49611927  0.99909444  0.49633178  1
  Li  Li4  1  0.49949754  0.50036298  0.99710988  1
  Li  Li5  1  0.75182511  0.24963570  0.75138814  1
  Li  Li6  1  0.74904352  0.75158953  0.25244598  1
  Li  Li7  1  0.00055831  0.49977339  0.49484349  1
  Fe  Fe8  1  0.12756066  0.87524128  0.37202141  1
  Fe  Fe9  1  0.37855122  0.12262900  0.87533035  1
  Fe  Fe10  1  0.62712637  0.62703196  0.62144756  1
  Fe  Fe11  1  0.87413150  0.37643088  0.12707334  1
  Ni  Ni12  1  0.11817394  0.12872364  0.62674425  1
  Ni  Ni13  1  0.12250853  0.37696315  0.87130618  1
  Ni  Ni14  1  0.13081931  0.62460166  0.11950159  1
  Ni  Ni15  1  0.37139249  0.37674627  0.62404809  1
  Ni  Ni16  1  0.37776405  0.62018580  0.36701222  1
  Ni  Ni17  1  0.37654687  0.87206560  0.12386210  1
  Ni  Ni18  1  0.62423605  0.37184498  0.37918873  1
  Ni  Ni19  1  0.62033027  0.12035338  0.13395222  1
  Ni  Ni20  1  0.62913567  0.87388755  0.87800918  1
  Ni  Ni21  1  0.87133587  0.12736563  0.38303122  1
  Ni  Ni22  1  0.87397115  0.87808570  0.62236337  1
  Ni  Ni23  1  0.87848311  0.62704725  0.87579967  1
  O  O24  1  0.10377064  0.12605674  0.39768483  1
  O  O25  1  0.10747694  0.89424343  0.61905400  1
  O  O26  1  0.11116503  0.60995540  0.89092757  1
  O  O27  1  0.12549569  0.14523648  0.85462185  1
  O  O28  1  0.12755448  0.39261548  0.10047236  1
  O  O29  1  0.11979919  0.35868436  0.64510614  1
  O  O30  1  0.14591274  0.62507762  0.34786189  1
  O  O31  1  0.14254274  0.85646785  0.12651011  1
  O  O32  1  0.34796243  0.13753327  0.63030133  1
  O  O33  1  0.35317598  0.37172324  0.85277014  1
  O  O34  1  0.36052938  0.64179363  0.12529023  1
  O  O35  1  0.39123064  0.61419406  0.61566924  1
  O  O36  1  0.37007189  0.86288420  0.35013068  1
  O  O37  1  0.39387039  0.38117846  0.39584209  1
  O  O38  1  0.38168074  0.10375534  0.11867073  1
  O  O39  1  0.39209556  0.87668253  0.89779073  1
  O  O40  1  0.62668371  0.39181145  0.60517982  1
  O  O41  1  0.60697177  0.60276998  0.37448654  1
  O  O42  1  0.60598177  0.89084498  0.12396705  1
  O  O43  1  0.62477791  0.35347824  0.15046684  1
  O  O44  1  0.61912763  0.10688638  0.88348570  1
  O  O45  1  0.64341146  0.14232261  0.38014389  1
  O  O46  1  0.64321609  0.86187545  0.62641210  1
  O  O47  1  0.64804803  0.63931560  0.86830393  1
  O  O48  1  0.85562419  0.35794065  0.37133186  1
  O  O49  1  0.86283150  0.12724902  0.15724652  1
  O  O50  1  0.86433627  0.86479453  0.84914860  1
  O  O51  1  0.87879172  0.89574058  0.39549828  1
  O  O52  1  0.86502746  0.64874805  0.62257615  1
  O  O53  1  0.88707805  0.11099859  0.61134501  1
  O  O54  1  0.89194015  0.38760857  0.88655293  1
  O  O55  1  0.90130342  0.62001277  0.12496020  1
