# generated using pymatgen
data_Li2Ni3SbO8
_symmetry_space_group_name_H-M   'P 1'
_cell_length_a   8.36274981
_cell_length_b   8.36519858
_cell_length_c   8.35479545
_cell_angle_alpha   89.99949207
_cell_angle_beta   90.00148203
_cell_angle_gamma   90.00043315
_symmetry_Int_Tables_number   1
_chemical_formula_structural   Li2Ni3SbO8
_chemical_formula_sum   'Li8 Ni12 Sb4 O32'
_cell_volume   584.46859536
_cell_formula_units_Z   4
loop_
 _symmetry_equiv_pos_site_id
 _symmetry_equiv_pos_as_xyz
  1  'x, y, z'
loop_
 _atom_site_type_symbol
 _atom_site_label
 _atom_site_symmetry_multiplicity
 _atom_site_fract_x
 _atom_site_fract_y
 _atom_site_fract_z
 _atom_site_occupancy
  Li  Li0  1  0.99880553  0.99873481  0.99867264  1
  Li  Li1  1  0.25129077  0.25117860  0.25125942  1
  Li  Li2  1  0.24872505  0.74879367  0.75128261  1
  Li  Li3  1  0.50116976  0.00123940  0.49868455  1
  Li  Li4  1  0.49881707  0.50128483  0.00131558  1
  Li  Li5  1  0.75130210  0.24882759  0.74874802  1
  Li  Li6  1  0.74873421  0.75115772  0.24871817  1
  Li  Li7  1  0.00116948  0.49877211  0.50131945  1
  Ni  Ni8  1  0.12252512  0.12747079  0.62504450  1
  Ni  Ni9  1  0.12531283  0.37732581  0.87240380  1
  Ni  Ni10  1  0.12730491  0.62500661  0.12256128  1
  Ni  Ni11  1  0.37261516  0.37498659  0.62258008  1
  Ni  Ni12  1  0.37483043  0.62270748  0.37236556  1
  Ni  Ni13  1  0.37735690  0.87247950  0.12509093  1
  Ni  Ni14  1  0.62252560  0.37254509  0.37498296  1
  Ni  Ni15  1  0.62531042  0.12266909  0.12765901  1
  Ni  Ni16  1  0.62732917  0.87499561  0.87745588  1
  Ni  Ni17  1  0.87261888  0.12508793  0.37739460  1
  Ni  Ni18  1  0.87473412  0.87728566  0.62769486  1
  Ni  Ni19  1  0.87747019  0.62750775  0.87493001  1
  Sb  Sb20  1  0.12502337  0.87509658  0.37503729  1
  Sb  Sb21  1  0.37498882  0.12494174  0.87505133  1
  Sb  Sb22  1  0.62507221  0.62492123  0.62494329  1
  Sb  Sb23  1  0.87497774  0.37506460  0.12497670  1
  O  O24  1  0.10631790  0.11508144  0.37998739  1
  O  O25  1  0.11974300  0.89361617  0.61523438  1
  O  O26  1  0.10910114  0.60922567  0.89125794  1
  O  O27  1  0.13487240  0.14363587  0.86995587  1
  O  O28  1  0.11509622  0.38013683  0.10618989  1
  O  O29  1  0.14103650  0.35928568  0.64117596  1
  O  O30  1  0.13003340  0.63490783  0.35608643  1
  O  O31  1  0.14361511  0.86977696  0.13471392  1
  O  O32  1  0.35620937  0.13021476  0.63468155  1
  O  O33  1  0.36996426  0.36508561  0.85622682  1
  O  O34  1  0.35910711  0.64089520  0.14118512  1
  O  O35  1  0.38488236  0.61985261  0.60609644  1
  O  O36  1  0.36511310  0.85645596  0.36995205  1
  O  O37  1  0.39102112  0.39070639  0.39111847  1
  O  O38  1  0.38025406  0.10625175  0.11527092  1
  O  O39  1  0.39356617  0.88495502  0.88001990  1
  O  O40  1  0.60625651  0.38491040  0.62001937  1
  O  O41  1  0.61976063  0.60639110  0.38474820  1
  O  O42  1  0.60917794  0.89076168  0.10871628  1
  O  O43  1  0.63485285  0.35637970  0.13004851  1
  O  O44  1  0.61512366  0.11987765  0.89387115  1
  O  O45  1  0.64095828  0.14070375  0.35879829  1
  O  O46  1  0.63003758  0.86512077  0.64393070  1
  O  O47  1  0.64374722  0.63024982  0.86528329  1
  O  O48  1  0.85617173  0.36977222  0.36531703  1
  O  O49  1  0.86996837  0.13489248  0.14387653  1
  O  O50  1  0.85919516  0.85920524  0.85867156  1
  O  O51  1  0.88486278  0.88013477  0.39397416  1
  O  O52  1  0.86510250  0.64348457  0.63003542  1
  O  O53  1  0.89100460  0.10937067  0.60878956  1
  O  O54  1  0.88024929  0.39366961  0.88474420  1
  O  O55  1  0.89358689  0.61505009  0.11999019  1
