# generated using pymatgen
data_Na5Li4Ti5O14
_symmetry_space_group_name_H-M   'P 1'
_cell_length_a   8.18933501
_cell_length_b   7.01390967
_cell_length_c   5.22651559
_cell_angle_alpha   97.69316911
_cell_angle_beta   101.97291678
_cell_angle_gamma   88.74489151
_symmetry_Int_Tables_number   1
_chemical_formula_structural   Na5Li4Ti5O14
_chemical_formula_sum   'Na5 Li4 Ti5 O14'
_cell_volume   291.02772944
_cell_formula_units_Z   1
loop_
 _symmetry_equiv_pos_site_id
 _symmetry_equiv_pos_as_xyz
  1  'x, y, z'
loop_
 _atom_site_type_symbol
 _atom_site_label
 _atom_site_symmetry_multiplicity
 _atom_site_fract_x
 _atom_site_fract_y
 _atom_site_fract_z
 _atom_site_occupancy
  Na  Na0  1  0.50213141  0.00004210  0.48804910  1
  Na  Na1  1  0.64030650  0.14313628  0.08344079  1
  Na  Na2  1  0.20485758  0.70500693  0.35299420  1
  Na  Na3  1  0.35736013  0.86522515  0.92770232  1
  Na  Na4  1  0.78428626  0.27662910  0.64210426  1
  Li  Li5  1  0.06547997  0.56690710  0.78302168  1
  Li  Li6  1  0.28322726  0.29167127  0.13867350  1
  Li  Li7  1  0.93604859  0.42513506  0.22196057  1
  Li  Li8  1  0.86077603  0.84980477  0.43160560  1
  Ti  Ti9  1  0.00379227  0.00716923  0.99777798  1
  Ti  Ti10  1  0.14043043  0.15047099  0.56880576  1
  Ti  Ti11  1  0.41796232  0.42740195  0.71471073  1
  Ti  Ti12  1  0.57766440  0.57186207  0.28893394  1
  Ti  Ti13  1  0.73001717  0.71453522  0.86118730  1
  O  O14  1  0.04395433  0.25574192  0.88838710  1
  O  O15  1  0.21794349  0.01822308  0.25688137  1
  O  O16  1  0.37229575  0.16924565  0.79257397  1
  O  O17  1  0.18184348  0.41648607  0.50344987  1
  O  O18  1  0.35084951  0.55486688  0.03019600  1
  O  O19  1  0.09338404  0.89804747  0.69194382  1
  O  O20  1  0.51878296  0.32463643  0.40455282  1
  O  O21  1  0.66261323  0.45259777  0.96965500  1
  O  O22  1  0.92185692  0.13717873  0.31150873  1
  O  O23  1  0.48642934  0.68653989  0.60168703  1
  O  O24  1  0.62444314  0.81795079  0.16707239  1
  O  O25  1  0.80060874  0.58237018  0.53487375  1
  O  O26  1  0.95193386  0.72228237  0.06632913  1
  O  O27  1  0.76832390  0.96913855  0.77972128  1
