# generated using pymatgen
data_Li32Ti3Cr13O48
_symmetry_space_group_name_H-M   'P 1'
_cell_length_a   5.06137839
_cell_length_b   8.73376139
_cell_length_c   19.55836583
_cell_angle_alpha   98.25294296
_cell_angle_beta   94.97986860
_cell_angle_gamma   89.90476799
_symmetry_Int_Tables_number   1
_chemical_formula_structural   Li32Ti3Cr13O48
_chemical_formula_sum   'Li32 Ti3 Cr13 O48'
_cell_volume   852.34063910
_cell_formula_units_Z   1
loop_
 _symmetry_equiv_pos_site_id
 _symmetry_equiv_pos_as_xyz
  1  'x, y, z'
loop_
 _atom_site_type_symbol
 _atom_site_label
 _atom_site_symmetry_multiplicity
 _atom_site_fract_x
 _atom_site_fract_y
 _atom_site_fract_z
 _atom_site_occupancy
  Li  Li0  1  0.98428868  0.16839892  0.24938766  1
  Li  Li1  1  0.87414178  0.37413337  0.37482933  1
  Li  Li2  1  0.74974412  0.25212134  0.00060787  1
  Li  Li3  1  0.74292162  0.92113464  0.00069869  1
  Li  Li4  1  0.99134496  0.16932972  0.74991911  1
  Li  Li5  1  0.75218686  0.57732139  0.50015427  1
  Li  Li6  1  0.87241044  0.37539559  0.87607368  1
  Li  Li7  1  0.74981838  0.24989444  0.49983587  1
  Li  Li8  1  0.74737641  0.92268810  0.49944835  1
  Li  Li9  1  0.62677212  0.12540619  0.12479831  1
  Li  Li10  1  0.75769969  0.57860002  0.99998102  1
  Li  Li11  1  0.51034462  0.33114210  0.24973559  1
  Li  Li12  1  0.62620250  0.12633525  0.62524244  1
  Li  Li13  1  0.50176828  0.00014402  0.24971405  1
  Li  Li14  1  0.49396299  0.66965950  0.24929649  1
  Li  Li15  1  0.51663947  0.33421206  0.75073381  1
  Li  Li16  1  0.37273789  0.87537112  0.37558770  1
  Li  Li17  1  0.50009688  0.00015736  0.75014129  1
  Li  Li18  1  0.25531281  0.74900030  0.99930672  1
  Li  Li19  1  0.48290632  0.66567055  0.74932128  1
  Li  Li20  1  0.24361823  0.42014244  0.99975184  1
  Li  Li21  1  0.37397061  0.87399148  0.87490133  1
  Li  Li22  1  0.25545312  0.07858267  0.49909168  1
  Li  Li23  1  0.25004842  0.74959948  0.49985817  1
  Li  Li24  1  0.12319394  0.62422172  0.12504603  1
  Li  Li25  1  0.24474294  0.42177155  0.50069461  1
  Li  Li26  1  0.00968076  0.83232502  0.25049280  1
  Li  Li27  1  0.25303968  0.07792915  0.00020441  1
  Li  Li28  1  0.12748541  0.62436637  0.62391555  1
  Li  Li29  1  0.00118285  0.49803608  0.25013811  1
  Li  Li30  1  0.00864409  0.83070354  0.75043145  1
  Li  Li31  1  0.00002476  0.50028989  0.75001398  1
  Ti  Ti32  1  0.86831925  0.71120071  0.87306123  1
  Ti  Ti33  1  0.36913833  0.21142584  0.37297954  1
  Ti  Ti34  1  0.13128446  0.28856990  0.62712930  1
  Cr  Cr35  1  0.87943473  0.70326358  0.37595862  1
  Cr  Cr36  1  0.86938936  0.03808401  0.37436741  1
  Cr  Cr37  1  0.88020333  0.04770694  0.87602309  1
  Cr  Cr38  1  0.62921325  0.79666746  0.12583651  1
  Cr  Cr39  1  0.62010864  0.46139158  0.12536588  1
  Cr  Cr40  1  0.62055360  0.79708440  0.62378754  1
  Cr  Cr41  1  0.63091691  0.46188770  0.62511422  1
  Cr  Cr42  1  0.37973260  0.54795315  0.37523862  1
  Cr  Cr43  1  0.36884269  0.53784430  0.87509587  1
  Cr  Cr44  1  0.38034227  0.20283872  0.87652382  1
  Cr  Cr45  1  0.12267560  0.95286533  0.12428394  1
  Cr  Cr46  1  0.12971503  0.28843426  0.12454232  1
  Cr  Cr47  1  0.12044060  0.95222524  0.62443416  1
  O  O48  1  0.96403960  0.10095563  0.06845990  1
  O  O49  1  0.93388730  0.78686782  0.06871872  1
  O  O50  1  0.92591092  0.42727862  0.06862623  1
  O  O51  1  0.96548066  0.10377150  0.56895380  1
  O  O52  1  0.81638247  0.96368751  0.18130763  1
  O  O53  1  0.82407691  0.32327921  0.18138802  1
  O  O54  1  0.93541641  0.78784680  0.56856613  1
  O  O55  1  0.91941961  0.42896422  0.56761359  1
  O  O56  1  0.78530958  0.64945088  0.18170232  1
  O  O57  1  0.71563926  0.85884375  0.31983196  1
  O  O58  1  0.81381310  0.95887372  0.68130830  1
  O  O59  1  0.82726904  0.32101503  0.68407386  1
  O  O60  1  0.68707567  0.54108842  0.31867540  1
  O  O61  1  0.67281727  0.17877016  0.31579881  1
  O  O62  1  0.78217517  0.64118620  0.67988821  1
  O  O63  1  0.71231829  0.86040017  0.81847590  1
  O  O64  1  0.46876141  0.60435090  0.06942402  1
  O  O65  1  0.56480055  0.71228233  0.43123858  1
  O  O66  1  0.58015709  0.07080945  0.43210431  1
  O  O67  1  0.67414337  0.53301732  0.81906753  1
  O  O68  1  0.68675952  0.17439326  0.81826540  1
  O  O69  1  0.43306977  0.92233926  0.06777534  1
  O  O70  1  0.41622662  0.28330727  0.06875967  1
  O  O71  1  0.53489463  0.39623375  0.43098131  1
  O  O72  1  0.46202940  0.61177543  0.56856775  1
  O  O73  1  0.56821774  0.71234442  0.93117133  1
  O  O74  1  0.56644859  0.07419052  0.93308063  1
  O  O75  1  0.31768026  0.82719513  0.18224293  1
  O  O76  1  0.33355714  0.46666125  0.18132201  1
  O  O77  1  0.43383599  0.92548984  0.56728760  1
  O  O78  1  0.43194091  0.28738657  0.56906943  1
  O  O79  1  0.53713368  0.38794339  0.93167825  1
  O  O80  1  0.28053783  0.14508515  0.18062583  1
  O  O81  1  0.21309010  0.36050483  0.31813826  1
  O  O82  1  0.31334703  0.82553533  0.68207699  1
  O  O83  1  0.32576227  0.46711988  0.68113613  1
  O  O84  1  0.18667277  0.67461286  0.31761224  1
  O  O85  1  0.17354750  0.03272018  0.31854474  1
  O  O86  1  0.28772794  0.13976285  0.68187083  1
  O  O87  1  0.21771934  0.35891106  0.82029823  1
  O  O88  1  0.06631827  0.57469903  0.43246392  1
  O  O89  1  0.06816053  0.21260360  0.43078788  1
  O  O90  1  0.17260685  0.67910596  0.81620475  1
  O  O91  1  0.18609208  0.04128766  0.81896634  1
  O  O92  1  0.03760933  0.88851096  0.43111124  1
  O  O93  1  0.08081447  0.57124329  0.93270705  1
  O  O94  1  0.06433998  0.21255891  0.93156543  1
  O  O95  1  0.03489449  0.89622226  0.93137073  1
