# generated using pymatgen
data_Li32Ti3Cr13O48
_symmetry_space_group_name_H-M   'P 1'
_cell_length_a   5.05906385
_cell_length_b   8.72076810
_cell_length_c   19.54091525
_cell_angle_alpha   98.44984210
_cell_angle_beta   95.00606047
_cell_angle_gamma   90.09194389
_symmetry_Int_Tables_number   1
_chemical_formula_structural   Li32Ti3Cr13O48
_chemical_formula_sum   'Li32 Ti3 Cr13 O48'
_cell_volume   849.42171084
_cell_formula_units_Z   1
loop_
 _symmetry_equiv_pos_site_id
 _symmetry_equiv_pos_as_xyz
  1  'x, y, z'
loop_
 _atom_site_type_symbol
 _atom_site_label
 _atom_site_symmetry_multiplicity
 _atom_site_fract_x
 _atom_site_fract_y
 _atom_site_fract_z
 _atom_site_occupancy
  Li  Li0  1  0.99093538  0.16931616  0.24914550  1
  Li  Li1  1  0.87284286  0.37499737  0.37561650  1
  Li  Li2  1  0.74717149  0.25065842  0.99981331  1
  Li  Li3  1  0.74273635  0.91909671  0.99975487  1
  Li  Li4  1  0.99461395  0.17092937  0.75024403  1
  Li  Li5  1  0.75179011  0.57891630  0.50028409  1
  Li  Li6  1  0.87591679  0.37604279  0.87530834  1
  Li  Li7  1  0.74303338  0.25297851  0.50025030  1
  Li  Li8  1  0.74639501  0.92167976  0.50041652  1
  Li  Li9  1  0.62684241  0.12607199  0.12514784  1
  Li  Li10  1  0.76071373  0.58183110  0.00010033  1
  Li  Li11  1  0.51039141  0.33339725  0.25013436  1
  Li  Li12  1  0.62584450  0.12611039  0.62516176  1
  Li  Li13  1  0.50215119  0.99919304  0.25038302  1
  Li  Li14  1  0.48530644  0.66676032  0.24967214  1
  Li  Li15  1  0.51290994  0.33194530  0.74970242  1
  Li  Li16  1  0.37465941  0.87373465  0.37476222  1
  Li  Li17  1  0.49935993  0.99949534  0.74959529  1
  Li  Li18  1  0.25001629  0.74816201  0.00067021  1
  Li  Li19  1  0.49241394  0.66803446  0.74954312  1
  Li  Li20  1  0.24326855  0.42098086  0.00090610  1
  Li  Li21  1  0.37760290  0.87452402  0.87426050  1
  Li  Li22  1  0.25328797  0.07839717  0.49933669  1
  Li  Li23  1  0.25806187  0.74663582  0.49981787  1
  Li  Li24  1  0.12782588  0.62436008  0.12489970  1
  Li  Li25  1  0.24809756  0.42202019  0.49989338  1
  Li  Li26  1  0.00859225  0.83077503  0.25019085  1
  Li  Li27  1  0.25543081  0.08009294  0.00061562  1
  Li  Li28  1  0.12765872  0.62471040  0.62415930  1
  Li  Li29  1  0.00262186  0.49983274  0.24925039  1
  Li  Li30  1  0.00506518  0.83021078  0.75118867  1
  Li  Li31  1  0.99423709  0.50085191  0.75072247  1
  Ti  Ti32  1  0.87309789  0.71083282  0.37391028  1
  Ti  Ti33  1  0.37835020  0.53904032  0.87677482  1
  Ti  Ti34  1  0.12836846  0.28927068  0.62654861  1
  Cr  Cr35  1  0.87629399  0.04717504  0.37495667  1
  Cr  Cr36  1  0.87872002  0.71180000  0.87515702  1
  Cr  Cr37  1  0.87097568  0.04684599  0.87414763  1
  Cr  Cr38  1  0.62233416  0.79735783  0.12444614  1
  Cr  Cr39  1  0.62975612  0.46201446  0.12563853  1
  Cr  Cr40  1  0.62212177  0.79692548  0.62407532  1
  Cr  Cr41  1  0.62872850  0.46157957  0.62497620  1
  Cr  Cr42  1  0.37242759  0.53815509  0.37454936  1
  Cr  Cr43  1  0.37662015  0.20287408  0.37553051  1
  Cr  Cr44  1  0.37144327  0.20262996  0.87470707  1
  Cr  Cr45  1  0.12142602  0.95303710  0.12436569  1
  Cr  Cr46  1  0.13074931  0.28848533  0.12576311  1
  Cr  Cr47  1  0.12246117  0.95244437  0.62465351  1
  O  O48  1  0.96445570  0.10190710  0.06890047  1
  O  O49  1  0.93461333  0.78744974  0.06869062  1
  O  O50  1  0.92107050  0.42477558  0.06871512  1
  O  O51  1  0.96464382  0.10332622  0.56880641  1
  O  O52  1  0.81563652  0.96132579  0.18142629  1
  O  O53  1  0.82907615  0.32133777  0.18254804  1
  O  O54  1  0.93473590  0.78749486  0.56853304  1
  O  O55  1  0.91958104  0.42859319  0.56763434  1
  O  O56  1  0.78121751  0.64373352  0.18027900  1
  O  O57  1  0.71305181  0.85984513  0.31830422  1
  O  O58  1  0.81649315  0.95970644  0.68140854  1
  O  O59  1  0.82563264  0.32157635  0.68375972  1
  O  O60  1  0.67421795  0.53339893  0.31865927  1
  O  O61  1  0.68414887  0.17492229  0.31764146  1
  O  O62  1  0.78264627  0.64202975  0.67959852  1
  O  O63  1  0.71197118  0.86053651  0.81865848  1
  O  O64  1  0.46531813  0.61029389  0.06893897  1
  O  O65  1  0.57017286  0.71341645  0.43121554  1
  O  O66  1  0.56625473  0.07550150  0.43232075  1
  O  O67  1  0.68100366  0.53715508  0.81889186  1
  O  O68  1  0.68264351  0.17481002  0.81767675  1
  O  O69  1  0.43323073  0.92515305  0.06746014  1
  O  O70  1  0.42102733  0.28699106  0.06956038  1
  O  O71  1  0.53710460  0.38906701  0.43080916  1
  O  O72  1  0.46213808  0.61073098  0.56876105  1
  O  O73  1  0.57576331  0.71727934  0.93132085  1
  O  O74  1  0.56428477  0.07519195  0.93216745  1
  O  O75  1  0.31591798  0.82677642  0.18223080  1
  O  O76  1  0.32889546  0.46542488  0.18111261  1
  O  O77  1  0.43344916  0.92485611  0.56744636  1
  O  O78  1  0.43043698  0.28704093  0.56877609  1
  O  O79  1  0.53684661  0.39031723  0.93190664  1
  O  O80  1  0.28304611  0.14349525  0.18069293  1
  O  O81  1  0.21721683  0.35762310  0.32011971  1
  O  O82  1  0.31521148  0.82512730  0.68197752  1
  O  O83  1  0.32558955  0.46725346  0.68134816  1
  O  O84  1  0.17463785  0.67826502  0.31606645  1
  O  O85  1  0.18293613  0.03953113  0.31817250  1
  O  O86  1  0.28771750  0.14022702  0.68160543  1
  O  O87  1  0.21593466  0.35334277  0.81882104  1
  O  O88  1  0.08081904  0.57165848  0.43217103  1
  O  O89  1  0.06465327  0.21216289  0.43108249  1
  O  O90  1  0.16959793  0.67859206  0.81762317  1
  O  O91  1  0.18364683  0.03732317  0.81873285  1
  O  O92  1  0.03593289  0.89695043  0.43114243  1
  O  O93  1  0.07564959  0.57145137  0.93384209  1
  O  O94  1  0.06531937  0.20974324  0.93144705  1
  O  O95  1  0.03273830  0.89207393  0.92984507  1
