# generated using pymatgen
data_Li4Co3(NiO4)3
_symmetry_space_group_name_H-M   'P 1'
_cell_length_a   6.55807471
_cell_length_b   5.85347249
_cell_length_c   5.66809850
_cell_angle_alpha   88.47717541
_cell_angle_beta   102.73300924
_cell_angle_gamma   76.38799838
_symmetry_Int_Tables_number   1
_chemical_formula_structural   Li4Co3(NiO4)3
_chemical_formula_sum   'Li4 Co3 Ni3 O12'
_cell_volume   205.56459604
_cell_formula_units_Z   1
loop_
 _symmetry_equiv_pos_site_id
 _symmetry_equiv_pos_as_xyz
  1  'x, y, z'
loop_
 _atom_site_type_symbol
 _atom_site_label
 _atom_site_symmetry_multiplicity
 _atom_site_fract_x
 _atom_site_fract_y
 _atom_site_fract_z
 _atom_site_occupancy
  Li  Li0  1  0.00871821  0.48890810  0.48193044  1
  Li  Li1  1  0.32461479  0.17775790  0.85140256  1
  Li  Li2  1  0.66666700  0.83333300  0.16666700  1
  Li  Li3  1  0.66666700  0.83333300  0.66666700  1
  Co  Co4  1  0.00160170  0.00134026  0.49905738  1
  Co  Co5  1  0.66666700  0.33333300  0.16666700  1
  Co  Co6  1  0.33173130  0.66532674  0.83427562  1
  Ni  Ni7  1  0.00104235  0.00188566  0.00053154  1
  Ni  Ni8  1  0.33229065  0.66478134  0.33280146  1
  Ni  Ni9  1  0.66666700  0.33333300  0.66666700  1
  O  O10  1  0.36229367  0.43630767  0.08346515  1
  O  O11  1  0.69686410  0.09025852  0.41988588  1
  O  O12  1  0.00516892  0.78517782  0.25992166  1
  O  O13  1  0.33802432  0.44915925  0.59613065  1
  O  O14  1  0.66821609  0.11365263  0.91742729  1
  O  O15  1  0.97104033  0.23035833  0.24986785  1
  O  O16  1  0.01891031  0.77191121  0.74431321  1
  O  O17  1  0.32816408  0.88148918  0.07341234  1
  O  O18  1  0.66511691  0.55301437  0.41590571  1
  O  O19  1  0.99530968  0.21750775  0.73720335  1
  O  O20  1  0.31442269  0.89475479  0.58901979  1
  O  O21  1  0.63646890  0.57640748  0.91344712  1
