# generated using pymatgen
data_Li4Ti3V3(SnO8)2
_symmetry_space_group_name_H-M   'P 1'
_cell_length_a   6.01298124
_cell_length_b   6.01118921
_cell_length_c   9.85820445
_cell_angle_alpha   89.99492521
_cell_angle_beta   90.68070296
_cell_angle_gamma   119.99333934
_symmetry_Int_Tables_number   1
_chemical_formula_structural   Li4Ti3V3(SnO8)2
_chemical_formula_sum   'Li4 Ti3 V3 Sn2 O16'
_cell_volume   308.57965107
_cell_formula_units_Z   1
loop_
 _symmetry_equiv_pos_site_id
 _symmetry_equiv_pos_as_xyz
  1  'x, y, z'
loop_
 _atom_site_type_symbol
 _atom_site_label
 _atom_site_symmetry_multiplicity
 _atom_site_fract_x
 _atom_site_fract_y
 _atom_site_fract_z
 _atom_site_occupancy
  Li  Li0  1  0.33146345  0.66572842  0.89557105  1
  Li  Li1  1  0.99613491  0.99810750  0.99319548  1
  Li  Li2  1  0.00526271  0.00265343  0.49133976  1
  Li  Li3  1  0.66503667  0.33254581  0.39754960  1
  Ti  Ti4  1  0.17513890  0.83349539  0.21513361  1
  Ti  Ti5  1  0.17518990  0.34166674  0.21514366  1
  Ti  Ti6  1  0.34052606  0.17027493  0.71752557  1
  V  V7  1  0.64877214  0.82438728  0.21190519  1
  V  V8  1  0.83017737  0.65951469  0.71311897  1
  V  V9  1  0.83019291  0.17070133  0.71315561  1
  Sn  Sn10  1  0.33857348  0.66932221  0.49371084  1
  Sn  Sn11  1  0.67655733  0.33826946  0.99025484  1
  O  O12  1  0.17111106  0.84450243  0.60104606  1
  O  O13  1  0.03699045  0.51848219  0.33369851  1
  O  O14  1  0.30340042  0.65174916  0.10260438  1
  O  O15  1  0.01084044  0.00539481  0.30471494  1
  O  O16  1  0.00797286  0.00399354  0.80800680  1
  O  O17  1  0.17116591  0.32664704  0.60104904  1
  O  O18  1  0.46880524  0.96397371  0.34327991  1
  O  O19  1  0.46878791  0.50485491  0.34331380  1
  O  O20  1  0.33112555  0.16560599  0.10389287  1
  O  O21  1  0.68574677  0.84290688  0.59715572  1
  O  O22  1  0.50820724  0.47348654  0.83965913  1
  O  O23  1  0.50814398  0.03473625  0.83970686  1
  O  O24  1  0.65308903  0.32651941  0.60610909  1
  O  O25  1  0.84802235  0.67881143  0.09927411  1
  O  O26  1  0.96549734  0.48272527  0.83745010  1
  O  O27  1  0.84806860  0.16924223  0.09927452  1
