# generated using pymatgen
data_Li32Mn3Cr13O48
_symmetry_space_group_name_H-M   'P 1'
_cell_length_a   5.01981871
_cell_length_b   8.72539371
_cell_length_c   19.47471115
_cell_angle_alpha   97.89058560
_cell_angle_beta   94.72778861
_cell_angle_gamma   89.36450647
_symmetry_Int_Tables_number   1
_chemical_formula_structural   Li32Mn3Cr13O48
_chemical_formula_sum   'Li32 Mn3 Cr13 O48'
_cell_volume   842.03939436
_cell_formula_units_Z   1
loop_
 _symmetry_equiv_pos_site_id
 _symmetry_equiv_pos_as_xyz
  1  'x, y, z'
loop_
 _atom_site_type_symbol
 _atom_site_label
 _atom_site_symmetry_multiplicity
 _atom_site_fract_x
 _atom_site_fract_y
 _atom_site_fract_z
 _atom_site_occupancy
  Li  Li0  1  0.98950598  0.16781655  0.24946387  1
  Li  Li1  1  0.87323330  0.37433485  0.37500881  1
  Li  Li2  1  0.75132685  0.24919212  0.99953826  1
  Li  Li3  1  0.74075543  0.92088777  0.00026638  1
  Li  Li4  1  0.99141686  0.16780771  0.74929027  1
  Li  Li5  1  0.75543671  0.57919529  0.49970167  1
  Li  Li6  1  0.87435516  0.37464018  0.87488592  1
  Li  Li7  1  0.75341169  0.25019308  0.50004847  1
  Li  Li8  1  0.73961046  0.92006717  0.50008889  1
  Li  Li9  1  0.62323498  0.12395888  0.12508348  1
  Li  Li10  1  0.75437422  0.57891455  0.99980943  1
  Li  Li11  1  0.50838596  0.33084351  0.25040206  1
  Li  Li12  1  0.62303051  0.12396500  0.62504092  1
  Li  Li13  1  0.49887700  0.00045204  0.24983529  1
  Li  Li14  1  0.48996670  0.66950626  0.25012572  1
  Li  Li15  1  0.50553488  0.33099564  0.75019781  1
  Li  Li16  1  0.37460010  0.87502238  0.37493158  1
  Li  Li17  1  0.50073349  0.00053138  0.74983260  1
  Li  Li18  1  0.25080879  0.74998063  0.00007099  1
  Li  Li19  1  0.49061256  0.66876198  0.75010857  1
  Li  Li20  1  0.24437969  0.42053846  0.99985614  1
  Li  Li21  1  0.37476844  0.87522326  0.87505500  1
  Li  Li22  1  0.25905009  0.07995994  0.50004983  1
  Li  Li23  1  0.25004863  0.75080104  0.49996280  1
  Li  Li24  1  0.12672342  0.62602028  0.12488563  1
  Li  Li25  1  0.24403612  0.42019675  0.50030210  1
  Li  Li26  1  0.01088573  0.83216187  0.25037062  1
  Li  Li27  1  0.25955400  0.07931754  0.99961034  1
  Li  Li28  1  0.12466851  0.62462595  0.62478804  1
  Li  Li29  1  0.00182910  0.50064924  0.25046181  1
  Li  Li30  1  0.01059307  0.83152306  0.75019001  1
  Li  Li31  1  0.00251000  0.50033289  0.75005829  1
  Mn  Mn32  1  0.37555837  0.54145329  0.37494482  1
  Mn  Mn33  1  0.37414867  0.54132904  0.87451862  1
  Mn  Mn34  1  0.12619089  0.29181070  0.62516683  1
  Cr  Cr35  1  0.86739611  0.70646180  0.37448053  1
  Cr  Cr36  1  0.88082226  0.03892317  0.37520483  1
  Cr  Cr37  1  0.86559221  0.70732744  0.87453431  1
  Cr  Cr38  1  0.88276409  0.03933318  0.87563973  1
  Cr  Cr39  1  0.63002494  0.78846765  0.12466780  1
  Cr  Cr40  1  0.62264710  0.45289055  0.12406268  1
  Cr  Cr41  1  0.62974533  0.78842393  0.62513117  1
  Cr  Cr42  1  0.61926902  0.45524690  0.62448810  1
  Cr  Cr43  1  0.37185418  0.21205292  0.37536005  1
  Cr  Cr44  1  0.37387585  0.21245941  0.87544345  1
  Cr  Cr45  1  0.11970930  0.96135327  0.12526052  1
  Cr  Cr46  1  0.12877239  0.29713656  0.12599731  1
  Cr  Cr47  1  0.12095941  0.96182351  0.62533942  1
  O  O48  1  0.96858436  0.10597311  0.06950828  1
  O  O49  1  0.91983397  0.78407904  0.06858663  1
  O  O50  1  0.93415197  0.42296721  0.06712322  1
  O  O51  1  0.96582429  0.10790303  0.56941848  1
  O  O52  1  0.82964293  0.96608532  0.18121766  1
  O  O53  1  0.81626738  0.32677660  0.18286903  1
  O  O54  1  0.91960596  0.78597713  0.56858852  1
  O  O55  1  0.93199923  0.42726077  0.56778157  1
  O  O56  1  0.78172507  0.64372606  0.18034649  1
  O  O57  1  0.71802852  0.85255058  0.31857635  1
  O  O58  1  0.83067277  0.96496621  0.68137632  1
  O  O59  1  0.82393710  0.32367772  0.68190509  1
  O  O60  1  0.67563698  0.53376065  0.31867159  1
  O  O61  1  0.67349876  0.17658669  0.31782843  1
  O  O62  1  0.78210948  0.64358753  0.68096671  1
  O  O63  1  0.71907907  0.85214675  0.81872907  1
  O  O64  1  0.46351745  0.60276729  0.06876809  1
  O  O65  1  0.56899793  0.71374257  0.43044987  1
  O  O66  1  0.57515770  0.07378417  0.43224298  1
  O  O67  1  0.67423797  0.53260067  0.81858837  1
  O  O68  1  0.67325882  0.17565047  0.81816889  1
  O  O69  1  0.42711872  0.92693454  0.06790899  1
  O  O70  1  0.43788218  0.28772959  0.06889254  1
  O  O71  1  0.53912522  0.39658573  0.43135325  1
  O  O72  1  0.46768152  0.60287877  0.56881966  1
  O  O73  1  0.57057988  0.71326734  0.93041431  1
  O  O74  1  0.57570329  0.07252110  0.93247179  1
  O  O75  1  0.32349889  0.82349085  0.18195953  1
  O  O76  1  0.31274026  0.46270113  0.18127134  1
  O  O77  1  0.42401228  0.92728539  0.56770932  1
  O  O78  1  0.42767744  0.28484725  0.56922632  1
  O  O79  1  0.53815429  0.39568819  0.93113849  1
  O  O80  1  0.28522102  0.14739166  0.18132645  1
  O  O81  1  0.21472665  0.35803399  0.31946940  1
  O  O82  1  0.32539245  0.82430999  0.68219525  1
  O  O83  1  0.31748245  0.46368416  0.68084390  1
  O  O84  1  0.18055118  0.67774611  0.31779657  1
  O  O85  1  0.16987241  0.03578552  0.31866271  1
  O  O86  1  0.28939107  0.14652443  0.68155070  1
  O  O87  1  0.21361666  0.35860382  0.81944214  1
  O  O88  1  0.07376965  0.57384514  0.43168933  1
  O  O89  1  0.08088174  0.21472576  0.43126685  1
  O  O90  1  0.17988093  0.67809754  0.81802429  1
  O  O91  1  0.17131455  0.03630919  0.81907624  1
  O  O92  1  0.03197750  0.89480152  0.43126267  1
  O  O93  1  0.07348501  0.57376833  0.93167510  1
  O  O94  1  0.08155321  0.21517266  0.93168495  1
  O  O95  1  0.03335334  0.89579111  0.93159847  1
