# generated using pymatgen
data_LiCu2PO4
_symmetry_space_group_name_H-M   'P 1'
_cell_length_a   6.13902712
_cell_length_b   5.53194466
_cell_length_c   5.17897656
_cell_angle_alpha   90.00000000
_cell_angle_beta   90.00000000
_cell_angle_gamma   90.00000000
_symmetry_Int_Tables_number   1
_chemical_formula_structural   LiCu2PO4
_chemical_formula_sum   'Li2 Cu4 P2 O8'
_cell_volume   175.88197116
_cell_formula_units_Z   2
loop_
 _symmetry_equiv_pos_site_id
 _symmetry_equiv_pos_as_xyz
  1  'x, y, z'
loop_
 _atom_site_type_symbol
 _atom_site_label
 _atom_site_symmetry_multiplicity
 _atom_site_fract_x
 _atom_site_fract_y
 _atom_site_fract_z
 _atom_site_occupancy
  Li  Li0  1  0.00000000  0.33839623  0.87630903  1
  Li  Li1  1  0.50000000  0.66160377  0.37630903  1
  Cu  Cu2  1  0.24782149  0.84576666  0.87010228  1
  Cu  Cu3  1  0.25217851  0.15423334  0.37010228  1
  Cu  Cu4  1  0.74782149  0.15423334  0.37010228  1
  Cu  Cu5  1  0.75217851  0.84576666  0.87010228  1
  P  P6  1  0.00000000  0.66198573  0.37499812  1
  P  P7  1  0.50000000  0.33801427  0.87499812  1
  O  O8  1  0.00000000  0.64588697  0.07491819  1
  O  O9  1  0.00000000  0.40427996  0.49716527  1
  O  O10  1  0.20966479  0.79879405  0.46820242  1
  O  O11  1  0.29033521  0.20120595  0.96820242  1
  O  O12  1  0.50000000  0.35411303  0.57491819  1
  O  O13  1  0.50000000  0.59572004  0.99716527  1
  O  O14  1  0.70966479  0.20120595  0.96820242  1
  O  O15  1  0.79033521  0.79879405  0.46820242  1
