# generated using pymatgen
data_Li2VF4
_symmetry_space_group_name_H-M   'P 1'
_cell_length_a   6.11649191
_cell_length_b   6.11649191
_cell_length_c   8.54242112
_cell_angle_alpha   90.00000000
_cell_angle_beta   90.00000000
_cell_angle_gamma   90.00000000
_symmetry_Int_Tables_number   1
_chemical_formula_structural   Li2VF4
_chemical_formula_sum   'Li8 V4 F16'
_cell_volume   319.58455952
_cell_formula_units_Z   4
loop_
 _symmetry_equiv_pos_site_id
 _symmetry_equiv_pos_as_xyz
  1  'x, y, z'
loop_
 _atom_site_type_symbol
 _atom_site_label
 _atom_site_symmetry_multiplicity
 _atom_site_fract_x
 _atom_site_fract_y
 _atom_site_fract_z
 _atom_site_occupancy
  Li  Li0  1  0.25278464  0.25278464  0.37500000  1
  Li  Li1  1  0.25278464  0.74721536  0.12500000  1
  Li  Li2  1  0.27872590  0.50000000  0.75000000  1
  Li  Li3  1  0.50000000  0.27872590  0.00000000  1
  Li  Li4  1  0.50000000  0.72127410  0.50000000  1
  Li  Li5  1  0.72127410  0.50000000  0.25000000  1
  Li  Li6  1  0.74721536  0.25278464  0.62500000  1
  Li  Li7  1  0.74721536  0.74721536  0.87500000  1
  V  V8  1  0.00000000  0.26470866  0.00000000  1
  V  V9  1  0.00000000  0.73529134  0.50000000  1
  V  V10  1  0.26470866  0.00000000  0.75000000  1
  V  V11  1  0.73529134  0.00000000  0.25000000  1
  F  F12  1  0.02036919  0.25133918  0.75202350  1
  F  F13  1  0.02036919  0.74866082  0.74797650  1
  F  F14  1  0.25133918  0.02036919  0.99797650  1
  F  F15  1  0.25133918  0.97963081  0.50202350  1
  F  F16  1  0.25406043  0.49278635  0.99180677  1
  F  F17  1  0.25406043  0.50721365  0.50819323  1
  F  F18  1  0.49278635  0.25406043  0.75819323  1
  F  F19  1  0.49278635  0.74593957  0.74180677  1
  F  F20  1  0.50721365  0.25406043  0.24180677  1
  F  F21  1  0.50721365  0.74593957  0.25819323  1
  F  F22  1  0.74593957  0.50721365  0.49180677  1
  F  F23  1  0.74593957  0.49278635  0.00819323  1
  F  F24  1  0.74866082  0.97963081  0.49797650  1
  F  F25  1  0.74866082  0.02036919  0.00202350  1
  F  F26  1  0.97963081  0.25133918  0.24797650  1
  F  F27  1  0.97963081  0.74866082  0.25202350  1
