# generated using pymatgen
data_Li32Ti3Cr13O48
_symmetry_space_group_name_H-M   'P 1'
_cell_length_a   5.05447254
_cell_length_b   8.74335815
_cell_length_c   19.54708119
_cell_angle_alpha   97.99953165
_cell_angle_beta   94.93879633
_cell_angle_gamma   89.58071068
_symmetry_Int_Tables_number   1
_chemical_formula_structural   Li32Ti3Cr13O48
_chemical_formula_sum   'Li32 Ti3 Cr13 O48'
_cell_volume   852.25393244
_cell_formula_units_Z   1
loop_
 _symmetry_equiv_pos_site_id
 _symmetry_equiv_pos_as_xyz
  1  'x, y, z'
loop_
 _atom_site_type_symbol
 _atom_site_label
 _atom_site_symmetry_multiplicity
 _atom_site_fract_x
 _atom_site_fract_y
 _atom_site_fract_z
 _atom_site_occupancy
  Li  Li0  1  0.99083937  0.16897461  0.24927261  1
  Li  Li1  1  0.87448509  0.37497457  0.37529424  1
  Li  Li2  1  0.74954806  0.25131490  0.00025356  1
  Li  Li3  1  0.74098284  0.92054707  0.00072457  1
  Li  Li4  1  0.99168978  0.16904077  0.74993348  1
  Li  Li5  1  0.75421425  0.57827855  0.50052282  1
  Li  Li6  1  0.87369799  0.37497329  0.87580444  1
  Li  Li7  1  0.74234978  0.25156385  0.50043703  1
  Li  Li8  1  0.74440258  0.92207679  0.50020938  1
  Li  Li9  1  0.62524931  0.12488482  0.12506865  1
  Li  Li10  1  0.75736691  0.57814471  0.00050154  1
  Li  Li11  1  0.50907816  0.32924904  0.25040246  1
  Li  Li12  1  0.62600671  0.12590954  0.62524474  1
  Li  Li13  1  0.49264541  0.00083357  0.25034416  1
  Li  Li14  1  0.49385532  0.67134665  0.25010673  1
  Li  Li15  1  0.51492085  0.33050059  0.75042229  1
  Li  Li16  1  0.37491549  0.87591436  0.37478288  1
  Li  Li17  1  0.49031250  0.00289575  0.75000977  1
  Li  Li18  1  0.24675461  0.75277896  0.99995302  1
  Li  Li19  1  0.49173699  0.66885736  0.74959409  1
  Li  Li20  1  0.24217460  0.41824501  0.99944061  1
  Li  Li21  1  0.37451832  0.87549849  0.87505428  1
  Li  Li22  1  0.26237491  0.08108588  0.49948793  1
  Li  Li23  1  0.24900821  0.74982520  0.49946434  1
  Li  Li24  1  0.12502289  0.62487310  0.12503223  1
  Li  Li25  1  0.24445621  0.41898477  0.49954996  1
  Li  Li26  1  0.00994829  0.83050276  0.24966131  1
  Li  Li27  1  0.26143699  0.08107150  0.00005364  1
  Li  Li28  1  0.12751237  0.62436567  0.62400786  1
  Li  Li29  1  0.00067563  0.49874516  0.24947774  1
  Li  Li30  1  0.00871531  0.83024129  0.75030546  1
  Li  Li31  1  0.00077826  0.49880369  0.74998510  1
  Ti  Ti32  1  0.87664790  0.03840701  0.37412231  1
  Ti  Ti33  1  0.87429058  0.03744898  0.87348217  1
  Ti  Ti34  1  0.13015268  0.28880367  0.62664069  1
  Cr  Cr35  1  0.87507857  0.70304051  0.37456912  1
  Cr  Cr36  1  0.87697572  0.70287885  0.87529742  1
  Cr  Cr37  1  0.63154517  0.78944042  0.12475657  1
  Cr  Cr38  1  0.61838573  0.46028653  0.12537287  1
  Cr  Cr39  1  0.62067488  0.79674546  0.62388843  1
  Cr  Cr40  1  0.62963758  0.46198820  0.62526655  1
  Cr  Cr41  1  0.37862411  0.54858591  0.37571431  1
  Cr  Cr42  1  0.37084564  0.21279825  0.37454421  1
  Cr  Cr43  1  0.38115843  0.54741442  0.87646149  1
  Cr  Cr44  1  0.36896643  0.21174321  0.87505823  1
  Cr  Cr45  1  0.11791871  0.96024447  0.12532972  1
  Cr  Cr46  1  0.13137420  0.28972013  0.12490577  1
  Cr  Cr47  1  0.12004141  0.95228830  0.62419473  1
  O  O48  1  0.96617275  0.10128684  0.06828739  1
  O  O49  1  0.91893700  0.78319845  0.06873236  1
  O  O50  1  0.92626602  0.42722258  0.06868576  1
  O  O51  1  0.96536631  0.10417203  0.56856512  1
  O  O52  1  0.83038447  0.96683843  0.18121731  1
  O  O53  1  0.82467187  0.32285871  0.18176402  1
  O  O54  1  0.93557882  0.78805681  0.56854022  1
  O  O55  1  0.91936839  0.42898994  0.56737644  1
  O  O56  1  0.78450248  0.64861395  0.18164535  1
  O  O57  1  0.71405013  0.85363580  0.31854252  1
  O  O58  1  0.81325045  0.95851339  0.68103023  1
  O  O59  1  0.82724661  0.32075175  0.68398358  1
  O  O60  1  0.68764343  0.53852932  0.31886003  1
  O  O61  1  0.67236860  0.17872296  0.31740969  1
  O  O62  1  0.78340365  0.64025442  0.67969990  1
  O  O63  1  0.71327942  0.85324844  0.81855918  1
  O  O64  1  0.46579224  0.60129763  0.06885640  1
  O  O65  1  0.56515377  0.71139121  0.43127451  1
  O  O66  1  0.57117253  0.07355876  0.43260439  1
  O  O67  1  0.68742445  0.53904628  0.81920740  1
  O  O68  1  0.67431035  0.17976064  0.81794362  1
  O  O69  1  0.42677343  0.92649766  0.06853580  1
  O  O70  1  0.41875357  0.28355799  0.06902785  1
  O  O71  1  0.53539329  0.39649744  0.43043690  1
  O  O72  1  0.46258470  0.61216714  0.56865582  1
  O  O73  1  0.56454400  0.71216151  0.93152429  1
  O  O74  1  0.57007486  0.07454900  0.93252244  1
  O  O75  1  0.32292253  0.82360940  0.18156002  1
  O  O76  1  0.33205795  0.46632976  0.18176641  1
  O  O77  1  0.43312663  0.92504965  0.56694166  1
  O  O78  1  0.43286774  0.28769876  0.56915714  1
  O  O79  1  0.53609465  0.39743499  0.93142663  1
  O  O80  1  0.28453768  0.14865606  0.18147083  1
  O  O81  1  0.21654209  0.35807816  0.31975460  1
  O  O82  1  0.31362068  0.82512119  0.68204604  1
  O  O83  1  0.32576349  0.46631830  0.68117185  1
  O  O84  1  0.18368435  0.67307433  0.31706760  1
  O  O85  1  0.17705448  0.03433874  0.31766037  1
  O  O86  1  0.28698185  0.13892618  0.68130645  1
  O  O87  1  0.21699641  0.35581041  0.81986314  1
  O  O88  1  0.06533119  0.57509743  0.43220562  1
  O  O89  1  0.07901724  0.21583310  0.43125463  1
  O  O90  1  0.18387054  0.67213911  0.81744562  1
  O  O91  1  0.17550640  0.03319153  0.81768591  1
  O  O92  1  0.03619613  0.88951462  0.43124347  1
  O  O93  1  0.06604946  0.57496411  0.93264367  1
  O  O94  1  0.07859994  0.21667748  0.93131389  1
  O  O95  1  0.03472021  0.88961908  0.93151442  1
