# generated using pymatgen
data_Li6MnV3(PO4)6
_symmetry_space_group_name_H-M   'P 1'
_cell_length_a   8.59625034
_cell_length_b   12.24814219
_cell_length_c   8.81058031
_cell_angle_alpha   90.00000000
_cell_angle_beta   90.00000000
_cell_angle_gamma   90.95395255
_symmetry_Int_Tables_number   1
_chemical_formula_structural   Li6MnV3(PO4)6
_chemical_formula_sum   'Li12 Mn2 V6 P12 O48'
_cell_volume   927.52065557
_cell_formula_units_Z   2
loop_
 _symmetry_equiv_pos_site_id
 _symmetry_equiv_pos_as_xyz
  1  'x, y, z'
loop_
 _atom_site_type_symbol
 _atom_site_label
 _atom_site_symmetry_multiplicity
 _atom_site_fract_x
 _atom_site_fract_y
 _atom_site_fract_z
 _atom_site_occupancy
  Li  Li0  1  0.06273517  0.34565775  0.51291039  1
  Li  Li1  1  0.08123642  0.69117372  0.08575702  1
  Li  Li2  1  0.17756349  0.17745138  0.78062951  1
  Li  Li3  1  0.32243651  0.32254762  0.28062951  1
  Li  Li4  1  0.41876358  0.80882628  0.58575702  1
  Li  Li5  1  0.43726483  0.15434225  0.01291039  1
  Li  Li6  1  0.56366063  0.84647299  0.98583192  1
  Li  Li7  1  0.58041675  0.19253281  0.41318972  1
  Li  Li8  1  0.68211108  0.67663735  0.71749374  1
  Li  Li9  1  0.81788892  0.82336265  0.21749374  1
  Li  Li10  1  0.91958325  0.30746719  0.91318972  1
  Li  Li11  1  0.93633937  0.65352701  0.48583192  1
  Mn  Mn12  1  0.74169630  0.39574694  0.47471105  1
  Mn  Mn13  1  0.75830370  0.10425306  0.97471105  1
  V  V14  1  0.24425300  0.89564703  0.02597947  1
  V  V15  1  0.24536247  0.10892550  0.46392447  1
  V  V16  1  0.25574700  0.60435297  0.52597947  1
  V  V17  1  0.25463753  0.39107450  0.96392447  1
  V  V18  1  0.74516272  0.60649380  0.03548076  1
  V  V19  1  0.75483728  0.89350620  0.53548076  1
  P  P20  1  0.04228044  0.49022909  0.24660517  1
  P  P21  1  0.11513190  0.84975521  0.38274012  1
  P  P22  1  0.11634022  0.14523866  0.11235223  1
  P  P23  1  0.38486810  0.65024479  0.88274012  1
  P  P24  1  0.38365978  0.35476134  0.61235223  1
  P  P25  1  0.45771956  0.00977091  0.74660517  1
  P  P26  1  0.53651013  0.99159433  0.25216526  1
  P  P27  1  0.61602550  0.65006555  0.39028856  1
  P  P28  1  0.61230253  0.35147826  0.11683102  1
  P  P29  1  0.88397450  0.84993445  0.89028856  1
  P  P30  1  0.88769747  0.14852174  0.61683102  1
  P  P31  1  0.96348987  0.50840567  0.75216526  1
  O  O32  1  0.05122000  0.89460037  0.89421948  1
  O  O33  1  0.05515361  0.44570379  0.87389434  1
  O  O34  1  0.05671843  0.59816964  0.66587050  1
  O  O35  1  0.06001634  0.18271487  0.57323978  1
  O  O36  1  0.10366711  0.58124132  0.35622759  1
  O  O37  1  0.12703502  0.83369791  0.20685817  1
  O  O38  1  0.14159758  0.97052853  0.42180766  1
  O  O39  1  0.12866723  0.24523882  0.99834533  1
  O  O40  1  0.17957304  0.18462605  0.27022182  1
  O  O41  1  0.18827843  0.43836278  0.16950868  1
  O  O42  1  0.22766548  0.77607285  0.47124521  1
  O  O43  1  0.23621245  0.06215923  0.04760996  1
  O  O44  1  0.26378755  0.43784077  0.54760996  1
  O  O45  1  0.27233452  0.72392715  0.97124521  1
  O  O46  1  0.31172157  0.06163722  0.66950868  1
  O  O47  1  0.32042796  0.31537395  0.77022182  1
  O  O48  1  0.35840242  0.52947147  0.92180766  1
  O  O49  1  0.37133277  0.25476118  0.49834533  1
  O  O50  1  0.37296498  0.66630209  0.70685817  1
  O  O51  1  0.39633289  0.91875868  0.85622759  1
  O  O52  1  0.44328157  0.90183036  0.16587050  1
  O  O53  1  0.43998366  0.31728513  0.07323978  1
  O  O54  1  0.44878000  0.60539963  0.39421948  1
  O  O55  1  0.44484639  0.05429621  0.37389434  1
  O  O56  1  0.55247191  0.94498324  0.62880934  1
  O  O57  1  0.54857441  0.39855997  0.61894875  1
  O  O58  1  0.55901919  0.68505055  0.91996868  1
  O  O59  1  0.54794246  0.10109299  0.82869004  1
  O  O60  1  0.59492947  0.08267231  0.14416737  1
  O  O61  1  0.61472722  0.33348538  0.29108406  1
  O  O62  1  0.62620921  0.75114935  0.50365678  1
  O  O63  1  0.63854361  0.47572049  0.08168433  1
  O  O64  1  0.66916561  0.68805484  0.22895668  1
  O  O65  1  0.68013679  0.93597609  0.32685582  1
  O  O66  1  0.72842039  0.28363577  0.02774486  1
  O  O67  1  0.73670894  0.56941641  0.45349337  1
  O  O68  1  0.76329106  0.93058359  0.95349337  1
  O  O69  1  0.77157961  0.21636423  0.52774486  1
  O  O70  1  0.81986321  0.56402391  0.82685582  1
  O  O71  1  0.83083439  0.81194516  0.72895668  1
  O  O72  1  0.87379079  0.74885065  0.00365678  1
  O  O73  1  0.86145639  0.02427951  0.58168433  1
  O  O74  1  0.88527278  0.16651462  0.79108406  1
  O  O75  1  0.90507053  0.41732769  0.64416737  1
  O  O76  1  0.94098081  0.81494945  0.41996868  1
  O  O77  1  0.95205754  0.39890701  0.32869004  1
  O  O78  1  0.94752809  0.55501676  0.12880934  1
  O  O79  1  0.95142559  0.10144003  0.11894875  1
