# generated using pymatgen
data_V5O12
_symmetry_space_group_name_H-M   'P 1'
_cell_length_a   8.98366405
_cell_length_b   12.72826614
_cell_length_c   9.11599915
_cell_angle_alpha   90.00000000
_cell_angle_beta   90.00000000
_cell_angle_gamma   90.61132553
_symmetry_Int_Tables_number   1
_chemical_formula_structural   V5O12
_chemical_formula_sum   'V20 O48'
_cell_volume   1042.32296233
_cell_formula_units_Z   4
loop_
 _symmetry_equiv_pos_site_id
 _symmetry_equiv_pos_as_xyz
  1  'x, y, z'
loop_
 _atom_site_type_symbol
 _atom_site_label
 _atom_site_symmetry_multiplicity
 _atom_site_fract_x
 _atom_site_fract_y
 _atom_site_fract_z
 _atom_site_occupancy
  V  V0  1  0.25307511  0.87581397  0.01947980  1
  V  V1  1  0.24692489  0.62418603  0.51947980  1
  V  V2  1  0.24655084  0.37756351  0.97040446  1
  V  V3  1  0.25344916  0.12243649  0.47040446  1
  V  V4  1  0.74655084  0.87756351  0.52959554  1
  V  V5  1  0.75344916  0.62243649  0.02959554  1
  V  V6  1  0.75307511  0.37581397  0.48052020  1
  V  V7  1  0.74692489  0.12418603  0.98052020  1
  V  V8  1  0.02575672  0.48972905  0.25381083  1
  V  V9  1  0.10868782  0.85869772  0.38234344  1
  V  V10  1  0.11235239  0.13912096  0.11111550  1
  V  V11  1  0.39131218  0.64130228  0.88234344  1
  V  V12  1  0.38764761  0.36087904  0.61111550  1
  V  V13  1  0.47424328  0.01027095  0.75381083  1
  V  V14  1  0.52575672  0.98972905  0.24618917  1
  V  V15  1  0.61235239  0.63912096  0.38888450  1
  V  V16  1  0.60868782  0.35869772  0.11765656  1
  V  V17  1  0.88764761  0.86087904  0.88888450  1
  V  V18  1  0.89131218  0.14130228  0.61765656  1
  V  V19  1  0.97424328  0.51027095  0.74618917  1
  O  O20  1  0.08395732  0.43387291  0.85650759  1
  O  O21  1  0.08397467  0.88454478  0.90828654  1
  O  O22  1  0.08166165  0.60581826  0.66043077  1
  O  O23  1  0.07509506  0.16391108  0.58079810  1
  O  O24  1  0.12076193  0.57602119  0.38020349  1
  O  O25  1  0.13702294  0.84919658  0.19333939  1
  O  O26  1  0.15770262  0.98097491  0.44372948  1
  O  O27  1  0.15988769  0.24883589  0.99796930  1
  O  O28  1  0.15052102  0.16674511  0.29104742  1
  O  O29  1  0.16061248  0.43049103  0.15080253  1
  O  O30  1  0.21446409  0.76017213  0.48307202  1
  O  O31  1  0.28553591  0.73982787  0.98307202  1
  O  O32  1  0.21395902  0.03453856  0.06175924  1
  O  O33  1  0.28604098  0.46546144  0.56175924  1
  O  O34  1  0.33938752  0.06950897  0.65080253  1
  O  O35  1  0.34947898  0.33325489  0.79104742  1
  O  O36  1  0.34229738  0.51902509  0.94372948  1
  O  O37  1  0.34011231  0.25116411  0.49796930  1
  O  O38  1  0.36297706  0.65080342  0.69333939  1
  O  O39  1  0.37923807  0.92397881  0.88020349  1
  O  O40  1  0.41833835  0.89418174  0.16043077  1
  O  O41  1  0.41602533  0.61545522  0.40828654  1
  O  O42  1  0.42490494  0.33608892  0.08079810  1
  O  O43  1  0.41604268  0.06612709  0.35650759  1
  O  O44  1  0.58395732  0.93387291  0.64349241  1
  O  O45  1  0.57509506  0.66391108  0.91920190  1
  O  O46  1  0.58397467  0.38454478  0.59171346  1
  O  O47  1  0.58166165  0.10581826  0.83956923  1
  O  O48  1  0.62076193  0.07602119  0.11979651  1
  O  O49  1  0.63702294  0.34919658  0.30666061  1
  O  O50  1  0.65988769  0.74883589  0.50203070  1
  O  O51  1  0.65770262  0.48097491  0.05627052  1
  O  O52  1  0.65052102  0.66674511  0.20895258  1
  O  O53  1  0.66061248  0.93049103  0.34919747  1
  O  O54  1  0.71395902  0.53453856  0.43824076  1
  O  O55  1  0.78604098  0.96546144  0.93824076  1
  O  O56  1  0.71446409  0.26017213  0.01692798  1
  O  O57  1  0.78553591  0.23982787  0.51692798  1
  O  O58  1  0.83938752  0.56950897  0.84919747  1
  O  O59  1  0.84947898  0.83325489  0.70895258  1
  O  O60  1  0.84011231  0.75116411  0.00203070  1
  O  O61  1  0.84229738  0.01902509  0.55627052  1
  O  O62  1  0.86297706  0.15080342  0.80666061  1
  O  O63  1  0.87923807  0.42397881  0.61979651  1
  O  O64  1  0.92490494  0.83608892  0.41920190  1
  O  O65  1  0.91833835  0.39418174  0.33956923  1
  O  O66  1  0.91602533  0.11545522  0.09171346  1
  O  O67  1  0.91604268  0.56612709  0.14349241  1
