# generated using pymatgen
data_Li32Mn3Cr13O48
_symmetry_space_group_name_H-M   'P 1'
_cell_length_a   5.01830945
_cell_length_b   8.74955711
_cell_length_c   19.50341578
_cell_angle_alpha   97.87423455
_cell_angle_beta   94.57951160
_cell_angle_gamma   89.28797519
_symmetry_Int_Tables_number   1
_chemical_formula_structural   Li32Mn3Cr13O48
_chemical_formula_sum   'Li32 Mn3 Cr13 O48'
_cell_volume   845.57215289
_cell_formula_units_Z   1
loop_
 _symmetry_equiv_pos_site_id
 _symmetry_equiv_pos_as_xyz
  1  'x, y, z'
loop_
 _atom_site_type_symbol
 _atom_site_label
 _atom_site_symmetry_multiplicity
 _atom_site_fract_x
 _atom_site_fract_y
 _atom_site_fract_z
 _atom_site_occupancy
  Li  Li0  1  0.99384369  0.17013713  0.25004611  1
  Li  Li1  1  0.87725768  0.37600172  0.37494669  1
  Li  Li2  1  0.75119415  0.25043590  0.00010595  1
  Li  Li3  1  0.74155623  0.92004555  0.00012566  1
  Li  Li4  1  0.99063344  0.16805859  0.74961571  1
  Li  Li5  1  0.76177001  0.58094774  0.50004165  1
  Li  Li6  1  0.87478198  0.37497783  0.87499229  1
  Li  Li7  1  0.74921484  0.24945931  0.50028205  1
  Li  Li8  1  0.74044315  0.91926300  0.49977306  1
  Li  Li9  1  0.62434640  0.12475291  0.12495879  1
  Li  Li10  1  0.75939202  0.57866584  0.99957367  1
  Li  Li11  1  0.50714761  0.33105776  0.25030814  1
  Li  Li12  1  0.62494152  0.12516359  0.62492755  1
  Li  Li13  1  0.49906560  -0.00010478  0.25009198  1
  Li  Li14  1  0.48913344  0.66890835  0.24977265  1
  Li  Li15  1  0.50770727  0.32934174  0.75004656  1
  Li  Li16  1  0.37484379  0.87520737  0.37510202  1
  Li  Li17  1  0.49978633  0.99959550  0.74993353  1
  Li  Li18  1  0.24771359  0.75050023  0.99990910  1
  Li  Li19  1  0.49344272  0.67130736  0.75008164  1
  Li  Li20  1  0.24070130  0.41974627  0.00016286  1
  Li  Li21  1  0.37568931  0.87604373  0.87502661  1
  Li  Li22  1  0.25760370  0.08078852  0.49972657  1
  Li  Li23  1  0.24982751  0.74935919  0.49968935  1
  Li  Li24  1  0.12397343  0.62438891  0.12484648  1
  Li  Li25  1  0.24178754  0.41963306  0.50037020  1
  Li  Li26  1  0.00980792  0.83008170  0.25016776  1
  Li  Li27  1  0.26126968  0.08014646  0.00017032  1
  Li  Li28  1  0.12509913  0.62544976  0.62523721  1
  Li  Li29  1  0.99883884  0.50029461  0.24991829  1
  Li  Li30  1  0.00880097  0.83180513  0.75016133  1
  Li  Li31  1  0.99862747  0.49969264  0.74999149  1
  Mn  Mn32  1  0.87543925  0.70799381  0.87522649  1
  Mn  Mn33  1  0.37436333  0.20828500  0.37487800  1
  Mn  Mn34  1  0.12353056  0.29128371  0.62421274  1
  Cr  Cr35  1  0.86896819  0.71195480  0.37475004  1
  Cr  Cr36  1  0.88236612  0.04445344  0.37563549  1
  Cr  Cr37  1  0.87611908  0.03713632  0.87470080  1
  Cr  Cr38  1  0.63126341  0.78929351  0.12497465  1
  Cr  Cr39  1  0.61826821  0.46036860  0.12519166  1
  Cr  Cr40  1  0.63398432  0.78963843  0.62573117  1
  Cr  Cr41  1  0.61466896  0.45783833  0.62434040  1
  Cr  Cr42  1  0.37904839  0.53773748  0.37462876  1
  Cr  Cr43  1  0.38278395  0.54447148  0.87569595  1
  Cr  Cr44  1  0.36831013  0.21144727  0.87450488  1
  Cr  Cr45  1  0.11825009  0.96019156  0.12514693  1
  Cr  Cr46  1  0.13129759  0.28943334  0.12496399  1
  Cr  Cr47  1  0.12563048  0.96302468  0.62543843  1
  O  O48  1  0.96616581  0.10196582  0.06841769  1
  O  O49  1  0.92120065  0.78346444  0.06882985  1
  O  O50  1  0.92736078  0.42724666  0.06819533  1
  O  O51  1  0.96311049  0.10932454  0.56905004  1
  O  O52  1  0.82876396  0.96658972  0.18168010  1
  O  O53  1  0.82261664  0.32317115  0.18196984  1
  O  O54  1  0.92293934  0.78647238  0.56902488  1
  O  O55  1  0.92985507  0.42789600  0.56770265  1
  O  O56  1  0.78522445  0.64805696  0.18163790  1
  O  O57  1  0.71783067  0.85593681  0.31887924  1
  O  O58  1  0.83062305  0.96535759  0.68147021  1
  O  O59  1  0.82317091  0.32402259  0.68170177  1
  O  O60  1  0.66901940  0.53519768  0.31835923  1
  O  O61  1  0.67649753  0.17592777  0.31804126  1
  O  O62  1  0.78321860  0.64574650  0.68137648  1
  O  O63  1  0.71215213  0.85480292  0.81920423  1
  O  O64  1  0.46532752  0.60186568  0.06850271  1
  O  O65  1  0.58009636  0.71415214  0.43134061  1
  O  O66  1  0.56828819  0.07252393  0.43218870  1
  O  O67  1  0.68256746  0.53683414  0.81898200  1
  O  O68  1  0.67368448  0.17694893  0.81751161  1
  O  O69  1  0.42766539  0.92674510  0.06796691  1
  O  O70  1  0.42114878  0.28332309  0.06870134  1
  O  O71  1  0.53404265  0.39199604  0.43032089  1
  O  O72  1  0.46966274  0.60165522  0.56833140  1
  O  O73  1  0.57237601  0.71531913  0.93104437  1
  O  O74  1  0.57764174  0.07417429  0.93234314  1
  O  O75  1  0.32303317  0.82306158  0.18200644  1
  O  O76  1  0.32829306  0.46684274  0.18136753  1
  O  O77  1  0.42300321  0.92461596  0.56801891  1
  O  O78  1  0.42507013  0.28251833  0.56859077  1
  O  O79  1  0.53166475  0.39746904  0.93142935  1
  O  O80  1  0.28472451  0.14722954  0.18135955  1
  O  O81  1  0.21043800  0.35348397  0.31841396  1
  O  O82  1  0.32526166  0.82175333  0.68254496  1
  O  O83  1  0.32059284  0.46276213  0.68056821  1
  O  O84  1  0.17514392  0.67630123  0.31776777  1
  O  O85  1  0.18255969  0.03633792  0.31907221  1
  O  O86  1  0.28667457  0.14515777  0.68087945  1
  O  O87  1  0.21793032  0.35646062  0.81911945  1
  O  O88  1  0.07552907  0.57328250  0.43210118  1
  O  O89  1  0.07255550  0.21555594  0.43076780  1
  O  O90  1  0.17687501  0.67565566  0.81820395  1
  O  O91  1  0.16959583  0.03554222  0.81873498  1
  O  O92  1  0.03169498  0.89783994  0.43143641  1
  O  O93  1  0.06776542  0.57249582  0.93254502  1
  O  O94  1  0.07875249  0.21295719  0.93129439  1
  O  O95  1  0.03605270  0.89025503  0.93088270  1
