# generated using pymatgen
data_LiNiBO3
_symmetry_space_group_name_H-M   'P 1'
_cell_length_a   8.07250118
_cell_length_b   8.07247157
_cell_length_c   3.05638919
_cell_angle_alpha   90.00000000
_cell_angle_beta   90.00000000
_cell_angle_gamma   120.00260208
_symmetry_Int_Tables_number   1
_chemical_formula_structural   LiNiBO3
_chemical_formula_sum   'Li3 Ni3 B3 O9'
_cell_volume   172.48150790
_cell_formula_units_Z   3
loop_
 _symmetry_equiv_pos_site_id
 _symmetry_equiv_pos_as_xyz
  1  'x, y, z'
loop_
 _atom_site_type_symbol
 _atom_site_label
 _atom_site_symmetry_multiplicity
 _atom_site_fract_x
 _atom_site_fract_y
 _atom_site_fract_z
 _atom_site_occupancy
  Li  Li0  1  0.27877822  0.97838430  0.50000000  1
  Li  Li1  1  0.02161901  0.30039552  0.50000000  1
  Li  Li2  1  0.69960071  0.72121572  0.50000000  1
  Ni  Ni3  1  0.37803418  0.36420295  0.00000000  1
  Ni  Ni4  1  0.63577399  0.01379059  0.00000000  1
  Ni  Ni5  1  0.98616879  0.62197837  0.00000000  1
  B  B6  1  0.33332922  0.66668131  0.50000000  1
  B  B7  1  -0.00000407  -0.00000046  0.00000000  1
  B  B8  1  0.66668010  0.33332873  0.50000000  1
  O  O9  1  0.10468758  0.90615130  0.00000000  1
  O  O10  1  0.13687304  0.58697581  0.50000000  1
  O  O11  1  0.09387651  0.19855660  0.00000000  1
  O  O12  1  0.45009842  0.86312284  0.50000000  1
  O  O13  1  0.41302649  0.54989256  0.50000000  1
  O  O14  1  0.46867683  0.25037167  0.50000000  1
  O  O15  1  0.80146179  0.89532315  0.00000000  1
  O  O16  1  0.78169314  0.53132168  0.50000000  1
  O  O17  1  0.74962506  0.21830935  0.50000000  1
