# generated using pymatgen
data_NaGeSbO5
_symmetry_space_group_name_H-M   'P 1'
_cell_length_a   6.50100204
_cell_length_b   10.88316337
_cell_length_c   13.20293053
_cell_angle_alpha   90.00000000
_cell_angle_beta   90.00000000
_cell_angle_gamma   90.00000000
_symmetry_Int_Tables_number   1
_chemical_formula_structural   NaGeSbO5
_chemical_formula_sum   'Na8 Ge8 Sb8 O40'
_cell_volume   934.12670726
_cell_formula_units_Z   8
loop_
 _symmetry_equiv_pos_site_id
 _symmetry_equiv_pos_as_xyz
  1  'x, y, z'
loop_
 _atom_site_type_symbol
 _atom_site_label
 _atom_site_symmetry_multiplicity
 _atom_site_fract_x
 _atom_site_fract_y
 _atom_site_fract_z
 _atom_site_occupancy
  O  O0  1  0.94555389  0.15249296  0.80300895  1
  O  O1  1  0.05444611  0.65249296  0.19699105  1
  O  O2  1  0.55444611  0.15249296  0.30300895  1
  O  O3  1  0.44555389  0.65249296  0.69699105  1
  O  O4  1  0.49766121  0.89848248  0.25740355  1
  O  O5  1  0.50233879  0.39848248  0.74259645  1
  O  O6  1  0.00233879  0.89848248  0.75740355  1
  O  O7  1  0.99766121  0.39848248  0.24259645  1
  O  O8  1  0.49778263  0.15059482  0.74651520  1
  O  O9  1  0.50221737  0.65059482  0.25348480  1
  O  O10  1  0.00221737  0.15059482  0.24651520  1
  O  O11  1  0.99778263  0.65059482  0.75348480  1
  O  O12  1  0.06801822  0.90551219  0.21035939  1
  O  O13  1  0.93198178  0.40551219  0.78964061  1
  O  O14  1  0.43198178  0.90551219  0.71035939  1
  O  O15  1  0.13892517  0.78299559  0.58040113  1
  O  O16  1  0.56801822  0.40551219  0.28964061  1
  O  O17  1  0.73529976  0.52831768  0.09594184  1
  O  O18  1  0.23529976  0.02831768  0.40405816  1
  O  O19  1  0.76470024  0.52831768  0.59594184  1
  O  O20  1  0.83093496  0.95512246  0.38393768  1
  O  O21  1  0.16906504  0.45512246  0.61606232  1
  O  O22  1  0.66906504  0.95512246  0.88393768  1
  O  O23  1  0.33093496  0.45512246  0.11606232  1
  O  O24  1  0.53194229  0.84370329  0.47127907  1
  O  O25  1  0.46805771  0.34370329  0.52872093  1
  O  O26  1  0.96805771  0.84370329  0.97127907  1
  O  O27  1  0.03194229  0.34370329  0.02872093  1
  O  O28  1  0.90780493  0.09084012  0.01372296  1
  O  O29  1  0.09219507  0.59084012  0.98627704  1
  O  O30  1  0.59219507  0.09084012  0.51372296  1
  O  O31  1  0.40780493  0.59084012  0.48627704  1
  O  O32  1  0.16759584  0.75519156  0.36966460  1
  O  O33  1  0.83240416  0.25519156  0.63033540  1
  O  O34  1  0.33240416  0.75519156  0.86966460  1
  O  O35  1  0.66759584  0.25519156  0.13033540  1
  O  O36  1  0.63892517  0.28299559  0.91959887  1
  O  O37  1  0.36107483  0.78299559  0.08040113  1
  O  O38  1  0.86107483  0.28299559  0.41959887  1
  O  O39  1  0.26470024  0.02831768  0.90405816  1
  Na  Na40  1  0.79995579  0.73273887  0.34131804  1
  Na  Na41  1  0.27125643  0.41243133  0.89974639  1
  Na  Na42  1  0.22874357  0.41243133  0.39974639  1
  Na  Na43  1  0.72874357  0.91243133  0.10025361  1
  Na  Na44  1  0.29995579  0.23273887  0.15868196  1
  Na  Na45  1  0.70004421  0.73273887  0.84131804  1
  Na  Na46  1  0.20004421  0.23273887  0.65868196  1
  Na  Na47  1  0.77125643  0.91243133  0.60025361  1
  Ge  Ge48  1  0.68495507  0.24468308  0.51813370  1
  Ge  Ge49  1  0.18495507  0.74468308  0.98186630  1
  Ge  Ge50  1  0.81504493  0.24468308  0.01813370  1
  Ge  Ge51  1  0.53967452  0.51068114  0.18724690  1
  Ge  Ge52  1  0.46032548  0.01068114  0.81275310  1
  Ge  Ge53  1  0.96032548  0.51068114  0.68724690  1
  Ge  Ge54  1  0.31504493  0.74468308  0.48186630  1
  Ge  Ge55  1  0.03967452  0.01068114  0.31275310  1
  Sb  Sb56  1  0.27868680  0.77286697  0.22679392  1
  Sb  Sb57  1  0.72131320  0.27286697  0.77320608  1
  Sb  Sb58  1  0.22131320  0.77286697  0.72679392  1
  Sb  Sb59  1  0.53311328  0.99976544  0.38457217  1
  Sb  Sb60  1  0.46688672  0.49976544  0.61542783  1
  Sb  Sb61  1  0.96688672  0.99976544  0.88457217  1
  Sb  Sb62  1  0.03311328  0.49976544  0.11542783  1
  Sb  Sb63  1  0.77868680  0.27286697  0.27320608  1
