# generated using pymatgen
data_Li2MnVP2(O4F)2
_symmetry_space_group_name_H-M   'P 1'
_cell_length_a   5.31218279
_cell_length_b   10.65724579
_cell_length_c   7.57746702
_cell_angle_alpha   73.40566149
_cell_angle_beta   70.26115016
_cell_angle_gamma   97.64206201
_symmetry_Int_Tables_number   1
_chemical_formula_structural   Li2MnVP2(O4F)2
_chemical_formula_sum   'Li4 Mn2 V2 P4 O16 F4'
_cell_volume   374.23465040
_cell_formula_units_Z   2
loop_
 _symmetry_equiv_pos_site_id
 _symmetry_equiv_pos_as_xyz
  1  'x, y, z'
loop_
 _atom_site_type_symbol
 _atom_site_label
 _atom_site_symmetry_multiplicity
 _atom_site_fract_x
 _atom_site_fract_y
 _atom_site_fract_z
 _atom_site_occupancy
  Li  Li0  1  0.27230664  0.80976547  0.81119241  1
  Li  Li1  1  0.27250329  0.30684492  0.81007199  1
  Li  Li2  1  0.72749671  0.69315508  0.18992801  1
  Li  Li3  1  0.72769336  0.19023453  0.18880759  1
  Mn  Mn4  1  0.00000000  0.00000000  0.00000000  1
  Mn  Mn5  1  0.00000000  0.50000000  0.50000000  1
  V  V6  1  0.00000000  0.50000000  0.00000000  1
  V  V7  1  0.00000000  0.00000000  0.50000000  1
  P  P8  1  0.31890955  0.82092740  0.23200611  1
  P  P9  1  0.31831134  0.32161730  0.23737343  1
  P  P10  1  0.68168866  0.67838270  0.76262657  1
  P  P11  1  0.68109045  0.17907260  0.76799389  1
  O  O12  1  0.13022084  0.83089514  0.11346427  1
  O  O13  1  0.12836818  0.33176799  0.11870156  1
  O  O14  1  0.24075526  0.89729968  0.38347808  1
  O  O15  1  0.30250376  0.67083286  0.34225020  1
  O  O16  1  0.25074012  0.39284438  0.38930538  1
  O  O17  1  0.29155131  0.16635796  0.34617655  1
  O  O18  1  0.62628880  0.87536346  0.09183497  1
  O  O19  1  0.62752701  0.37243104  0.09294284  1
  O  O20  1  0.37247299  0.62756896  0.90705716  1
  O  O21  1  0.37371120  0.12463654  0.90816503  1
  O  O22  1  0.70844869  0.83364204  0.65382345  1
  O  O23  1  0.74925988  0.60715562  0.61069462  1
  O  O24  1  0.69749624  0.32916714  0.65774980  1
  O  O25  1  0.75924474  0.10270032  0.61652192  1
  O  O26  1  0.87163182  0.66823201  0.88129844  1
  O  O27  1  0.86977916  0.16910486  0.88653573  1
  F  F28  1  0.13045312  0.96299957  0.71459266  1
  F  F29  1  0.12979418  0.46179134  0.75039125  1
  F  F30  1  0.87020582  0.53820866  0.24960875  1
  F  F31  1  0.86954688  0.03700043  0.28540734  1
