# generated using pymatgen
data_LuTa7O19
_symmetry_space_group_name_H-M   'P 1'
_cell_length_a   6.24806041
_cell_length_b   6.24806226
_cell_length_c   20.03968764
_cell_angle_alpha   89.99974034
_cell_angle_beta   89.99984126
_cell_angle_gamma   119.99999378
_symmetry_Int_Tables_number   1
_chemical_formula_structural   LuTa7O19
_chemical_formula_sum   'Lu2 Ta14 O38'
_cell_volume   677.50448656
_cell_formula_units_Z   2
loop_
 _symmetry_equiv_pos_site_id
 _symmetry_equiv_pos_as_xyz
  1  'x, y, z'
loop_
 _atom_site_type_symbol
 _atom_site_label
 _atom_site_symmetry_multiplicity
 _atom_site_fract_x
 _atom_site_fract_y
 _atom_site_fract_z
 _atom_site_occupancy
  Lu  Lu0  1  0.33329672  0.66669606  0.00000192  1
  Lu  Lu1  1  0.33331474  0.66661615  0.50000222  1
  Ta  Ta2  1  0.36034242  0.36083975  0.34483558  1
  Ta  Ta3  1  0.36033354  0.36083983  0.15515951  1
  Ta  Ta4  1  0.63916789  0.63967084  0.84483989  1
  Ta  Ta5  1  0.63917149  0.63967488  0.65516016  1
  Ta  Ta6  1  0.36034114  0.99949889  0.84483592  1
  Ta  Ta7  1  0.36034617  0.99949386  0.65516030  1
  Ta  Ta8  1  0.66666791  0.33332722  0.50000166  1
  Ta  Ta9  1  0.66666596  0.33333665  0.00000130  1
  Ta  Ta10  1  0.63916530  0.99949952  0.15515801  1
  Ta  Ta11  1  0.63915936  0.99949901  0.34483638  1
  Ta  Ta12  1  0.00049617  0.63965986  0.15516423  1
  Ta  Ta13  1  0.00050857  0.63966478  0.34483804  1
  Ta  Ta14  1  0.00050066  0.36084129  0.84484143  1
  Ta  Ta15  1  0.00050843  0.36084379  0.65516380  1
  O  O16  1  0.99947672  0.75221359  0.65305712  1
  O  O17  1  0.99946656  0.75220043  0.84693461  1
  O  O18  1  0.04295420  0.62651306  0.25000417  1
  O  O19  1  0.24779747  0.00052276  0.34693682  1
  O  O20  1  0.24777557  0.00052708  0.15305924  1
  O  O21  1  0.04296305  0.41644631  0.74999288  1
  O  O22  1  0.99947801  0.24726113  0.15305593  1
  O  O23  1  0.99947153  0.24726548  0.34693634  1
  O  O24  1  0.37347989  0.95703518  0.75000718  1
  O  O25  1  0.33334280  0.66667240  0.13051582  1
  O  O26  1  0.33332060  0.66666451  0.86948824  1
  O  O27  1  0.33333696  0.66667204  0.63051286  1
  O  O28  1  0.33332776  0.66667254  0.36948787  1
  O  O29  1  0.58356002  0.95703492  0.25000624  1
  O  O30  1  0.24777954  0.24726289  0.65305989  1
  O  O31  1  0.24779387  0.24725551  0.84693307  1
  O  O32  1  0.37347051  0.41644185  0.24999706  1
  O  O33  1  0.42651254  0.38649119  0.05488140  1
  O  O34  1  0.42650080  0.38648082  0.44512487  1
  O  O35  1  0.75273214  0.00053165  0.65305871  1
  O  O36  1  0.75272482  0.00052382  0.84694195  1
  O  O37  1  0.58356652  0.62652879  0.75000453  1
  O  O38  1  0.61351219  0.57349663  0.94512685  1
  O  O39  1  0.61351103  0.57348813  0.55486550  1
  O  O40  1  0.75274997  0.75221335  0.34693402  1
  O  O41  1  0.75273333  0.75220618  0.15306204  1
  O  O42  1  0.42651788  0.04002386  0.55486867  1
  O  O43  1  0.42650066  0.04000410  0.94513257  1
  O  O44  1  0.66666340  0.33333472  0.33414076  1
  O  O45  1  0.66667249  0.33333150  0.83414425  1
  O  O46  1  0.66667936  0.33334530  0.66585996  1
  O  O47  1  0.66666075  0.33332783  0.16586536  1
  O  O48  1  0.61350302  0.04002122  0.05488238  1
  O  O49  1  0.61351147  0.04000825  0.44512885  1
  O  O50  1  0.95999890  0.57351139  0.05487103  1
  O  O51  1  0.95999173  0.57348825  0.44512900  1
  O  O52  1  0.95998289  0.38649086  0.94511959  1
  O  O53  1  0.95999458  0.38649009  0.55487203  1
