# generated using pymatgen
data_Li7V3P8O29
_symmetry_space_group_name_H-M   'P 1'
_cell_length_a   9.84788485
_cell_length_b   9.88751926
_cell_length_c   13.92639768
_cell_angle_alpha   90.27520473
_cell_angle_beta   90.37759425
_cell_angle_gamma   60.04280495
_symmetry_Int_Tables_number   1
_chemical_formula_structural   Li7V3P8O29
_chemical_formula_sum   'Li14 V6 P16 O58'
_cell_volume   1174.83479045
_cell_formula_units_Z   2
loop_
 _symmetry_equiv_pos_site_id
 _symmetry_equiv_pos_as_xyz
  1  'x, y, z'
loop_
 _atom_site_type_symbol
 _atom_site_label
 _atom_site_symmetry_multiplicity
 _atom_site_fract_x
 _atom_site_fract_y
 _atom_site_fract_z
 _atom_site_occupancy
  Li  Li0  1  0.76823304  0.90881303  0.55989741  1
  Li  Li1  1  0.90988987  0.32646845  0.56308841  1
  Li  Li2  1  0.66693977  0.67302833  0.38227258  1
  Li  Li3  1  0.67097192  0.66385563  0.88501489  1
  Li  Li4  1  0.77393274  0.30937711  0.06149322  1
  Li  Li5  1  0.31463852  0.90833871  0.06739814  1
  Li  Li6  1  0.66869914  0.23482122  0.43986705  1
  Li  Li7  1  0.32784476  0.76232894  0.56342210  1
  Li  Li8  1  0.70143473  0.08019685  0.93878208  1
  Li  Li9  1  0.22190481  0.68799431  0.93963779  1
  Li  Li10  1  0.33382094  0.32745793  0.11628324  1
  Li  Li11  1  0.10225348  0.66347712  0.43797002  1
  Li  Li12  1  0.09059340  0.22370047  0.94190231  1
  Li  Li13  1  0.04052611  0.01702837  0.48826207  1
  V  V14  1  0.56252839  0.43287339  0.25054852  1
  V  V15  1  0.43265900  0.56945518  0.74919642  1
  V  V16  1  0.56352598  0.99978795  0.74672739  1
  V  V17  1  0.43102592  0.00353559  0.25237859  1
  V  V18  1  0.99926002  0.56839531  0.24847372  1
  V  V19  1  0.00231493  0.43596639  0.75008259  1
  P  P20  1  0.90984310  0.77249125  0.83897160  1
  P  P21  1  0.77321066  0.91188163  0.34142632  1
  P  P22  1  0.91021073  0.31735593  0.34587182  1
  P  P23  1  0.66416309  0.66391576  0.12695987  1
  P  P24  1  0.66934047  0.66551755  0.62486736  1
  P  P25  1  0.77007534  0.32319276  0.84198381  1
  P  P26  1  0.68269109  0.23051766  0.65746901  1
  P  P27  1  0.32223515  0.91128377  0.84699486  1
  P  P28  1  0.67654461  0.09063897  0.15490820  1
  P  P29  1  0.31737471  0.77294539  0.34234205  1
  P  P30  1  0.22817207  0.67661655  0.15739680  1
  P  P31  1  0.32993237  0.33797720  0.37396103  1
  P  P32  1  0.33445931  0.33270715  0.87276158  1
  P  P33  1  0.08307360  0.68512397  0.65404505  1
  P  P34  1  0.22321639  0.08198678  0.66028120  1
  P  P35  1  0.08708472  0.23311076  0.15932650  1
  O  O36  1  0.99777458  0.76533883  0.56248012  1
  O  O37  1  0.92321934  0.74961166  0.34153266  1
  O  O38  1  0.75179859  0.00493306  0.06474855  1
  O  O39  1  0.74282982  0.91833922  0.84010352  1
  O  O40  1  0.88684062  0.62777697  0.82451029  1
  O  O41  1  0.81525509  0.65272683  0.17584796  1
  O  O42  1  0.89808294  0.47901389  0.33689706  1
  O  O43  1  0.99113348  0.25384688  0.06996987  1
  O  O44  1  0.92255963  0.33219291  0.84307979  1
  O  O45  1  0.67896320  0.81053384  0.66497692  1
  O  O46  1  0.63100501  0.88789416  0.33311232  1
  O  O47  1  0.81571511  0.51146271  0.66637724  1
  O  O48  1  0.67601277  0.65006304  0.01972318  1
  O  O49  1  0.67890913  0.66186941  0.51688101  1
  O  O50  1  0.65688193  0.51830522  0.16898662  1
  O  O51  1  0.48944715  0.88352767  0.82442320  1
  O  O52  1  0.51800490  0.81495462  0.16081330  1
  O  O53  1  0.74438458  0.33654967  0.34226400  1
  O  O54  1  0.78952540  0.21256327  0.75124248  1
  O  O55  1  0.77444551  0.22634140  0.56909326  1
  O  O56  1  0.75358305  0.24595556  0.93079310  1
  O  O57  1  0.63230978  0.48986107  0.82617450  1
  O  O58  1  0.51459215  0.67674973  0.65920492  1
  O  O59  1  0.66720183  0.25249569  0.15939878  1
  O  O60  1  0.48093867  0.62298581  0.33240116  1
  O  O61  1  0.33476693  0.91639771  0.34053088  1
  O  O62  1  0.78431564  0.99897876  0.24741407  1
  O  O63  1  0.76977240  0.00510424  0.42944221  1
  O  O64  1  0.20830292  0.98772607  0.58007086  1
  O  O65  1  0.66570915  0.08240566  0.65961973  1
  O  O66  1  0.52591061  0.37851151  0.66922633  1
  O  O67  1  0.32942082  0.75299369  0.84565341  1
  O  O68  1  0.48310913  0.33680536  0.33067602  1
  O  O69  1  0.37241745  0.50974930  0.17252436  1
  O  O70  1  0.24791424  0.75238863  0.06912549  1
  O  O71  1  0.22850356  0.77117357  0.43106956  1
  O  O72  1  0.21493090  0.78167352  0.24944471  1
  O  O73  1  0.24539246  0.66966602  0.65829659  1
  O  O74  1  0.48018491  0.18259498  0.82914164  1
  O  O75  1  0.51006335  0.11801531  0.17227459  1
  O  O76  1  0.33305297  0.48156318  0.83922512  1
  O  O77  1  0.33249845  0.32235329  0.98030706  1
  O  O78  1  0.33353019  0.35581649  0.48017851  1
  O  O79  1  0.18130646  0.48997199  0.33036683  1
  O  O80  1  0.38413328  0.07443732  0.66577716  1
  O  O81  1  0.32814759  0.19539556  0.33380225  1
  O  O82  1  0.08091704  0.66253617  0.15803159  1
  O  O83  1  0.98519329  0.79592253  0.74224147  1
  O  O84  1  0.00685019  0.76185157  0.92333175  1
  O  O85  1  0.09050554  0.52693093  0.66973998  1
  O  O86  1  0.18135835  0.33602225  0.83053643  1
  O  O87  1  0.11462270  0.37341215  0.17521419  1
  O  O88  1  0.24500728  0.08218159  0.15687717  1
  O  O89  1  0.25463041  0.00186864  0.93831615  1
  O  O90  1  0.20657867  0.01166288  0.76118088  1
  O  O91  1  0.08647667  0.25090175  0.65896377  1
  O  O92  1  0.99284504  0.22636896  0.43486163  1
  O  O93  1  0.99638825  0.21878494  0.25106718  1
