# generated using pymatgen
data_Li5CuF6
_symmetry_space_group_name_H-M   'P 1'
_cell_length_a   8.70282792
_cell_length_b   8.70239212
_cell_length_c   10.15005748
_cell_angle_alpha   94.99107233
_cell_angle_beta   85.01225225
_cell_angle_gamma   119.59665728
_symmetry_Int_Tables_number   1
_chemical_formula_structural   Li5CuF6
_chemical_formula_sum   'Li30 Cu6 F36'
_cell_volume   665.02627762
_cell_formula_units_Z   6
loop_
 _symmetry_equiv_pos_site_id
 _symmetry_equiv_pos_as_xyz
  1  'x, y, z'
loop_
 _atom_site_type_symbol
 _atom_site_label
 _atom_site_symmetry_multiplicity
 _atom_site_fract_x
 _atom_site_fract_y
 _atom_site_fract_z
 _atom_site_occupancy
  Li  Li0  1  0.00608966  0.66528577  0.21748642  1
  Li  Li1  1  0.00076266  0.66288139  0.71801716  1
  Li  Li2  1  0.17188946  0.83227951  0.46603022  1
  Li  Li3  1  0.16773355  0.82809192  0.96600637  1
  Li  Li4  1  0.33709239  0.99925364  0.21813187  1
  Li  Li5  1  0.33473504  0.99397362  0.71740335  1
  Li  Li6  1  0.16904093  0.50102820  0.03050126  1
  Li  Li7  1  0.16500452  0.50207209  0.52742660  1
  Li  Li8  1  0.49793349  0.83502795  0.02745236  1
  Li  Li9  1  0.16485127  0.16485696  0.25005315  1
  Li  Li10  1  0.49900441  0.83094495  0.53048013  1
  Li  Li11  1  0.16854205  0.16856350  0.74995851  1
  Li  Li12  1  0.33211181  0.33394050  0.50050394  1
  Li  Li13  1  0.33398424  0.33214837  0.99949752  1
  Li  Li14  1  0.49572044  0.49569068  0.25007139  1
  Li  Li15  1  0.50432271  0.50432220  0.74991110  1
  Li  Li16  1  0.66601137  0.66786599  0.00049797  1
  Li  Li17  1  0.66787724  0.66603281  0.49949639  1
  Li  Li18  1  0.83147998  0.83142909  0.25004024  1
  Li  Li19  1  0.50099107  0.16903246  0.46951877  1
  Li  Li20  1  0.83518876  0.83518371  0.74995441  1
  Li  Li21  1  0.50205525  0.16498836  0.97252317  1
  Li  Li22  1  0.83501192  0.49793545  0.47255423  1
  Li  Li23  1  0.83093198  0.49898514  0.96950048  1
  Li  Li24  1  0.66525674  0.00599518  0.28257879  1
  Li  Li25  1  0.66290229  0.00073662  0.78183596  1
  Li  Li26  1  0.83225632  0.17190885  0.03397103  1
  Li  Li27  1  0.82813094  0.16774060  0.53396799  1
  Li  Li28  1  0.99924304  0.33711742  0.28197998  1
  Li  Li29  1  0.99391876  0.33471835  0.78251964  1
  Cu  Cu30  1  0.99985528  0.99993171  0.00009398  1
  Cu  Cu31  1  0.33644029  0.67252969  0.27897230  1
  Cu  Cu32  1  0.99998489  0.99994765  0.49998452  1
  Cu  Cu33  1  0.32741014  0.66353343  0.77892514  1
  Cu  Cu34  1  0.67249609  0.33640899  0.22114478  1
  Cu  Cu35  1  0.66362576  0.32749468  0.72106633  1
  F  F36  1  0.08978713  0.91017941  0.30575908  1
  F  F37  1  0.08981430  0.91016995  0.80591210  1
  F  F38  1  0.06895011  0.58138425  0.37594606  1
  F  F39  1  0.06387925  0.58050080  0.87536750  1
  F  F40  1  0.24861265  0.75211137  0.11216932  1
  F  F41  1  0.24794457  0.75135262  0.61225771  1
  F  F42  1  0.41943787  0.93601347  0.37528657  1
  F  F43  1  0.08591769  0.26506599  0.42865513  1
  F  F44  1  0.41860262  0.93102318  0.87601249  1
  F  F45  1  0.08718243  0.26599125  0.92785241  1
  F  F46  1  0.24926894  0.40186782  0.17501038  1
  F  F47  1  0.24928113  0.40378869  0.67497259  1
  F  F48  1  0.41748077  0.58176104  0.43960799  1
  F  F49  1  0.41827838  0.58251232  0.93967210  1
  F  F50  1  0.26503466  0.08595676  0.07130504  1
  F  F51  1  0.59635943  0.75088051  0.17489050  1
  F  F52  1  0.26598163  0.08712246  0.57219222  1
  F  F53  1  0.59816773  0.75076236  0.67505983  1
  F  F54  1  0.40188924  0.24927040  0.32492134  1
  F  F55  1  0.73399764  0.91286099  0.42779761  1
  F  F56  1  0.40365101  0.24911416  0.82512053  1
  F  F57  1  0.73500090  0.91410131  0.92867192  1
  F  F58  1  0.58172475  0.41753231  0.06034534  1
  F  F59  1  0.58251694  0.41824201  0.56041404  1
  F  F60  1  0.75077350  0.59623931  0.32505268  1
  F  F61  1  0.75072783  0.59816607  0.82499178  1
  F  F62  1  0.91282488  0.73401385  0.07214955  1
  F  F63  1  0.58138399  0.06893572  0.12397141  1
  F  F64  1  0.91410720  0.73493376  0.57133925  1
  F  F65  1  0.58053962  0.06395767  0.62470428  1
  F  F66  1  0.75205717  0.24863532  0.38775807  1
  F  F67  1  0.75136003  0.24788533  0.88781953  1
  F  F68  1  0.93611002  0.41950030  0.12463165  1
  F  F69  1  0.93106504  0.41862115  0.62404673  1
  F  F70  1  0.91018299  0.08983202  0.19408713  1
  F  F71  1  0.91023719  0.08987065  0.69419671  1
