# generated using pymatgen
data_Li2MnVP2(HO5)2
_symmetry_space_group_name_H-M   'P 1'
_cell_length_a   5.45308048
_cell_length_b   7.33325714
_cell_length_c   5.21424510
_cell_angle_alpha   109.84686076
_cell_angle_beta   99.39093317
_cell_angle_gamma   104.66937239
_symmetry_Int_Tables_number   1
_chemical_formula_structural   Li2MnVP2(HO5)2
_chemical_formula_sum   'Li2 Mn1 V1 P2 H2 O10'
_cell_volume   182.48301600
_cell_formula_units_Z   1
loop_
 _symmetry_equiv_pos_site_id
 _symmetry_equiv_pos_as_xyz
  1  'x, y, z'
loop_
 _atom_site_type_symbol
 _atom_site_label
 _atom_site_symmetry_multiplicity
 _atom_site_fract_x
 _atom_site_fract_y
 _atom_site_fract_z
 _atom_site_occupancy
  Li  Li0  1  0.39782502  0.82606015  0.74795358  1
  Li  Li1  1  0.60217498  0.17393985  0.25204642  1
  Mn  Mn2  1  0.00000000  0.00000000  0.00000000  1
  V  V3  1  0.00000000  0.50000000  0.00000000  1
  P  P4  1  0.36551107  0.23226557  0.67754734  1
  P  P5  1  0.63448893  0.76773343  0.32245266  1
  H  H6  1  0.06420591  0.33580248  0.35881971  1
  H  H7  1  0.93579409  0.66419752  0.64118029  1
  O  O8  1  0.04998345  0.72989496  0.83963251  1
  O  O9  1  0.20193161  0.38032898  0.72436334  1
  O  O10  1  0.34534516  0.65248040  0.30583520  1
  O  O11  1  0.25611812  0.06997009  0.36527607  1
  O  O12  1  0.35600917  0.12277376  0.88344008  1
  O  O13  1  0.64399083  0.87722624  0.11655992  1
  O  O14  1  0.74388188  0.93002991  0.63472393  1
  O  O15  1  0.65465484  0.34751960  0.69416480  1
  O  O16  1  0.79806839  0.61967102  0.27563666  1
  O  O17  1  0.95001655  0.27010504  0.16036749  1
