# generated using pymatgen
data_V3OF11
_symmetry_space_group_name_H-M   'P 1'
_cell_length_a   5.46109104
_cell_length_b   5.25740333
_cell_length_c   14.75177989
_cell_angle_alpha   89.97419734
_cell_angle_beta   100.28260512
_cell_angle_gamma   89.77125696
_symmetry_Int_Tables_number   1
_chemical_formula_structural   V3OF11
_chemical_formula_sum   'V6 O2 F22'
_cell_volume   416.73470417
_cell_formula_units_Z   2
loop_
 _symmetry_equiv_pos_site_id
 _symmetry_equiv_pos_as_xyz
  1  'x, y, z'
loop_
 _atom_site_type_symbol
 _atom_site_label
 _atom_site_symmetry_multiplicity
 _atom_site_fract_x
 _atom_site_fract_y
 _atom_site_fract_z
 _atom_site_occupancy
  V  V0  1  0.99974726  0.99959042  0.00008837  1
  V  V1  1  0.12567047  0.47508101  0.33016721  1
  V  V2  1  0.32223389  0.99197173  0.66744210  1
  V  V3  1  0.49965965  0.49969847  0.99996024  1
  V  V4  1  0.65535971  0.99183811  0.33414738  1
  V  V5  1  0.79248999  0.47511340  0.66348518  1
  O  O6  1  0.54130801  0.29522277  0.64405347  1
  O  O7  1  0.87468947  0.29482928  0.31072987  1
  F  F8  1  0.02322656  0.20915371  0.64204738  1
  F  F9  1  0.18879302  0.30330160  0.97507197  1
  F  F10  1  0.14018146  0.70699369  0.69063073  1
  F  F11  1  0.04202839  0.08830025  0.11749986  1
  F  F12  1  0.22791465  0.42787258  0.44972493  1
  F  F13  1  0.38341186  0.08841361  0.78423561  1
  F  F14  1  0.13578580  0.59439109  0.21856858  1
  F  F15  1  0.29564575  0.92481665  0.54845482  1
  F  F16  1  0.46204504  0.58731541  0.88265704  1
  F  F17  1  0.35644011  0.20960447  0.30850197  1
  F  F18  1  0.68811089  0.19603647  0.97547567  1
  F  F19  1  0.31149291  0.80339421  0.02470544  1
  F  F20  1  0.47299302  0.70711366  0.35744519  1
  F  F21  1  0.63716970  0.78701333  0.69064792  1
  F  F22  1  0.54117103  0.41290336  0.11761674  1
  F  F23  1  0.71586525  0.08893010  0.45095391  1
  F  F24  1  0.89452754  0.42752686  0.78294427  1
  F  F25  1  0.62867482  0.92278618  0.21536675  1
  F  F26  1  0.80411825  0.59305232  0.55173098  1
  F  F27  1  0.95762924  0.91425408  0.88257874  1
  F  F28  1  0.81165519  0.69671224  0.02543389  1
  F  F29  1  0.96996304  0.78676893  0.35763382  1
