# generated using pymatgen
data_Li3ZnFe2(PO4)3
_symmetry_space_group_name_H-M   'P 1'
_cell_length_a   10.35067058
_cell_length_b   6.05204864
_cell_length_c   14.26905840
_cell_angle_alpha   90.00000000
_cell_angle_beta   89.97768829
_cell_angle_gamma   90.00000000
_symmetry_Int_Tables_number   1
_chemical_formula_structural   Li3ZnFe2(PO4)3
_chemical_formula_sum   'Li12 Zn4 Fe8 P12 O48'
_cell_volume   893.85315849
_cell_formula_units_Z   4
loop_
 _symmetry_equiv_pos_site_id
 _symmetry_equiv_pos_as_xyz
  1  'x, y, z'
loop_
 _atom_site_type_symbol
 _atom_site_label
 _atom_site_symmetry_multiplicity
 _atom_site_fract_x
 _atom_site_fract_y
 _atom_site_fract_z
 _atom_site_occupancy
  Li  Li0  1  0.00045357  0.49918422  0.66649878  1
  Li  Li1  1  0.99960258  0.00063229  0.00026690  1
  Li  Li2  1  0.99960258  0.49936771  0.00026690  1
  Li  Li3  1  0.00092844  0.99967992  0.33347837  1
  Li  Li4  1  0.00092844  0.50032008  0.33347837  1
  Li  Li5  1  0.00045357  0.00081578  0.66649878  1
  Li  Li6  1  0.49903451  0.99965843  0.50020709  1
  Li  Li7  1  0.49903451  0.50034157  0.50020709  1
  Li  Li8  1  0.49983813  0.99995526  0.16665054  1
  Li  Li9  1  0.49983813  0.50004474  0.16665054  1
  Li  Li10  1  0.49943582  0.00053564  0.83306779  1
  Li  Li11  1  0.49943582  0.49946436  0.83306779  1
  Zn  Zn12  1  0.21890883  0.75000000  0.49231884  1
  Zn  Zn13  1  0.21891738  0.75000000  0.82590023  1
  Zn  Zn14  1  0.28096915  0.25000000  0.32617462  1
  Zn  Zn15  1  0.71854806  0.75000000  0.00739930  1
  Fe  Fe16  1  0.22036645  0.75000000  0.15815993  1
  Fe  Fe17  1  0.27940072  0.25000000  0.65842913  1
  Fe  Fe18  1  0.28066906  0.25000000  0.99123423  1
  Fe  Fe19  1  0.71965627  0.75000000  0.34215586  1
  Fe  Fe20  1  0.72052945  0.75000000  0.67522032  1
  Fe  Fe21  1  0.78016327  0.25000000  0.17531421  1
  Fe  Fe22  1  0.78007184  0.25000000  0.50751275  1
  Fe  Fe23  1  0.78019283  0.25000000  0.84223214  1
  P  P24  1  0.09407046  0.25000000  0.13920319  1
  P  P25  1  0.09396124  0.25000000  0.47217585  1
  P  P26  1  0.09356684  0.25000000  0.80594290  1
  P  P27  1  0.40555681  0.75000000  0.30580504  1
  P  P28  1  0.40608220  0.75000000  0.63915499  1
  P  P29  1  0.40749136  0.75000000  0.97264256  1
  P  P30  1  0.59383635  0.25000000  0.02771781  1
  P  P31  1  0.59184692  0.25000000  0.36045403  1
  P  P32  1  0.59317645  0.25000000  0.69422286  1
  P  P33  1  0.90773243  0.75000000  0.86063935  1
  P  P34  1  0.90609393  0.75000000  0.19415175  1
  P  P35  1  0.90800952  0.75000000  0.52760383  1
  O  O36  1  0.04468342  0.75000000  0.23574411  1
  O  O37  1  0.04723254  0.75000000  0.56923666  1
  O  O38  1  0.04672221  0.75000000  0.90271861  1
  O  O39  1  0.09717316  0.25000000  0.24696569  1
  O  O40  1  0.09460466  0.25000000  0.57998640  1
  O  O41  1  0.09454886  0.25000000  0.91365626  1
  O  O42  1  0.16488270  0.04582364  0.09452121  1
  O  O43  1  0.16488270  0.45417636  0.09452121  1
  O  O44  1  0.16551510  0.04552445  0.42768267  1
  O  O45  1  0.16482794  0.04523008  0.76140172  1
  O  O46  1  0.16551510  0.45447555  0.42768267  1
  O  O47  1  0.16482794  0.45476992  0.76140172  1
  O  O48  1  0.33499826  0.95402587  0.59449049  1
  O  O49  1  0.33501872  0.95493382  0.26097910  1
  O  O50  1  0.33560276  0.95340104  0.92798839  1
  O  O51  1  0.33499826  0.54597413  0.59449049  1
  O  O52  1  0.33560276  0.54659896  0.92798839  1
  O  O53  1  0.33501872  0.54506618  0.26097910  1
  O  O54  1  0.40599890  0.75000000  0.08010601  1
  O  O55  1  0.40251084  0.75000000  0.41378432  1
  O  O56  1  0.40261583  0.75000000  0.74696846  1
  O  O57  1  0.45298368  0.25000000  0.40261140  1
  O  O58  1  0.45502884  0.25000000  0.06965803  1
  O  O59  1  0.45486289  0.25000000  0.73675415  1
  O  O60  1  0.54473491  0.75000000  0.26448591  1
  O  O61  1  0.54653581  0.75000000  0.93032254  1
  O  O62  1  0.54503167  0.75000000  0.59749597  1
  O  O63  1  0.59386252  0.25000000  0.25292876  1
  O  O64  1  0.59496525  0.25000000  0.91987063  1
  O  O65  1  0.59437215  0.25000000  0.58650821  1
  O  O66  1  0.66492950  0.04504746  0.07210828  1
  O  O67  1  0.66337040  0.04633092  0.40517453  1
  O  O68  1  0.66492950  0.45495254  0.07210828  1
  O  O69  1  0.66337040  0.45366908  0.40517453  1
  O  O70  1  0.66479449  0.04595874  0.73844813  1
  O  O71  1  0.66479449  0.45404126  0.73844813  1
  O  O72  1  0.83578133  0.54661888  0.90521277  1
  O  O73  1  0.83578133  0.95338112  0.90521277  1
  O  O74  1  0.83503088  0.54596384  0.23873352  1
  O  O75  1  0.83690820  0.54578555  0.57217941  1
  O  O76  1  0.83503088  0.95403616  0.23873352  1
  O  O77  1  0.83690820  0.95421445  0.57217941  1
  O  O78  1  0.90618281  0.75000000  0.75298087  1
  O  O79  1  0.90276632  0.75000000  0.08617129  1
  O  O80  1  0.90550998  0.75000000  0.42002373  1
  O  O81  1  0.95485320  0.25000000  0.76371372  1
  O  O82  1  0.95527710  0.25000000  0.09745778  1
  O  O83  1  0.95521995  0.25000000  0.42990646  1
