# generated using pymatgen
data_V3OF11
_symmetry_space_group_name_H-M   'P 1'
_cell_length_a   5.45826897
_cell_length_b   5.25811989
_cell_length_c   14.81944450
_cell_angle_alpha   90.00000000
_cell_angle_beta   100.26649051
_cell_angle_gamma   90.00000000
_symmetry_Int_Tables_number   1
_chemical_formula_structural   V3OF11
_chemical_formula_sum   'V6 O2 F22'
_cell_volume   418.51187013
_cell_formula_units_Z   2
loop_
 _symmetry_equiv_pos_site_id
 _symmetry_equiv_pos_as_xyz
  1  'x, y, z'
loop_
 _atom_site_type_symbol
 _atom_site_label
 _atom_site_symmetry_multiplicity
 _atom_site_fract_x
 _atom_site_fract_y
 _atom_site_fract_z
 _atom_site_occupancy
  V  V0  1  0.04015487  0.97593553  0.00313739  1
  V  V1  1  0.12651213  0.47593553  0.33019561  1
  V  V2  1  0.33339555  0.99964674  0.66675863  1
  V  V3  1  0.51094897  0.49264939  0.99936967  1
  V  V4  1  0.65571803  0.99264939  0.33396333  1
  V  V5  1  0.83327145  0.49964674  0.66657437  1
  O  O6  1  0.29178895  0.79523581  0.02241885  1
  O  O7  1  0.87487805  0.29523581  0.31091415  1
  F  F8  1  0.02177232  0.19666900  0.64183599  1
  F  F9  1  0.19575290  0.28761955  0.97579938  1
  F  F10  1  0.14489368  0.69666900  0.69149701  1
  F  F11  1  0.03190711  0.09392728  0.11472180  1
  F  F12  1  0.22766851  0.42711328  0.44901154  1
  F  F13  1  0.37264933  0.08732910  0.78361151  1
  F  F14  1  0.13475889  0.59392728  0.21861220  1
  F  F15  1  0.29163084  0.91446808  0.54960769  1
  F  F16  1  0.45224274  0.58812078  0.88301398  1
  F  F17  1  0.35599897  0.20913416  0.30816470  1
  F  F18  1  0.52220205  0.30316354  0.64200654  1
  F  F19  1  0.69388477  0.20625374  0.97666416  1
  F  F20  1  0.47278223  0.70625374  0.35666984  1
  F  F21  1  0.64446495  0.80316354  0.69132646  1
  F  F22  1  0.53779011  0.42273402  0.11771388  1
  F  F23  1  0.71442326  0.08812078  0.45031902  1
  F  F24  1  0.87503516  0.41446808  0.78372631  1
  F  F25  1  0.62887589  0.92273402  0.21562012  1
  F  F26  1  0.79401667  0.58732910  0.54972149  1
  F  F27  1  0.93899849  0.92711328  0.88432146  1
  F  F28  1  0.81066803  0.70913416  0.02516830  1
  F  F29  1  0.97091310  0.78761955  0.35753362  1
