# generated using pymatgen
data_Li32Mn5Cr11O48
_symmetry_space_group_name_H-M   'P 1'
_cell_length_a   5.02216671
_cell_length_b   5.02216939
_cell_length_c   38.48053640
_cell_angle_alpha   88.94803174
_cell_angle_beta   91.05192602
_cell_angle_gamma   60.23714866
_symmetry_Int_Tables_number   1
_chemical_formula_structural   Li32Mn5Cr11O48
_chemical_formula_sum   'Li32 Mn5 Cr11 O48'
_cell_volume   841.96925239
_cell_formula_units_Z   1
loop_
 _symmetry_equiv_pos_site_id
 _symmetry_equiv_pos_as_xyz
  1  'x, y, z'
loop_
 _atom_site_type_symbol
 _atom_site_label
 _atom_site_symmetry_multiplicity
 _atom_site_fract_x
 _atom_site_fract_y
 _atom_site_fract_z
 _atom_site_occupancy
  Li  Li0  1  0.08668112  0.09155913  0.24992118  1
  Li  Li1  1  0.99874112  0.49975433  0.00018490  1
  Li  Li2  1  0.05981023  0.43669101  0.18747167  1
  Li  Li3  1  0.12146949  0.37420433  0.37504952  1
  Li  Li4  1  0.18970128  0.31256515  0.56242583  1
  Li  Li5  1  0.25047704  0.25438515  0.75020265  1
  Li  Li6  1  0.31228942  0.18763184  0.93747520  1
  Li  Li7  1  0.03397123  0.79191042  0.12491156  1
  Li  Li8  1  0.37276940  0.12147073  0.12497281  1
  Li  Li9  1  0.16691042  0.65897133  0.50008833  1
  Li  Li10  1  0.28149664  0.53767540  0.87476605  1
  Li  Li11  1  0.43800323  0.06300310  0.31249999  1
  Li  Li12  1  0.49647025  0.99776963  0.50002725  1
  Li  Li13  1  0.41322799  0.41231703  0.25003139  1
  Li  Li14  1  0.53130420  0.28867318  0.62472560  1
  Li  Li15  1  0.21730862  0.96276823  0.62495080  1
  Li  Li16  1  0.33776867  0.84230860  0.00004918  1
  Li  Li17  1  0.66367259  0.15630444  0.00027438  1
  Li  Li18  1  0.78731723  0.03822786  0.37496866  1
  Li  Li19  1  0.46655894  0.71168120  0.37507885  1
  Li  Li20  1  0.58803963  0.58823686  0.75014602  1
  Li  Li21  1  0.56263199  0.93728932  0.68752476  1
  Li  Li22  1  0.71835357  0.46047806  0.12504870  1
  Li  Li23  1  0.83547840  0.34335347  0.49995129  1
  Li  Li24  1  0.62938480  0.87547721  0.87479736  1
  Li  Li25  1  0.96323715  0.21304019  0.87485395  1
  Li  Li26  1  0.68756520  0.81470113  0.06257422  1
  Li  Li27  1  0.74920424  0.74646951  0.24995059  1
  Li  Li28  1  0.81169147  0.68480982  0.43752830  1
  Li  Li29  1  0.87475426  0.62374139  0.62481511  1
  Li  Li30  1  0.93929791  0.56429692  0.81250001  1
  Li  Li31  1  0.91267545  0.90649716  0.75023392  1
  Mn  Mn32  1  0.02039794  0.14597917  0.06248102  1
  Mn  Mn33  1  0.14455455  0.01987498  0.43740724  1
  Mn  Mn34  1  0.60529897  0.23029912  0.81250004  1
  Mn  Mn35  1  0.39487309  0.76955543  0.18759265  1
  Mn  Mn36  1  0.52097814  0.64539555  0.56251889  1
  Cr  Cr37  1  0.10358583  0.72859628  0.31250135  1
  Cr  Cr38  1  0.23335420  0.60814235  0.68745421  1
  Cr  Cr39  1  0.35622523  0.48414288  0.06253583  1
  Cr  Cr40  1  0.47850587  0.35036041  0.43743872  1
  Cr  Cr41  1  0.27310244  0.89811470  0.81250046  1
  Cr  Cr42  1  0.72536685  0.10348569  0.18756250  1
  Cr  Cr43  1  0.64131672  0.51667953  0.93746912  1
  Cr  Cr44  1  0.77179606  0.39676996  0.31249934  1
  Cr  Cr45  1  0.89170344  0.26629607  0.68752984  1
  Cr  Cr46  1  0.85914823  0.98126942  0.56246445  1
  Cr  Cr47  1  0.98312790  0.85836989  0.93754499  1
  O  O48  1  0.08219431  0.06188286  0.34052117  1
  O  O49  1  0.05829936  0.08683883  0.15945159  1
  O  O50  1  0.07166583  0.42887641  0.28368398  1
  O  O51  1  0.19395891  0.30598064  0.65902044  1
  O  O52  1  0.05792271  0.44323987  0.09087957  1
  O  O53  1  0.17656452  0.31946656  0.46609627  1
  O  O54  1  0.30546993  0.19718789  0.84100540  1
  O  O55  1  0.31985735  0.17839327  0.03395050  1
  O  O56  1  0.44409091  0.05454567  0.40892690  1
  O  O57  1  0.06872460  0.79211092  0.21541680  1
  O  O58  1  0.42954571  0.06909209  0.21607300  1
  O  O59  1  0.20069883  0.65776617  0.59061609  1
  O  O60  1  0.33227284  0.53214786  0.96589791  1
  O  O61  1  0.03276839  0.82569699  0.03438413  1
  O  O62  1  0.16711057  0.69372408  0.40958306  1
  O  O63  1  0.28805833  0.56594039  0.78437514  1
  O  O64  1  0.21799396  0.91727384  0.71592685  1
  O  O65  1  0.17897336  0.96136013  0.53462252  1
  O  O66  1  0.29227582  0.84299214  0.90907290  1
  O  O67  1  0.43840920  0.41798001  0.34062745  1
  O  O68  1  0.58210368  0.28139770  0.71581621  1
  O  O69  1  0.41837767  0.44286547  0.15963788  1
  O  O70  1  0.53203682  0.32723478  0.53426821  1
  O  O71  1  0.65639707  0.20710504  0.90918402  1
  O  O72  1  0.33635792  0.80397204  0.09037695  1
  O  O73  1  0.46184063  0.68329869  0.46554866  1
  O  O74  1  0.58214658  0.55713560  0.84033458  1
  O  O75  1  0.43687987  0.70719728  0.28447895  1
  O  O76  1  0.54301544  0.59304357  0.65917070  1
  O  O77  1  0.70223530  0.15703654  0.09073133  1
  O  O78  1  0.81786499  0.04337816  0.46536227  1
  O  O79  1  0.79298057  0.06340781  0.28437272  1
  O  O80  1  0.71204887  0.43423813  0.21576386  1
  O  O81  1  0.83469887  0.30247762  0.59040631  1
  O  O82  1  0.96804645  0.16801589  0.96582929  1
  O  O83  1  0.67747537  0.45970075  0.03459390  1
  O  O84  1  0.80923780  0.33704713  0.40923623  1
  O  O85  1  0.57218443  0.93047167  0.78399466  1
  O  O86  1  0.93213599  0.20714735  0.78466547  1
  O  O87  1  0.55339301  0.94485863  0.59104944  1
  O  O88  1  0.68098222  0.81895688  0.96597961  1
  O  O89  1  0.69446691  0.80156565  0.15890396  1
  O  O90  1  0.81823892  0.68292262  0.53412002  1
  O  O91  1  0.94416383  0.55527187  0.90900487  1
  O  O92  1  0.80387812  0.69666881  0.34131590  1
  O  O93  1  0.93027128  0.56916586  0.71599483  1
  O  O94  1  0.94094306  0.91305779  0.84062500  1
  O  O95  1  0.90714722  0.95727249  0.65910188  1
