# generated using pymatgen
data_LiMnNbO4
_symmetry_space_group_name_H-M   'P 1'
_cell_length_a   6.22373581
_cell_length_b   6.22373581
_cell_length_c   8.78393991
_cell_angle_alpha   90.00000000
_cell_angle_beta   90.00000000
_cell_angle_gamma   90.00000000
_symmetry_Int_Tables_number   1
_chemical_formula_structural   LiMnNbO4
_chemical_formula_sum   'Li4 Mn4 Nb4 O16'
_cell_volume   340.24492363
_cell_formula_units_Z   4
loop_
 _symmetry_equiv_pos_site_id
 _symmetry_equiv_pos_as_xyz
  1  'x, y, z'
loop_
 _atom_site_type_symbol
 _atom_site_label
 _atom_site_symmetry_multiplicity
 _atom_site_fract_x
 _atom_site_fract_y
 _atom_site_fract_z
 _atom_site_occupancy
  Li  Li0  1  0.00000000  0.22663843  0.00000000  1
  Li  Li1  1  0.00000000  0.77336157  0.50000000  1
  Li  Li2  1  0.22663843  0.00000000  0.25000000  1
  Li  Li3  1  0.77336157  0.00000000  0.75000000  1
  Mn  Mn4  1  0.23756484  0.50000000  0.25000000  1
  Mn  Mn5  1  0.50000000  0.23756484  0.00000000  1
  Mn  Mn6  1  0.50000000  0.76243516  0.50000000  1
  Mn  Mn7  1  0.76243516  0.50000000  0.75000000  1
  Nb  Nb8  1  0.25227484  0.25227484  0.62500000  1
  Nb  Nb9  1  0.25227484  0.74772516  0.87500000  1
  Nb  Nb10  1  0.74772516  0.25227484  0.37500000  1
  Nb  Nb11  1  0.74772516  0.74772516  0.12500000  1
  O  O12  1  0.99507325  0.25087260  0.25224091  1
  O  O13  1  0.99507325  0.74912740  0.24775909  1
  O  O14  1  0.25087260  0.99507325  0.99775909  1
  O  O15  1  0.25087260  0.00492675  0.50224091  1
  O  O16  1  0.25352607  0.49821653  0.00040096  1
  O  O17  1  0.25352607  0.50178347  0.49959904  1
  O  O18  1  0.49821653  0.25352607  0.24959904  1
  O  O19  1  0.49821653  0.74647393  0.25040096  1
  O  O20  1  0.50178347  0.25352607  0.75040096  1
  O  O21  1  0.50178347  0.74647393  0.74959904  1
  O  O22  1  0.74647393  0.50178347  0.50040096  1
  O  O23  1  0.74647393  0.49821653  0.99959904  1
  O  O24  1  0.74912740  0.99507325  0.00224091  1
  O  O25  1  0.74912740  0.00492675  0.49775909  1
  O  O26  1  0.00492675  0.25087260  0.74775909  1
  O  O27  1  0.00492675  0.74912740  0.75224091  1
