# generated using pymatgen
data_Li7Mn4(P2O7)4
_symmetry_space_group_name_H-M   'P 1'
_cell_length_a   9.91138872
_cell_length_b   9.90579731
_cell_length_c   11.34523933
_cell_angle_alpha   89.88415697
_cell_angle_beta   102.65985529
_cell_angle_gamma   89.65556302
_symmetry_Int_Tables_number   1
_chemical_formula_structural   Li7Mn4(P2O7)4
_chemical_formula_sum   'Li14 Mn8 P16 O56'
_cell_volume   1086.77173048
_cell_formula_units_Z   2
loop_
 _symmetry_equiv_pos_site_id
 _symmetry_equiv_pos_as_xyz
  1  'x, y, z'
loop_
 _atom_site_type_symbol
 _atom_site_label
 _atom_site_symmetry_multiplicity
 _atom_site_fract_x
 _atom_site_fract_y
 _atom_site_fract_z
 _atom_site_occupancy
  Li  Li0  1  0.11454300  0.71176730  0.44988074  1
  Li  Li1  1  0.08534273  0.10613161  0.02835194  1
  Li  Li2  1  0.34520293  0.90882690  0.95637518  1
  Li  Li3  1  0.15022044  0.41209665  0.04258154  1
  Li  Li4  1  0.41497592  0.60894826  0.96977548  1
  Li  Li5  1  0.32942419  0.92198244  0.45478372  1
  Li  Li6  1  0.38120182  0.22529342  0.55236949  1
  Li  Li7  1  0.61229587  0.77771363  0.44885789  1
  Li  Li8  1  0.66995872  0.07895277  0.54687224  1
  Li  Li9  1  0.58589192  0.39380519  0.02767234  1
  Li  Li10  1  0.65706805  0.09214997  0.04156347  1
  Li  Li11  1  0.91259401  0.88927971  0.97252702  1
  Li  Li12  1  0.83826176  0.57217862  0.46158318  1
  Li  Li13  1  0.89597866  0.28140571  0.55370828  1
  Mn  Mn14  1  0.20331071  0.91888498  0.67566133  1
  Mn  Mn15  1  0.25321923  0.21667641  0.82115014  1
  Mn  Mn16  1  0.24073446  0.71471202  0.17362127  1
  Mn  Mn17  1  0.29381452  0.42662014  0.33288476  1
  Mn  Mn18  1  0.70607074  0.58064271  0.68246261  1
  Mn  Mn19  1  0.75858107  0.28939512  0.82573738  1
  Mn  Mn20  1  0.74430171  0.78325371  0.17399330  1
  Mn  Mn21  1  0.79937454  0.07981860  0.32594060  1
  P  P22  1  0.02400540  0.45434074  0.75588213  1
  P  P23  1  0.11717121  0.70517697  0.89109038  1
  P  P24  1  0.05852580  0.93096870  0.24411440  1
  P  P25  1  0.12427568  0.15143381  0.42530729  1
  P  P26  1  0.37893775  0.64845819  0.57303685  1
  P  P27  1  0.44160860  0.43106744  0.75703913  1
  P  P28  1  0.52545543  0.04921473  0.75987454  1
  P  P29  1  0.38090481  0.20563275  0.10810128  1
  P  P30  1  0.61877931  0.79489531  0.89017610  1
  P  P31  1  0.47444909  0.95282495  0.23954939  1
  P  P32  1  0.55797190  0.56731128  0.24325129  1
  P  P33  1  0.62234084  0.35097775  0.42614204  1
  P  P34  1  0.87720429  0.84938835  0.57426994  1
  P  P35  1  0.94012527  0.06748441  0.75667513  1
  P  P36  1  0.88063186  0.29431297  0.10858256  1
  P  P37  1  0.97272493  0.54723322  0.24120032  1
  O  O38  1  0.02211437  0.41586468  0.62812276  1
  O  O39  1  0.02349709  0.83798638  0.55333923  1
  O  O40  1  0.08532236  0.08645363  0.73086988  1
  O  O41  1  0.11045485  0.36178920  0.85500798  1
  O  O42  1  0.09287635  0.60144308  0.77638141  1
  O  O43  1  0.18699510  0.82653888  0.84450463  1
  O  O44  1  0.22332098  0.63358098  0.99657853  1
  O  O45  1  0.01932552  0.27569705  0.07617429  1
  O  O46  1  0.11243689  0.07734789  0.29528974  1
  O  O47  1  0.06360923  0.93420652  0.11185350  1
  O  O48  1  0.12295939  0.53223906  0.21641905  1
  O  O49  1  0.19191925  0.28631864  0.41181235  1
  O  O50  1  0.16330829  0.82540966  0.31314666  1
  O  O51  1  0.22360612  0.06398560  0.51871690  1
  O  O52  1  0.28234071  0.57181028  0.47348199  1
  O  O53  1  0.34481994  0.31885632  0.69546423  1
  O  O54  1  0.31701462  0.78969997  0.58306650  1
  O  O55  1  0.37770023  0.03714221  0.78707457  1
  O  O56  1  0.38243057  0.57556824  0.70111640  1
  O  O57  1  0.43900060  0.43930508  0.88951975  1
  O  O58  1  0.48085246  0.77800830  0.92494883  1
  O  O59  1  0.27708255  0.13583659  0.00200904  1
  O  O60  1  0.31686141  0.33028055  0.15370902  1
  O  O61  1  0.40536854  0.10145628  0.22323973  1
  O  O62  1  0.41271367  0.58546636  0.27081401  1
  O  O63  1  0.38484459  0.86245715  0.14382872  1
  O  O64  1  0.52190245  0.08675522  0.62931666  1
  O  O65  1  0.47371169  0.34282455  0.44424046  1
  O  O66  1  0.53104617  0.65767254  0.56103688  1
  O  O67  1  0.47675417  0.91449366  0.36968931  1
  O  O68  1  0.61596438  0.14039952  0.85488077  1
  O  O69  1  0.58754229  0.41488131  0.72907280  1
  O  O70  1  0.59518944  0.90157798  0.77663623  1
  O  O71  1  0.67757773  0.67211229  0.84040514  1
  O  O72  1  0.72196832  0.86523142  0.99687552  1
  O  O73  1  0.51994570  0.22325459  0.07593028  1
  O  O74  1  0.56158321  0.56483101  0.11118115  1
  O  O75  1  0.61415215  0.41988240  0.29502874  1
  O  O76  1  0.62350119  0.96251646  0.21409526  1
  O  O77  1  0.68491630  0.21000581  0.41839448  1
  O  O78  1  0.66197903  0.67314554  0.31082033  1
  O  O79  1  0.72295572  0.43625797  0.51805606  1
  O  O80  1  0.77478195  0.93534318  0.48237418  1
  O  O81  1  0.83488070  0.17261731  0.68735104  1
  O  O82  1  0.81218712  0.70940682  0.58320143  1
  O  O83  1  0.87299154  0.46402820  0.78079054  1
  O  O84  1  0.93569760  0.06431703  0.88892214  1
  O  O85  1  0.88664870  0.91989263  0.70458618  1
  O  O86  1  0.98192207  0.73031628  0.92349160  1
  O  O87  1  0.77158349  0.35482806  0.00273107  1
  O  O88  1  0.82077634  0.16910725  0.15775948  1
  O  O89  1  0.90170855  0.40071228  0.22110165  1
  O  O90  1  0.88893878  0.64482500  0.14836673  1
  O  O91  1  0.91243359  0.91226936  0.26908164  1
  O  O92  1  0.97665090  0.16221074  0.44486117  1
  O  O93  1  0.97529589  0.58437556  0.37065574  1
