# generated using pymatgen
data_K2Mn3P4(HO3)4
_symmetry_space_group_name_H-M   'P 1'
_cell_length_a   5.51535594
_cell_length_b   5.51555693
_cell_length_c   12.27376442
_cell_angle_alpha   77.01923455
_cell_angle_beta   102.98137077
_cell_angle_gamma   119.99464742
_symmetry_Int_Tables_number   1
_chemical_formula_structural   K2Mn3P4(HO3)4
_chemical_formula_sum   'K2 Mn3 P4 H4 O12'
_cell_volume   312.29864784
_cell_formula_units_Z   1
loop_
 _symmetry_equiv_pos_site_id
 _symmetry_equiv_pos_as_xyz
  1  'x, y, z'
loop_
 _atom_site_type_symbol
 _atom_site_label
 _atom_site_symmetry_multiplicity
 _atom_site_fract_x
 _atom_site_fract_y
 _atom_site_fract_z
 _atom_site_occupancy
  K  K0  1  0.81304990  0.18693296  0.43890420  1
  K  K1  1  0.18695010  0.81306604  0.56109580  1
  Mn  Mn2  1  0.00000000  0.00000000  0.00000000  1
  Mn  Mn3  1  0.08528164  0.91474965  0.25578757  1
  Mn  Mn4  1  0.91471836  0.08525035  0.74421243  1
  P  P5  1  0.69599064  0.30397823  0.08795486  1
  P  P6  1  0.44160682  0.55847926  0.32474307  1
  P  P7  1  0.55839318  0.44152174  0.67525693  1
  P  P8  1  0.30400936  0.69602077  0.91204514  1
  H  H9  1  0.34372823  0.65624045  0.03123506  1
  H  H10  1  0.40196225  0.59799857  0.20587916  1
  H  H11  1  0.59803775  0.40200043  0.79412084  1
  H  H12  1  0.65627177  0.34376055  0.96876494  1
  O  O13  1  0.86394483  0.13607400  0.12330114  1
  O  O14  1  0.39542832  0.13604085  0.12330013  1
  O  O15  1  0.86396812  0.60460196  0.12330681  1
  O  O16  1  0.76296063  0.69962598  0.36366401  1
  O  O17  1  0.30035620  0.69960216  0.36364982  1
  O  O18  1  0.30036477  0.23695338  0.36367833  1
  O  O19  1  0.69963623  0.76304662  0.63632167  1
  O  O20  1  0.69964380  0.30039684  0.63635018  1
  O  O21  1  0.23703737  0.30037202  0.63633599  1
  O  O22  1  0.13603188  0.39539904  0.87669319  1
  O  O23  1  0.60457168  0.86396015  0.87670087  1
  O  O24  1  0.13605617  0.86392700  0.87669886  1
