# generated using pymatgen
data_Li7Fe7SiO16
_symmetry_space_group_name_H-M   'P 1'
_cell_length_a   5.61312405
_cell_length_b   5.12764135
_cell_length_c   12.91143513
_cell_angle_alpha   90.16312554
_cell_angle_beta   90.10036218
_cell_angle_gamma   89.59747670
_symmetry_Int_Tables_number   1
_chemical_formula_structural   Li7Fe7SiO16
_chemical_formula_sum   'Li7 Fe7 Si1 O16'
_cell_volume   371.60681516
_cell_formula_units_Z   1
loop_
 _symmetry_equiv_pos_site_id
 _symmetry_equiv_pos_as_xyz
  1  'x, y, z'
loop_
 _atom_site_type_symbol
 _atom_site_label
 _atom_site_symmetry_multiplicity
 _atom_site_fract_x
 _atom_site_fract_y
 _atom_site_fract_z
 _atom_site_occupancy
  Li  Li0  1  0.07910285  0.00823414  0.56215320  1
  Li  Li1  1  0.42104802  0.50593354  0.31086380  1
  Li  Li2  1  0.42274620  0.50624608  0.81407502  1
  Li  Li3  1  0.57653643  0.00587679  0.69042297  1
  Li  Li4  1  0.55486095  0.99331352  0.18357630  1
  Li  Li5  1  0.91869745  0.50918754  0.43547740  1
  Li  Li6  1  0.92374894  0.51590714  0.94004483  1
  Fe  Fe7  1  0.09005980  0.99748305  0.30995624  1
  Fe  Fe8  1  0.09073048  0.00351618  0.81624399  1
  Fe  Fe9  1  0.41126507  0.50365893  0.56291568  1
  Fe  Fe10  1  0.58494565  0.00095743  0.43589650  1
  Fe  Fe11  1  0.57636866  0.98334808  0.94125647  1
  Fe  Fe12  1  0.90500198  0.52047412  0.18475202  1
  Fe  Fe13  1  0.91198821  0.50935540  0.68927192  1
  Si  Si14  1  0.08772196  0.99473661  0.06139579  1
  O  O15  1  0.04521217  0.68170264  0.06528139  1
  O  O16  1  0.08332542  0.61248877  0.56787827  1
  O  O17  1  0.08462480  0.63094955  0.30734967  1
  O  O18  1  0.08213970  0.63334384  0.80834917  1
  O  O19  1  0.42471788  0.12785493  0.55728967  1
  O  O20  1  0.36743634  0.07263965  0.05662422  1
  O  O21  1  0.40882578  0.11431507  0.31667329  1
  O  O22  1  0.40703097  0.11840556  0.81987394  1
  O  O23  1  0.58669832  0.61427777  0.68141904  1
  O  O24  1  0.60857636  0.62990398  0.20214284  1
  O  O25  1  0.57546802  0.62897236  0.44430088  1
  O  O26  1  0.61046184  0.64254309  0.92169596  1
  O  O27  1  0.96046136  0.12585997  0.16913905  1
  O  O28  1  0.92192386  0.13171296  0.69912540  1
  O  O29  1  0.91057288  0.11492549  0.42610780  1
  O  O30  1  0.93712963  0.11047682  0.95639628  1
