# generated using pymatgen
data_Ti3VFe2(PO4)6
_symmetry_space_group_name_H-M   'P 1'
_cell_length_a   8.58175937
_cell_length_b   8.68666094
_cell_length_c   8.68666129
_cell_angle_alpha   60.00000173
_cell_angle_beta   59.59481102
_cell_angle_gamma   59.59481188
_symmetry_Int_Tables_number   1
_chemical_formula_structural   Ti3VFe2(PO4)6
_chemical_formula_sum   'Ti3 V1 Fe2 P6 O24'
_cell_volume   455.07184478
_cell_formula_units_Z   1
loop_
 _symmetry_equiv_pos_site_id
 _symmetry_equiv_pos_as_xyz
  1  'x, y, z'
loop_
 _atom_site_type_symbol
 _atom_site_label
 _atom_site_symmetry_multiplicity
 _atom_site_fract_x
 _atom_site_fract_y
 _atom_site_fract_z
 _atom_site_occupancy
  Ti  Ti0  1  0.06625746  0.64458118  0.64458118  1
  Ti  Ti1  1  0.42958984  0.85680372  0.85680372  1
  Ti  Ti2  1  0.93654896  0.35448335  0.35448335  1
  V  V3  1  0.57771090  0.14076270  0.14076270  1
  Fe  Fe4  1  0.99636831  0.00121023  0.00121023  1
  Fe  Fe5  1  0.49748475  0.50083808  0.50083808  1
  P  P6  1  0.25223176  0.24897768  0.54336166  1
  P  P7  1  0.25223176  0.95542989  0.24897768  1
  P  P8  1  0.25223176  0.54336166  0.95542989  1
  P  P9  1  0.75054115  0.45797642  0.04362380  1
  P  P10  1  0.75054115  0.04362380  0.74785963  1
  P  P11  1  0.75054115  0.74785963  0.45797642  1
  O  O12  1  0.06944591  0.11844647  0.31514432  1
  O  O13  1  0.06944591  0.49696330  0.11844647  1
  O  O14  1  0.06944591  0.31514432  0.49696330  1
  O  O15  1  0.22627063  0.08995034  0.74064218  1
  O  O16  1  0.43241032  0.18681267  0.39105337  1
  O  O17  1  0.26146334  0.41325552  0.56425405  1
  O  O18  1  0.22627063  0.94313685  0.08995034  1
  O  O19  1  0.26146334  0.76102809  0.41325552  1
  O  O20  1  0.56928368  0.61844804  0.99777066  1
  O  O21  1  0.26146334  0.56425405  0.76102809  1
  O  O22  1  0.78073318  0.26429883  0.05216977  1
  O  O23  1  0.56928368  0.99777066  0.81449762  1
  O  O24  1  0.43241032  0.98972264  0.18681267  1
  O  O25  1  0.22627063  0.74064218  0.94313685  1
  O  O26  1  0.72826191  0.44748897  0.23820815  1
  O  O27  1  0.43241032  0.39105337  0.98972264  1
  O  O28  1  0.72826191  0.23820815  0.58604097  1
  O  O29  1  0.78073318  0.05216977  0.90279722  1
  O  O30  1  0.72826191  0.58604097  0.44748897  1
  O  O31  1  0.56928368  0.81449762  0.61844804  1
  O  O32  1  0.78073318  0.90279722  0.26429883  1
  O  O33  1  0.92803839  0.67758723  0.51056195  1
  O  O34  1  0.92803839  0.51056195  0.88381242  1
  O  O35  1  0.92803839  0.88381242  0.67758723  1
