# generated using pymatgen
data_TlCu3Se2
_symmetry_space_group_name_H-M   'P 1'
_cell_length_a   3.94596942
_cell_length_b   7.76848274
_cell_length_c   8.64811884
_cell_angle_alpha   109.99629084
_cell_angle_beta   90.00000000
_cell_angle_gamma   104.71273792
_symmetry_Int_Tables_number   1
_chemical_formula_structural   TlCu3Se2
_chemical_formula_sum   'Tl2 Cu6 Se4'
_cell_volume   239.84862934
_cell_formula_units_Z   2
loop_
 _symmetry_equiv_pos_site_id
 _symmetry_equiv_pos_as_xyz
  1  'x, y, z'
loop_
 _atom_site_type_symbol
 _atom_site_label
 _atom_site_symmetry_multiplicity
 _atom_site_fract_x
 _atom_site_fract_y
 _atom_site_fract_z
 _atom_site_occupancy
  Cu  Cu0  1  0.68753958  0.37507916  0.45034365  1
  Cu  Cu1  1  0.31246042  0.62492084  0.54965635  1
  Cu  Cu2  1  0.58162612  0.16325224  0.62650036  1
  Cu  Cu3  1  0.41837388  0.83674776  0.37349964  1
  Cu  Cu4  1  0.05718235  0.11436470  0.40885792  1
  Cu  Cu5  1  0.94281765  0.88563530  0.59114208  1
  Se  Se6  1  0.47444423  0.94888847  0.77664458  1
  Se  Se7  1  0.52555577  0.05111153  0.22335542  1
  Se  Se8  1  0.19279934  0.38559868  0.67719477  1
  Se  Se9  1  0.80720066  0.61440132  0.32280523  1
  Tl  Tl10  1  0.86033283  0.72066567  0.94807454  1
  Tl  Tl11  1  0.13966717  0.27933433  0.05192546  1
