# generated using pymatgen
data_LiCu2PO4
_symmetry_space_group_name_H-M   'P 1'
_cell_length_a   6.23702541
_cell_length_b   10.89669513
_cell_length_c   5.26309052
_cell_angle_alpha   90.00002341
_cell_angle_beta   89.99981381
_cell_angle_gamma   89.99989881
_symmetry_Int_Tables_number   1
_chemical_formula_structural   LiCu2PO4
_chemical_formula_sum   'Li4 Cu8 P4 O16'
_cell_volume   357.69523370
_cell_formula_units_Z   4
loop_
 _symmetry_equiv_pos_site_id
 _symmetry_equiv_pos_as_xyz
  1  'x, y, z'
loop_
 _atom_site_type_symbol
 _atom_site_label
 _atom_site_symmetry_multiplicity
 _atom_site_fract_x
 _atom_site_fract_y
 _atom_site_fract_z
 _atom_site_occupancy
  Li  Li0  1  0.25000006  0.41701539  0.79811905  1
  Li  Li1  1  0.25000004  0.91701559  0.70187979  1
  Li  Li2  1  0.74999982  0.08298537  0.29811863  1
  Li  Li3  1  0.74999997  0.58298521  0.20187944  1
  Cu  Cu4  1  0.97053212  0.32511351  0.19711671  1
  Cu  Cu5  1  0.97053045  0.82511514  0.30287915  1
  Cu  Cu6  1  0.52944534  0.32512333  0.19712779  1
  Cu  Cu7  1  0.52948017  0.82511507  0.30288354  1
  Cu  Cu8  1  0.47052967  0.67488676  0.80287641  1
  Cu  Cu9  1  0.47056271  0.17488011  0.69712527  1
  Cu  Cu10  1  0.02948062  0.67488426  0.80288741  1
  Cu  Cu11  1  0.02943821  0.17487538  0.69712260  1
  P  P12  1  0.25000108  0.07865102  0.19466925  1
  P  P13  1  0.24999970  0.57865026  0.30532923  1
  P  P14  1  0.74999939  0.42134944  0.69466887  1
  P  P15  1  0.74999920  0.92134929  0.80533009  1
  O  O16  1  0.04465269  0.14949985  0.28154980  1
  O  O17  1  0.04465242  0.64950059  0.21845109  1
  O  O18  1  0.24999979  0.06847061  0.89745711  1
  O  O19  1  0.25000004  0.44922015  0.18453541  1
  O  O20  1  0.24999921  0.94921904  0.31546458  1
  O  O21  1  0.25000210  0.56846911  0.60254033  1
  O  O22  1  0.45534777  0.14950159  0.28154748  1
  O  O23  1  0.45534759  0.64949968  0.21844830  1
  O  O24  1  0.54465308  0.85050027  0.71845117  1
  O  O25  1  0.54465231  0.35049964  0.78154921  1
  O  O26  1  0.74999985  0.05078027  0.68453576  1
  O  O27  1  0.74999780  0.43153113  0.39745696  1
  O  O28  1  0.74999910  0.55078083  0.81546348  1
  O  O29  1  0.75000190  0.93153100  0.10254076  1
  O  O30  1  0.95534806  0.35049998  0.78154766  1
  O  O31  1  0.95534774  0.85050112  0.71844768  1
