# generated using pymatgen
data_Li3Mn2V5O12
_symmetry_space_group_name_H-M   'P 1'
_cell_length_a   5.23126865
_cell_length_b   5.23126862
_cell_length_c   9.83734011
_cell_angle_alpha   85.40040345
_cell_angle_beta   94.59960059
_cell_angle_gamma   61.38806057
_symmetry_Int_Tables_number   1
_chemical_formula_structural   Li3Mn2V5O12
_chemical_formula_sum   'Li3 Mn2 V5 O12'
_cell_volume   233.40060853
_cell_formula_units_Z   1
loop_
 _symmetry_equiv_pos_site_id
 _symmetry_equiv_pos_as_xyz
  1  'x, y, z'
loop_
 _atom_site_type_symbol
 _atom_site_label
 _atom_site_symmetry_multiplicity
 _atom_site_fract_x
 _atom_site_fract_y
 _atom_site_fract_z
 _atom_site_occupancy
  Li  Li0  1  0.31801601  0.85092493  0.99686332  1
  Li  Li1  1  0.85092493  0.31801601  0.50313668  1
  Li  Li2  1  0.92245367  0.92245367  0.75000000  1
  Mn  Mn3  1  0.25418455  0.25418455  0.75000000  1
  Mn  Mn4  1  0.75956665  0.75956665  0.25000000  1
  V  V5  1  0.08352649  0.08352649  0.25000000  1
  V  V6  1  0.42298889  0.42298889  0.25000000  1
  V  V7  1  0.58128997  0.58128997  0.75000000  1
  V  V8  1  0.49913892  0.00114124  0.50328550  1
  V  V9  1  0.00114124  0.49913892  0.99671450  1
  O  O10  1  0.15800403  0.34086195  0.37321718  1
  O  O11  1  0.34086195  0.15800403  0.12678282  1
  O  O12  1  0.08164823  0.76143977  0.12969235  1
  O  O13  1  0.26698207  0.54458857  0.85685593  1
  O  O14  1  0.54458857  0.26698207  0.64314407  1
  O  O15  1  0.24038463  0.96060121  0.64034539  1
  O  O16  1  0.44281372  0.74095904  0.36458078  1
  O  O17  1  0.76143977  0.08164823  0.37030765  1
  O  O18  1  0.62358623  0.81056723  0.87595381  1
  O  O19  1  0.74095904  0.44281372  0.13541922  1
  O  O20  1  0.96060121  0.24038463  0.85965461  1
  O  O21  1  0.81056723  0.62358623  0.62404619  1
