# generated using pymatgen
data_Li2SnHg
_symmetry_space_group_name_H-M   'P 1'
_cell_length_a   4.76779784
_cell_length_b   4.76777755
_cell_length_c   4.76778524
_cell_angle_alpha   60.00000392
_cell_angle_beta   59.99979512
_cell_angle_gamma   59.99985792
_symmetry_Int_Tables_number   1
_chemical_formula_structural   Li2SnHg
_chemical_formula_sum   'Li2 Sn1 Hg1'
_cell_volume   76.63627338
_cell_formula_units_Z   1
loop_
 _symmetry_equiv_pos_site_id
 _symmetry_equiv_pos_as_xyz
  1  'x, y, z'
loop_
 _atom_site_type_symbol
 _atom_site_label
 _atom_site_symmetry_multiplicity
 _atom_site_fract_x
 _atom_site_fract_y
 _atom_site_fract_z
 _atom_site_occupancy
  Li  Li0  1  -0.00000023  0.00000052  0.99999962  1
  Li  Li1  1  0.50000056  0.50000133  0.50000022  1
  Sn  Sn2  1  0.75000025  0.74999791  0.75000275  1
  Hg  Hg3  1  0.25000142  0.25000224  0.24999941  1
