# generated using pymatgen
data_Hf2ReNi
_symmetry_space_group_name_H-M   'P 1'
_cell_length_a   4.57955837
_cell_length_b   4.57955619
_cell_length_c   4.57954794
_cell_angle_alpha   60.00018005
_cell_angle_beta   60.00011528
_cell_angle_gamma   60.00000398
_symmetry_Int_Tables_number   1
_chemical_formula_structural   Hf2ReNi
_chemical_formula_sum   'Hf2 Re1 Ni1'
_cell_volume   67.91341761
_cell_formula_units_Z   1
loop_
 _symmetry_equiv_pos_site_id
 _symmetry_equiv_pos_as_xyz
  1  'x, y, z'
loop_
 _atom_site_type_symbol
 _atom_site_label
 _atom_site_symmetry_multiplicity
 _atom_site_fract_x
 _atom_site_fract_y
 _atom_site_fract_z
 _atom_site_occupancy
  Hf  Hf0  1  0.00000174  0.99999858  0.99999997  1
  Hf  Hf1  1  0.49999992  0.49999915  0.50000337  1
  Re  Re2  1  0.74999756  0.75000472  0.74999735  1
  Ni  Ni3  1  0.25000178  0.24999854  0.25000031  1
