# generated using pymatgen
data_LaSn2Pd
_symmetry_space_group_name_H-M   'P 1'
_cell_length_a   9.89231537
_cell_length_b   9.89231537
_cell_length_c   4.69344366
_cell_angle_alpha   90.00000000
_cell_angle_beta   90.00000000
_cell_angle_gamma   26.66775782
_symmetry_Int_Tables_number   1
_chemical_formula_structural   LaSn2Pd
_chemical_formula_sum   'La2 Sn4 Pd2'
_cell_volume   206.13704167
_cell_formula_units_Z   2
loop_
 _symmetry_equiv_pos_site_id
 _symmetry_equiv_pos_as_xyz
  1  'x, y, z'
loop_
 _atom_site_type_symbol
 _atom_site_label
 _atom_site_symmetry_multiplicity
 _atom_site_fract_x
 _atom_site_fract_y
 _atom_site_fract_z
 _atom_site_occupancy
  La  La0  1  0.10767843  0.10767843  0.24999800  1
  La  La1  1  0.89232157  0.89232157  0.75000000  1
  Sn  Sn2  1  0.74768811  0.74768811  0.24999800  1
  Sn  Sn3  1  0.25231189  0.25231189  0.75000000  1
  Sn  Sn4  1  0.45874350  0.45874350  0.24999800  1
  Sn  Sn5  1  0.54125650  0.54125650  0.75000000  1
  Pd  Pd6  1  0.32366697  0.32366697  0.24999800  1
  Pd  Pd7  1  0.67633303  0.67633303  0.75000000  1
