# generated using pymatgen
data_Co(CO3)2
_symmetry_space_group_name_H-M   'P 1'
_cell_length_a   6.85498574
_cell_length_b   7.42197539
_cell_length_c   5.33474282
_cell_angle_alpha   90.00000000
_cell_angle_beta   115.43242395
_cell_angle_gamma   90.00000000
_symmetry_Int_Tables_number   1
_chemical_formula_structural   Co(CO3)2
_chemical_formula_sum   'Co2 C4 O12'
_cell_volume   245.11604844
_cell_formula_units_Z   2
loop_
 _symmetry_equiv_pos_site_id
 _symmetry_equiv_pos_as_xyz
  1  'x, y, z'
loop_
 _atom_site_type_symbol
 _atom_site_label
 _atom_site_symmetry_multiplicity
 _atom_site_fract_x
 _atom_site_fract_y
 _atom_site_fract_z
 _atom_site_occupancy
  Co  Co0  1  0.00000000  0.00000000  0.00000000  1
  Co  Co1  1  0.50000000  0.50000000  0.00000000  1
  C  C2  1  0.12974289  0.26334118  0.87956477  1
  C  C3  1  0.62974289  0.23665882  0.87956477  1
  C  C4  1  0.37025711  0.76334118  0.12043523  1
  C  C5  1  0.87025711  0.73665882  0.12043523  1
  O  O6  1  0.07036799  0.12161847  0.72175581  1
  O  O7  1  0.20070567  0.40505218  0.81497872  1
  O  O8  1  0.39452819  0.74349815  0.89106422  1
  O  O9  1  0.10547181  0.24349815  0.10893578  1
  O  O10  1  0.29929433  0.90505218  0.18502128  1
  O  O11  1  0.42963201  0.62161847  0.27824419  1
  O  O12  1  0.57036799  0.37838153  0.72175581  1
  O  O13  1  0.70070567  0.09494782  0.81497872  1
  O  O14  1  0.89452819  0.75650185  0.89106422  1
  O  O15  1  0.60547181  0.25650185  0.10893578  1
  O  O16  1  0.79929433  0.59494782  0.18502128  1
  O  O17  1  0.92963201  0.87838153  0.27824419  1
