# generated using pymatgen
data_UTi2O6
_symmetry_space_group_name_H-M   'P 1'
_cell_length_a   3.76698866
_cell_length_b   5.34244401
_cell_length_c   6.53019400
_cell_angle_alpha   70.39693284
_cell_angle_beta   73.23610164
_cell_angle_gamma   69.35645608
_symmetry_Int_Tables_number   1
_chemical_formula_structural   UTi2O6
_chemical_formula_sum   'U1 Ti2 O6'
_cell_volume   113.67503334
_cell_formula_units_Z   1
loop_
 _symmetry_equiv_pos_site_id
 _symmetry_equiv_pos_as_xyz
  1  'x, y, z'
loop_
 _atom_site_type_symbol
 _atom_site_label
 _atom_site_symmetry_multiplicity
 _atom_site_fract_x
 _atom_site_fract_y
 _atom_site_fract_z
 _atom_site_occupancy
  O  O0  1  0.27979021  0.84405234  0.59636724  1
  O  O1  1  0.72020979  0.15594766  0.40363276  1
  O  O2  1  0.64705687  0.80663940  0.89924686  1
  O  O3  1  0.02465859  0.64972127  0.30096155  1
  O  O4  1  0.97534141  0.35027873  0.69903845  1
  O  O5  1  0.35294313  0.19336060  0.10075314  1
  Ti  Ti6  1  0.82365224  0.74285974  0.60983579  1
  Ti  Ti7  1  0.17634776  0.25714026  0.39016421  1
  U  U8  1  0.00000000  0.00000000  0.00000000  1
