# generated using pymatgen
data_Fe4O7F
_symmetry_space_group_name_H-M   'P 1'
_cell_length_a   4.61571694
_cell_length_b   5.51374868
_cell_length_c   5.51374868
_cell_angle_alpha   113.40254097
_cell_angle_beta   91.62639960
_cell_angle_gamma   88.37360040
_symmetry_Int_Tables_number   1
_chemical_formula_structural   Fe4O7F
_chemical_formula_sum   'Fe4 O7 F1'
_cell_volume   128.70659792
_cell_formula_units_Z   1
loop_
 _symmetry_equiv_pos_site_id
 _symmetry_equiv_pos_as_xyz
  1  'x, y, z'
loop_
 _atom_site_type_symbol
 _atom_site_label
 _atom_site_symmetry_multiplicity
 _atom_site_fract_x
 _atom_site_fract_y
 _atom_site_fract_z
 _atom_site_occupancy
  Fe  Fe0  1  0.49881382  0.99928048  0.50071952  1
  Fe  Fe1  1  0.51276233  0.50678967  0.99321033  1
  Fe  Fe2  1  0.99129331  0.50231172  0.51087398  1
  Fe  Fe3  1  0.99129331  0.98912602  0.99768828  1
  O  O4  1  0.80216732  0.65054976  0.84945024  1
  O  O5  1  0.81432860  0.15757940  0.34242060  1
  O  O6  1  0.69421028  0.15528831  0.84829475  1
  O  O7  1  0.69421028  0.65170525  0.34471169  1
  O  O8  1  0.30663072  0.84725446  0.15324108  1
  O  O9  1  0.30663072  0.34675892  0.65274554  1
  O  O10  1  0.18434156  0.84206497  0.65793503  1
  F  F11  1  0.20331673  0.35129005  0.14870995  1
