# generated using pymatgen
data_Ca3Fe2(ReO6)2
_symmetry_space_group_name_H-M   'P 1'
_cell_length_a   5.37929157
_cell_length_b   5.53661969
_cell_length_c   7.72428365
_cell_angle_alpha   89.98173129
_cell_angle_beta   90.01374666
_cell_angle_gamma   90.44949281
_symmetry_Int_Tables_number   1
_chemical_formula_structural   Ca3Fe2(ReO6)2
_chemical_formula_sum   'Ca3 Fe2 Re2 O12'
_cell_volume   230.04595023
_cell_formula_units_Z   1
loop_
 _symmetry_equiv_pos_site_id
 _symmetry_equiv_pos_as_xyz
  1  'x, y, z'
loop_
 _atom_site_type_symbol
 _atom_site_label
 _atom_site_symmetry_multiplicity
 _atom_site_fract_x
 _atom_site_fract_y
 _atom_site_fract_z
 _atom_site_occupancy
  Ca  Ca0  1  0.01550013  0.05736762  0.24711069  1
  Ca  Ca1  1  0.49002741  0.55100996  0.25063736  1
  Ca  Ca2  1  0.51086474  0.44679603  0.74751926  1
  Fe  Fe3  1  0.00006516  0.51047678  0.99596709  1
  Fe  Fe4  1  0.50330161  0.99932288  0.50390158  1
  Re  Re5  1  0.50416579  0.99732309  0.99118376  1
  Re  Re6  1  0.99751269  0.50751344  0.50777937  1
  O  O7  1  0.08183898  0.52435317  0.74244084  1
  O  O8  1  0.42477491  0.01602780  0.75821406  1
  O  O9  1  0.91911505  0.47773206  0.25549351  1
  O  O10  1  0.58908690  0.97827942  0.24381453  1
  O  O11  1  0.78122546  0.20413840  0.96344595  1
  O  O12  1  0.70371897  0.69465090  0.53534786  1
  O  O13  1  0.21921268  0.79766586  0.05085397  1
  O  O14  1  0.28850182  0.30267301  0.46046505  1
  O  O15  1  0.30204951  0.28430562  0.04368053  1
  O  O16  1  0.19929095  0.78176072  0.44750600  1
  O  O17  1  0.79737275  0.22569134  0.54023399  1
  O  O18  1  0.68652449  0.70408089  0.96199962  1
