# generated using pymatgen
data_CaBiO3
_symmetry_space_group_name_H-M   'P 1'
_cell_length_a   5.83227010
_cell_length_b   6.08104832
_cell_length_c   8.41391393
_cell_angle_alpha   89.99884691
_cell_angle_beta   90.00003566
_cell_angle_gamma   90.00002637
_symmetry_Int_Tables_number   1
_chemical_formula_structural   CaBiO3
_chemical_formula_sum   'Ca4 Bi4 O12'
_cell_volume   298.41053268
_cell_formula_units_Z   4
loop_
 _symmetry_equiv_pos_site_id
 _symmetry_equiv_pos_as_xyz
  1  'x, y, z'
loop_
 _atom_site_type_symbol
 _atom_site_label
 _atom_site_symmetry_multiplicity
 _atom_site_fract_x
 _atom_site_fract_y
 _atom_site_fract_z
 _atom_site_occupancy
  Ca  Ca0  1  0.98928296  0.05658531  0.24999820  1
  Ca  Ca1  1  0.48928117  0.44341562  0.75000143  1
  Ca  Ca2  1  0.51071716  0.55658368  0.24999738  1
  Ca  Ca3  1  0.01071611  0.94341507  0.75000059  1
  Bi  Bi4  1  0.50000007  -0.00000001  -0.00000016  1
  Bi  Bi5  1  0.00000042  0.50000004  0.99999983  1
  Bi  Bi6  1  0.00000010  0.50000044  0.49999965  1
  Bi  Bi7  1  0.50000015  0.00000039  0.49999956  1
  O  O8  1  0.87140444  0.56487005  0.75002253  1
  O  O9  1  0.37140423  0.93512958  0.25000950  1
  O  O10  1  0.62859548  0.06487097  0.74999056  1
  O  O11  1  0.12859561  0.43512863  0.24997758  1
  O  O12  1  0.68471753  0.31092273  0.43366058  1
  O  O13  1  0.18475380  0.18904949  0.56633843  1
  O  O14  1  0.81526918  0.81090267  0.06633736  1
  O  O15  1  0.31523521  0.68906685  0.93366438  1
  O  O16  1  0.68476597  0.31093214  0.06633607  1
  O  O17  1  0.18472992  0.18909612  0.93366267  1
  O  O18  1  0.31528235  0.68907904  0.56633924  1
  O  O19  1  0.81524815  0.81095317  0.43366264  1
