# generated using pymatgen
data_CaCoF5
_symmetry_space_group_name_H-M   'P 1'
_cell_length_a   5.57559172
_cell_length_b   7.67061261
_cell_length_c   10.09117726
_cell_angle_alpha   90.00000000
_cell_angle_beta   90.00000000
_cell_angle_gamma   109.96400118
_symmetry_Int_Tables_number   1
_chemical_formula_structural   CaCoF5
_chemical_formula_sum   'Ca4 Co4 F20'
_cell_volume   405.64664092
_cell_formula_units_Z   4
loop_
 _symmetry_equiv_pos_site_id
 _symmetry_equiv_pos_as_xyz
  1  'x, y, z'
loop_
 _atom_site_type_symbol
 _atom_site_label
 _atom_site_symmetry_multiplicity
 _atom_site_fract_x
 _atom_site_fract_y
 _atom_site_fract_z
 _atom_site_occupancy
  Ca  Ca0  1  0.47060712  0.74365528  0.02058254  1
  Ca  Ca1  1  0.52939288  0.75634472  0.52058254  1
  Ca  Ca2  1  0.52939288  0.25634472  0.97941746  1
  Ca  Ca3  1  0.47060712  0.24365528  0.47941746  1
  Co  Co4  1  0.89343846  0.59930848  0.75351527  1
  Co  Co5  1  0.10656154  0.90069152  0.25351527  1
  Co  Co6  1  0.10656154  0.40069152  0.24648473  1
  Co  Co7  1  0.89343846  0.09930848  0.74648473  1
  F  F8  1  0.61185137  0.55584413  0.88203285  1
  F  F9  1  0.38814863  0.94415587  0.38203285  1
  F  F10  1  0.38814863  0.44415587  0.11796715  1
  F  F11  1  0.61185137  0.05584413  0.61796715  1
  F  F12  1  0.64544060  0.50642997  0.61422272  1
  F  F13  1  0.35455940  0.99357003  0.11422272  1
  F  F14  1  0.35455940  0.49357003  0.38577728  1
  F  F15  1  0.64544060  0.00642997  0.88577728  1
  F  F16  1  0.88163943  0.81173343  0.39247458  1
  F  F17  1  0.11836057  0.68826657  0.89247458  1
  F  F18  1  0.11836057  0.18826657  0.60752542  1
  F  F19  1  0.88163943  0.31173343  0.10752542  1
  F  F20  1  0.82932775  0.85941207  0.13775412  1
  F  F21  1  0.17067225  0.64058793  0.63775412  1
  F  F22  1  0.17067225  0.14058793  0.86224588  1
  F  F23  1  0.82932775  0.35941207  0.36224588  1
  F  F24  1  0.84507361  0.83669588  0.70163135  1
  F  F25  1  0.15492639  0.66330412  0.20163135  1
  F  F26  1  0.15492639  0.16330412  0.29836865  1
  F  F27  1  0.84507361  0.33669588  0.79836865  1
