# generated using pymatgen
data_Ca2AlCoO5
_symmetry_space_group_name_H-M   'P 1'
_cell_length_a   5.25508576
_cell_length_b   5.58986281
_cell_length_c   8.30167969
_cell_angle_alpha   109.43898828
_cell_angle_beta   108.46104168
_cell_angle_gamma   89.99313962
_symmetry_Int_Tables_number   1
_chemical_formula_structural   Ca2AlCoO5
_chemical_formula_sum   'Ca4 Al2 Co2 O10'
_cell_volume   216.61263911
_cell_formula_units_Z   2
loop_
 _symmetry_equiv_pos_site_id
 _symmetry_equiv_pos_as_xyz
  1  'x, y, z'
loop_
 _atom_site_type_symbol
 _atom_site_label
 _atom_site_symmetry_multiplicity
 _atom_site_fract_x
 _atom_site_fract_y
 _atom_site_fract_z
 _atom_site_occupancy
  Ca  Ca0  1  0.11748793  0.64607128  0.21991411  1
  Ca  Ca1  1  0.40116157  0.92150648  0.78011357  1
  Ca  Ca2  1  0.89823903  0.35794429  0.78053870  1
  Ca  Ca3  1  0.62090800  0.08215903  0.22021799  1
  Al  Al4  1  0.29308643  0.32800937  0.50219732  1
  Al  Al5  1  0.79105312  0.67563657  0.49806773  1
  Co  Co6  1  0.49739071  0.50202599  0.00025757  1
  Co  Co7  1  0.99851320  0.00203842  0.00028656  1
  O  O8  1  0.62967473  0.39237325  0.50020002  1
  O  O9  1  0.12974090  0.61138979  0.50005132  1
  O  O10  1  0.61697591  0.71206187  0.28907575  1
  O  O11  1  0.32806821  0.29211356  0.71137134  1
  O  O12  1  0.11771859  0.07881706  0.30037687  1
  O  O13  1  0.81816203  0.92481266  0.70010825  1
  O  O14  1  0.23792658  0.74552620  0.97297125  1
  O  O15  1  0.26193923  0.26167708  0.02762161  1
  O  O16  1  0.76386646  0.26603621  0.02739244  1
  O  O17  1  0.73993737  0.73495689  0.97290560  1
