# generated using pymatgen
data_Li3(FeO2)4
_symmetry_space_group_name_H-M   'P 1'
_cell_length_a   5.61141203
_cell_length_b   6.60602678
_cell_length_c   5.19067814
_cell_angle_alpha   90.03155388
_cell_angle_beta   90.02564804
_cell_angle_gamma   90.12985480
_symmetry_Int_Tables_number   1
_chemical_formula_structural   Li3(FeO2)4
_chemical_formula_sum   'Li3 Fe4 O8'
_cell_volume   192.41342215
_cell_formula_units_Z   1
loop_
 _symmetry_equiv_pos_site_id
 _symmetry_equiv_pos_as_xyz
  1  'x, y, z'
loop_
 _atom_site_type_symbol
 _atom_site_label
 _atom_site_symmetry_multiplicity
 _atom_site_fract_x
 _atom_site_fract_y
 _atom_site_fract_z
 _atom_site_occupancy
  Li  Li0  1  0.41874018  0.12348896  0.49604628  1
  Li  Li1  1  0.58178104  0.87722301  0.00016028  1
  Li  Li2  1  0.91714622  0.37673761  0.49552237  1
  Fe  Fe3  1  0.08197980  0.12518144  0.99947750  1
  Fe  Fe4  1  0.41755686  0.62569873  0.49794660  1
  Fe  Fe5  1  0.58322315  0.37473750  0.99813732  1
  Fe  Fe6  1  0.91498386  0.87205696  0.49913394  1
  O  O7  1  0.07288484  0.10912394  0.36671097  1
  O  O8  1  0.08793146  0.63537373  0.42946715  1
  O  O9  1  0.40457626  0.14048346  0.89280787  1
  O  O10  1  0.47296182  0.61685550  0.85868336  1
  O  O11  1  0.56763603  0.38536882  0.36635097  1
  O  O12  1  0.58802647  0.86440892  0.38882173  1
  O  O13  1  0.89743165  0.33711448  0.87869299  1
  O  O14  1  0.91112536  0.91018296  0.86348168  1
