# generated using pymatgen
data_Ba2CaV2(P2O9)2
_symmetry_space_group_name_H-M   'P 1'
_cell_length_a   7.12031070
_cell_length_b   7.36892381
_cell_length_c   14.76335667
_cell_angle_alpha   103.30765846
_cell_angle_beta   90.00000000
_cell_angle_gamma   90.00000000
_symmetry_Int_Tables_number   1
_chemical_formula_structural   Ba2CaV2(P2O9)2
_chemical_formula_sum   'Ba4 Ca2 V4 P8 O36'
_cell_volume   753.81898109
_cell_formula_units_Z   2
loop_
 _symmetry_equiv_pos_site_id
 _symmetry_equiv_pos_as_xyz
  1  'x, y, z'
loop_
 _atom_site_type_symbol
 _atom_site_label
 _atom_site_symmetry_multiplicity
 _atom_site_fract_x
 _atom_site_fract_y
 _atom_site_fract_z
 _atom_site_occupancy
  Ba  Ba0  1  0.23640564  0.37116809  0.42970111  1
  Ba  Ba1  1  0.77391374  0.61420803  0.57199996  1
  Ba  Ba2  1  0.72608626  0.61420803  0.07199996  1
  Ba  Ba3  1  0.26359436  0.37116809  0.92970111  1
  Ca  Ca4  1  0.52234726  0.81505883  0.84250309  1
  Ca  Ca5  1  0.97765274  0.81505883  0.34250309  1
  V  V6  1  0.51563958  0.15948585  0.66683511  1
  V  V7  1  0.48372587  0.83666310  0.33141470  1
  V  V8  1  0.98436042  0.15948585  0.16683511  1
  V  V9  1  0.01627413  0.83666310  0.83141470  1
  P  P10  1  0.71866684  0.12841539  0.50045044  1
  P  P11  1  0.21477332  0.86942286  0.00135165  1
  P  P12  1  0.21672723  0.54307932  0.19429891  1
  P  P13  1  0.78133316  0.12841539  0.00045044  1
  P  P14  1  0.72149326  0.45564299  0.30397608  1
  P  P15  1  0.28327277  0.54307932  0.69429891  1
  P  P16  1  0.77850674  0.45564299  0.80397608  1
  P  P17  1  0.28522668  0.86942286  0.50135165  1
  O  O18  1  0.66484555  0.65283345  0.27928005  1
  O  O19  1  0.91087496  0.20799320  0.49128146  1
  O  O20  1  0.33543060  0.34447573  0.71152323  1
  O  O21  1  0.70043060  0.02132876  0.58298278  1
  O  O22  1  0.81541673  0.97065476  0.90856935  1
  O  O23  1  0.20803925  0.64777558  0.79510003  1
  O  O24  1  0.83515445  0.65283345  0.77928005  1
  O  O25  1  0.06033784  0.71993192  0.97788170  1
  O  O26  1  0.36213310  0.52255866  0.11841567  1
  O  O27  1  0.13786690  0.52255866  0.61841567  1
  O  O28  1  0.58912504  0.20799320  0.99128146  1
  O  O29  1  0.70750757  0.34321363  0.70642962  1
  O  O30  1  0.16456940  0.34447573  0.21152323  1
  O  O31  1  0.18014704  0.01675659  0.09235327  1
  O  O32  1  0.29196075  0.64777558  0.29510003  1
  O  O33  1  0.97748988  0.05426334  0.25362295  1
  O  O34  1  0.61517930  0.51550574  0.87273484  1
  O  O35  1  0.88482070  0.51550574  0.37273484  1
  O  O36  1  0.08626608  0.79110434  0.49319969  1
  O  O37  1  0.52251012  0.05426334  0.75362295  1
  O  O38  1  0.94034767  0.27456423  0.02524129  1
  O  O39  1  0.94256134  0.36353217  0.83793712  1
  O  O40  1  0.68458327  0.97065476  0.40856935  1
  O  O41  1  0.31985296  0.01675659  0.59235327  1
  O  O42  1  0.20005011  0.97576396  0.91602359  1
  O  O43  1  0.79249243  0.34321363  0.20642962  1
  O  O44  1  0.02764957  0.94567493  0.74947248  1
  O  O45  1  0.47235043  0.94567493  0.24947248  1
  O  O46  1  0.41373392  0.79110434  0.99319969  1
  O  O47  1  0.29994989  0.97576396  0.41602359  1
  O  O48  1  0.03778380  0.65050754  0.18355682  1
  O  O49  1  0.79956940  0.02132876  0.08298278  1
  O  O50  1  0.43966216  0.71993192  0.47788170  1
  O  O51  1  0.46221620  0.65050754  0.68355682  1
  O  O52  1  0.55965233  0.27456423  0.52524129  1
  O  O53  1  0.55743866  0.36353217  0.33793712  1
