# generated using pymatgen
data_CoOF
_symmetry_space_group_name_H-M   'P 1'
_cell_length_a   4.59505691
_cell_length_b   13.59395415
_cell_length_c   2.95773779
_cell_angle_alpha   90.00000000
_cell_angle_beta   90.00000000
_cell_angle_gamma   92.26770817
_symmetry_Int_Tables_number   1
_chemical_formula_structural   CoOF
_chemical_formula_sum   'Co6 O6 F6'
_cell_volume   184.61038009
_cell_formula_units_Z   6
loop_
 _symmetry_equiv_pos_site_id
 _symmetry_equiv_pos_as_xyz
  1  'x, y, z'
loop_
 _atom_site_type_symbol
 _atom_site_label
 _atom_site_symmetry_multiplicity
 _atom_site_fract_x
 _atom_site_fract_y
 _atom_site_fract_z
 _atom_site_occupancy
  Co  Co0  1  0.00000000  0.00000000  0.00000000  1
  Co  Co1  1  0.05305760  0.32997137  0.00000000  1
  Co  Co2  1  0.94694240  0.67002863  0.00000000  1
  Co  Co3  1  0.59715827  0.16744822  0.50000000  1
  Co  Co4  1  0.50000000  0.50000000  0.50000000  1
  Co  Co5  1  0.40284173  0.83255178  0.50000000  1
  O  O6  1  0.15544017  0.93260384  0.50000000  1
  O  O7  1  0.23381556  0.76854829  0.00000000  1
  O  O8  1  0.32770095  0.43341400  0.00000000  1
  O  O9  1  0.67229905  0.56658600  0.00000000  1
  O  O10  1  0.76618444  0.23145171  0.00000000  1
  O  O11  1  0.84455983  0.06739616  0.50000000  1
  F  F12  1  0.27839835  0.26468355  0.50000000  1
  F  F13  1  0.15612242  0.60190701  0.50000000  1
  F  F14  1  0.37641367  0.10442538  0.00000000  1
  F  F15  1  0.62358633  0.89557462  0.00000000  1
  F  F16  1  0.84387758  0.39809299  0.50000000  1
  F  F17  1  0.72160165  0.73531645  0.50000000  1
