# generated using pymatgen
data_Te4MoW
_symmetry_space_group_name_H-M   'P 1'
_cell_length_a   3.55962720
_cell_length_b   3.55949345
_cell_length_c   40.10774455
_cell_angle_alpha   90.00061037
_cell_angle_beta   90.00000000
_cell_angle_gamma   120.00124301
_symmetry_Int_Tables_number   1
_chemical_formula_structural   Te4MoW
_chemical_formula_sum   'Te8 Mo2 W2'
_cell_volume   440.09470839
_cell_formula_units_Z   2
loop_
 _symmetry_equiv_pos_site_id
 _symmetry_equiv_pos_as_xyz
  1  'x, y, z'
loop_
 _atom_site_type_symbol
 _atom_site_label
 _atom_site_symmetry_multiplicity
 _atom_site_fract_x
 _atom_site_fract_y
 _atom_site_fract_z
 _atom_site_occupancy
  Te  Te0  1  0.33335190  0.66670480  0.32709781  1
  Te  Te1  1  0.33335642  0.66671385  0.70265627  1
  Te  Te2  1  0.66664358  0.33328615  0.04880173  1
  Te  Te3  1  0.66664810  0.33329520  0.42436019  1
  Te  Te4  1  0.66664860  0.33329619  0.13906326  1
  Te  Te5  1  0.66664675  0.33329250  0.51496781  1
  Te  Te6  1  0.33335325  0.66670750  0.23649019  1
  Te  Te7  1  0.33335140  0.66670381  0.61239474  1
  Mo  Mo8  1  0.33330574  0.66661149  0.09391679  1
  Mo  Mo9  1  0.66669426  0.33338851  0.65754121  1
  W  W10  1  0.33330663  0.66661326  0.46965785  1
  W  W11  1  0.66669337  0.33338674  0.28180015  1
