# generated using pymatgen
data_Te4MoW
_symmetry_space_group_name_H-M   'P 1'
_cell_length_a   3.55689715
_cell_length_b   3.55651948
_cell_length_c   40.13600556
_cell_angle_alpha   90.00005085
_cell_angle_beta   90.00000000
_cell_angle_gamma   120.00351274
_symmetry_Int_Tables_number   1
_chemical_formula_structural   Te4MoW
_chemical_formula_sum   'Te8 Mo2 W2'
_cell_volume   439.68930854
_cell_formula_units_Z   2
loop_
 _symmetry_equiv_pos_site_id
 _symmetry_equiv_pos_as_xyz
  1  'x, y, z'
loop_
 _atom_site_type_symbol
 _atom_site_label
 _atom_site_symmetry_multiplicity
 _atom_site_fract_x
 _atom_site_fract_y
 _atom_site_fract_z
 _atom_site_occupancy
  Te  Te0  1  0.33334404  0.66668908  0.32700470  1
  Te  Te1  1  0.33334746  0.66669593  0.70281473  1
  Te  Te2  1  0.66665254  0.33330407  0.04864327  1
  Te  Te3  1  0.66665596  0.33331092  0.42445330  1
  Te  Te4  1  0.66665472  0.33330844  0.13923012  1
  Te  Te5  1  0.66665536  0.33330973  0.51486321  1
  Te  Te6  1  0.33334464  0.66669027  0.23659479  1
  Te  Te7  1  0.33334528  0.66669156  0.61222788  1
  Mo  Mo8  1  0.33329284  0.66658568  0.46966001  1
  Mo  Mo9  1  0.66670716  0.33341432  0.28179799  1
  W  W10  1  0.33329251  0.66658502  0.09392102  1
  W  W11  1  0.66670749  0.33341498  0.65753698  1
