# generated using pymatgen
data_Te4MoW
_symmetry_space_group_name_H-M   'P 1'
_cell_length_a   3.55900609
_cell_length_b   3.55879596
_cell_length_c   40.11263809
_cell_angle_alpha   90.00006314
_cell_angle_beta   90.00000000
_cell_angle_gamma   120.00195312
_symmetry_Int_Tables_number   1
_chemical_formula_structural   Te4MoW
_chemical_formula_sum   'Te8 Mo2 W2'
_cell_volume   439.98222265
_cell_formula_units_Z   2
loop_
 _symmetry_equiv_pos_site_id
 _symmetry_equiv_pos_as_xyz
  1  'x, y, z'
loop_
 _atom_site_type_symbol
 _atom_site_label
 _atom_site_symmetry_multiplicity
 _atom_site_fract_x
 _atom_site_fract_y
 _atom_site_fract_z
 _atom_site_occupancy
  Te  Te0  1  0.33335051  0.66670202  0.32697719  1
  Te  Te1  1  0.33334902  0.66669904  0.70281301  1
  Te  Te2  1  0.66665118  0.33330137  0.04875993  1
  Te  Te3  1  0.66665112  0.33330123  0.42435203  1
  Te  Te4  1  0.66664868  0.33329636  0.13911163  1
  Te  Te5  1  0.66665183  0.33330266  0.51496530  1
  Te  Te6  1  0.33334889  0.66669877  0.23661344  1
  Te  Te7  1  0.33335047  0.66670194  0.61222427  1
  Mo  Mo8  1  0.33329988  0.66659976  0.09391585  1
  Mo  Mo9  1  0.66670144  0.33340287  0.28180198  1
  W  W10  1  0.33329706  0.66659412  0.46966635  1
  W  W11  1  0.66669993  0.33339985  0.65754702  1
