# generated using pymatgen
data_Ba2NbFeO6
_symmetry_space_group_name_H-M   'P 1'
_cell_length_a   5.87895068
_cell_length_b   5.87908952
_cell_length_c   14.38339064
_cell_angle_alpha   89.99999998
_cell_angle_beta   90.02290012
_cell_angle_gamma   120.00078101
_symmetry_Int_Tables_number   1
_chemical_formula_structural   Ba2NbFeO6
_chemical_formula_sum   'Ba6 Nb3 Fe3 O18'
_cell_volume   430.52495798
_cell_formula_units_Z   3
loop_
 _symmetry_equiv_pos_site_id
 _symmetry_equiv_pos_as_xyz
  1  'x, y, z'
loop_
 _atom_site_type_symbol
 _atom_site_label
 _atom_site_symmetry_multiplicity
 _atom_site_fract_x
 _atom_site_fract_y
 _atom_site_fract_z
 _atom_site_occupancy
  Ba  Ba0  1  0.00013717  0.00006858  0.24962876  1
  Ba  Ba1  1  0.99986283  0.99993142  0.75037124  1
  Ba  Ba2  1  0.33355951  0.66677976  0.09535433  1
  Ba  Ba3  1  0.66644049  0.33322024  0.90464567  1
  Ba  Ba4  1  0.33344540  0.66672270  0.39823362  1
  Ba  Ba5  1  0.66655460  0.33327730  0.60176638  1
  Nb  Nb6  1  0.00000000  0.00000000  0.50000000  1
  Nb  Nb7  1  0.33340999  0.66670499  0.84438463  1
  Nb  Nb8  1  0.66659001  0.33329501  0.15561537  1
  Fe  Fe9  1  0.00000000  0.00000000  0.00000000  1
  Fe  Fe10  1  0.33386890  0.66693445  0.65067729  1
  Fe  Fe11  1  0.66613110  0.33306555  0.34932271  1
  O  O12  1  0.97114484  0.48557242  0.24858362  1
  O  O13  1  0.51445659  0.48552836  0.24852497  1
  O  O14  1  0.51445659  0.02892824  0.24852497  1
  O  O15  1  0.02885516  0.51442758  0.75141638  1
  O  O16  1  0.48554341  0.51447164  0.75147503  1
  O  O17  1  0.48554341  0.97107176  0.75147503  1
  O  O18  1  0.33351612  0.16675806  0.08154454  1
  O  O19  1  0.83331327  0.16672257  0.08155263  1
  O  O20  1  0.83331327  0.66659070  0.08155263  1
  O  O21  1  0.66648388  0.83324194  0.91845546  1
  O  O22  1  0.16668673  0.83327743  0.91844737  1
  O  O23  1  0.16668673  0.33340930  0.91844737  1
  O  O24  1  0.32619570  0.16309785  0.41927339  1
  O  O25  1  0.83684398  0.16309105  0.41925903  1
  O  O26  1  0.83684398  0.67375294  0.41925903  1
  O  O27  1  0.67380430  0.83690215  0.58072661  1
  O  O28  1  0.16315602  0.83690895  0.58074097  1
  O  O29  1  0.16315602  0.32624706  0.58074097  1
