# generated using pymatgen
data_Al4Co13Si2(SbO14)2
_symmetry_space_group_name_H-M   'P 1'
_cell_length_a   5.49376787
_cell_length_b   9.01612284
_cell_length_c   11.61458692
_cell_angle_alpha   87.50712233
_cell_angle_beta   76.31977204
_cell_angle_gamma   79.40243374
_symmetry_Int_Tables_number   1
_chemical_formula_structural   Al4Co13Si2(SbO14)2
_chemical_formula_sum   'Al4 Co13 Si2 Sb2 O28'
_cell_volume   549.44416919
_cell_formula_units_Z   1
loop_
 _symmetry_equiv_pos_site_id
 _symmetry_equiv_pos_as_xyz
  1  'x, y, z'
loop_
 _atom_site_type_symbol
 _atom_site_label
 _atom_site_symmetry_multiplicity
 _atom_site_fract_x
 _atom_site_fract_y
 _atom_site_fract_z
 _atom_site_occupancy
  Al  Al0  1  0.05621910  0.67806947  0.42979542  1
  Al  Al1  1  0.51398648  0.32193053  0.42979542  1
  Al  Al2  1  0.94378090  0.32193053  0.57020458  1
  Al  Al3  1  0.48601352  0.67806947  0.57020458  1
  Co  Co4  1  0.92880901  0.63544180  0.71216699  1
  Co  Co5  1  0.65393818  0.34013596  0.13950824  1
  Co  Co6  1  0.35902200  0.36455820  0.71216699  1
  Co  Co7  1  0.07119099  0.36455820  0.28783301  1
  Co  Co8  1  0.34606182  0.65986404  0.86049176  1
  Co  Co9  1  0.28810112  0.00000000  0.42379775  1
  Co  Co10  1  0.20655358  0.65986404  0.13950824  1
  Co  Co11  1  -0.00000000  -0.00000000  0.00000000  1
  Co  Co12  1  0.42821445  0.00000000  0.14357110  1
  Co  Co13  1  0.79344642  0.34013596  0.86049176  1
  Co  Co14  1  0.64097800  0.63544180  0.28783301  1
  Co  Co15  1  0.57178555  1.00000000  0.85642890  1
  Co  Co16  1  0.71189888  1.00000000  0.57620225  1
  Si  Si17  1  0.23510083  0.30964072  1.00000000  1
  Si  Si18  1  0.76489917  0.69035928  0.00000000  1
  Sb  Sb19  1  0.85893398  1.00000000  0.28213305  1
  Sb  Sb20  1  0.14106602  0.00000000  0.71786695  1
  O  O21  1  0.68341716  0.39904995  0.29823604  1
  O  O22  1  0.18022993  0.36042979  0.44619817  1
  O  O23  1  0.93229577  0.35653083  0.00000000  1
  O  O24  1  0.30822246  0.12295488  1.00000000  1
  O  O25  1  0.81977007  0.63957021  0.55380183  1
  O  O26  1  0.31658284  0.60095005  0.70176396  1
  O  O27  1  0.01469378  0.11773300  0.58071352  1
  O  O28  1  0.98530622  0.88226700  0.41928648  1
  O  O29  1  0.69177754  0.87704512  0.00000000  1
  O  O30  1  0.12471318  0.88546590  0.15063153  1
  O  O31  1  0.29161518  0.37831787  0.11988709  1
  O  O32  1  0.01834680  0.60095005  0.29823604  1
  O  O33  1  0.40459269  0.88226700  0.58071352  1
  O  O34  1  0.72465429  0.11453410  0.15063153  1
  O  O35  1  0.58849673  0.62168213  0.11988709  1
  O  O36  1  0.06770423  0.64346917  1.00000000  1
  O  O37  1  0.27534571  0.88546590  0.84936847  1
  O  O38  1  0.87528682  0.11453410  0.84936847  1
  O  O39  1  0.59540731  0.11773300  0.41928648  1
  O  O40  1  0.12695968  0.12268593  0.28908845  1
  O  O41  1  0.87304032  0.87731407  0.71091155  1
  O  O42  1  0.41150327  0.37831787  0.88011291  1
  O  O43  1  0.41604814  0.12268593  0.71091155  1
  O  O44  1  0.62642809  0.36042979  0.55380183  1
  O  O45  1  0.70838482  0.62168213  0.88011291  1
  O  O46  1  0.58395186  0.87731407  0.28908845  1
  O  O47  1  0.98165320  0.39904995  0.70176396  1
  O  O48  1  0.37357191  0.63957021  0.44619817  1
