# generated using pymatgen
data_CaMnP2O7
_symmetry_space_group_name_H-M   'P 1'
_cell_length_a   6.28601644
_cell_length_b   6.70444192
_cell_length_c   7.30329879
_cell_angle_alpha   82.98071775
_cell_angle_beta   88.00178136
_cell_angle_gamma   68.35336375
_symmetry_Int_Tables_number   1
_chemical_formula_structural   CaMnP2O7
_chemical_formula_sum   'Ca2 Mn2 P4 O14'
_cell_volume   283.92379085
_cell_formula_units_Z   2
loop_
 _symmetry_equiv_pos_site_id
 _symmetry_equiv_pos_as_xyz
  1  'x, y, z'
loop_
 _atom_site_type_symbol
 _atom_site_label
 _atom_site_symmetry_multiplicity
 _atom_site_fract_x
 _atom_site_fract_y
 _atom_site_fract_z
 _atom_site_occupancy
  Ca  Ca0  1  0.30520464  0.70720168  0.63926199  1
  Ca  Ca1  1  0.69479619  0.29279674  0.36073525  1
  Mn  Mn2  1  0.25550478  0.12969259  0.19212174  1
  Mn  Mn3  1  0.74447685  0.87030908  0.80791171  1
  P  P4  1  0.16956171  0.65772322  0.11883638  1
  P  P5  1  0.83044109  0.34227644  0.88115925  1
  P  P6  1  0.23455267  0.21899922  0.62055710  1
  P  P7  1  0.76545088  0.78100083  0.37944170  1
  O  O8  1  0.08441180  0.73052775  0.91774125  1
  O  O9  1  0.91559044  0.26947363  0.08225523  1
  O  O10  1  0.25131727  0.81465818  0.20106090  1
  O  O11  1  0.74868444  0.18534176  0.79893509  1
  O  O12  1  0.33666034  0.42184247  0.14653372  1
  O  O13  1  0.66334014  0.57815653  0.85346257  1
  O  O14  1  0.64005710  0.63099976  0.44861630  1
  O  O15  1  0.35994744  0.36899805  0.55138154  1
  O  O16  1  0.10490177  0.16993942  0.46664128  1
  O  O17  1  0.89510057  0.83006145  0.53335694  1
  O  O18  1  0.05631981  0.34898850  0.76525605  1
  O  O19  1  0.60958936  0.99757005  0.27485433  1
  O  O20  1  0.39041136  0.00242832  0.72514165  1
  O  O21  1  0.94368136  0.65101133  0.23473904  1
