# generated using pymatgen
data_MgCr(SiO3)2
_symmetry_space_group_name_H-M   'P 1'
_cell_length_a   5.31841646
_cell_length_b   9.09821407
_cell_length_c   18.60551705
_cell_angle_alpha   90.00000000
_cell_angle_beta   90.00000000
_cell_angle_gamma   90.00000000
_symmetry_Int_Tables_number   1
_chemical_formula_structural   MgCr(SiO3)2
_chemical_formula_sum   'Mg8 Cr8 Si16 O48'
_cell_volume   900.28546080
_cell_formula_units_Z   8
loop_
 _symmetry_equiv_pos_site_id
 _symmetry_equiv_pos_as_xyz
  1  'x, y, z'
loop_
 _atom_site_type_symbol
 _atom_site_label
 _atom_site_symmetry_multiplicity
 _atom_site_fract_x
 _atom_site_fract_y
 _atom_site_fract_z
 _atom_site_occupancy
  Mg  Mg0  1  0.61729369  0.15223478  0.62463291  1
  Mg  Mg1  1  0.38270631  0.84776522  0.37536709  1
  Mg  Mg2  1  0.61729369  0.65223478  0.87536709  1
  Mg  Mg3  1  0.11729369  0.84776522  0.87536709  1
  Mg  Mg4  1  0.88270631  0.15223478  0.12463291  1
  Mg  Mg5  1  0.38270631  0.34776522  0.12463291  1
  Mg  Mg6  1  0.11729369  0.34776522  0.62463291  1
  Mg  Mg7  1  0.88270631  0.65223478  0.37536709  1
  Cr  Cr8  1  0.37599817  0.98115506  0.12368088  1
  Cr  Cr9  1  0.62400183  0.01884494  0.87631912  1
  Cr  Cr10  1  0.87599817  0.01884494  0.37631912  1
  Cr  Cr11  1  0.12400183  0.98115506  0.62368088  1
  Cr  Cr12  1  0.37599817  0.48115506  0.37631912  1
  Cr  Cr13  1  0.62400183  0.51884494  0.62368088  1
  Cr  Cr14  1  0.87599817  0.51884494  0.12368088  1
  Cr  Cr15  1  0.12400183  0.48115506  0.87631912  1
  Si  Si16  1  0.56358584  0.66176001  0.22826626  1
  Si  Si17  1  0.71382728  0.83676554  0.52426449  1
  Si  Si18  1  0.78617272  0.83676554  0.02426449  1
  Si  Si19  1  0.93641416  0.16176001  0.77173374  1
  Si  Si20  1  0.06358584  0.33823999  0.27173374  1
  Si  Si21  1  0.43641416  0.83823999  0.72826626  1
  Si  Si22  1  0.21382728  0.66323446  0.52426449  1
  Si  Si23  1  0.71382728  0.33676554  0.97573551  1
  Si  Si24  1  0.78617272  0.33676554  0.47573551  1
  Si  Si25  1  0.93641416  0.66176001  0.72826626  1
  Si  Si26  1  0.43641416  0.33823999  0.77173374  1
  Si  Si27  1  0.56358584  0.16176001  0.27173374  1
  Si  Si28  1  0.28617272  0.16323446  0.47573551  1
  Si  Si29  1  0.06358584  0.83823999  0.22826626  1
  Si  Si30  1  0.28617272  0.66323446  0.02426449  1
  Si  Si31  1  0.21382728  0.16323446  0.97573551  1
  O  O32  1  0.93703181  0.50320926  0.68830676  1
  O  O33  1  0.29383076  0.01405903  0.93399018  1
  O  O34  1  0.06296819  0.49679074  0.31169324  1
  O  O35  1  0.71110301  0.33767771  0.06386885  1
  O  O36  1  0.21110301  0.16232229  0.06386885  1
  O  O37  1  0.92432035  0.21046974  0.94905103  1
  O  O38  1  0.94083225  0.66707418  0.81545739  1
  O  O39  1  0.05916775  0.83292582  0.31545739  1
  O  O40  1  0.71110301  0.83767771  0.43613115  1
  O  O41  1  0.94083225  0.16707418  0.68454261  1
  O  O42  1  0.43703181  0.49679074  0.81169324  1
  O  O43  1  0.78889699  0.33767771  0.56386885  1
  O  O44  1  0.70616924  0.98594097  0.06600982  1
  O  O45  1  0.44083225  0.83292582  0.81545739  1
  O  O46  1  0.56296819  0.00320926  0.31169324  1
  O  O47  1  0.29383076  0.51405903  0.56600982  1
  O  O48  1  0.43703181  0.99679074  0.68830676  1
  O  O49  1  0.16483432  0.76896100  0.69663028  1
  O  O50  1  0.33516568  0.76896100  0.19663028  1
  O  O51  1  0.57567965  0.71046974  0.05094897  1
  O  O52  1  0.78889699  0.83767771  0.93613115  1
  O  O53  1  0.55916775  0.66707418  0.31545739  1
  O  O54  1  0.79383076  0.48594097  0.93399018  1
  O  O55  1  0.16483432  0.26896100  0.80336972  1
  O  O56  1  0.28889699  0.16232229  0.56386885  1
  O  O57  1  0.55916775  0.16707418  0.18454261  1
  O  O58  1  0.70616924  0.48594097  0.43399018  1
  O  O59  1  0.21110301  0.66232229  0.43613115  1
  O  O60  1  0.20616924  0.51405903  0.06600982  1
  O  O61  1  0.66483432  0.73103900  0.69663028  1
  O  O62  1  0.06296819  0.99679074  0.18830676  1
  O  O63  1  0.83516568  0.73103900  0.19663028  1
  O  O64  1  0.83516568  0.23103900  0.30336972  1
  O  O65  1  0.79383076  0.98594097  0.56600982  1
  O  O66  1  0.28889699  0.66232229  0.93613115  1
  O  O67  1  0.20616924  0.01405903  0.43399018  1
  O  O68  1  0.33516568  0.26896100  0.30336972  1
  O  O69  1  0.07567965  0.78953026  0.05094897  1
  O  O70  1  0.42432035  0.78953026  0.55094897  1
  O  O71  1  0.66483432  0.23103900  0.80336972  1
  O  O72  1  0.42432035  0.28953026  0.94905103  1
  O  O73  1  0.57567965  0.21046974  0.44905103  1
  O  O74  1  0.07567965  0.28953026  0.44905103  1
  O  O75  1  0.44083225  0.33292582  0.68454261  1
  O  O76  1  0.56296819  0.50320926  0.18830676  1
  O  O77  1  0.92432035  0.71046974  0.55094897  1
  O  O78  1  0.05916775  0.33292582  0.18454261  1
  O  O79  1  0.93703181  0.00320926  0.81169324  1
