# generated using pymatgen
data_Mg30MnCrO32
_symmetry_space_group_name_H-M   'P 1'
_cell_length_a   8.60160363
_cell_length_b   8.51785659
_cell_length_c   8.51785659
_cell_angle_alpha   90.00000000
_cell_angle_beta   90.00000000
_cell_angle_gamma   90.00000000
_symmetry_Int_Tables_number   1
_chemical_formula_structural   Mg30MnCrO32
_chemical_formula_sum   'Mg30 Mn1 Cr1 O32'
_cell_volume   624.07972522
_cell_formula_units_Z   1
loop_
 _symmetry_equiv_pos_site_id
 _symmetry_equiv_pos_as_xyz
  1  'x, y, z'
loop_
 _atom_site_type_symbol
 _atom_site_label
 _atom_site_symmetry_multiplicity
 _atom_site_fract_x
 _atom_site_fract_y
 _atom_site_fract_z
 _atom_site_occupancy
  Mg  Mg0  1  0.00000000  0.00000000  0.50000000  1
  Mg  Mg1  1  0.00000000  0.50000000  0.00000000  1
  Mg  Mg2  1  0.50000000  0.00000000  0.00000000  1
  Mg  Mg3  1  0.50000000  0.00000000  0.50000000  1
  Mg  Mg4  1  0.50000000  0.50000000  0.00000000  1
  Mg  Mg5  1  0.50000000  0.50000000  0.50000000  1
  Mg  Mg6  1  0.00000000  0.25032887  0.25032887  1
  Mg  Mg7  1  0.00000000  0.25032887  0.74967113  1
  Mg  Mg8  1  0.00000000  0.74967113  0.25032887  1
  Mg  Mg9  1  0.00000000  0.74967113  0.74967113  1
  Mg  Mg10  1  0.50000000  0.24996597  0.24996597  1
  Mg  Mg11  1  0.50000000  0.24996597  0.75003403  1
  Mg  Mg12  1  0.50000000  0.75003403  0.24996597  1
  Mg  Mg13  1  0.50000000  0.75003403  0.75003403  1
  Mg  Mg14  1  0.25116530  0.00000000  0.25124796  1
  Mg  Mg15  1  0.25116530  0.00000000  0.74875204  1
  Mg  Mg16  1  0.25222823  0.50000000  0.25058851  1
  Mg  Mg17  1  0.25222823  0.50000000  0.74941149  1
  Mg  Mg18  1  0.74883470  0.00000000  0.25124796  1
  Mg  Mg19  1  0.74883470  0.00000000  0.74875204  1
  Mg  Mg20  1  0.74777177  0.50000000  0.25058851  1
  Mg  Mg21  1  0.74777177  0.50000000  0.74941149  1
  Mg  Mg22  1  0.25116530  0.25124796  0.00000000  1
  Mg  Mg23  1  0.25222823  0.25058851  0.50000000  1
  Mg  Mg24  1  0.25116530  0.74875204  0.00000000  1
  Mg  Mg25  1  0.25222823  0.74941149  0.50000000  1
  Mg  Mg26  1  0.74883470  0.25124796  0.00000000  1
  Mg  Mg27  1  0.74777177  0.25058851  0.50000000  1
  Mg  Mg28  1  0.74883470  0.74875204  0.00000000  1
  Mg  Mg29  1  0.74777177  0.74941149  0.50000000  1
  Mn  Mn30  1  0.00000000  0.00000000  0.00000000  1
  Cr  Cr31  1  0.00000000  0.50000000  0.50000000  1
  O  O32  1  0.25633989  0.00000000  0.00000000  1
  O  O33  1  0.24979915  0.00000000  0.50000000  1
  O  O34  1  0.24979915  0.50000000  0.00000000  1
  O  O35  1  0.26529611  0.50000000  0.50000000  1
  O  O36  1  0.74366011  0.00000000  0.00000000  1
  O  O37  1  0.75020085  0.00000000  0.50000000  1
  O  O38  1  0.75020085  0.50000000  0.00000000  1
  O  O39  1  0.73470389  0.50000000  0.50000000  1
  O  O40  1  0.24932022  0.24996875  0.24996875  1
  O  O41  1  0.24932022  0.24996875  0.75003125  1
  O  O42  1  0.24932022  0.75003125  0.24996875  1
  O  O43  1  0.24932022  0.75003125  0.75003125  1
  O  O44  1  0.75067978  0.24996875  0.24996875  1
  O  O45  1  0.75067978  0.24996875  0.75003125  1
  O  O46  1  0.75067978  0.75003125  0.24996875  1
  O  O47  1  0.75067978  0.75003125  0.75003125  1
  O  O48  1  0.00000000  0.00000000  0.25667986  1
  O  O49  1  0.00000000  0.00000000  0.74332014  1
  O  O50  1  0.00000000  0.50000000  0.24956203  1
  O  O51  1  0.00000000  0.50000000  0.75043797  1
  O  O52  1  0.50000000  0.00000000  0.25041024  1
  O  O53  1  0.50000000  0.00000000  0.74958976  1
  O  O54  1  0.50000000  0.50000000  0.24720001  1
  O  O55  1  0.50000000  0.50000000  0.75279999  1
  O  O56  1  0.00000000  0.25667986  0.00000000  1
  O  O57  1  0.00000000  0.24956203  0.50000000  1
  O  O58  1  0.00000000  0.74332014  0.00000000  1
  O  O59  1  0.00000000  0.75043797  0.50000000  1
  O  O60  1  0.50000000  0.25041024  0.00000000  1
  O  O61  1  0.50000000  0.24720001  0.50000000  1
  O  O62  1  0.50000000  0.74958976  0.00000000  1
  O  O63  1  0.50000000  0.75279999  0.50000000  1
