# generated using pymatgen
data_CaMg30CoO32
_symmetry_space_group_name_H-M   'P 1'
_cell_length_a   8.56996758
_cell_length_b   8.54214896
_cell_length_c   8.54214896
_cell_angle_alpha   90.00000000
_cell_angle_beta   90.00000000
_cell_angle_gamma   90.00000000
_symmetry_Int_Tables_number   1
_chemical_formula_structural   CaMg30CoO32
_chemical_formula_sum   'Ca1 Mg30 Co1 O32'
_cell_volume   625.33604125
_cell_formula_units_Z   1
loop_
 _symmetry_equiv_pos_site_id
 _symmetry_equiv_pos_as_xyz
  1  'x, y, z'
loop_
 _atom_site_type_symbol
 _atom_site_label
 _atom_site_symmetry_multiplicity
 _atom_site_fract_x
 _atom_site_fract_y
 _atom_site_fract_z
 _atom_site_occupancy
  Ca  Ca0  1  0.00000000  0.00000000  0.00000000  1
  Mg  Mg1  1  0.00000000  0.00000000  0.50000000  1
  Mg  Mg2  1  0.00000000  0.50000000  0.00000000  1
  Mg  Mg3  1  0.50000000  0.00000000  0.00000000  1
  Mg  Mg4  1  0.50000000  0.00000000  0.50000000  1
  Mg  Mg5  1  0.50000000  0.50000000  0.00000000  1
  Mg  Mg6  1  0.50000000  0.50000000  0.50000000  1
  Mg  Mg7  1  0.00000000  0.25281651  0.25281651  1
  Mg  Mg8  1  0.00000000  0.25281651  0.74718349  1
  Mg  Mg9  1  0.00000000  0.74718349  0.25281651  1
  Mg  Mg10  1  0.00000000  0.74718349  0.74718349  1
  Mg  Mg11  1  0.50000000  0.25038325  0.25038325  1
  Mg  Mg12  1  0.50000000  0.25038325  0.74961675  1
  Mg  Mg13  1  0.50000000  0.74961675  0.25038325  1
  Mg  Mg14  1  0.50000000  0.74961675  0.74961675  1
  Mg  Mg15  1  0.25306371  0.00000000  0.25314503  1
  Mg  Mg16  1  0.25306371  0.00000000  0.74685497  1
  Mg  Mg17  1  0.25007528  0.50000000  0.25158905  1
  Mg  Mg18  1  0.25007528  0.50000000  0.74841095  1
  Mg  Mg19  1  0.74693629  0.00000000  0.25314503  1
  Mg  Mg20  1  0.74693629  0.00000000  0.74685497  1
  Mg  Mg21  1  0.74992472  0.50000000  0.25158905  1
  Mg  Mg22  1  0.74992472  0.50000000  0.74841095  1
  Mg  Mg23  1  0.25306371  0.25314503  0.00000000  1
  Mg  Mg24  1  0.25007528  0.25158905  0.50000000  1
  Mg  Mg25  1  0.25306371  0.74685497  0.00000000  1
  Mg  Mg26  1  0.25007528  0.74841095  0.50000000  1
  Mg  Mg27  1  0.74693629  0.25314503  0.00000000  1
  Mg  Mg28  1  0.74992472  0.25158905  0.50000000  1
  Mg  Mg29  1  0.74693629  0.74685497  0.00000000  1
  Mg  Mg30  1  0.74992472  0.74841095  0.50000000  1
  Co  Co31  1  0.00000000  0.50000000  0.50000000  1
  O  O32  1  0.26226153  0.00000000  0.00000000  1
  O  O33  1  0.25161249  0.00000000  0.50000000  1
  O  O34  1  0.25161249  0.50000000  0.00000000  1
  O  O35  1  0.25706613  0.50000000  0.50000000  1
  O  O36  1  0.73773847  0.00000000  0.00000000  1
  O  O37  1  0.74838751  0.00000000  0.50000000  1
  O  O38  1  0.74838751  0.50000000  0.00000000  1
  O  O39  1  0.74293387  0.50000000  0.50000000  1
  O  O40  1  0.24926664  0.24997640  0.24997640  1
  O  O41  1  0.24926664  0.24997640  0.75002360  1
  O  O42  1  0.24926664  0.75002360  0.24997640  1
  O  O43  1  0.24926664  0.75002360  0.75002360  1
  O  O44  1  0.75073336  0.24997640  0.24997640  1
  O  O45  1  0.75073336  0.24997640  0.75002360  1
  O  O46  1  0.75073336  0.75002360  0.24997640  1
  O  O47  1  0.75073336  0.75002360  0.75002360  1
  O  O48  1  0.00000000  0.00000000  0.26268802  1
  O  O49  1  0.00000000  0.00000000  0.73731198  1
  O  O50  1  0.00000000  0.50000000  0.25162051  1
  O  O51  1  0.00000000  0.50000000  0.74837949  1
  O  O52  1  0.50000000  0.00000000  0.25197021  1
  O  O53  1  0.50000000  0.00000000  0.74802979  1
  O  O54  1  0.50000000  0.50000000  0.24957290  1
  O  O55  1  0.50000000  0.50000000  0.75042710  1
  O  O56  1  0.00000000  0.26268802  0.00000000  1
  O  O57  1  0.00000000  0.25162051  0.50000000  1
  O  O58  1  0.00000000  0.73731198  0.00000000  1
  O  O59  1  0.00000000  0.74837949  0.50000000  1
  O  O60  1  0.50000000  0.25197021  0.00000000  1
  O  O61  1  0.50000000  0.24957290  0.50000000  1
  O  O62  1  0.50000000  0.74802979  0.00000000  1
  O  O63  1  0.50000000  0.75042710  0.50000000  1
