# generated using pymatgen
data_Mg30ZnCuO32
_symmetry_space_group_name_H-M   'P 1'
_cell_length_a   8.52139311
_cell_length_b   8.51670260
_cell_length_c   8.51670260
_cell_angle_alpha   90.00000000
_cell_angle_beta   90.00000000
_cell_angle_gamma   90.00000000
_symmetry_Int_Tables_number   1
_chemical_formula_structural   Mg30ZnCuO32
_chemical_formula_sum   'Mg30 Zn1 Cu1 O32'
_cell_volume   618.09262962
_cell_formula_units_Z   1
loop_
 _symmetry_equiv_pos_site_id
 _symmetry_equiv_pos_as_xyz
  1  'x, y, z'
loop_
 _atom_site_type_symbol
 _atom_site_label
 _atom_site_symmetry_multiplicity
 _atom_site_fract_x
 _atom_site_fract_y
 _atom_site_fract_z
 _atom_site_occupancy
  Mg  Mg0  1  -0.00000000  0.00000000  0.50000000  1
  Mg  Mg1  1  -0.00000000  0.50000000  -0.00000000  1
  Mg  Mg2  1  0.50000000  0.00000000  -0.00000000  1
  Mg  Mg3  1  0.50000000  0.00000000  0.50000000  1
  Mg  Mg4  1  0.50000000  0.50000000  -0.00000000  1
  Mg  Mg5  1  0.50000000  0.50000000  0.50000000  1
  Mg  Mg6  1  -0.00000000  0.25054237  0.25054237  1
  Mg  Mg7  1  -0.00000000  0.25054237  0.74945763  1
  Mg  Mg8  1  -0.00000000  0.74945763  0.25054237  1
  Mg  Mg9  1  -0.00000000  0.74945763  0.74945763  1
  Mg  Mg10  1  0.50000000  0.24997833  0.24997833  1
  Mg  Mg11  1  0.50000000  0.24997833  0.75002167  1
  Mg  Mg12  1  0.50000000  0.75002167  0.24997833  1
  Mg  Mg13  1  0.50000000  0.75002167  0.75002167  1
  Mg  Mg14  1  0.24991417  0.00000000  0.25001389  1
  Mg  Mg15  1  0.24991417  0.00000000  0.74998611  1
  Mg  Mg16  1  0.24931959  0.50000000  0.25031223  1
  Mg  Mg17  1  0.24931959  0.50000000  0.74968777  1
  Mg  Mg18  1  0.75008583  0.00000000  0.25001389  1
  Mg  Mg19  1  0.75008583  0.00000000  0.74998611  1
  Mg  Mg20  1  0.75068041  0.50000000  0.25031223  1
  Mg  Mg21  1  0.75068041  0.50000000  0.74968777  1
  Mg  Mg22  1  0.24991417  0.25001389  -0.00000000  1
  Mg  Mg23  1  0.24931959  0.25031223  0.50000000  1
  Mg  Mg24  1  0.24991417  0.74998611  -0.00000000  1
  Mg  Mg25  1  0.24931959  0.74968777  0.50000000  1
  Mg  Mg26  1  0.75008583  0.25001389  -0.00000000  1
  Mg  Mg27  1  0.75068041  0.25031223  0.50000000  1
  Mg  Mg28  1  0.75008583  0.74998611  -0.00000000  1
  Mg  Mg29  1  0.75068041  0.74968777  0.50000000  1
  Zn  Zn30  1  -0.00000000  0.00000000  -0.00000000  1
  Cu  Cu31  1  -0.00000000  0.50000000  0.50000000  1
  O  O32  1  0.25346504  0.00000000  -0.00000000  1
  O  O33  1  0.25019871  0.00000000  0.50000000  1
  O  O34  1  0.25019871  0.50000000  -0.00000000  1
  O  O35  1  0.25249227  0.50000000  0.50000000  1
  O  O36  1  0.74653496  0.00000000  -0.00000000  1
  O  O37  1  0.74980129  0.00000000  0.50000000  1
  O  O38  1  0.74980129  0.50000000  -0.00000000  1
  O  O39  1  0.74750773  0.50000000  0.50000000  1
  O  O40  1  0.24969895  0.24998201  0.24998201  1
  O  O41  1  0.24969895  0.24998201  0.75001799  1
  O  O42  1  0.24969895  0.75001799  0.24998201  1
  O  O43  1  0.24969895  0.75001799  0.75001799  1
  O  O44  1  0.75030105  0.24998201  0.24998201  1
  O  O45  1  0.75030105  0.24998201  0.75001799  1
  O  O46  1  0.75030105  0.75001799  0.24998201  1
  O  O47  1  0.75030105  0.75001799  0.75001799  1
  O  O48  1  -0.00000000  0.00000000  0.25334084  1
  O  O49  1  -0.00000000  0.00000000  0.74665916  1
  O  O50  1  -0.00000000  0.50000000  0.24634206  1
  O  O51  1  -0.00000000  0.50000000  0.75365794  1
  O  O52  1  0.50000000  0.00000000  0.25012329  1
  O  O53  1  0.50000000  0.00000000  0.74987671  1
  O  O54  1  0.50000000  0.50000000  0.25014501  1
  O  O55  1  0.50000000  0.50000000  0.74985499  1
  O  O56  1  -0.00000000  0.25334084  -0.00000000  1
  O  O57  1  -0.00000000  0.24634206  0.50000000  1
  O  O58  1  -0.00000000  0.74665916  -0.00000000  1
  O  O59  1  -0.00000000  0.75365794  0.50000000  1
  O  O60  1  0.50000000  0.25012329  -0.00000000  1
  O  O61  1  0.50000000  0.25014501  0.50000000  1
  O  O62  1  0.50000000  0.74987671  -0.00000000  1
  O  O63  1  0.50000000  0.74985499  0.50000000  1
