# generated using pymatgen
data_CaFe(Si2O5)2
_symmetry_space_group_name_H-M   'P 1'
_cell_length_a   7.47655317
_cell_length_b   7.47655317
_cell_length_c   15.42236689
_cell_angle_alpha   90.00000000
_cell_angle_beta   90.00000000
_cell_angle_gamma   90.00000000
_symmetry_Int_Tables_number   1
_chemical_formula_structural   CaFe(Si2O5)2
_chemical_formula_sum   'Ca4 Fe4 Si16 O40'
_cell_volume   862.09253185
_cell_formula_units_Z   4
loop_
 _symmetry_equiv_pos_site_id
 _symmetry_equiv_pos_as_xyz
  1  'x, y, z'
loop_
 _atom_site_type_symbol
 _atom_site_label
 _atom_site_symmetry_multiplicity
 _atom_site_fract_x
 _atom_site_fract_y
 _atom_site_fract_z
 _atom_site_occupancy
  Ca  Ca0  1  0.25000000  0.75000000  0.50000000  1
  Ca  Ca1  1  0.75000000  0.25000000  0.50000000  1
  Ca  Ca2  1  0.75000000  0.25000000  -0.00000000  1
  Ca  Ca3  1  0.25000000  0.75000000  -0.00000000  1
  Fe  Fe4  1  0.25000000  0.25000000  0.58151348  1
  Fe  Fe5  1  0.75000000  0.75000000  0.91848652  1
  Fe  Fe6  1  0.75000000  0.75000000  0.41848652  1
  Fe  Fe7  1  0.25000000  0.25000000  0.08151348  1
  Si  Si8  1  0.92169131  0.50274307  0.64865574  1
  Si  Si9  1  0.57830869  0.99725693  0.64865574  1
  Si  Si10  1  0.00274307  0.42169131  0.85134426  1
  Si  Si11  1  0.50274307  0.57830869  0.64865574  1
  Si  Si12  1  0.99725693  0.92169131  0.64865574  1
  Si  Si13  1  0.07830869  0.00274307  0.85134426  1
  Si  Si14  1  0.42169131  0.49725693  0.85134426  1
  Si  Si15  1  0.49725693  0.07830869  0.85134426  1
  Si  Si16  1  0.07830869  0.49725693  0.35134426  1
  Si  Si17  1  0.42169131  0.00274307  0.35134426  1
  Si  Si18  1  0.99725693  0.57830869  0.14865574  1
  Si  Si19  1  0.49725693  0.42169131  0.35134426  1
  Si  Si20  1  0.00274307  0.07830869  0.35134426  1
  Si  Si21  1  0.92169131  0.99725693  0.14865574  1
  Si  Si22  1  0.57830869  0.50274307  0.14865574  1
  Si  Si23  1  0.50274307  0.92169131  0.14865574  1
  O  O24  1  -0.00018273  0.35529522  0.58279136  1
  O  O25  1  0.50018273  0.14470478  0.58279136  1
  O  O26  1  0.85529522  0.49981727  0.91720864  1
  O  O27  1  0.35529522  0.50018273  0.58279136  1
  O  O28  1  0.14470478  -0.00018273  0.58279136  1
  O  O29  1  0.00018273  0.85529522  0.91720864  1
  O  O30  1  0.49981727  0.64470478  0.91720864  1
  O  O31  1  0.64470478  0.00018273  0.91720864  1
  O  O32  1  0.00018273  0.64470478  0.41720864  1
  O  O33  1  0.49981727  0.85529522  0.41720864  1
  O  O34  1  0.14470478  0.50018273  0.08279136  1
  O  O35  1  0.64470478  0.49981727  0.41720864  1
  O  O36  1  0.85529522  0.00018273  0.41720864  1
  O  O37  1  -0.00018273  0.14470478  0.08279136  1
  O  O38  1  0.50018273  0.35529522  0.08279136  1
  O  O39  1  0.00123799  0.29546335  0.37131017  1
  O  O40  1  0.35529522  -0.00018273  0.08279136  1
  O  O41  1  0.50123799  0.79546335  0.62868983  1
  O  O42  1  0.20453665  0.49876201  0.87131017  1
  O  O43  1  0.70453665  0.50123799  0.62868983  1
  O  O44  1  0.79546335  0.99876201  0.62868983  1
  O  O45  1  0.00123799  0.20453665  0.87131017  1
  O  O46  1  0.49876201  0.29546335  0.87131017  1
  O  O47  1  0.29546335  0.00123799  0.87131017  1
  O  O48  1  0.45845711  0.95845711  0.25000000  1
  O  O49  1  0.54154289  0.45845711  0.25000000  1
  O  O50  1  0.95845711  0.04154389  0.25000000  1
  O  O51  1  0.04154389  0.54154289  0.25000000  1
  O  O52  1  0.54154289  0.04154389  0.75000000  1
  O  O53  1  0.45845711  0.54154289  0.75000000  1
  O  O54  1  0.04154389  0.95845711  0.75000000  1
  O  O55  1  0.95845711  0.45845711  0.75000000  1
  O  O56  1  0.70453665  0.99876201  0.12868983  1
  O  O57  1  0.50123799  0.70453665  0.12868983  1
  O  O58  1  0.99876201  0.79546335  0.12868983  1
  O  O59  1  0.20453665  0.00123799  0.37131017  1
  O  O60  1  0.29546335  0.49876201  0.37131017  1
  O  O61  1  0.79546335  0.50123799  0.12868983  1
  O  O62  1  0.49876201  0.20453665  0.37131017  1
  O  O63  1  0.99876201  0.70453665  0.62868983  1
