# generated using pymatgen
data_LiNiOF2
_symmetry_space_group_name_H-M   'P 1'
_cell_length_a   4.95966406
_cell_length_b   4.90999525
_cell_length_c   8.10074621
_cell_angle_alpha   90.00000000
_cell_angle_beta   91.89258251
_cell_angle_gamma   90.00000000
_symmetry_Int_Tables_number   1
_chemical_formula_structural   LiNiOF2
_chemical_formula_sum   'Li4 Ni4 O4 F8'
_cell_volume   197.16117006
_cell_formula_units_Z   4
loop_
 _symmetry_equiv_pos_site_id
 _symmetry_equiv_pos_as_xyz
  1  'x, y, z'
loop_
 _atom_site_type_symbol
 _atom_site_label
 _atom_site_symmetry_multiplicity
 _atom_site_fract_x
 _atom_site_fract_y
 _atom_site_fract_z
 _atom_site_occupancy
  Li  Li0  1  0.03309883  0.96823413  0.75621889  1
  Li  Li1  1  0.46690117  0.46823413  0.74378111  1
  Li  Li2  1  0.53309883  0.53176587  0.25621889  1
  Li  Li3  1  0.96690117  0.03176587  0.24378111  1
  Ni  Ni4  1  0.00000000  0.50000000  0.00000000  1
  Ni  Ni5  1  0.00000000  0.50000000  0.50000000  1
  Ni  Ni6  1  0.50000000  0.00000000  0.00000000  1
  Ni  Ni7  1  0.50000000  0.00000000  0.50000000  1
  O  O8  1  0.09870805  0.89805571  0.03705780  1
  O  O9  1  0.40129195  0.39805571  0.46294220  1
  O  O10  1  0.59870805  0.60194429  0.53705780  1
  O  O11  1  0.90129195  0.10194429  0.96294220  1
  F  F12  1  0.89964821  0.41532495  0.25491721  1
  F  F13  1  0.14615406  0.85664642  0.41669562  1
  F  F14  1  0.35384594  0.35664642  0.08330438  1
  F  F15  1  0.60035179  0.91532495  0.24508279  1
  F  F16  1  0.39964821  0.08467505  0.75491721  1
  F  F17  1  0.64615406  0.64335358  0.91669562  1
  F  F18  1  0.85384594  0.14335358  0.58330438  1
  F  F19  1  0.10035179  0.58467505  0.74508279  1
