# generated using pymatgen
data_SrCa3(Co2O5)2
_symmetry_space_group_name_H-M   'P 1'
_cell_length_a   10.68646203
_cell_length_b   11.14713145
_cell_length_c   17.21050089
_cell_angle_alpha   109.13866579
_cell_angle_beta   108.37797717
_cell_angle_gamma   89.06183503
_symmetry_Int_Tables_number   1
_chemical_formula_structural   SrCa3(Co2O5)2
_chemical_formula_sum   'Sr8 Ca24 Co32 O80'
_cell_volume   1829.39740026
_cell_formula_units_Z   8
loop_
 _symmetry_equiv_pos_site_id
 _symmetry_equiv_pos_as_xyz
  1  'x, y, z'
loop_
 _atom_site_type_symbol
 _atom_site_label
 _atom_site_symmetry_multiplicity
 _atom_site_fract_x
 _atom_site_fract_y
 _atom_site_fract_z
 _atom_site_occupancy
  Sr  Sr0  1  0.30985903  0.56380525  0.61155878  1
  Sr  Sr1  1  0.80621092  0.05920978  0.61120195  1
  Sr  Sr2  1  0.19759168  0.43982392  0.89093613  1
  Sr  Sr3  1  0.05789767  0.29739461  0.61081348  1
  Sr  Sr4  1  0.05826394  0.80111043  0.61131685  1
  Sr  Sr5  1  0.55688355  0.29850930  0.61143321  1
  Sr  Sr6  1  0.44621251  0.20070723  0.88886635  1
  Sr  Sr7  1  0.94384773  0.19982732  0.38397362  1
  Ca  Ca8  1  0.30531298  0.06666164  0.11016840  1
  Ca  Ca9  1  0.30805811  0.06457951  0.60530805  1
  Ca  Ca10  1  0.30497341  0.56808339  0.11257363  1
  Ca  Ca11  1  0.80222863  0.06732640  0.10805481  1
  Ca  Ca12  1  0.80687088  0.56501772  0.11020098  1
  Ca  Ca13  1  0.80569460  0.56538478  0.60883073  1
  Ca  Ca14  1  0.19586203  0.43371481  0.38889739  1
  Ca  Ca15  1  0.19843137  0.93398857  0.38949463  1
  Ca  Ca16  1  0.19710929  0.93566636  0.89357716  1
  Ca  Ca17  1  0.69456324  0.43337231  0.38940255  1
  Ca  Ca18  1  0.70036329  0.43246388  0.89259237  1
  Ca  Ca19  1  0.69296861  0.92974491  0.38917131  1
  Ca  Ca20  1  0.69399535  0.93627970  0.89072781  1
  Ca  Ca21  1  0.05592957  0.29370555  0.11088383  1
  Ca  Ca22  1  0.05618673  0.79158149  0.11064389  1
  Ca  Ca23  1  0.55558688  0.29376623  0.11193460  1
  Ca  Ca24  1  0.55431802  0.79532635  0.11131579  1
  Ca  Ca25  1  0.55875848  0.79451138  0.60858353  1
  Ca  Ca26  1  0.44498418  0.20461727  0.38879591  1
  Ca  Ca27  1  0.44887828  0.70795021  0.39076764  1
  Ca  Ca28  1  0.44509825  0.71157270  0.89279113  1
  Ca  Ca29  1  0.94714707  0.20701464  0.89257154  1
  Ca  Ca30  1  0.94552723  0.70631539  0.38853635  1
  Ca  Ca31  1  0.94759129  0.70605077  0.89207863  1
  Co  Co32  1  0.00586190  0.00093557  0.00111696  1
  Co  Co33  1  0.00217650  0.99711643  0.49500379  1
  Co  Co34  1  0.00697306  0.50028054  0.00364452  1
  Co  Co35  1  0.00159956  0.49932906  0.49615990  1
  Co  Co36  1  0.50636829  0.00222628  0.00410249  1
  Co  Co37  1  0.50274516  0.99735752  0.49596692  1
  Co  Co38  1  0.50682549  0.50191088  0.00344134  1
  Co  Co39  1  0.50307504  0.49741409  0.49423646  1
  Co  Co40  1  0.25562421  0.25207556  0.00336842  1
  Co  Co41  1  0.25220751  0.24709309  0.49404853  1
  Co  Co42  1  0.25693633  0.75312329  0.00443873  1
  Co  Co43  1  0.25494161  0.74992238  0.49665255  1
  Co  Co44  1  0.75726241  0.25134767  0.00359453  1
  Co  Co45  1  0.75059819  0.24783276  0.49620626  1
  Co  Co46  1  0.75603747  0.75065771  0.00092294  1
  Co  Co47  1  0.75209687  0.74553692  0.49522582  1
  Co  Co48  1  0.10875121  0.09075130  0.24493796  1
  Co  Co49  1  0.11059403  0.09260204  0.75392735  1
  Co  Co50  1  0.10831639  0.59498218  0.25017370  1
  Co  Co51  1  0.10682135  0.59991030  0.74997288  1
  Co  Co52  1  0.60491435  0.09342361  0.24938742  1
  Co  Co53  1  0.60767678  0.09133809  0.74780765  1
  Co  Co54  1  0.60651743  0.59308763  0.24781889  1
  Co  Co55  1  0.61536966  0.60165236  0.75443342  1
  Co  Co56  1  0.35821218  0.40656152  0.25008878  1
  Co  Co57  1  0.36731373  0.41020060  0.75387125  1
  Co  Co58  1  0.35853249  0.90561483  0.25054269  1
  Co  Co59  1  0.36337726  0.90527535  0.75019835  1
  Co  Co60  1  0.85788303  0.40939739  0.24977498  1
  Co  Co61  1  0.85933516  0.40901528  0.75303843  1
  Co  Co62  1  0.85741833  0.90158713  0.24675399  1
  Co  Co63  1  0.85889159  0.90226041  0.75396514  1
  O  O64  1  0.12810124  0.12192002  0.48876685  1
  O  O65  1  0.12485081  0.12436761  0.99003639  1
  O  O66  1  0.12358035  0.62339119  0.48200802  1
  O  O67  1  0.12300972  0.62662362  0.99109423  1
  O  O68  1  0.62167941  0.12126387  0.48325107  1
  O  O69  1  0.62758918  0.12049833  0.99066129  1
  O  O70  1  0.62726114  0.62002878  0.48659232  1
  O  O71  1  0.62890096  0.62829374  0.98995944  1
  O  O72  1  0.13258865  0.38643876  0.01653855  1
  O  O73  1  0.12908031  0.38198647  0.50380011  1
  O  O74  1  0.14117518  0.87310800  0.01351481  1
  O  O75  1  0.13157899  0.88392852  0.50574259  1
  O  O76  1  0.64290759  0.37439151  0.01463959  1
  O  O77  1  0.63067712  0.38421836  0.50723686  1
  O  O78  1  0.63160570  0.88567327  0.01413076  1
  O  O79  1  0.63000232  0.87210765  0.50711032  1
  O  O80  1  0.36802956  0.11380068  0.48267586  1
  O  O81  1  0.37742759  0.11246835  0.99302052  1
  O  O82  1  0.37823625  0.61462028  0.48608288  1
  O  O83  1  0.37350959  0.63154493  0.99283444  1
  O  O84  1  0.87322034  0.11098772  0.48809357  1
  O  O85  1  0.86860811  0.12625548  0.98941480  1
  O  O86  1  0.87434024  0.61321474  0.48638793  1
  O  O87  1  0.87726730  0.61094992  0.98858607  1
  O  O88  1  0.38572665  0.38329773  0.01743355  1
  O  O89  1  0.37745893  0.37545029  0.50300670  1
  O  O90  1  0.38624061  0.88349678  0.01701437  1
  O  O91  1  0.38189074  0.87838161  0.50979748  1
  O  O92  1  0.88596833  0.38222363  0.01668507  1
  O  O93  1  0.87492721  0.37897473  0.50723850  1
  O  O94  1  0.88351477  0.87735141  0.01401201  1
  O  O95  1  0.87719806  0.87166549  0.50212475  1
  O  O96  1  0.08830848  0.09839842  0.13747598  1
  O  O97  1  0.08276763  0.08835838  0.64255326  1
  O  O98  1  0.08762873  0.60339867  0.14252969  1
  O  O99  1  0.07521672  0.59219221  0.63753303  1
  O  O100  1  0.58822784  0.10388404  0.14298563  1
  O  O101  1  0.57892969  0.09063348  0.63786695  1
  O  O102  1  0.58776421  0.60139099  0.14067439  1
  O  O103  1  0.58637166  0.59987810  0.64307948  1
  O  O104  1  0.44549792  0.39824723  0.35801460  1
  O  O105  1  0.44980477  0.40778529  0.86354522  1
  O  O106  1  0.44411233  0.89783530  0.35802555  1
  O  O107  1  0.45148862  0.89992022  0.85910071  1
  O  O108  1  0.94452169  0.40728542  0.35831368  1
  O  O109  1  0.94260207  0.39595080  0.85996585  1
  O  O110  1  0.94478571  0.90066316  0.35652275  1
  O  O111  1  0.94604611  0.89935740  0.86374424  1
  O  O112  1  0.33739120  0.28894220  0.14408002  1
  O  O113  1  0.33619544  0.29424812  0.64553018  1
  O  O114  1  0.33976748  0.78771819  0.14443500  1
  O  O115  1  0.33517613  0.79583302  0.64080036  1
  O  O116  1  0.84046479  0.28842172  0.14486498  1
  O  O117  1  0.82924809  0.29753631  0.64389856  1
  O  O118  1  0.83668628  0.78391183  0.14027687  1
  O  O119  1  0.83132074  0.79156672  0.64427193  1
  O  O120  1  0.18857118  0.20804292  0.35101003  1
  O  O121  1  0.19183693  0.20699549  0.86095877  1
  O  O122  1  0.19529634  0.71015106  0.35553827  1
  O  O123  1  0.19507545  0.71366293  0.85715421  1
  O  O124  1  0.68557327  0.21068377  0.35527105  1
  O  O125  1  0.69262068  0.20894690  0.85451908  1
  O  O126  1  0.69093024  0.70743612  0.35397793  1
  O  O127  1  0.70236098  0.71752047  0.86174820  1
  O  O128  1  0.42345502  0.06586716  0.24880724  1
  O  O129  1  0.42517293  0.06220536  0.74304371  1
  O  O130  1  0.42544462  0.56701351  0.24969904  1
  O  O131  1  0.43806069  0.57277418  0.75876308  1
  O  O132  1  0.92563847  0.05567224  0.23920161  1
  O  O133  1  0.93223788  0.06297624  0.75845256  1
  O  O134  1  0.92507608  0.56957393  0.24896784  1
  O  O135  1  0.92681935  0.57003941  0.75196365  1
  O  O136  1  0.17562214  0.43215058  0.24961261  1
  O  O137  1  0.18685044  0.44411923  0.75122913  1
  O  O138  1  0.17592595  0.92987163  0.24864480  1
  O  O139  1  0.18697281  0.93589746  0.75943809  1
  O  O140  1  0.67494047  0.43140621  0.24920779  1
  O  O141  1  0.68229942  0.44202852  0.75927696  1
  O  O142  1  0.67661601  0.93222990  0.25002430  1
  O  O143  1  0.67566596  0.92955053  0.75108335  1
