# generated using pymatgen
data_Ti3Fe3(SbO8)2
_symmetry_space_group_name_H-M   'P 1'
_cell_length_a   6.02295009
_cell_length_b   5.99449168
_cell_length_c   9.36533941
_cell_angle_alpha   90.00083850
_cell_angle_beta   90.39654802
_cell_angle_gamma   119.83672487
_symmetry_Int_Tables_number   1
_chemical_formula_structural   Ti3Fe3(SbO8)2
_chemical_formula_sum   'Ti3 Fe3 Sb2 O16'
_cell_volume   293.30138145
_cell_formula_units_Z   1
loop_
 _symmetry_equiv_pos_site_id
 _symmetry_equiv_pos_as_xyz
  1  'x, y, z'
loop_
 _atom_site_type_symbol
 _atom_site_label
 _atom_site_symmetry_multiplicity
 _atom_site_fract_x
 _atom_site_fract_y
 _atom_site_fract_z
 _atom_site_occupancy
  Ti  Ti0  1  0.16903553  0.83259198  0.21041100  1
  Ti  Ti1  1  0.16904998  0.33648516  0.21042108  1
  Ti  Ti2  1  0.32895824  0.16450491  0.71374644  1
  Fe  Fe3  1  0.66215315  0.83108183  0.20883562  1
  Fe  Fe4  1  0.83029695  0.66179593  0.70754139  1
  Fe  Fe5  1  0.83027781  0.16854138  0.70755220  1
  Sb  Sb6  1  0.33834088  0.66922054  0.48961335  1
  Sb  Sb7  1  0.67077357  0.33540741  0.98729265  1
  O  O8  1  0.18076289  0.83496734  0.60397681  1
  O  O9  1  0.04806264  0.52404314  0.33951149  1
  O  O10  1  0.31825443  0.65912912  0.10338917  1
  O  O11  1  0.00793987  0.00396979  0.30241512  1
  O  O12  1  0.00087348  0.00058694  0.80284989  1
  O  O13  1  0.18080769  0.34585904  0.60395258  1
  O  O14  1  0.46983345  0.95377469  0.34041964  1
  O  O15  1  0.46984094  0.51607738  0.34045319  1
  O  O16  1  0.34870309  0.17436411  0.10651522  1
  O  O17  1  0.66349111  0.83178626  0.60020923  1
  O  O18  1  0.51389621  0.47073588  0.84172048  1
  O  O19  1  0.51390334  0.04312571  0.84172649  1
  O  O20  1  0.66211167  0.33086422  0.60429920  1
  O  O21  1  0.83357872  0.65802536  0.10390894  1
  O  O22  1  0.95548065  0.47768674  0.84102708  1
  O  O23  1  0.83357470  0.17557713  0.10393075  1
