# generated using pymatgen
data_CaLaCrMoO6
_symmetry_space_group_name_H-M   'P 1'
_cell_length_a   5.54132920
_cell_length_b   5.70716676
_cell_length_c   7.90069215
_cell_angle_alpha   90.00000000
_cell_angle_beta   89.51697757
_cell_angle_gamma   90.00000000
_symmetry_Int_Tables_number   1
_chemical_formula_structural   CaLaCrMoO6
_chemical_formula_sum   'Ca2 La2 Cr2 Mo2 O12'
_cell_volume   249.85279996
_cell_formula_units_Z   2
loop_
 _symmetry_equiv_pos_site_id
 _symmetry_equiv_pos_as_xyz
  1  'x, y, z'
loop_
 _atom_site_type_symbol
 _atom_site_label
 _atom_site_symmetry_multiplicity
 _atom_site_fract_x
 _atom_site_fract_y
 _atom_site_fract_z
 _atom_site_occupancy
  Ca  Ca0  1  0.48652220  0.45492771  0.74916038  1
  Ca  Ca1  1  0.98652220  0.04507229  0.24916038  1
  La  La2  1  0.01163252  0.96109312  0.75145550  1
  La  La3  1  0.51163252  0.53890688  0.25145550  1
  Cr  Cr4  1  0.50062751  0.99966018  0.49913957  1
  Cr  Cr5  1  0.00062751  0.50033982  0.99913957  1
  Mo  Mo6  1  0.50010714  0.00174208  0.00045481  1
  Mo  Mo7  1  0.00010714  0.49825792  0.50045481  1
  O  O8  1  0.08732187  0.46812585  0.24733693  1
  O  O9  1  0.20605290  0.21497737  0.94869734  1
  O  O10  1  0.20775231  0.20461960  0.54391841  1
  O  O11  1  0.29807339  0.70318553  0.95469492  1
  O  O12  1  0.29636072  0.71067728  0.55362033  1
  O  O13  1  0.40554744  0.97164560  0.25152182  1
  O  O14  1  0.58732187  0.03187415  0.74733693  1
  O  O15  1  0.70605290  0.28502263  0.44869734  1
  O  O16  1  0.70775231  0.29538040  0.04391841  1
  O  O17  1  0.79807339  0.79681447  0.45469492  1
  O  O18  1  0.79636072  0.78932272  0.05362033  1
  O  O19  1  0.90554744  0.52835440  0.75152182  1
