# generated using pymatgen
data_CaCo3P3O13
_symmetry_space_group_name_H-M   'P 1'
_cell_length_a   6.36167255
_cell_length_b   7.52329360
_cell_length_c   10.22107275
_cell_angle_alpha   100.05923532
_cell_angle_beta   90.00000000
_cell_angle_gamma   90.00000000
_symmetry_Int_Tables_number   1
_chemical_formula_structural   CaCo3P3O13
_chemical_formula_sum   'Ca2 Co6 P6 O26'
_cell_volume   481.66806285
_cell_formula_units_Z   2
loop_
 _symmetry_equiv_pos_site_id
 _symmetry_equiv_pos_as_xyz
  1  'x, y, z'
loop_
 _atom_site_type_symbol
 _atom_site_label
 _atom_site_symmetry_multiplicity
 _atom_site_fract_x
 _atom_site_fract_y
 _atom_site_fract_z
 _atom_site_occupancy
  Ca  Ca0  1  0.75000000  0.66202617  0.19531317  1
  Ca  Ca1  1  0.25000000  0.33797383  0.80468683  1
  Co  Co2  1  0.25000000  0.34891682  0.19829879  1
  Co  Co3  1  0.75000000  0.65108318  0.80170121  1
  Co  Co4  1  0.25000000  0.79064232  0.43863743  1
  Co  Co5  1  0.50000000  -0.00000000  0.00000000  1
  Co  Co6  1  0.75000000  0.20935768  0.56136257  1
  Co  Co7  1  0.00000000  -0.00000000  0.00000000  1
  P  P8  1  0.25000000  0.21575993  0.48550259  1
  P  P9  1  0.75000000  0.78424007  0.51449741  1
  P  P10  1  0.25000000  0.74068216  0.76370383  1
  P  P11  1  0.75000000  0.25931784  0.23629617  1
  P  P12  1  0.75000000  0.31416407  0.88533408  1
  P  P13  1  0.25000000  0.68583593  0.11466592  1
  O  O14  1  0.75000000  0.35917204  0.74202269  1
  O  O15  1  0.55980394  0.75268551  0.41847758  1
  O  O16  1  0.25000000  0.78680047  0.62364444  1
  O  O17  1  0.54762549  0.20627942  0.90437951  1
  O  O18  1  0.75000000  0.65487406  0.61435370  1
  O  O19  1  0.75000000  0.87673981  0.91125560  1
  O  O20  1  0.25000000  0.34512594  0.38564630  1
  O  O21  1  0.04762549  0.79372058  0.09562049  1
  O  O22  1  0.25000000  0.01949951  0.40376250  1
  O  O23  1  0.75000000  0.98050049  0.59623750  1
  O  O24  1  0.06070093  0.62217901  0.79033385  1
  O  O25  1  0.25000000  0.12326019  0.08874440  1
  O  O26  1  0.56070093  0.37782099  0.20966615  1
  O  O27  1  0.75000000  0.50773250  0.96754966  1
  O  O28  1  0.75000000  0.21319953  0.37635556  1
  O  O29  1  0.45237451  0.79372058  0.09562049  1
  O  O30  1  0.94019606  0.75268551  0.41847758  1
  O  O31  1  0.44019606  0.24731449  0.58152242  1
  O  O32  1  0.43929907  0.62217901  0.79033385  1
  O  O33  1  0.25000000  0.64082796  0.25797731  1
  O  O34  1  0.75000000  0.07883323  0.13364206  1
  O  O35  1  0.25000000  0.92116677  0.86635794  1
  O  O36  1  0.93929907  0.37782099  0.20966615  1
  O  O37  1  0.95237451  0.20627942  0.90437951  1
  O  O38  1  0.05980394  0.24731449  0.58152242  1
  O  O39  1  0.25000000  0.49226750  0.03245034  1
