# generated using pymatgen
data_Ca3Ni3(AsO4)4
_symmetry_space_group_name_H-M   'P 1'
_cell_length_a   5.12181913
_cell_length_b   9.19281569
_cell_length_c   15.50588056
_cell_angle_alpha   95.64501234
_cell_angle_beta   90.00000000
_cell_angle_gamma   90.00000000
_symmetry_Int_Tables_number   1
_chemical_formula_structural   Ca3Ni3(AsO4)4
_chemical_formula_sum   'Ca6 Ni6 As8 O32'
_cell_volume   726.53737423
_cell_formula_units_Z   2
loop_
 _symmetry_equiv_pos_site_id
 _symmetry_equiv_pos_as_xyz
  1  'x, y, z'
loop_
 _atom_site_type_symbol
 _atom_site_label
 _atom_site_symmetry_multiplicity
 _atom_site_fract_x
 _atom_site_fract_y
 _atom_site_fract_z
 _atom_site_occupancy
  Ca  Ca0  1  0.96451239  0.04030391  0.72963453  1
  Ca  Ca1  1  0.46451239  0.45969609  0.77036547  1
  Ca  Ca2  1  0.03548761  0.95969609  0.27036547  1
  Ca  Ca3  1  0.53548761  0.54030391  0.22963453  1
  Ca  Ca4  1  -0.00000000  -0.00000000  -0.00000000  1
  Ca  Ca5  1  0.50000000  0.50000000  0.50000000  1
  Ni  Ni6  1  0.01774518  0.31933370  0.12192520  1
  Ni  Ni7  1  0.98225482  0.68066630  0.87807480  1
  Ni  Ni8  1  0.51774518  0.18066630  0.37807480  1
  Ni  Ni9  1  0.48225482  0.81933370  0.62192520  1
  Ni  Ni10  1  0.50000000  0.50000000  -0.00000000  1
  Ni  Ni11  1  -0.00000000  -0.00000000  0.50000000  1
  As  As12  1  0.49031044  0.88045043  0.84118649  1
  As  As13  1  0.01180046  0.34129976  0.90542622  1
  As  As14  1  0.51180046  0.15870024  0.59457378  1
  As  As15  1  0.48819954  0.84129976  0.40542622  1
  As  As16  1  0.50968956  0.11954957  0.15881351  1
  As  As17  1  0.98819954  0.65870024  0.09457378  1
  As  As18  1  0.00968956  0.38045043  0.34118649  1
  As  As19  1  0.99031044  0.61954957  0.65881351  1
  O  O20  1  0.04778019  0.57016665  0.76231432  1
  O  O21  1  0.56326011  0.25253493  0.50599461  1
  O  O22  1  0.11189808  0.24800842  0.81216305  1
  O  O23  1  0.09983391  0.79601065  0.65178840  1
  O  O24  1  0.88810192  0.75199158  0.18783695  1
  O  O25  1  0.45221981  0.07016665  0.26231432  1
  O  O26  1  0.61189808  0.25199158  0.68783695  1
  O  O27  1  0.80473525  0.90732777  0.39902765  1
  O  O28  1  0.85328200  0.50858536  0.40728844  1
  O  O29  1  0.95221981  0.42983335  0.23768568  1
  O  O30  1  0.40016609  0.29601065  0.15178840  1
  O  O31  1  0.19526475  0.09267223  0.60097235  1
  O  O32  1  0.20143179  0.50107827  0.91836107  1
  O  O33  1  0.14671800  0.49141464  0.59271156  1
  O  O34  1  0.84698818  0.11886085  0.14189917  1
  O  O35  1  0.34698818  0.38113915  0.35810083  1
  O  O36  1  0.70143179  0.99892173  0.58163893  1
  O  O37  1  0.38810192  0.74800842  0.31216305  1
  O  O38  1  0.35328200  0.99141464  0.09271156  1
  O  O39  1  0.30473525  0.59267223  0.10097235  1
  O  O40  1  0.65301182  0.61886085  0.64189917  1
  O  O41  1  0.15301182  0.88113915  0.85810083  1
  O  O42  1  0.43673989  0.74746507  0.49400539  1
  O  O43  1  0.06326011  0.24746507  0.99400539  1
  O  O44  1  0.79856821  0.49892173  0.08163893  1
  O  O45  1  0.54778019  0.92983335  0.73768568  1
  O  O46  1  0.90016609  0.20398935  0.34821160  1
  O  O47  1  0.64671800  0.00858536  0.90728844  1
  O  O48  1  0.93673989  0.75253493  0.00599461  1
  O  O49  1  0.69526475  0.40732777  0.89902765  1
  O  O50  1  0.29856821  0.00107827  0.41836107  1
  O  O51  1  0.59983391  0.70398935  0.84821160  1
