# generated using pymatgen
data_Sr3Ca(FeO3)4
_symmetry_space_group_name_H-M   'P 1'
_cell_length_a   7.78568596
_cell_length_b   7.78165629
_cell_length_c   7.78568596
_cell_angle_alpha   90.00000000
_cell_angle_beta   90.00000000
_cell_angle_gamma   90.00000000
_symmetry_Int_Tables_number   1
_chemical_formula_structural   Sr3Ca(FeO3)4
_chemical_formula_sum   'Sr6 Ca2 Fe8 O24'
_cell_volume   471.69992683
_cell_formula_units_Z   2
loop_
 _symmetry_equiv_pos_site_id
 _symmetry_equiv_pos_as_xyz
  1  'x, y, z'
loop_
 _atom_site_type_symbol
 _atom_site_label
 _atom_site_symmetry_multiplicity
 _atom_site_fract_x
 _atom_site_fract_y
 _atom_site_fract_z
 _atom_site_occupancy
  Sr  Sr0  1  0.25000000  0.25000000  0.25000000  1
  Sr  Sr1  1  0.25000000  0.25000000  0.75000000  1
  Sr  Sr2  1  0.25000000  0.75000000  0.75000000  1
  Sr  Sr3  1  0.75000000  0.25000000  0.25000000  1
  Sr  Sr4  1  0.75000000  0.25000000  0.75000000  1
  Sr  Sr5  1  0.75000000  0.75000000  0.25000000  1
  Ca  Ca6  1  0.25000000  0.75000000  0.25000000  1
  Ca  Ca7  1  0.75000000  0.75000000  0.75000000  1
  Fe  Fe8  1  -0.00000000  0.99853838  -0.00000000  1
  Fe  Fe9  1  -0.00000000  0.99853838  0.50000000  1
  Fe  Fe10  1  -0.00000000  0.50146162  -0.00000000  1
  Fe  Fe11  1  -0.00000000  0.50146162  0.50000000  1
  Fe  Fe12  1  0.50000000  0.99853838  -0.00000000  1
  Fe  Fe13  1  0.50000000  0.99853838  0.50000000  1
  Fe  Fe14  1  0.50000000  0.50146162  -0.00000000  1
  Fe  Fe15  1  0.50000000  0.50146162  0.50000000  1
  O  O16  1  0.25000000  0.99670760  0.00262349  1
  O  O17  1  0.25000000  0.99670760  0.49737651  1
  O  O18  1  0.25000000  0.50329240  0.00262349  1
  O  O19  1  0.25000000  0.50329240  0.49737651  1
  O  O20  1  0.75000000  0.99670760  0.99737651  1
  O  O21  1  0.75000000  0.99670760  0.50262349  1
  O  O22  1  0.75000000  0.50329240  0.99737651  1
  O  O23  1  0.75000000  0.50329240  0.50262349  1
  O  O24  1  -0.00000000  0.25000000  -0.00000000  1
  O  O25  1  -0.00000000  0.25000000  0.50000000  1
  O  O26  1  -0.00000000  0.75000000  -0.00000000  1
  O  O27  1  -0.00000000  0.75000000  0.50000000  1
  O  O28  1  0.50000000  0.25000000  -0.00000000  1
  O  O29  1  0.50000000  0.25000000  0.50000000  1
  O  O30  1  0.50000000  0.75000000  -0.00000000  1
  O  O31  1  0.50000000  0.75000000  0.50000000  1
  O  O32  1  0.00262349  0.99670760  0.25000000  1
  O  O33  1  0.99737651  0.99670760  0.75000000  1
  O  O34  1  0.00262349  0.50329240  0.25000000  1
  O  O35  1  0.99737651  0.50329240  0.75000000  1
  O  O36  1  0.49737651  0.99670760  0.25000000  1
  O  O37  1  0.50262349  0.99670760  0.75000000  1
  O  O38  1  0.49737651  0.50329240  0.25000000  1
  O  O39  1  0.50262349  0.50329240  0.75000000  1
