# generated using pymatgen
data_Ca(CuO2)2
_symmetry_space_group_name_H-M   'P 1'
_cell_length_a   3.47344185
_cell_length_b   9.33508766
_cell_length_c   10.29978179
_cell_angle_alpha   89.99865969
_cell_angle_beta   89.98646863
_cell_angle_gamma   90.02096571
_symmetry_Int_Tables_number   1
_chemical_formula_structural   Ca(CuO2)2
_chemical_formula_sum   'Ca4 Cu8 O16'
_cell_volume   333.96919969
_cell_formula_units_Z   4
loop_
 _symmetry_equiv_pos_site_id
 _symmetry_equiv_pos_as_xyz
  1  'x, y, z'
loop_
 _atom_site_type_symbol
 _atom_site_label
 _atom_site_symmetry_multiplicity
 _atom_site_fract_x
 _atom_site_fract_y
 _atom_site_fract_z
 _atom_site_occupancy
  Ca  Ca0  1  0.40107393  0.74997840  0.15466603  1
  Ca  Ca1  1  0.40096360  0.24997779  0.34538501  1
  Ca  Ca2  1  0.59901832  0.75002646  0.65461909  1
  Ca  Ca3  1  0.59894006  0.25001517  0.84533443  1
  Cu  Cu4  1  0.86764129  0.56924172  0.38726161  1
  Cu  Cu5  1  0.86766734  0.06923665  0.11276847  1
  Cu  Cu6  1  0.13234440  0.06923879  0.61269241  1
  Cu  Cu7  1  0.86766191  0.43075477  0.11271829  1
  Cu  Cu8  1  0.13232098  0.43075967  0.61274159  1
  Cu  Cu9  1  0.86764099  0.93076042  0.38731343  1
  Cu  Cu10  1  0.13232882  0.93076520  0.88723601  1
  Cu  Cu11  1  0.13237975  0.56924450  0.88727178  1
  O  O12  1  0.11227339  0.88767859  0.54211790  1
  O  O13  1  0.88772257  0.11232061  0.45788370  1
  O  O14  1  0.56940623  0.99995010  0.25008959  1
  O  O15  1  0.88791389  0.88760121  0.04217772  1
  O  O16  1  0.88796837  0.61232806  0.04214788  1
  O  O17  1  0.89443684  0.25002766  0.18858515  1
  O  O18  1  0.11207558  0.11239868  0.95782636  1
  O  O19  1  0.10562800  0.24997234  0.68855096  1
  O  O20  1  0.56943033  0.49995104  0.24998222  1
  O  O21  1  0.43058266  0.00005148  0.74991614  1
  O  O22  1  0.11216635  0.61239559  0.54214016  1
  O  O23  1  0.10555910  0.74997496  0.81141452  1
  O  O24  1  0.89436840  0.75002826  0.31145310  1
  O  O25  1  0.43060729  0.50004713  0.74999886  1
  O  O26  1  0.11210377  0.38766688  0.95784100  1
  O  O27  1  0.88777484  0.38760588  0.45786661  1
