# generated using pymatgen
data_CaCO3
_symmetry_space_group_name_H-M   'P 1'
_cell_length_a   3.83002876
_cell_length_b   5.12298183
_cell_length_c   6.64126569
_cell_angle_alpha   84.78869476
_cell_angle_beta   74.31440580
_cell_angle_gamma   90.60130483
_symmetry_Int_Tables_number   1
_chemical_formula_structural   CaCO3
_chemical_formula_sum   'Ca2 C2 O6'
_cell_volume   124.85454244
_cell_formula_units_Z   2
loop_
 _symmetry_equiv_pos_site_id
 _symmetry_equiv_pos_as_xyz
  1  'x, y, z'
loop_
 _atom_site_type_symbol
 _atom_site_label
 _atom_site_symmetry_multiplicity
 _atom_site_fract_x
 _atom_site_fract_y
 _atom_site_fract_z
 _atom_site_occupancy
  Ca  Ca0  1  0.39136372  0.68539427  0.25769323  1
  Ca  Ca1  1  0.60863628  0.31460573  0.74230677  1
  C  C2  1  0.01538615  0.79329382  0.75426907  1
  C  C3  1  0.98461385  0.20670618  0.24573093  1
  O  O4  1  0.19278506  0.61755595  0.63892249  1
  O  O5  1  0.80721494  0.38244405  0.36107751  1
  O  O6  1  0.11944064  0.03761624  0.71821922  1
  O  O7  1  0.88055936  0.96238376  0.28178078  1
  O  O8  1  0.72355488  0.71477550  0.89797108  1
  O  O9  1  0.27644512  0.28522450  0.10202892  1
