# generated using pymatgen
data_MoN
_symmetry_space_group_name_H-M   'P 1'
_cell_length_a   2.87111349
_cell_length_b   2.87111349
_cell_length_c   11.46374206
_cell_angle_alpha   90.00000000
_cell_angle_beta   90.00000000
_cell_angle_gamma   119.99851033
_symmetry_Int_Tables_number   1
_chemical_formula_structural   MoN
_chemical_formula_sum   'Mo4 N4'
_cell_volume   81.83974673
_cell_formula_units_Z   4
loop_
 _symmetry_equiv_pos_site_id
 _symmetry_equiv_pos_as_xyz
  1  'x, y, z'
loop_
 _atom_site_type_symbol
 _atom_site_label
 _atom_site_symmetry_multiplicity
 _atom_site_fract_x
 _atom_site_fract_y
 _atom_site_fract_z
 _atom_site_occupancy
  Mo  Mo0  1  0.00000549  0.99999451  0.75000000  1
  Mo  Mo1  1  0.99999451  0.00000549  0.25000000  1
  Mo  Mo2  1  0.00000000  0.00000000  0.50000000  1
  Mo  Mo3  1  0.00000000  0.00000000  -0.00000000  1
  N  N4  1  0.66667624  0.33332376  0.62934008  1
  N  N5  1  0.33332376  0.66667624  0.37065992  1
  N  N6  1  0.33332376  0.66667624  0.12934008  1
  N  N7  1  0.66667624  0.33332376  0.87065992  1
