# generated using pymatgen
data_K4Na4MoW7O24
_symmetry_space_group_name_H-M   'P 1'
_cell_length_a   8.03199553
_cell_length_b   8.03199553
_cell_length_c   8.00922394
_cell_angle_alpha   90.00000000
_cell_angle_beta   90.00000000
_cell_angle_gamma   90.00000000
_symmetry_Int_Tables_number   1
_chemical_formula_structural   K4Na4MoW7O24
_chemical_formula_sum   'K4 Na4 Mo1 W7 O24'
_cell_volume   516.69868115
_cell_formula_units_Z   1
loop_
 _symmetry_equiv_pos_site_id
 _symmetry_equiv_pos_as_xyz
  1  'x, y, z'
loop_
 _atom_site_type_symbol
 _atom_site_label
 _atom_site_symmetry_multiplicity
 _atom_site_fract_x
 _atom_site_fract_y
 _atom_site_fract_z
 _atom_site_occupancy
  K  K0  1  0.25220747  0.25220747  0.25181974  1
  K  K1  1  0.25220747  0.74779253  0.25181974  1
  K  K2  1  0.74779253  0.25220747  0.25181974  1
  K  K3  1  0.74779253  0.74779253  0.25181974  1
  Na  Na4  1  0.25241626  0.25241626  0.74814789  1
  Na  Na5  1  0.25241626  0.74758374  0.74814789  1
  Na  Na6  1  0.74758374  0.25241626  0.74814789  1
  Na  Na7  1  0.74758374  0.74758374  0.74814789  1
  Mo  Mo8  1  0.50000000  0.50000000  0.50142137  1
  W  W9  1  0.00000000  -0.00000000  0.99825518  1
  W  W10  1  0.00000000  -0.00000000  0.50151372  1
  W  W11  1  0.00000000  0.50000000  0.99785804  1
  W  W12  1  0.00000000  0.50000000  0.50227688  1
  W  W13  1  0.50000000  -0.00000000  0.99785804  1
  W  W14  1  0.50000000  -0.00000000  0.50227688  1
  W  W15  1  0.50000000  0.50000000  0.99793734  1
  O  O16  1  0.25513083  -0.00000000  0.99585244  1
  O  O17  1  0.25654077  -0.00000000  0.50414324  1
  O  O18  1  0.24599545  0.50000000  0.99552917  1
  O  O19  1  0.23888398  0.50000000  0.50436765  1
  O  O20  1  0.74486917  -0.00000000  0.99585244  1
  O  O21  1  0.74345923  -0.00000000  0.50414324  1
  O  O22  1  0.75400455  0.50000000  0.99552917  1
  O  O23  1  0.76111602  0.50000000  0.50436765  1
  O  O24  1  0.00000000  0.25513083  0.99585244  1
  O  O25  1  0.00000000  0.25654077  0.50414324  1
  O  O26  1  0.00000000  0.74486917  0.99585244  1
  O  O27  1  0.00000000  0.74345923  0.50414324  1
  O  O28  1  0.50000000  0.24599545  0.99552917  1
  O  O29  1  0.50000000  0.23888398  0.50436765  1
  O  O30  1  0.50000000  0.75400455  0.99552917  1
  O  O31  1  0.50000000  0.76111602  0.50436765  1
  O  O32  1  0.00000000  -0.00000000  0.26214881  1
  O  O33  1  0.00000000  -0.00000000  0.73968210  1
  O  O34  1  0.00000000  0.50000000  0.25382305  1
  O  O35  1  0.00000000  0.50000000  0.74724614  1
  O  O36  1  0.50000000  -0.00000000  0.25382305  1
  O  O37  1  0.50000000  -0.00000000  0.74724614  1
  O  O38  1  0.50000000  0.50000000  0.23891182  1
  O  O39  1  0.50000000  0.50000000  0.75828093  1
