# generated using pymatgen
data_P4Ru
_symmetry_space_group_name_H-M   'P 1'
_cell_length_a   4.70193378
_cell_length_b   4.72014121
_cell_length_c   7.15366196
_cell_angle_alpha   80.55323083
_cell_angle_beta   90.00000000
_cell_angle_gamma   90.00000000
_symmetry_Int_Tables_number   1
_chemical_formula_structural   P4Ru
_chemical_formula_sum   'P8 Ru2'
_cell_volume   156.61376653
_cell_formula_units_Z   2
loop_
 _symmetry_equiv_pos_site_id
 _symmetry_equiv_pos_as_xyz
  1  'x, y, z'
loop_
 _atom_site_type_symbol
 _atom_site_label
 _atom_site_symmetry_multiplicity
 _atom_site_fract_x
 _atom_site_fract_y
 _atom_site_fract_z
 _atom_site_occupancy
  P  P0  1  0.80827717  0.78499366  0.74895921  1
  P  P1  1  0.30827717  0.21500634  0.75104079  1
  P  P2  1  0.19172283  0.21500634  0.25104079  1
  P  P3  1  0.69172283  0.78499366  0.24895921  1
  P  P4  1  0.35022173  0.62127726  0.08848445  1
  P  P5  1  0.85022173  0.37872274  0.41151555  1
  P  P6  1  0.64977827  0.37872274  0.91151555  1
  P  P7  1  0.14977827  0.62127726  0.58848445  1
  Ru  Ru8  1  0.50000000  0.00000000  0.50000000  1
  Ru  Ru9  1  -0.00000000  0.00000000  -0.00000000  1
