# generated using pymatgen
data_ErNiGe2
_symmetry_space_group_name_H-M   'P 1'
_cell_length_a   4.18710198
_cell_length_b   4.07476883
_cell_length_c   8.58801251
_cell_angle_alpha   103.72345743
_cell_angle_beta   90.00000000
_cell_angle_gamma   90.00000000
_symmetry_Int_Tables_number   1
_chemical_formula_structural   ErNiGe2
_chemical_formula_sum   'Er2 Ni2 Ge4'
_cell_volume   142.34118022
_cell_formula_units_Z   2
loop_
 _symmetry_equiv_pos_site_id
 _symmetry_equiv_pos_as_xyz
  1  'x, y, z'
loop_
 _atom_site_type_symbol
 _atom_site_label
 _atom_site_symmetry_multiplicity
 _atom_site_fract_x
 _atom_site_fract_y
 _atom_site_fract_z
 _atom_site_occupancy
  Er  Er0  1  0.75000000  0.10832191  0.21664382  1
  Er  Er1  1  0.25000000  0.89167809  0.78335618  1
  Ni  Ni2  1  0.75000000  0.32213227  0.64426453  1
  Ni  Ni3  1  0.25000000  0.67786773  0.35573547  1
  Ge  Ge4  1  0.75000000  0.45927199  0.91854399  1
  Ge  Ge5  1  0.25000000  0.54072801  0.08145601  1
  Ge  Ge6  1  0.75000000  0.74736565  0.49473130  1
  Ge  Ge7  1  0.25000000  0.25263435  0.50526870  1
