# generated using pymatgen
data_Li8Co3NiO8
_symmetry_space_group_name_H-M   'P 1'
_cell_length_a   5.33016763
_cell_length_b   5.37879742
_cell_length_c   7.02039327
_cell_angle_alpha   89.85261357
_cell_angle_beta   90.17020836
_cell_angle_gamma   90.00137418
_symmetry_Int_Tables_number   1
_chemical_formula_structural   Li8Co3NiO8
_chemical_formula_sum   'Li8 Co3 Ni1 O8'
_cell_volume   201.27236203
_cell_formula_units_Z   1
loop_
 _symmetry_equiv_pos_site_id
 _symmetry_equiv_pos_as_xyz
  1  'x, y, z'
loop_
 _atom_site_type_symbol
 _atom_site_label
 _atom_site_symmetry_multiplicity
 _atom_site_fract_x
 _atom_site_fract_y
 _atom_site_fract_z
 _atom_site_occupancy
  Li  Li0  1  0.81024358  0.96732692  0.40613865  1
  Li  Li1  1  0.65235916  0.71666743  0.74240294  1
  Li  Li2  1  0.14976708  0.78374362  0.24825654  1
  Li  Li3  1  0.31382928  0.53331340  0.90821522  1
  Li  Li4  1  0.81550699  0.44895735  0.09457711  1
  Li  Li5  1  0.65799400  0.21899279  0.75871639  1
  Li  Li6  1  0.15577275  0.27768120  0.25811407  1
  Li  Li7  1  0.31807337  0.05145400  0.59438080  1
  Co  Co8  1  0.05299827  0.94872672  0.88740753  1
  Co  Co9  1  0.55019090  0.55036033  0.38784495  1
  Co  Co10  1  0.05102986  0.45345784  0.61151449  1
  Ni  Ni11  1  0.54859899  0.04116830  0.10913038  1
  O  O12  1  0.43315665  0.94311751  0.85611558  1
  O  O13  1  0.45032306  0.91129304  0.36599127  1
  O  O14  1  0.95019604  0.58941037  0.86360376  1
  O  O15  1  0.93105487  0.55715916  0.36057198  1
  O  O16  1  0.43163171  0.43999988  0.63956527  1
  O  O17  1  0.45233725  0.40410808  0.13982148  1
  O  O18  1  0.95240615  0.09285155  0.63677555  1
  O  O19  1  0.92871004  0.06048551  0.13669003  1
