# generated using pymatgen
data_Li3PS4
_symmetry_space_group_name_H-M   'P 1'
_cell_length_a   6.22180521
_cell_length_b   7.92446914
_cell_length_c   13.42311506
_cell_angle_alpha   90.00000000
_cell_angle_beta   90.00000000
_cell_angle_gamma   90.00000000
_symmetry_Int_Tables_number   1
_chemical_formula_structural   Li3PS4
_chemical_formula_sum   'Li12 P4 S16'
_cell_volume   661.82002187
_cell_formula_units_Z   4
loop_
 _symmetry_equiv_pos_site_id
 _symmetry_equiv_pos_as_xyz
  1  'x, y, z'
loop_
 _atom_site_type_symbol
 _atom_site_label
 _atom_site_symmetry_multiplicity
 _atom_site_fract_x
 _atom_site_fract_y
 _atom_site_fract_z
 _atom_site_occupancy
  Li  Li0  1  0.70109603  0.50045800  0.84057259  1
  Li  Li1  1  0.20109603  0.49954200  0.65942741  1
  Li  Li2  1  0.29890397  0.00045800  0.15942741  1
  Li  Li3  1  0.79890397  0.99954200  0.34057259  1
  Li  Li4  1  0.29890397  0.49954200  0.15942741  1
  Li  Li5  1  0.79890397  0.50045800  0.34057259  1
  Li  Li6  1  0.70109603  0.99954200  0.84057259  1
  Li  Li7  1  0.20109603  0.00045800  0.65942741  1
  Li  Li8  1  0.78834647  0.25000000  0.56986153  1
  Li  Li9  1  0.28834647  0.75000000  0.93013847  1
  Li  Li10  1  0.21165353  0.75000000  0.43013847  1
  Li  Li11  1  0.71165353  0.25000000  0.06986153  1
  P  P12  1  0.69571354  0.75000000  0.59252735  1
  P  P13  1  0.80428646  0.75000000  0.09252735  1
  P  P14  1  0.30428646  0.25000000  0.40747365  1
  P  P15  1  0.19571354  0.25000000  0.90747265  1
  S  S16  1  0.63714747  0.25000000  0.40440507  1
  S  S17  1  0.80252330  0.96352395  0.66445016  1
  S  S18  1  0.13714747  0.75000000  0.09559493  1
  S  S19  1  0.36285253  0.75000000  0.59559493  1
  S  S20  1  0.80252330  0.53647605  0.66445016  1
  S  S21  1  0.30252330  0.03647605  0.83554984  1
  S  S22  1  0.19747670  0.46352395  0.33554984  1
  S  S23  1  0.69747670  0.53647605  0.16445016  1
  S  S24  1  0.19747670  0.03647605  0.33554984  1
  S  S25  1  0.69747670  0.96352395  0.16445016  1
  S  S26  1  0.79994908  0.75000000  0.44733769  1
  S  S27  1  0.30252330  0.46352395  0.83554984  1
  S  S28  1  0.70005092  0.75000000  0.94733769  1
  S  S29  1  0.20005092  0.25000000  0.55266231  1
  S  S30  1  0.29994908  0.25000000  0.05266231  1
  S  S31  1  0.86285253  0.25000000  0.90440507  1
