# generated using pymatgen
data_Sr6Ca2MnFe7O20
_symmetry_space_group_name_H-M   'P 1'
_cell_length_a   11.13740944
_cell_length_b   11.46235815
_cell_length_c   17.50850552
_cell_angle_alpha   109.03240471
_cell_angle_beta   108.68104179
_cell_angle_gamma   89.96042923
_symmetry_Int_Tables_number   1
_chemical_formula_structural   Sr6Ca2MnFe7O20
_chemical_formula_sum   'Sr24 Ca8 Mn4 Fe28 O80'
_cell_volume   1988.16683111
_cell_formula_units_Z   4
loop_
 _symmetry_equiv_pos_site_id
 _symmetry_equiv_pos_as_xyz
  1  'x, y, z'
loop_
 _atom_site_type_symbol
 _atom_site_label
 _atom_site_symmetry_multiplicity
 _atom_site_fract_x
 _atom_site_fract_y
 _atom_site_fract_z
 _atom_site_occupancy
  Sr  Sr0  1  0.30624428  0.06160942  0.60911020  1
  Sr  Sr1  1  0.30669527  0.55926751  0.60856707  1
  Sr  Sr2  1  0.80755419  0.06545983  0.60996786  1
  Sr  Sr3  1  0.80884987  0.56191180  0.61007358  1
  Sr  Sr4  1  0.19524812  0.43422253  0.38895207  1
  Sr  Sr5  1  0.19758560  0.43838664  0.89149019  1
  Sr  Sr6  1  0.19548862  0.93573779  0.38805392  1
  Sr  Sr7  1  0.69576942  0.43510219  0.38858695  1
  Sr  Sr8  1  0.69931051  0.44080542  0.89217009  1
  Sr  Sr9  1  0.69594599  0.93486989  0.38922367  1
  Sr  Sr10  1  0.69961100  0.93775362  0.89463740  1
  Sr  Sr11  1  0.05586010  0.29378097  0.10993329  1
  Sr  Sr12  1  0.05865697  0.29777317  0.61062257  1
  Sr  Sr13  1  0.05650223  0.79550748  0.60906774  1
  Sr  Sr14  1  0.55729285  0.29919010  0.60939397  1
  Sr  Sr15  1  0.55459672  0.79403855  0.10989832  1
  Sr  Sr16  1  0.55612439  0.79539875  0.60729170  1
  Sr  Sr17  1  0.44504318  0.20308320  0.38714165  1
  Sr  Sr18  1  0.44734378  0.20366897  0.89259654  1
  Sr  Sr19  1  0.44423312  0.70304179  0.38683389  1
  Sr  Sr20  1  0.44859184  0.70225003  0.89385530  1
  Sr  Sr21  1  0.94498296  0.20365359  0.38723477  1
  Sr  Sr22  1  0.94842729  0.20616580  0.89298140  1
  Sr  Sr23  1  0.94522991  0.70233288  0.38708069  1
  Ca  Ca24  1  0.30238020  0.06621720  0.10465299  1
  Ca  Ca25  1  0.30195829  0.56707951  0.10471628  1
  Ca  Ca26  1  0.80132655  0.06649138  0.10510396  1
  Ca  Ca27  1  0.80166776  0.56798778  0.10503839  1
  Ca  Ca28  1  0.20063626  0.93507815  0.89874459  1
  Ca  Ca29  1  0.05417939  0.78682115  0.10466721  1
  Ca  Ca30  1  0.55376094  0.28808354  0.10546644  1
  Ca  Ca31  1  0.95361623  0.71179067  0.89750944  1
  Mn  Mn32  1  0.11136251  0.60170743  0.75360203  1
  Mn  Mn33  1  0.61462367  0.60112457  0.75192647  1
  Mn  Mn34  1  0.36526277  0.40729882  0.75217194  1
  Mn  Mn35  1  0.35861157  0.90315641  0.75335797  1
  Fe  Fe36  1  0.00811091  0.00058128  0.00445940  1
  Fe  Fe37  1  0.00340255  0.99935585  0.49846310  1
  Fe  Fe38  1  0.00652603  0.50274179  0.00320879  1
  Fe  Fe39  1  0.00301776  0.49998729  0.49997200  1
  Fe  Fe40  1  0.50571135  0.00287360  0.00407682  1
  Fe  Fe41  1  0.50345554  0.00075019  0.49923178  1
  Fe  Fe42  1  0.50672445  0.50049632  0.00459609  1
  Fe  Fe43  1  0.50372469  0.49984738  0.49957783  1
  Fe  Fe44  1  0.25775504  0.25214667  0.00461734  1
  Fe  Fe45  1  0.25354121  0.24926971  0.50028730  1
  Fe  Fe46  1  0.25449674  0.75148998  0.00252832  1
  Fe  Fe47  1  0.25209414  0.74970545  0.49906177  1
  Fe  Fe48  1  0.75646730  0.25366873  0.00534607  1
  Fe  Fe49  1  0.75417097  0.25012977  0.49974352  1
  Fe  Fe50  1  0.75790293  0.75162565  0.00350610  1
  Fe  Fe51  1  0.75377195  0.74877978  0.49939429  1
  Fe  Fe52  1  0.10281579  0.08359691  0.24384737  1
  Fe  Fe53  1  0.11119590  0.08399417  0.75409788  1
  Fe  Fe54  1  0.10409741  0.59081666  0.24610830  1
  Fe  Fe55  1  0.60382908  0.09048995  0.24616712  1
  Fe  Fe56  1  0.61147698  0.08912144  0.75162439  1
  Fe  Fe57  1  0.60312657  0.58417800  0.24493406  1
  Fe  Fe58  1  0.35667147  0.40941921  0.24590594  1
  Fe  Fe59  1  0.35083270  0.90807781  0.24443509  1
  Fe  Fe60  1  0.85104447  0.40811660  0.24429449  1
  Fe  Fe61  1  0.86255857  0.41785411  0.75371857  1
  Fe  Fe62  1  0.85701808  0.90962489  0.24601399  1
  Fe  Fe63  1  0.86227558  0.90620029  0.75220479  1
  O  O64  1  0.12259032  0.12091718  0.49036442  1
  O  O65  1  0.12684921  0.11654500  0.98833862  1
  O  O66  1  0.12250560  0.62145435  0.49068490  1
  O  O67  1  0.12180298  0.62509976  0.99125684  1
  O  O68  1  0.62401315  0.12216228  0.49122005  1
  O  O69  1  0.62609579  0.12547867  0.99449061  1
  O  O70  1  0.62336018  0.62250897  0.49154744  1
  O  O71  1  0.62863563  0.62333287  0.99542975  1
  O  O72  1  0.13832227  0.38246358  0.01477046  1
  O  O73  1  0.12958462  0.37575841  0.50433521  1
  O  O74  1  0.13640352  0.88045328  0.01513177  1
  O  O75  1  0.13067723  0.87774980  0.50649138  1
  O  O76  1  0.63724701  0.38037066  0.01709965  1
  O  O77  1  0.63198533  0.37685403  0.50707264  1
  O  O78  1  0.63830464  0.88379610  0.01457154  1
  O  O79  1  0.63175376  0.87764510  0.50739416  1
  O  O80  1  0.37349974  0.11890519  0.49065890  1
  O  O81  1  0.37421869  0.11980310  0.99293083  1
  O  O82  1  0.37270153  0.62044483  0.49090174  1
  O  O83  1  0.37422977  0.61917638  0.99522776  1
  O  O84  1  0.87388083  0.11898264  0.49141483  1
  O  O85  1  0.87482817  0.11775089  0.99217694  1
  O  O86  1  0.87284931  0.61920895  0.48981659  1
  O  O87  1  0.87894842  0.62249907  0.99266996  1
  O  O88  1  0.38890571  0.38345187  0.01880650  1
  O  O89  1  0.37982061  0.37805926  0.50380664  1
  O  O90  1  0.38212920  0.88775278  0.01418702  1
  O  O91  1  0.38191245  0.88014401  0.50677041  1
  O  O92  1  0.88381083  0.38759200  0.01489093  1
  O  O93  1  0.88056057  0.37814577  0.50527353  1
  O  O94  1  0.88840590  0.88228610  0.01477141  1
  O  O95  1  0.88168070  0.87992319  0.50740137  1
  O  O96  1  0.09124536  0.09837965  0.13808068  1
  O  O97  1  0.08660113  0.09150658  0.64345702  1
  O  O98  1  0.08998014  0.60516303  0.13959136  1
  O  O99  1  0.07146110  0.58478252  0.63519910  1
  O  O100  1  0.58828582  0.10522596  0.13974757  1
  O  O101  1  0.58242649  0.09622523  0.64077143  1
  O  O102  1  0.59198720  0.60023659  0.14034075  1
  O  O103  1  0.57387160  0.58619492  0.63475232  1
  O  O104  1  0.44226499  0.40739211  0.35743637  1
  O  O105  1  0.44395249  0.41382430  0.86950794  1
  O  O106  1  0.43800622  0.90758631  0.35675001  1
  O  O107  1  0.44259022  0.91371941  0.86756096  1
  O  O108  1  0.93701867  0.40705620  0.35577236  1
  O  O109  1  0.94531493  0.40316555  0.86254482  1
  O  O110  1  0.94108140  0.90675887  0.35784438  1
  O  O111  1  0.94629266  0.89429576  0.86136060  1
  O  O112  1  0.33449262  0.28189750  0.14058797  1
  O  O113  1  0.32559169  0.29869150  0.63410539  1
  O  O114  1  0.33380074  0.78234253  0.14030511  1
  O  O115  1  0.32023207  0.80085135  0.63707929  1
  O  O116  1  0.83637909  0.28147227  0.14019210  1
  O  O117  1  0.83714519  0.30059763  0.64175220  1
  O  O118  1  0.83863488  0.78385095  0.14115229  1
  O  O119  1  0.83189040  0.79333788  0.63985132  1
  O  O120  1  0.18739932  0.19781431  0.35487608  1
  O  O121  1  0.19534523  0.20877241  0.86084037  1
  O  O122  1  0.18609572  0.70400895  0.35805035  1
  O  O123  1  0.19421428  0.71182034  0.86868005  1
  O  O124  1  0.68640790  0.20329627  0.35798120  1
  O  O125  1  0.69258640  0.20807869  0.86141280  1
  O  O126  1  0.68739159  0.69922677  0.35675371  1
  O  O127  1  0.69537682  0.70411063  0.86798708  1
  O  O128  1  0.42647907  0.05620135  0.23870272  1
  O  O129  1  0.44204270  0.05258029  0.75139632  1
  O  O130  1  0.42617358  0.55863152  0.23910931  1
  O  O131  1  0.44300360  0.56714722  0.75213968  1
  O  O132  1  0.92634815  0.05896198  0.23914034  1
  O  O133  1  0.93724350  0.05826673  0.75237701  1
  O  O134  1  0.92677662  0.55634962  0.23865309  1
  O  O135  1  0.93257656  0.57560972  0.75997078  1
  O  O136  1  0.18551900  0.44244888  0.24797450  1
  O  O137  1  0.19153637  0.45016861  0.75213145  1
  O  O138  1  0.17430332  0.92882630  0.24006757  1
  O  O139  1  0.18194246  0.93111968  0.75986930  1
  O  O140  1  0.67471550  0.42910562  0.24052322  1
  O  O141  1  0.69207843  0.44292499  0.75083995  1
  O  O142  1  0.68566641  0.94226426  0.24790829  1
  O  O143  1  0.68932616  0.93820618  0.75182161  1
