# generated using pymatgen
data_Zn(FeO2)2
_symmetry_space_group_name_H-M   'P 1'
_cell_length_a   6.05764849
_cell_length_b   6.05764779
_cell_length_c   24.16560599
_cell_angle_alpha   59.91099831
_cell_angle_beta   59.91100210
_cell_angle_gamma   59.99999141
_symmetry_Int_Tables_number   1
_chemical_formula_structural   Zn(FeO2)2
_chemical_formula_sum   'Zn8 Fe16 O32'
_cell_volume   626.18868161
_cell_formula_units_Z   8
loop_
 _symmetry_equiv_pos_site_id
 _symmetry_equiv_pos_as_xyz
  1  'x, y, z'
loop_
 _atom_site_type_symbol
 _atom_site_label
 _atom_site_symmetry_multiplicity
 _atom_site_fract_x
 _atom_site_fract_y
 _atom_site_fract_z
 _atom_site_occupancy
  Zn  Zn0  1  0.00570089  0.00570089  0.99572433  1
  Zn  Zn1  1  0.24988736  0.24988736  0.31258448  1
  Zn  Zn2  1  0.62751615  0.62751615  0.02936288  1
  Zn  Zn3  1  0.24810625  0.24810625  0.56392031  1
  Zn  Zn4  1  0.00035237  0.00035237  0.24973572  1
  Zn  Zn5  1  0.24679331  0.24679331  0.81490502  1
  Zn  Zn6  1  0.00025250  0.00025250  0.49981062  1
  Zn  Zn7  1  0.00239972  0.00239972  0.74820021  1
  Fe  Fe8  1  0.24759174  0.24759174  0.06430619  1
  Fe  Fe9  1  0.12267805  0.62594742  0.15635678  1
  Fe  Fe10  1  0.62594742  0.12267805  0.15635678  1
  Fe  Fe11  1  0.62594742  0.62594742  0.15635678  1
  Fe  Fe12  1  0.12444559  0.62464419  0.40656651  1
  Fe  Fe13  1  0.62464419  0.12444559  0.40656651  1
  Fe  Fe14  1  0.62395639  0.62395639  0.28203271  1
  Fe  Fe15  1  0.62464419  0.62464419  0.40656651  1
  Fe  Fe16  1  0.12454423  0.62447057  0.65662866  1
  Fe  Fe17  1  0.62447057  0.12454423  0.65662866  1
  Fe  Fe18  1  0.62437803  0.62437803  0.53171648  1
  Fe  Fe19  1  0.62447057  0.62447057  0.65662866  1
  Fe  Fe20  1  0.12097402  0.62694311  0.90628494  1
  Fe  Fe21  1  0.62694311  0.12097402  0.90628494  1
  Fe  Fe22  1  0.62439954  0.62439954  0.78170034  1
  Fe  Fe23  1  0.62694311  0.62694311  0.90628494  1
  O  O24  1  0.37456397  0.37456397  0.09874600  1
  O  O25  1  0.38694371  0.38694371  0.20979222  1
  O  O26  1  0.37456397  0.85588808  0.09874600  1
  O  O27  1  0.85588808  0.37456397  0.09874600  1
  O  O28  1  0.38539104  0.38539104  0.34634997  1
  O  O29  1  0.40709859  0.86374846  0.21635112  1
  O  O30  1  0.38539104  0.84381805  0.34634997  1
  O  O31  1  0.38494942  0.38494942  0.46128793  1
  O  O32  1  0.86567347  0.86567347  0.10074490  1
  O  O33  1  0.86374846  0.40709859  0.21635112  1
  O  O34  1  0.84381805  0.38539104  0.34634997  1
  O  O35  1  0.86374846  0.86374846  0.21635112  1
  O  O36  1  0.38575439  0.38575439  0.59630365  1
  O  O37  1  0.40680777  0.86456375  0.46601618  1
  O  O38  1  0.38575439  0.84327663  0.59630365  1
  O  O39  1  0.86456375  0.40680777  0.46601618  1
  O  O40  1  0.38448669  0.38448669  0.71163498  1
  O  O41  1  0.86502818  0.86502818  0.35122886  1
  O  O42  1  0.84327663  0.38575439  0.59630365  1
  O  O43  1  0.86456375  0.86456375  0.46601618  1
  O  O44  1  0.38686053  0.38686053  0.84629183  1
  O  O45  1  0.40682041  0.86500932  0.71579024  1
  O  O46  1  0.38686053  0.84111163  0.84629183  1
  O  O47  1  0.37941486  0.37941486  0.96543885  1
  O  O48  1  0.86500932  0.40682041  0.71579024  1
  O  O49  1  0.86470263  0.86470263  0.60147303  1
  O  O50  1  0.84111163  0.38686053  0.84629183  1
  O  O51  1  0.86500932  0.86500932  0.71579024  1
  O  O52  1  0.40492263  0.87148859  0.96302505  1
  O  O53  1  0.87148859  0.40492263  0.96302505  1
  O  O54  1  0.86631042  0.86631042  0.85026718  1
  O  O55  1  0.87148859  0.87148859  0.96302505  1
