# generated using pymatgen
data_Mg2Cd
_symmetry_space_group_name_H-M   'P 1'
_cell_length_a   3.21414866
_cell_length_b   16.17273951
_cell_length_c   5.09244198
_cell_angle_alpha   90.00000000
_cell_angle_beta   90.00000000
_cell_angle_gamma   90.00000000
_symmetry_Int_Tables_number   1
_chemical_formula_structural   Mg2Cd
_chemical_formula_sum   'Mg8 Cd4'
_cell_volume   264.71322614
_cell_formula_units_Z   4
loop_
 _symmetry_equiv_pos_site_id
 _symmetry_equiv_pos_as_xyz
  1  'x, y, z'
loop_
 _atom_site_type_symbol
 _atom_site_label
 _atom_site_symmetry_multiplicity
 _atom_site_fract_x
 _atom_site_fract_y
 _atom_site_fract_z
 _atom_site_occupancy
  Mg  Mg0  1  0.50000000  0.39064923  0.25000000  1
  Mg  Mg1  1  -0.00000000  0.22121705  0.25000000  1
  Mg  Mg2  1  0.50000000  0.27878295  0.75000000  1
  Mg  Mg3  1  0.00000000  0.10935077  0.75000000  1
  Mg  Mg4  1  0.00000000  0.89064923  0.25000000  1
  Mg  Mg5  1  0.50000000  0.72121705  0.25000000  1
  Mg  Mg6  1  -0.00000000  0.77878295  0.75000000  1
  Mg  Mg7  1  0.50000000  0.60935077  0.75000000  1
  Cd  Cd8  1  0.50000000  0.05644786  0.25000000  1
  Cd  Cd9  1  0.00000000  0.44355214  0.75000000  1
  Cd  Cd10  1  0.00000000  0.55644786  0.25000000  1
  Cd  Cd11  1  0.50000000  0.94355214  0.75000000  1
