# generated using pymatgen
data_LaAsO4
_symmetry_space_group_name_H-M   'P 1'
_cell_length_a   5.24164261
_cell_length_b   5.24164261
_cell_length_c   7.05157182
_cell_angle_alpha   111.81832887
_cell_angle_beta   111.81832887
_cell_angle_gamma   90.00000000
_symmetry_Int_Tables_number   1
_chemical_formula_structural   LaAsO4
_chemical_formula_sum   'La2 As2 O8'
_cell_volume   164.81972388
_cell_formula_units_Z   2
loop_
 _symmetry_equiv_pos_site_id
 _symmetry_equiv_pos_as_xyz
  1  'x, y, z'
loop_
 _atom_site_type_symbol
 _atom_site_label
 _atom_site_symmetry_multiplicity
 _atom_site_fract_x
 _atom_site_fract_y
 _atom_site_fract_z
 _atom_site_occupancy
  La  La0  1  0.62500000  0.87500000  0.25000000  1
  La  La1  1  0.37500000  0.12500000  0.75000000  1
  As  As2  1  0.12500000  0.37500000  0.25000000  1
  As  As3  1  0.87500000  0.62500000  0.75000000  1
  O  O4  1  0.29643380  0.42811170  0.09696384  1
  O  O5  1  0.80053004  0.16885214  0.09696384  1
  O  O6  1  0.92811170  0.30053004  0.59696384  1
  O  O7  1  0.66885214  0.79643380  0.59696384  1
  O  O8  1  0.70356620  0.57188830  0.90303616  1
  O  O9  1  0.19946996  0.83114786  0.90303616  1
  O  O10  1  0.07188830  0.69946996  0.40303616  1
  O  O11  1  0.33114786  0.20356620  0.40303616  1
