# generated using pymatgen
data_Li9Mn7O16
_symmetry_space_group_name_H-M   'P 1'
_cell_length_a   5.35063468
_cell_length_b   6.52143317
_cell_length_c   8.68854621
_cell_angle_alpha   82.67294134
_cell_angle_beta   93.73327377
_cell_angle_gamma   84.98320726
_symmetry_Int_Tables_number   1
_chemical_formula_structural   Li9Mn7O16
_chemical_formula_sum   'Li9 Mn7 O16'
_cell_volume   298.65517351
_cell_formula_units_Z   1
loop_
 _symmetry_equiv_pos_site_id
 _symmetry_equiv_pos_as_xyz
  1  'x, y, z'
loop_
 _atom_site_type_symbol
 _atom_site_label
 _atom_site_symmetry_multiplicity
 _atom_site_fract_x
 _atom_site_fract_y
 _atom_site_fract_z
 _atom_site_occupancy
  Li  Li0  1  0.25465188  0.57529016  0.05582084  1
  Li  Li1  1  0.75021520  0.93541613  0.44035831  1
  Li  Li2  1  0.24262718  0.31486607  0.80915766  1
  Li  Li3  1  0.75737282  0.43513393  0.94084234  1
  Li  Li4  1  0.24978480  0.81458387  0.30964169  1
  Li  Li5  1  0.74534812  0.17470984  0.69417916  1
  Li  Li6  1  0.75347972  0.68391214  0.18661646  1
  Li  Li7  1  0.24652028  0.06608786  0.56338354  1
  Li  Li8  1  0.50000000  0.87500000  0.87500000  1
  Mn  Mn9  1  0.99996182  0.99859344  0.99882926  1
  Mn  Mn10  1  0.00003818  0.75140656  0.75117074  1
  Mn  Mn11  1  0.50000000  0.37500000  0.37500000  1
  Mn  Mn12  1  0.49970615  0.12278349  0.12140294  1
  Mn  Mn13  1  0.99944115  0.50085834  0.50044632  1
  Mn  Mn14  1  0.00055885  0.24914166  0.24955368  1
  Mn  Mn15  1  0.50029385  0.62721651  0.62859706  1
  O  O16  1  0.89705712  0.73030729  0.96177393  1
  O  O17  1  0.39532361  0.10386246  0.33866103  1
  O  O18  1  0.89185424  0.48191596  0.71412113  1
  O  O19  1  0.34088068  0.61212037  0.82403874  1
  O  O20  1  0.89069103  0.97726072  0.21077304  1
  O  O21  1  0.39630337  0.34969732  0.59037409  1
  O  O22  1  0.34039137  0.87428694  0.08357357  1
  O  O23  1  0.89636557  0.22887169  0.46259599  1
  O  O24  1  0.60369663  0.40030268  0.15962591  1
  O  O25  1  0.10930897  0.77273928  0.53922696  1
  O  O26  1  0.65911932  0.13787963  0.92596126  1
  O  O27  1  0.10814576  0.26808404  0.03587887  1
  O  O28  1  0.60467639  0.64613754  0.41133897  1
  O  O29  1  0.10294288  0.01969271  0.78822607  1
  O  O30  1  0.10363443  0.52112831  0.28740401  1
  O  O31  1  0.65960863  0.87571306  0.66642643  1
