# generated using pymatgen
data_Na3Fe5O8
_symmetry_space_group_name_H-M   'P 1'
_cell_length_a   8.72514135
_cell_length_b   8.85311509
_cell_length_c   8.88614073
_cell_angle_alpha   90.52423834
_cell_angle_beta   90.43213384
_cell_angle_gamma   89.54316683
_symmetry_Int_Tables_number   1
_chemical_formula_structural   Na3Fe5O8
_chemical_formula_sum   'Na12 Fe20 O32'
_cell_volume   686.33740375
_cell_formula_units_Z   4
loop_
 _symmetry_equiv_pos_site_id
 _symmetry_equiv_pos_as_xyz
  1  'x, y, z'
loop_
 _atom_site_type_symbol
 _atom_site_label
 _atom_site_symmetry_multiplicity
 _atom_site_fract_x
 _atom_site_fract_y
 _atom_site_fract_z
 _atom_site_occupancy
  Na  Na0  1  0.12599496  0.12250768  0.13035323  1
  Na  Na1  1  0.12589584  0.62631843  0.62562638  1
  Na  Na2  1  0.12391486  0.37192220  0.37275785  1
  Na  Na3  1  0.12535308  0.87901826  0.37335297  1
  Na  Na4  1  0.13061174  0.87693725  0.87592938  1
  Na  Na5  1  0.37012825  0.12711502  0.37456398  1
  Na  Na6  1  0.37413537  0.12203501  0.87452535  1
  Na  Na7  1  0.37559094  0.62766881  0.87188921  1
  Na  Na8  1  0.61604349  0.12518590  0.62487358  1
  Na  Na9  1  0.62637879  0.62401269  0.12292558  1
  Na  Na10  1  0.62119650  0.62522688  0.62641902  1
  Na  Na11  1  0.87651273  0.37087986  0.12699749  1
  Fe  Fe12  1  0.12265715  0.12354786  0.62023815  1
  Fe  Fe13  1  0.12803810  0.62778791  0.12662116  1
  Fe  Fe14  1  0.13258122  0.37272060  0.87538076  1
  Fe  Fe15  1  0.38063432  0.36771131  0.12368305  1
  Fe  Fe16  1  0.37448845  0.37494765  0.62145157  1
  Fe  Fe17  1  0.36444556  0.62426207  0.37758517  1
  Fe  Fe18  1  0.37532672  0.87843467  0.12597777  1
  Fe  Fe19  1  0.36936353  0.87835511  0.62603275  1
  Fe  Fe20  1  0.62482656  0.12644054  0.12738073  1
  Fe  Fe21  1  0.62416927  0.38068554  0.37702083  1
  Fe  Fe22  1  0.62137046  0.37522014  0.87164787  1
  Fe  Fe23  1  0.62498399  0.86929995  0.37852074  1
  Fe  Fe24  1  0.62427868  0.87313894  0.87432618  1
  Fe  Fe25  1  0.87217872  0.12621103  0.37564558  1
  Fe  Fe26  1  0.87163652  0.36881246  0.62216750  1
  Fe  Fe27  1  0.87526306  0.62372685  0.37669744  1
  Fe  Fe28  1  0.87518389  0.12498214  0.87903318  1
  Fe  Fe29  1  0.87366325  0.62190115  0.86070652  1
  Fe  Fe30  1  0.87876044  0.87773733  0.12673585  1
  Fe  Fe31  1  0.87567266  0.87797596  0.62434720  1
  O  O32  1  0.14992304  0.38607709  0.10337718  1
  O  O33  1  0.14313647  0.85526962  0.12128380  1
  O  O34  1  0.13520986  0.36242446  0.64599024  1
  O  O35  1  0.12232966  0.89253774  0.62758643  1
  O  O36  1  0.09805037  0.12918919  0.39791150  1
  O  O37  1  0.10505966  0.14980815  0.86405023  1
  O  O38  1  0.11980267  0.62208270  0.35646293  1
  O  O39  1  0.09988043  0.60258472  0.89218284  1
  O  O40  1  0.35113150  0.10696965  0.62226280  1
  O  O41  1  0.39961940  0.13898089  0.12605338  1
  O  O42  1  0.39174544  0.39545984  0.36678608  1
  O  O43  1  0.38152676  0.37790341  0.88396035  1
  O  O44  1  0.36237005  0.61646454  0.14530204  1
  O  O45  1  0.37001159  0.64022771  0.59710524  1
  O  O46  1  0.39683190  0.85593070  0.38410979  1
  O  O47  1  0.39985758  0.87213035  0.85014177  1
  O  O48  1  0.63811364  0.12185718  0.35159502  1
  O  O49  1  0.61161532  0.35726341  0.11686103  1
  O  O50  1  0.61095347  0.37157367  0.64215758  1
  O  O51  1  0.63944188  0.63084201  0.37064728  1
  O  O52  1  0.64181008  0.14137540  0.90075629  1
  O  O53  1  0.65152528  0.60526892  0.87893433  1
  O  O54  1  0.61530080  0.89509782  0.13490804  1
  O  O55  1  0.62977660  0.87943406  0.60775740  1
  O  O56  1  0.88242522  0.10935189  0.63043116  1
  O  O57  1  0.85400462  0.10522145  0.12584119  1
  O  O58  1  0.85707190  0.39604921  0.39433133  1
  O  O59  1  0.89354933  0.64260271  0.13843367  1
  O  O60  1  0.87813723  0.64382304  0.62346574  1
  O  O61  1  0.87057076  0.38713104  0.85734044  1
  O  O62  1  0.85785405  0.85860274  0.38994555  1
  O  O63  1  0.86008833  0.85773646  0.86061131  1
