# generated using pymatgen
data_Mn3Ge5
_symmetry_space_group_name_H-M   'P 1'
_cell_length_a   5.70424324
_cell_length_b   5.70424324
_cell_length_c   13.82889009
_cell_angle_alpha   90.00000000
_cell_angle_beta   90.00000000
_cell_angle_gamma   90.00000000
_symmetry_Int_Tables_number   1
_chemical_formula_structural   Mn3Ge5
_chemical_formula_sum   'Mn12 Ge20'
_cell_volume   449.96983203
_cell_formula_units_Z   4
loop_
 _symmetry_equiv_pos_site_id
 _symmetry_equiv_pos_as_xyz
  1  'x, y, z'
loop_
 _atom_site_type_symbol
 _atom_site_label
 _atom_site_symmetry_multiplicity
 _atom_site_fract_x
 _atom_site_fract_y
 _atom_site_fract_z
 _atom_site_occupancy
  Mn  Mn0  1  0.50000000  0.00000000  0.74984041  1
  Mn  Mn1  1  -0.00000000  0.50000000  0.25015959  1
  Mn  Mn2  1  -0.00000000  0.00000000  -0.00000000  1
  Mn  Mn3  1  0.50000000  0.50000000  0.50000000  1
  Mn  Mn4  1  0.50000000  0.00000000  0.08697776  1
  Mn  Mn5  1  -0.00000000  0.50000000  0.91302224  1
  Mn  Mn6  1  -0.00000000  0.50000000  0.58691019  1
  Mn  Mn7  1  0.50000000  0.00000000  0.41308981  1
  Mn  Mn8  1  -0.00000000  0.00000000  0.32784304  1
  Mn  Mn9  1  -0.00000000  0.00000000  0.67215696  1
  Mn  Mn10  1  0.50000000  0.50000000  0.82784230  1
  Mn  Mn11  1  0.50000000  0.50000000  0.17215770  1
  Ge  Ge12  1  0.67113011  0.17120213  0.24997326  1
  Ge  Ge13  1  0.82879787  0.67113011  0.75002674  1
  Ge  Ge14  1  0.32886989  0.82879787  0.24997326  1
  Ge  Ge15  1  0.17120213  0.32886989  0.75002674  1
  Ge  Ge16  1  0.15995714  0.19514000  0.15085722  1
  Ge  Ge17  1  0.80486000  0.15995714  0.84914278  1
  Ge  Ge18  1  0.84004286  0.80486000  0.15085722  1
  Ge  Ge19  1  0.19514000  0.84004286  0.84914278  1
  Ge  Ge20  1  0.34018111  0.69465261  0.65084249  1
  Ge  Ge21  1  0.69465261  0.65981889  0.34915751  1
  Ge  Ge22  1  0.65981889  0.30534739  0.65084249  1
  Ge  Ge23  1  0.30534739  0.34018111  0.34915751  1
  Ge  Ge24  1  0.34327365  0.23320468  0.94971402  1
  Ge  Ge25  1  0.76679532  0.34327365  0.05028598  1
  Ge  Ge26  1  0.65672635  0.76679532  0.94971402  1
  Ge  Ge27  1  0.23320468  0.65672635  0.05028598  1
  Ge  Ge28  1  0.15703363  0.73307501  0.44976852  1
  Ge  Ge29  1  0.73307501  0.84296637  0.55023148  1
  Ge  Ge30  1  0.84296637  0.26692499  0.44976852  1
  Ge  Ge31  1  0.26692499  0.15703363  0.55023148  1
