# generated using pymatgen
data_NClO
_symmetry_space_group_name_H-M   'P 1'
_cell_length_a   6.10088327
_cell_length_b   6.33895114
_cell_length_c   6.82541434
_cell_angle_alpha   109.07531284
_cell_angle_beta   90.00000000
_cell_angle_gamma   90.00000000
_symmetry_Int_Tables_number   1
_chemical_formula_structural   NClO
_chemical_formula_sum   'N4 Cl4 O4'
_cell_volume   249.46649345
_cell_formula_units_Z   4
loop_
 _symmetry_equiv_pos_site_id
 _symmetry_equiv_pos_as_xyz
  1  'x, y, z'
loop_
 _atom_site_type_symbol
 _atom_site_label
 _atom_site_symmetry_multiplicity
 _atom_site_fract_x
 _atom_site_fract_y
 _atom_site_fract_z
 _atom_site_occupancy
  N  N0  1  0.84245841  0.58722606  0.35380896  1
  N  N1  1  0.34245841  0.91277394  0.14619104  1
  N  N2  1  0.15754159  0.41277394  0.64619104  1
  N  N3  1  0.65754159  0.08722606  0.85380896  1
  Cl  Cl4  1  0.37079600  0.26578366  0.08301715  1
  Cl  Cl5  1  0.87079600  0.23421634  0.41698285  1
  Cl  Cl6  1  0.62920400  0.73421634  0.91698285  1
  Cl  Cl7  1  0.12920400  0.76578366  0.58301715  1
  O  O8  1  0.67719539  0.67117368  0.40333346  1
  O  O9  1  0.17719539  0.82882632  0.09666654  1
  O  O10  1  0.32280461  0.32882632  0.59666654  1
  O  O11  1  0.82280461  0.17117368  0.90333346  1
