# generated using pymatgen
data_Na2CO3
_symmetry_space_group_name_H-M   'P 1'
_cell_length_a   5.29514747
_cell_length_b   5.29514747
_cell_length_c   6.28515531
_cell_angle_alpha   85.06998036
_cell_angle_beta   85.06998036
_cell_angle_gamma   59.87865255
_symmetry_Int_Tables_number   1
_chemical_formula_structural   Na2CO3
_chemical_formula_sum   'Na4 C2 O6'
_cell_volume   151.67853865
_cell_formula_units_Z   2
loop_
 _symmetry_equiv_pos_site_id
 _symmetry_equiv_pos_as_xyz
  1  'x, y, z'
loop_
 _atom_site_type_symbol
 _atom_site_label
 _atom_site_symmetry_multiplicity
 _atom_site_fract_x
 _atom_site_fract_y
 _atom_site_fract_z
 _atom_site_occupancy
  Na  Na0  1  -0.00000000  -0.00000000  0.00000000  1
  Na  Na1  1  -0.00000000  -0.00000000  0.50000000  1
  Na  Na2  1  0.32621485  0.32621485  0.77132941  1
  Na  Na3  1  0.67378515  0.67378515  0.22867059  1
  C  C4  1  0.33033532  0.33033532  0.24519303  1
  C  C5  1  0.66966468  0.66966468  0.75480697  1
  O  O6  1  0.18550980  0.61226132  0.26037240  1
  O  O7  1  0.61226132  0.18550980  0.26037240  1
  O  O8  1  0.81449020  0.38773868  0.73962760  1
  O  O9  1  0.38773868  0.81449020  0.73962760  1
  O  O10  1  0.19248333  0.19248333  0.21166683  1
  O  O11  1  0.80751667  0.80751667  0.78833317  1
