# generated using pymatgen
data_Na2U(TeO5)2
_symmetry_space_group_name_H-M   'P 1'
_cell_length_a   3.93485901
_cell_length_b   6.76732083
_cell_length_c   8.60818521
_cell_angle_alpha   91.54760131
_cell_angle_beta   90.00000005
_cell_angle_gamma   106.90136915
_symmetry_Int_Tables_number   1
_chemical_formula_structural   Na2U(TeO5)2
_chemical_formula_sum   'Na2 U1 Te2 O10'
_cell_volume   219.23437147
_cell_formula_units_Z   1
loop_
 _symmetry_equiv_pos_site_id
 _symmetry_equiv_pos_as_xyz
  1  'x, y, z'
loop_
 _atom_site_type_symbol
 _atom_site_label
 _atom_site_symmetry_multiplicity
 _atom_site_fract_x
 _atom_site_fract_y
 _atom_site_fract_z
 _atom_site_occupancy
  Na  Na0  1  0.09260350  0.18520700  0.93107953  1
  Na  Na1  1  0.52742349  0.05484698  0.49942302  1
  U  U2  1  0.80993040  0.61986081  0.71810933  1
  Te  Te3  1  0.23959096  0.47918193  0.36385565  1
  Te  Te4  1  0.37788925  0.75577850  0.07183259  1
  O  O5  1  0.95042105  0.90084209  0.68966140  1
  O  O6  1  0.22765163  0.45530326  0.13549718  1
  O  O7  1  0.85957310  0.71914620  0.02435677  1
  O  O8  1  0.66930145  0.33860291  0.74917718  1
  O  O9  1  0.10133744  0.20267488  0.40209506  1
  O  O10  1  0.30001604  0.60003209  0.57475907  1
  O  O11  1  0.38953557  0.77907113  0.30031628  1
  O  O12  1  0.51641736  0.03283471  0.03537479  1
  O  O13  1  0.31861403  0.63722807  0.86052460  1
  O  O14  1  0.75641472  0.51282944  0.41051754  1
