# generated using pymatgen
data_LaIr3
_symmetry_space_group_name_H-M   'P 1'
_cell_length_a   5.43623209
_cell_length_b   5.43623209
_cell_length_c   9.40449125
_cell_angle_alpha   73.20051277
_cell_angle_beta   73.20051277
_cell_angle_gamma   60.00000227
_symmetry_Int_Tables_number   1
_chemical_formula_structural   LaIr3
_chemical_formula_sum   'La3 Ir9'
_cell_volume   226.89250843
_cell_formula_units_Z   3
loop_
 _symmetry_equiv_pos_site_id
 _symmetry_equiv_pos_as_xyz
  1  'x, y, z'
loop_
 _atom_site_type_symbol
 _atom_site_label
 _atom_site_symmetry_multiplicity
 _atom_site_fract_x
 _atom_site_fract_y
 _atom_site_fract_z
 _atom_site_occupancy
  La  La0  1  0.13981375  0.13981375  0.58055874  1
  La  La1  1  0.86018625  0.86018625  0.41944126  1
  La  La2  1  0.00000000  0.00000000  -0.00000000  1
  Ir  Ir3  1  0.08548893  0.57741226  0.75968655  1
  Ir  Ir4  1  0.57741226  0.57741226  0.75968655  1
  Ir  Ir5  1  0.57741226  0.08548893  0.75968655  1
  Ir  Ir6  1  0.91451107  0.42258774  0.24031345  1
  Ir  Ir7  1  0.42258774  0.42258774  0.24031345  1
  Ir  Ir8  1  0.42258774  0.91451107  0.24031345  1
  Ir  Ir9  1  0.33154219  0.33154219  0.00537343  1
  Ir  Ir10  1  0.66845781  0.66845781  0.99462657  1
  Ir  Ir11  1  0.50000000  0.50000000  0.50000000  1
