# generated using pymatgen
data_Li2VO2F
_symmetry_space_group_name_H-M   'P 1'
_cell_length_a   2.99092101
_cell_length_b   5.10108627
_cell_length_c   7.20666944
_cell_angle_alpha   90.88936701
_cell_angle_beta   90.00000000
_cell_angle_gamma   90.00000000
_symmetry_Int_Tables_number   1
_chemical_formula_structural   Li2VO2F
_chemical_formula_sum   'Li4 V2 O4 F2'
_cell_volume   109.93852143
_cell_formula_units_Z   2
loop_
 _symmetry_equiv_pos_site_id
 _symmetry_equiv_pos_as_xyz
  1  'x, y, z'
loop_
 _atom_site_type_symbol
 _atom_site_label
 _atom_site_symmetry_multiplicity
 _atom_site_fract_x
 _atom_site_fract_y
 _atom_site_fract_z
 _atom_site_occupancy
  Li  Li0  1  0.00000000  0.33198899  0.65678687  1
  Li  Li1  1  0.00000000  0.66666700  0.33333300  1
  Li  Li2  1  0.50000000  0.16666700  0.33333300  1
  Li  Li3  1  0.00000000  0.00134401  0.00988013  1
  V  V4  1  0.50000000  0.86608714  0.67449630  1
  V  V5  1  0.50000000  0.46724586  0.99217070  1
  O  O6  1  0.00000000  0.66666700  0.83333300  1
  O  O7  1  0.50000000  0.16666700  0.83333300  1
  O  O8  1  0.00000000  0.34476883  0.15629301  1
  O  O9  1  0.00000000  0.98856417  0.51037399  1
  F  F10  1  0.50000000  0.51366655  0.50568935  1
  F  F11  1  0.50000000  0.81966645  0.16097665  1
