# generated using pymatgen
data_LiMnP2O7
_symmetry_space_group_name_H-M   'P 1'
_cell_length_a   7.16960824
_cell_length_b   8.37461721
_cell_length_c   9.75549004
_cell_angle_alpha   90.00004317
_cell_angle_beta   112.46493957
_cell_angle_gamma   90.00006758
_symmetry_Int_Tables_number   1
_chemical_formula_structural   LiMnP2O7
_chemical_formula_sum   'Li4 Mn4 P8 O28'
_cell_volume   541.29599034
_cell_formula_units_Z   4
loop_
 _symmetry_equiv_pos_site_id
 _symmetry_equiv_pos_as_xyz
  1  'x, y, z'
loop_
 _atom_site_type_symbol
 _atom_site_label
 _atom_site_symmetry_multiplicity
 _atom_site_fract_x
 _atom_site_fract_y
 _atom_site_fract_z
 _atom_site_occupancy
  Li  Li0  1  0.32872684  0.11266940  0.75265543  1
  Li  Li1  1  0.32873317  0.38733218  0.25265728  1
  Li  Li2  1  0.67127071  0.61267087  0.74734047  1
  Li  Li3  1  0.67126870  0.88733103  0.24734262  1
  Mn  Mn4  1  0.26423992  0.49702081  0.75211566  1
  Mn  Mn5  1  0.26422272  0.00296802  0.25210103  1
  Mn  Mn6  1  0.73573864  0.99703995  0.74791191  1
  Mn  Mn7  1  0.73578321  0.50296186  0.24790175  1
  P  P8  1  0.90996648  0.77423432  0.04613966  1
  P  P9  1  0.90996458  0.72576293  0.54614176  1
  P  P10  1  0.67905473  0.19205041  0.44991254  1
  P  P11  1  0.32094668  0.69205273  0.05009086  1
  P  P12  1  0.09003511  0.22576314  0.95385865  1
  P  P13  1  0.09003407  0.27423649  0.45386021  1
  P  P14  1  0.67906311  0.30794998  0.94991163  1
  P  P15  1  0.32093931  0.80794559  0.55008643  1
  O  O16  1  0.09705059  0.66399819  0.05034307  1
  O  O17  1  0.78663479  0.67154215  0.10647474  1
  O  O18  1  0.90295104  0.16399693  0.44965624  1
  O  O19  1  0.98848654  0.57359054  0.63819171  1
  O  O20  1  0.01151592  0.07359130  0.86180671  1
  O  O21  1  0.21336591  0.32845930  0.89352364  1
  O  O22  1  0.09705501  0.83600616  0.55034318  1
  O  O23  1  0.01152537  0.42640999  0.36180905  1
  O  O24  1  0.30605941  0.67495242  0.88964952  1
  O  O25  1  0.21488260  0.30908194  0.61977381  1
  O  O26  1  0.21336793  0.17154124  0.39352208  1
  O  O27  1  0.98847283  0.92640744  0.13818769  1
  O  O28  1  0.39030253  0.64154596  0.61052247  1
  O  O29  1  0.30605684  0.82504754  0.38964775  1
  O  O30  1  0.56166785  0.44384873  0.84544295  1
  O  O31  1  0.21488003  0.19092115  0.11977094  1
  O  O32  1  0.43833204  0.94385135  0.65455616  1
  O  O33  1  0.60970105  0.14154420  0.88947935  1
  O  O34  1  0.69394267  0.32504395  0.11034578  1
  O  O35  1  0.56165941  0.05614904  0.34543915  1
  O  O36  1  0.78511729  0.80907991  0.88022709  1
  O  O37  1  0.43834068  0.55614907  0.15455704  1
  O  O38  1  0.69394125  0.17495192  0.61034931  1
  O  O39  1  0.60970310  0.35845726  0.38947589  1
  O  O40  1  0.90294671  0.33600592  0.94965552  1
  O  O41  1  0.78663180  0.82846393  0.60647736  1
  O  O42  1  0.78512031  0.69091717  0.38022353  1
  O  O43  1  0.39029753  0.85845763  0.11052037  1
