# generated using pymatgen
data_V3Pb2O9
_symmetry_space_group_name_H-M   'P 1'
_cell_length_a   9.13167429
_cell_length_b   7.48406136
_cell_length_c   12.66847745
_cell_angle_alpha   86.68228749
_cell_angle_beta   69.97846166
_cell_angle_gamma   77.91183703
_symmetry_Int_Tables_number   1
_chemical_formula_structural   V3Pb2O9
_chemical_formula_sum   'V12 Pb8 O36'
_cell_volume   795.33696024
_cell_formula_units_Z   4
loop_
 _symmetry_equiv_pos_site_id
 _symmetry_equiv_pos_as_xyz
  1  'x, y, z'
loop_
 _atom_site_type_symbol
 _atom_site_label
 _atom_site_symmetry_multiplicity
 _atom_site_fract_x
 _atom_site_fract_y
 _atom_site_fract_z
 _atom_site_occupancy
  V  V0  1  0.63583372  0.69368414  0.04526624  1
  V  V1  1  0.86753855  0.80635817  0.45322189  1
  V  V2  1  0.98867346  0.08609125  0.17193655  1
  V  V3  1  0.24588728  0.72536828  0.24736656  1
  V  V4  1  0.51311762  0.41333865  0.32809313  1
  V  V5  1  0.74429947  0.77897813  0.74732180  1
  V  V6  1  0.25570053  0.22102187  0.25267820  1
  V  V7  1  0.48688238  0.58666135  0.67190687  1
  V  V8  1  0.75411272  0.27463172  0.75263344  1
  V  V9  1  0.01132654  0.91390875  0.82806345  1
  V  V10  1  0.13246145  0.19364183  0.54677811  1
  V  V11  1  0.36416628  0.30631586  0.95473376  1
  Pb  Pb12  1  0.94238589  0.59417146  0.15855197  1
  Pb  Pb13  1  0.56241703  0.90060728  0.34201697  1
  Pb  Pb14  1  0.70734434  0.17208157  0.05306682  1
  Pb  Pb15  1  0.79261861  0.32704842  0.44822424  1
  Pb  Pb16  1  0.20738139  0.67295158  0.55177576  1
  Pb  Pb17  1  0.29265566  0.82791843  0.94693318  1
  Pb  Pb18  1  0.43758297  0.09939272  0.65798303  1
  Pb  Pb19  1  0.05761411  0.40582854  0.84144803  1
  O  O20  1  0.68323057  0.81036826  0.14114092  1
  O  O21  1  0.76055401  0.48092611  0.02527180  1
  O  O22  1  0.43138673  0.69058520  0.10236601  1
  O  O23  1  0.81846958  0.68889831  0.35823429  1
  O  O24  1  0.30147161  0.98902565  0.26865541  1
  O  O25  1  0.11603389  0.86242299  0.15647698  1
  O  O26  1  0.70440411  0.44097947  0.27010676  1
  O  O27  1  0.83570356  0.69943806  0.58350146  1
  O  O28  1  0.38740794  0.63793714  0.34108048  1
  O  O29  1  0.33193328  0.19813363  0.08434299  1
  O  O30  1  0.79811405  0.05642880  0.22962080  1
  O  O31  1  0.97002089  0.76110834  0.74240824  1
  O  O32  1  0.25728108  0.98141268  0.52700375  1
  O  O33  1  0.19871453  0.51894090  0.23587043  1
  O  O34  1  0.47183931  0.26245864  0.24214805  1
  O  O35  1  0.50405015  0.67952236  0.54294058  1
  O  O36  1  0.07130596  0.81170507  0.39461307  1
  O  O37  1  0.00429777  0.17925928  0.04353386  1
  O  O38  1  0.99570223  0.82074072  0.95646614  1
  O  O39  1  0.92869404  0.18829493  0.60538693  1
  O  O40  1  0.49594985  0.32047764  0.45705942  1
  O  O41  1  0.52816069  0.73754136  0.75785195  1
  O  O42  1  0.80128547  0.48105910  0.76412957  1
  O  O43  1  0.74271892  0.01858732  0.47299625  1
  O  O44  1  0.02997911  0.23889166  0.25759176  1
  O  O45  1  0.20188595  0.94357120  0.77037920  1
  O  O46  1  0.66806672  0.80186637  0.91565701  1
  O  O47  1  0.61259206  0.36206286  0.65891952  1
  O  O48  1  0.16429644  0.30056194  0.41649854  1
  O  O49  1  0.29559589  0.55902053  0.72989324  1
  O  O50  1  0.88396611  0.13757701  0.84352302  1
  O  O51  1  0.69852839  0.01097435  0.73134459  1
  O  O52  1  0.18153042  0.31110169  0.64176571  1
  O  O53  1  0.56861327  0.30941480  0.89763399  1
  O  O54  1  0.23944599  0.51907389  0.97472820  1
  O  O55  1  0.31676943  0.18963174  0.85885908  1
