# generated using pymatgen
data_ErCo4B
_symmetry_space_group_name_H-M   'P 1'
_cell_length_a   4.96765775
_cell_length_b   4.96718893
_cell_length_c   6.84384259
_cell_angle_alpha   90.00000000
_cell_angle_beta   90.00000000
_cell_angle_gamma   120.00311786
_symmetry_Int_Tables_number   1
_chemical_formula_structural   ErCo4B
_chemical_formula_sum   'Er2 Co8 B2'
_cell_volume   146.24443350
_cell_formula_units_Z   2
loop_
 _symmetry_equiv_pos_site_id
 _symmetry_equiv_pos_as_xyz
  1  'x, y, z'
loop_
 _atom_site_type_symbol
 _atom_site_label
 _atom_site_symmetry_multiplicity
 _atom_site_fract_x
 _atom_site_fract_y
 _atom_site_fract_z
 _atom_site_occupancy
  Er  Er0  1  0.99995848  0.00000000  0.00000000  1
  Er  Er1  1  -0.00002116  1.00000000  0.50000000  1
  Co  Co2  1  0.33327322  0.66661021  0.00000000  1
  Co  Co3  1  0.66666301  0.33338979  0.00000000  1
  Co  Co4  1  0.50001223  0.00000000  0.28812946  1
  Co  Co5  1  0.49999009  0.50001692  0.28814270  1
  Co  Co6  1  0.99997318  0.49998308  0.28814270  1
  Co  Co7  1  0.50001223  0.00000000  0.71187054  1
  Co  Co8  1  0.49999009  0.50001692  0.71185730  1
  Co  Co9  1  0.99997318  0.49998308  0.71185730  1
  B  B10  1  0.33331967  0.66666390  0.50000000  1
  B  B11  1  0.66665577  0.33333610  0.50000000  1
