# generated using pymatgen
data_TiFe2O5
_symmetry_space_group_name_H-M   'P 1'
_cell_length_a   7.55061212
_cell_length_b   5.33317590
_cell_length_c   10.05424976
_cell_angle_alpha   89.75200954
_cell_angle_beta   89.99924985
_cell_angle_gamma   69.25927276
_symmetry_Int_Tables_number   1
_chemical_formula_structural   TiFe2O5
_chemical_formula_sum   'Ti4 Fe8 O20'
_cell_volume   378.62922161
_cell_formula_units_Z   4
loop_
 _symmetry_equiv_pos_site_id
 _symmetry_equiv_pos_as_xyz
  1  'x, y, z'
loop_
 _atom_site_type_symbol
 _atom_site_label
 _atom_site_symmetry_multiplicity
 _atom_site_fract_x
 _atom_site_fract_y
 _atom_site_fract_z
 _atom_site_occupancy
  Ti  Ti0  1  0.06624479  0.73326138  0.05951423  1
  Ti  Ti1  1  0.43274321  0.26178121  0.55959568  1
  Ti  Ti2  1  0.56670736  0.73887291  0.06060268  1
  Ti  Ti3  1  0.90714754  0.37228135  0.25385566  1
  Fe  Fe4  1  0.09551053  0.62246457  0.74788424  1
  Fe  Fe5  1  0.06849597  0.72657270  0.44021801  1
  Fe  Fe6  1  0.43127988  0.27446467  0.93232214  1
  Fe  Fe7  1  0.40515347  0.38255900  0.25141181  1
  Fe  Fe8  1  0.59428592  0.61284110  0.75029426  1
  Fe  Fe9  1  0.56872217  0.72208510  0.43826582  1
  Fe  Fe10  1  0.93037672  0.27617877  0.56432645  1
  Fe  Fe11  1  0.93097354  0.27878681  0.93134114  1
  O  O12  1  0.16240907  0.37758229  0.57083363  1
  O  O13  1  0.15244736  0.39367825  0.93604083  1
  O  O14  1  0.11350874  0.51418842  0.24402336  1
  O  O15  1  0.02395383  0.90352588  0.61482534  1
  O  O16  1  0.02840917  0.89731048  0.89007405  1
  O  O17  1  0.48091584  0.10137827  0.38772749  1
  O  O18  1  0.48042339  0.08691401  0.11788010  1
  O  O19  1  0.38145574  0.46696819  0.74965512  1
  O  O20  1  0.34181647  0.63303001  0.07956393  1
  O  O21  1  0.34602638  0.61710536  0.41980398  1
  O  O22  1  0.64654217  0.38310515  0.57304878  1
  O  O23  1  0.65257608  0.38861821  0.93254357  1
  O  O24  1  0.63083406  0.51371061  0.24387057  1
  O  O25  1  0.51741814  0.91163970  0.61897254  1
  O  O26  1  0.52263560  0.89380458  0.88781476  1
  O  O27  1  0.97281095  0.10139587  0.37816060  1
  O  O28  1  0.97729429  0.09498782  0.11870506  1
  O  O29  1  0.88191493  0.47425182  0.74914327  1
  O  O30  1  0.84667865  0.61062325  0.42424631  1
  O  O31  1  0.84228807  0.63403225  0.07343460  1
