# generated using pymatgen
data_Yb(GaS2)2
_symmetry_space_group_name_H-M   'P 1'
_cell_length_a   5.86460879
_cell_length_b   5.86460879
_cell_length_c   10.09137613
_cell_angle_alpha   90.00000000
_cell_angle_beta   90.00000000
_cell_angle_gamma   117.98766359
_symmetry_Int_Tables_number   1
_chemical_formula_structural   Yb(GaS2)2
_chemical_formula_sum   'Yb2 Ga4 S8'
_cell_volume   306.48774948
_cell_formula_units_Z   2
loop_
 _symmetry_equiv_pos_site_id
 _symmetry_equiv_pos_as_xyz
  1  'x, y, z'
loop_
 _atom_site_type_symbol
 _atom_site_label
 _atom_site_symmetry_multiplicity
 _atom_site_fract_x
 _atom_site_fract_y
 _atom_site_fract_z
 _atom_site_occupancy
  Yb  Yb0  1  0.50000000  0.50000000  0.25000000  1
  Yb  Yb1  1  0.50000000  0.50000000  0.75000000  1
  Ga  Ga2  1  0.76457550  0.23095995  0.50000000  1
  Ga  Ga3  1  0.23542450  0.76904005  0.50000000  1
  Ga  Ga4  1  0.76904005  0.23542450  0.00000000  1
  Ga  Ga5  1  0.23095995  0.76457550  0.00000000  1
  S  S6  1  0.80419417  0.64706878  0.50000000  1
  S  S7  1  0.19580583  0.35293122  0.50000000  1
  S  S8  1  0.35293122  0.19580583  0.00000000  1
  S  S9  1  0.64706878  0.80419417  0.00000000  1
  S  S10  1  0.00000000  0.50000000  0.17307274  1
  S  S11  1  0.50000000  0.00000000  0.32692726  1
  S  S12  1  0.00000000  0.50000000  0.82692726  1
  S  S13  1  0.50000000  0.00000000  0.67307274  1
