# generated using pymatgen
data_Na3NiO2
_symmetry_space_group_name_H-M   'P 1'
_cell_length_a   9.47573279
_cell_length_b   9.47561014
_cell_length_c   4.61184506
_cell_angle_alpha   89.99948553
_cell_angle_beta   90.00109633
_cell_angle_gamma   89.97399597
_symmetry_Int_Tables_number   1
_chemical_formula_structural   Na3NiO2
_chemical_formula_sum   'Na12 Ni4 O8'
_cell_volume   414.08991470
_cell_formula_units_Z   4
loop_
 _symmetry_equiv_pos_site_id
 _symmetry_equiv_pos_as_xyz
  1  'x, y, z'
loop_
 _atom_site_type_symbol
 _atom_site_label
 _atom_site_symmetry_multiplicity
 _atom_site_fract_x
 _atom_site_fract_y
 _atom_site_fract_z
 _atom_site_occupancy
  Na  Na0  1  0.97848244  0.65496556  0.50000418  1
  Na  Na1  1  0.15489669  0.52147158  0.00000144  1
  Na  Na2  1  0.14354455  0.85640334  0.99999455  1
  Na  Na3  1  0.35659011  0.35661967  0.49999808  1
  Na  Na4  1  0.34492581  0.02154362  0.49999840  1
  Na  Na5  1  0.52144745  0.15491062  0.99999797  1
  Na  Na6  1  0.47849392  0.84511531  0.99999750  1
  Na  Na7  1  0.65494075  0.97849064  0.49999595  1
  Na  Na8  1  0.64333501  0.64336582  0.49999845  1
  Na  Na9  1  0.85639329  0.14354036  0.99999936  1
  Na  Na10  1  0.84511538  0.47850400  0.00000221  1
  Na  Na11  1  0.02153182  0.34496556  0.49999852  1
  Ni  Ni12  1  0.17241591  0.17242638  0.00001042  1
  Ni  Ni13  1  0.32745910  0.67247758  0.49999603  1
  Ni  Ni14  1  0.67245517  0.32750677  0.50000541  1
  Ni  Ni15  1  0.82762269  0.82754249  0.00000045  1
  O  O16  1  0.03582813  0.30313994  0.00000197  1
  O  O17  1  0.19648910  0.53558429  0.50000185  1
  O  O18  1  0.30312609  0.03582376  0.99999855  1
  O  O19  1  0.46451082  0.80372394  0.49999855  1
  O  O20  1  0.53555174  0.19650172  0.49999721  1
  O  O21  1  0.69696488  0.96401477  0.99999757  1
  O  O22  1  0.80369008  0.46453462  0.50000070  1
  O  O23  1  0.96418909  0.69682766  0.00000470  1
