# generated using pymatgen
data_Nd3Ga10Ni
_symmetry_space_group_name_H-M   'P 1'
_cell_length_a   4.25698954
_cell_length_b   4.28477469
_cell_length_c   15.38749772
_cell_angle_alpha   90.00000000
_cell_angle_beta   90.00000000
_cell_angle_gamma   90.00000000
_symmetry_Int_Tables_number   1
_chemical_formula_structural   Nd3Ga10Ni
_chemical_formula_sum   'Nd3 Ga10 Ni1'
_cell_volume   280.67166736
_cell_formula_units_Z   1
loop_
 _symmetry_equiv_pos_site_id
 _symmetry_equiv_pos_as_xyz
  1  'x, y, z'
loop_
 _atom_site_type_symbol
 _atom_site_label
 _atom_site_symmetry_multiplicity
 _atom_site_fract_x
 _atom_site_fract_y
 _atom_site_fract_z
 _atom_site_occupancy
  Nd  Nd0  1  0.00000000  0.50000000  0.50000000  1
  Nd  Nd1  1  0.00000000  0.00000000  0.75457958  1
  Nd  Nd2  1  0.00000000  0.00000000  0.24542042  1
  Ga  Ga3  1  0.50000000  0.50000000  0.81543054  1
  Ga  Ga4  1  0.50000000  0.50000000  0.18456946  1
  Ga  Ga5  1  0.50000000  0.50000000  0.65842345  1
  Ga  Ga6  1  0.50000000  0.50000000  0.34157655  1
  Ga  Ga7  1  0.50000000  0.00000000  0.57964388  1
  Ga  Ga8  1  0.50000000  0.00000000  0.42035612  1
  Ga  Ga9  1  0.50000000  -0.00000000  0.91536302  1
  Ga  Ga10  1  0.50000000  -0.00000000  0.08463698  1
  Ga  Ga11  1  -0.00000000  0.50000000  0.91590739  1
  Ga  Ga12  1  0.00000000  0.50000000  0.08409261  1
  Ni  Ni13  1  0.00000000  0.00000000  0.00000000  1
