# generated using pymatgen
data_La2CuSbS5
_symmetry_space_group_name_H-M   'P 1'
_cell_length_a   7.56449931
_cell_length_b   7.67981110
_cell_length_c   8.56477861
_cell_angle_alpha   116.63702559
_cell_angle_beta   116.20633576
_cell_angle_gamma   90.00000000
_symmetry_Int_Tables_number   1
_chemical_formula_structural   La2CuSbS5
_chemical_formula_sum   'La4 Cu2 Sb2 S10'
_cell_volume   386.68543121
_cell_formula_units_Z   2
loop_
 _symmetry_equiv_pos_site_id
 _symmetry_equiv_pos_as_xyz
  1  'x, y, z'
loop_
 _atom_site_type_symbol
 _atom_site_label
 _atom_site_symmetry_multiplicity
 _atom_site_fract_x
 _atom_site_fract_y
 _atom_site_fract_z
 _atom_site_occupancy
  La  La0  1  0.50000000  0.78230942  -0.00000000  1
  La  La1  1  -0.00000000  0.28230942  -0.00000000  1
  La  La2  1  0.11571569  0.91594310  0.50000000  1
  La  La3  1  0.88428431  0.41594310  0.50000000  1
  Cu  Cu4  1  0.50000000  0.31666217  -0.00000000  1
  Cu  Cu5  1  -0.00000000  0.81666217  -0.00000000  1
  Sb  Sb6  1  0.42082637  0.24743989  0.50000000  1
  Sb  Sb7  1  0.57917363  0.74743989  0.50000000  1
  S  S8  1  0.44017925  0.21585370  0.20261632  1
  S  S9  1  0.55982075  0.01323738  0.79738368  1
  S  S10  1  0.73756292  0.51323738  0.79738368  1
  S  S11  1  0.26243708  0.71585370  0.20261632  1
  S  S12  1  0.21456602  0.34976764  0.78945045  1
  S  S13  1  0.78543398  0.56031719  0.21054955  1
  S  S14  1  0.92511557  0.06031719  0.21054955  1
  S  S15  1  0.07488443  0.84976764  0.78945045  1
  S  S16  1  0.25806419  0.53316950  0.50000000  1
  S  S17  1  0.74193581  0.03316950  0.50000000  1
