# generated using pymatgen
data_Er(CoGe)6
_symmetry_space_group_name_H-M   'P 1'
_cell_length_a   5.06884797
_cell_length_b   5.06898733
_cell_length_c   7.85052593
_cell_angle_alpha   90.00000000
_cell_angle_beta   90.00000000
_cell_angle_gamma   119.99909794
_symmetry_Int_Tables_number   1
_chemical_formula_structural   Er(CoGe)6
_chemical_formula_sum   'Er1 Co6 Ge6'
_cell_volume   174.68829353
_cell_formula_units_Z   1
loop_
 _symmetry_equiv_pos_site_id
 _symmetry_equiv_pos_as_xyz
  1  'x, y, z'
loop_
 _atom_site_type_symbol
 _atom_site_label
 _atom_site_symmetry_multiplicity
 _atom_site_fract_x
 _atom_site_fract_y
 _atom_site_fract_z
 _atom_site_occupancy
  Er  Er0  1  0.99998411  0.00000000  -0.00000000  1
  Co  Co1  1  0.49999669  1.00000000  0.25005227  1
  Co  Co2  1  0.49999293  0.50000334  0.25005519  1
  Co  Co3  1  0.99998959  0.49999666  0.25005519  1
  Co  Co4  1  0.49999669  1.00000000  0.74994773  1
  Co  Co5  1  0.49999293  0.50000334  0.74994481  1
  Co  Co6  1  0.99998959  0.49999666  0.74994481  1
  Ge  Ge7  1  0.33329732  0.66665005  -0.00000000  1
  Ge  Ge8  1  0.66664727  0.33334995  -0.00000000  1
  Ge  Ge9  1  0.33329309  0.66665862  0.50000000  1
  Ge  Ge10  1  0.66663447  0.33334138  0.50000000  1
  Ge  Ge11  1  0.99999265  1.00000000  0.34438236  1
  Ge  Ge12  1  0.99999265  1.00000000  0.65561764  1
