# generated using pymatgen
data_TbWClO4
_symmetry_space_group_name_H-M   'P 1'
_cell_length_a   6.38565915
_cell_length_b   6.38565915
_cell_length_c   7.00273852
_cell_angle_alpha   75.72854290
_cell_angle_beta   75.72854290
_cell_angle_gamma   70.73914760
_symmetry_Int_Tables_number   1
_chemical_formula_structural   TbWClO4
_chemical_formula_sum   'Tb2 W2 Cl2 O8'
_cell_volume   256.95180370
_cell_formula_units_Z   2
loop_
 _symmetry_equiv_pos_site_id
 _symmetry_equiv_pos_as_xyz
  1  'x, y, z'
loop_
 _atom_site_type_symbol
 _atom_site_label
 _atom_site_symmetry_multiplicity
 _atom_site_fract_x
 _atom_site_fract_y
 _atom_site_fract_z
 _atom_site_occupancy
  Tb  Tb0  1  0.77750644  0.77750644  0.11834715  1
  Tb  Tb1  1  0.22249356  0.22249356  0.88165285  1
  W  W2  1  0.63663069  0.63663069  0.73397352  1
  W  W3  1  0.36336931  0.36336931  0.26602648  1
  Cl  Cl4  1  0.98849197  0.98849197  0.77061060  1
  Cl  Cl5  1  0.01150803  0.01150803  0.22938940  1
  O  O6  1  0.70441245  0.70441245  0.46578505  1
  O  O7  1  0.29558755  0.29558755  0.53421495  1
  O  O8  1  0.54492136  0.54492136  0.19560477  1
  O  O9  1  0.45507864  0.45507864  0.80439523  1
  O  O10  1  0.10890460  0.49173045  0.15416110  1
  O  O11  1  0.49173045  0.10890460  0.15416110  1
  O  O12  1  0.89109540  0.50826955  0.84583890  1
  O  O13  1  0.50826955  0.89109540  0.84583890  1
