# generated using pymatgen
data_CeSbPt5
_symmetry_space_group_name_H-M   'P 1'
_cell_length_a   5.38833240
_cell_length_b   5.38833240
_cell_length_c   10.92021997
_cell_angle_alpha   90.24341204
_cell_angle_beta   104.14452034
_cell_angle_gamma   119.74512415
_symmetry_Int_Tables_number   1
_chemical_formula_structural   CeSbPt5
_chemical_formula_sum   'Ce2 Sb2 Pt10'
_cell_volume   263.95585511
_cell_formula_units_Z   2
loop_
 _symmetry_equiv_pos_site_id
 _symmetry_equiv_pos_as_xyz
  1  'x, y, z'
loop_
 _atom_site_type_symbol
 _atom_site_label
 _atom_site_symmetry_multiplicity
 _atom_site_fract_x
 _atom_site_fract_y
 _atom_site_fract_z
 _atom_site_occupancy
  Ce  Ce0  1  0.70467806  0.05348603  0.75816410  1
  Ce  Ce1  1  0.70718465  0.55069945  0.25788409  1
  Sb  Sb2  1  0.49681977  0.45119136  0.94801114  1
  Sb  Sb3  1  0.90767935  0.66027830  0.56795765  1
  Pt  Pt4  1  0.05416621  0.47991555  0.03638258  1
  Pt  Pt5  1  0.55646702  0.98221637  0.03638258  1
  Pt  Pt6  1  0.35065868  0.63190604  0.48110306  1
  Pt  Pt7  1  0.84919702  0.13044438  0.48110306  1
  Pt  Pt8  1  0.04822175  0.97857745  0.02679920  1
  Pt  Pt9  1  0.35351954  0.13147626  0.48499580  1
  Pt  Pt10  1  0.08165096  0.72873806  0.81038902  1
  Pt  Pt11  1  0.33046814  0.37521147  0.70567961  1
  Pt  Pt12  1  0.04067338  0.21377956  0.25445294  1
  Pt  Pt13  1  0.36761546  0.89307970  0.26069516  1
