# generated using pymatgen
data_Fe(BO2)2
_symmetry_space_group_name_H-M   'P 1'
_cell_length_a   4.48548739
_cell_length_b   5.61367970
_cell_length_c   5.61367970
_cell_angle_alpha   60.94335597
_cell_angle_beta   73.97012098
_cell_angle_gamma   73.97012098
_symmetry_Int_Tables_number   1
_chemical_formula_structural   Fe(BO2)2
_chemical_formula_sum   'Fe2 B4 O8'
_cell_volume   117.04873315
_cell_formula_units_Z   2
loop_
 _symmetry_equiv_pos_site_id
 _symmetry_equiv_pos_as_xyz
  1  'x, y, z'
loop_
 _atom_site_type_symbol
 _atom_site_label
 _atom_site_symmetry_multiplicity
 _atom_site_fract_x
 _atom_site_fract_y
 _atom_site_fract_z
 _atom_site_occupancy
  Fe  Fe0  1  0.75000000  0.66128582  0.33871418  1
  Fe  Fe1  1  0.25000000  0.33871418  0.66128582  1
  B  B2  1  0.12028001  0.08096007  0.29630710  1
  B  B3  1  0.37971999  0.70369290  0.91903993  1
  B  B4  1  0.87971999  0.91903993  0.70369290  1
  B  B5  1  0.62028001  0.29630710  0.08096007  1
  O  O6  1  0.47542562  0.50595004  0.19893179  1
  O  O7  1  0.02457438  0.80106821  0.49404996  1
  O  O8  1  0.52457438  0.49404996  0.80106821  1
  O  O9  1  0.97542562  0.19893179  0.50595004  1
  O  O10  1  0.46238540  0.05679127  0.22600317  1
  O  O11  1  0.03761460  0.77399683  0.94320873  1
  O  O12  1  0.53761460  0.94320873  0.77399683  1
  O  O13  1  0.96238540  0.22600317  0.05679127  1
