# generated using pymatgen
data_Fe4O7F
_symmetry_space_group_name_H-M   'P 1'
_cell_length_a   4.64710120
_cell_length_b   9.26615347
_cell_length_c   6.00323204
_cell_angle_alpha   90.39791830
_cell_angle_beta   90.00000000
_cell_angle_gamma   90.00000000
_symmetry_Int_Tables_number   1
_chemical_formula_structural   Fe4O7F
_chemical_formula_sum   'Fe8 O14 F2'
_cell_volume   258.49745729
_cell_formula_units_Z   2
loop_
 _symmetry_equiv_pos_site_id
 _symmetry_equiv_pos_as_xyz
  1  'x, y, z'
loop_
 _atom_site_type_symbol
 _atom_site_label
 _atom_site_symmetry_multiplicity
 _atom_site_fract_x
 _atom_site_fract_y
 _atom_site_fract_z
 _atom_site_occupancy
  Fe  Fe0  1  0.99672509  0.00367063  0.00212682  1
  Fe  Fe1  1  0.97446656  0.99276258  0.49918106  1
  Fe  Fe2  1  0.01765186  0.49571976  0.00712559  1
  Fe  Fe3  1  0.01237389  0.49322218  0.49342190  1
  Fe  Fe4  1  0.51765186  0.25428024  0.24287441  1
  Fe  Fe5  1  0.51237389  0.25677782  0.75657810  1
  Fe  Fe6  1  0.49672509  0.74632937  0.24787318  1
  Fe  Fe7  1  0.47446656  0.75723742  0.75081894  1
  O  O8  1  0.21542205  0.39786137  0.25209471  1
  O  O9  1  0.19793714  0.40552915  0.75065002  1
  O  O10  1  0.17692308  0.90475382  0.25091648  1
  O  O11  1  0.17400489  0.90772749  0.74958624  1
  O  O12  1  0.32045798  0.15538172  0.00214642  1
  O  O13  1  0.30404586  0.65330333  0.99696127  1
  O  O14  1  0.30539807  0.65366917  0.50072630  1
  O  O15  1  0.71542205  0.35213863  -0.00209471  1
  O  O16  1  0.69793714  0.34447085  0.49934998  1
  O  O17  1  0.67692308  0.84524618  -0.00091648  1
  O  O18  1  0.67400489  0.84227251  0.50041376  1
  O  O19  1  0.80404586  0.09669667  0.25303973  1
  O  O20  1  0.80539807  0.09633083  0.74927370  1
  O  O21  1  0.82045798  0.59461828  0.24785358  1
  F  F22  1  0.30459354  0.15051629  0.50279130  1
  F  F23  1  0.80459354  0.59948371  0.74720870  1
