# generated using pymatgen
data_LaGa2Co3
_symmetry_space_group_name_H-M   'P 1'
_cell_length_a   3.85878244
_cell_length_b   9.17796100
_cell_length_c   9.18988461
_cell_angle_alpha   119.95708827
_cell_angle_beta   90.00000000
_cell_angle_gamma   90.00000000
_symmetry_Int_Tables_number   1
_chemical_formula_structural   LaGa2Co3
_chemical_formula_sum   'La3 Ga6 Co9'
_cell_volume   281.98422994
_cell_formula_units_Z   3
loop_
 _symmetry_equiv_pos_site_id
 _symmetry_equiv_pos_as_xyz
  1  'x, y, z'
loop_
 _atom_site_type_symbol
 _atom_site_label
 _atom_site_symmetry_multiplicity
 _atom_site_fract_x
 _atom_site_fract_y
 _atom_site_fract_z
 _atom_site_occupancy
  La  La0  1  -0.00000000  0.00008209  0.00000000  1
  La  La1  1  0.50000000  0.33299141  0.66607400  1
  La  La2  1  0.50000000  0.66691741  0.33392600  1
  Ga  Ga3  1  0.50000000  0.31341420  0.00000000  1
  Ga  Ga4  1  0.50000000  0.68500494  0.68545130  1
  Ga  Ga5  1  0.50000000  0.99955364  0.31454870  1
  Ga  Ga6  1  0.50000000  0.68660588  1.00000000  1
  Ga  Ga7  1  0.50000000  0.31498342  0.31453867  1
  Ga  Ga8  1  0.50000000  0.00044474  0.68546133  1
  Co  Co9  1  -0.00000000  0.50005209  0.00000000  1
  Co  Co10  1  -0.00000000  0.49998396  0.50001400  1
  Co  Co11  1  -0.00000000  0.99996996  0.49998600  1
  Co  Co12  1  -0.00000000  0.18140021  0.36277827  1
  Co  Co13  1  0.00000000  0.18196346  0.81858285  1
  Co  Co14  1  0.00000000  0.63652709  0.81852413  1
  Co  Co15  1  -0.00000000  0.81862194  0.63722173  1
  Co  Co16  1  -0.00000000  0.36338061  0.18141715  1
  Co  Co17  1  -0.00000000  0.81800296  0.18147587  1
