# generated using pymatgen
data_BH6N
_symmetry_space_group_name_H-M   'P 1'
_cell_length_a   4.51178565
_cell_length_b   4.70140676
_cell_length_c   5.50332711
_cell_angle_alpha   90.00000000
_cell_angle_beta   90.00000000
_cell_angle_gamma   92.14195886
_symmetry_Int_Tables_number   1
_chemical_formula_structural   BH6N
_chemical_formula_sum   'B2 H12 N2'
_cell_volume   116.65357758
_cell_formula_units_Z   2
loop_
 _symmetry_equiv_pos_site_id
 _symmetry_equiv_pos_as_xyz
  1  'x, y, z'
loop_
 _atom_site_type_symbol
 _atom_site_label
 _atom_site_symmetry_multiplicity
 _atom_site_fract_x
 _atom_site_fract_y
 _atom_site_fract_z
 _atom_site_occupancy
  B  B0  1  0.15593377  0.83996578  0.12199575  1
  B  B1  1  0.84406623  0.16003422  0.62199575  1
  H  H2  1  0.23419221  0.47204429  0.36543852  1
  H  H3  1  0.76580779  0.52795571  0.86543852  1
  H  H4  1  0.52225833  0.70113182  0.35548927  1
  H  H5  1  0.47774167  0.29886818  0.85548927  1
  H  H6  1  0.22586519  0.77591148  0.51193707  1
  H  H7  1  0.77413481  0.22408852  0.01193707  1
  H  H8  1  0.22426887  0.09238035  0.13449210  1
  H  H9  1  0.77573113  0.90761965  0.63449210  1
  H  H10  1  0.88750209  0.80890969  0.13005368  1
  H  H11  1  0.11249791  0.19109031  0.63005368  1
  H  H12  1  0.25437658  0.73727303  0.93661220  1
  H  H13  1  0.74562342  0.26272697  0.43661220  1
  N  N14  1  0.29365082  0.68552616  0.35232140  1
  N  N15  1  0.70634918  0.31447384  0.85232140  1
