# generated using pymatgen
data_Ce7Ni3
_symmetry_space_group_name_H-M   'P 1'
_cell_length_a   5.98805465
_cell_length_b   9.46263242
_cell_length_c   9.46263242
_cell_angle_alpha   119.87207173
_cell_angle_beta   90.00000000
_cell_angle_gamma   90.00000000
_symmetry_Int_Tables_number   1
_chemical_formula_structural   Ce7Ni3
_chemical_formula_sum   'Ce14 Ni6'
_cell_volume   464.94194696
_cell_formula_units_Z   2
loop_
 _symmetry_equiv_pos_site_id
 _symmetry_equiv_pos_as_xyz
  1  'x, y, z'
loop_
 _atom_site_type_symbol
 _atom_site_label
 _atom_site_symmetry_multiplicity
 _atom_site_fract_x
 _atom_site_fract_y
 _atom_site_fract_z
 _atom_site_occupancy
  Ce  Ce0  1  0.41631162  0.33327177  0.66672823  1
  Ce  Ce1  1  0.91631162  0.66672823  0.33327177  1
  Ce  Ce2  1  0.24301755  0.12907805  0.87092195  1
  Ce  Ce3  1  0.24402032  0.74150019  0.87040693  1
  Ce  Ce4  1  0.24402032  0.12959307  0.25849981  1
  Ce  Ce5  1  0.74301755  0.87092195  0.12907805  1
  Ce  Ce6  1  0.74402032  0.25849981  0.12959307  1
  Ce  Ce7  1  0.74402032  0.87040693  0.74150019  1
  Ce  Ce8  1  0.47157548  0.54095736  0.45904264  1
  Ce  Ce9  1  0.47176115  0.91787087  0.45878557  1
  Ce  Ce10  1  0.47176115  0.54121443  0.08212913  1
  Ce  Ce11  1  0.97157548  0.45904264  0.54095736  1
  Ce  Ce12  1  0.97176115  0.08212913  0.54121443  1
  Ce  Ce13  1  0.97176115  0.45878557  0.91787087  1
  Ni  Ni14  1  0.19890230  0.81241272  0.18758728  1
  Ni  Ni15  1  0.19881507  0.37516460  0.18739222  1
  Ni  Ni16  1  0.19881507  0.81260778  0.62483540  1
  Ni  Ni17  1  0.69890230  0.18758728  0.81241272  1
  Ni  Ni18  1  0.69881507  0.62483540  0.81260778  1
  Ni  Ni19  1  0.69881507  0.18739222  0.37516460  1
