# generated using pymatgen
data_Na2Al2Si3(HO3)4
_symmetry_space_group_name_H-M   'P 1'
_cell_length_a   6.62825794
_cell_length_b   9.91633792
_cell_length_c   9.87782193
_cell_angle_alpha   83.61733269
_cell_angle_beta   70.51937059
_cell_angle_gamma   70.63975043
_symmetry_Int_Tables_number   1
_chemical_formula_structural   Na2Al2Si3(HO3)4
_chemical_formula_sum   'Na4 Al4 Si6 H8 O24'
_cell_volume   577.47147676
_cell_formula_units_Z   2
loop_
 _symmetry_equiv_pos_site_id
 _symmetry_equiv_pos_as_xyz
  1  'x, y, z'
loop_
 _atom_site_type_symbol
 _atom_site_label
 _atom_site_symmetry_multiplicity
 _atom_site_fract_x
 _atom_site_fract_y
 _atom_site_fract_z
 _atom_site_occupancy
  Na  Na0  1  0.12856048  0.05754005  0.43891336  1
  Na  Na1  1  0.43222717  0.43938422  0.94121527  1
  Na  Na2  1  0.81826756  0.55723208  0.06090060  1
  Na  Na3  1  0.62422705  0.93900877  0.55830669  1
  Al  Al4  1  0.24472635  0.19293333  0.07413089  1
  Al  Al5  1  0.56740386  0.69271643  0.42512943  1
  Al  Al6  1  0.67791541  0.08175865  0.80628920  1
  Al  Al7  1  0.73543526  0.58153886  0.69369470  1
  Si  Si8  1  0.00182967  0.99955944  0.99645927  1
  Si  Si9  1  0.99938905  0.42660295  0.31274321  1
  Si  Si10  1  0.24677730  0.50152194  0.50400899  1
  Si  Si11  1  0.56311065  0.92692479  0.18741269  1
  Si  Si12  1  0.68669845  0.31198124  0.57507684  1
  Si  Si13  1  0.51104693  0.81194488  0.92432692  1
  H  H14  1  0.13787741  0.11158244  0.71385902  1
  H  H15  1  0.11497172  0.78378609  0.38541052  1
  H  H16  1  0.10412108  0.61091316  0.78622788  1
  H  H17  1  0.27802836  0.21303272  0.62338159  1
  H  H18  1  0.50781884  0.37498602  0.21347734  1
  H  H19  1  0.15128462  0.71296319  0.87817883  1
  H  H20  1  0.74948536  0.28340480  0.11553585  1
  H  H21  1  0.97232045  0.87595684  0.28638284  1
  O  O22  1  0.02825374  0.13604310  0.05694083  1
  O  O23  1  0.12040435  0.36624845  0.14974821  1
  O  O24  1  0.03137786  0.54206915  0.64885880  1
  O  O25  1  0.36846520  0.07878761  0.19481762  1
  O  O26  1  0.19335926  0.44314010  0.37342798  1
  O  O27  1  0.25059542  0.12246720  0.62089917  1
  O  O28  1  0.12317847  0.62172460  0.87952499  1
  O  O29  1  0.33186797  0.63826195  0.44176236  1
  O  O30  1  0.44495732  0.36343055  0.54020366  1
  O  O31  1  0.62885474  0.37657717  0.12371566  1
  O  O32  1  0.44607878  0.20728726  0.91376321  1
  O  O33  1  0.23470608  0.86051009  0.95954024  1
  O  O34  1  0.55841721  0.81216675  0.07929608  1
  O  O35  1  0.51789126  0.86640042  0.35044884  1
  O  O36  1  0.74049313  0.14439885  0.62483436  1
  O  O37  1  0.61077428  0.70591678  0.58522858  1
  O  O38  1  0.68209415  0.41751221  0.69107464  1
  O  O39  1  0.80960833  0.57719731  0.30486958  1
  O  O40  1  0.61614816  0.64425831  0.87497715  1
  O  O41  1  0.88888652  0.31041729  0.41982070  1
  O  O42  1  0.81941180  0.94102307  0.12805117  1
  O  O43  1  0.61919357  0.91857746  0.80834824  1
  O  O44  1  0.92846097  0.04100045  0.85233188  1
  O  O45  1  0.00299840  0.87731100  0.37645408  1
