# generated using pymatgen
data_Sm2Zr8O19
_symmetry_space_group_name_H-M   'P 1'
_cell_length_a   3.66331279
_cell_length_b   36.65944231
_cell_length_c   34.97336091
_cell_angle_alpha   5.20584670
_cell_angle_beta   58.41728469
_cell_angle_gamma   60.02374658
_symmetry_Int_Tables_number   1
_chemical_formula_structural   Sm2Zr8O19
_chemical_formula_sum   'Sm2 Zr8 O19'
_cell_volume   348.12100084
_cell_formula_units_Z   1
loop_
 _symmetry_equiv_pos_site_id
 _symmetry_equiv_pos_as_xyz
  1  'x, y, z'
loop_
 _atom_site_type_symbol
 _atom_site_label
 _atom_site_symmetry_multiplicity
 _atom_site_fract_x
 _atom_site_fract_y
 _atom_site_fract_z
 _atom_site_occupancy
  Sm  Sm0  1  0.03774953  0.83019962  0.96225047  1
  Sm  Sm1  1  0.96225047  0.86980038  0.03774953  1
  Zr  Zr2  1  0.97317363  0.97853890  0.02682637  1
  Zr  Zr3  1  0.98160794  0.08528635  0.01839206  1
  Zr  Zr4  1  0.98784197  0.19027357  0.01215803  1
  Zr  Zr5  1  0.99571205  0.29656964  0.00428795  1
  Zr  Zr6  1  0.00428795  0.40343036  0.99571205  1
  Zr  Zr7  1  0.01215803  0.50972643  0.98784197  1
  Zr  Zr8  1  0.01839206  0.61471365  0.98160794  1
  Zr  Zr9  1  0.02682637  0.72146110  0.97317363  1
  O  O10  1  0.25484834  0.00387867  0.24515166  1
  O  O11  1  0.25000000  0.10000000  0.25000000  1
  O  O12  1  0.24515166  0.19612133  0.25484834  1
  O  O13  1  0.28517419  0.32813935  0.21482581  1
  O  O14  1  0.24551702  0.39641362  0.25448298  1
  O  O15  1  0.30986206  0.54788965  0.19013794  1
  O  O16  1  0.75000000  0.10000000  0.75000000  1
  O  O17  1  0.19013794  0.65211035  0.30986206  1
  O  O18  1  0.25448298  0.80358638  0.24551702  1
  O  O19  1  0.74648043  0.19718434  0.75351957  1
  O  O20  1  0.70175422  0.26140338  0.79824578  1
  O  O21  1  0.21482581  0.87186065  0.28517419  1
  O  O22  1  0.75634457  0.40507565  0.74365543  1
  O  O23  1  0.73089667  0.48471734  0.76910333  1
  O  O24  1  0.75000000  0.60000000  0.75000000  1
  O  O25  1  0.76910333  0.71528266  0.73089667  1
  O  O26  1  0.74365543  0.79492435  0.75634457  1
  O  O27  1  0.79824578  0.93859662  0.70175422  1
  O  O28  1  0.75351957  0.00281566  0.74648043  1
