# generated using pymatgen
data_Li17(CoO4)3
_symmetry_space_group_name_H-M   'P 1'
_cell_length_a   6.58970804
_cell_length_b   19.77685604
_cell_length_c   8.08293644
_cell_angle_alpha   35.43782672
_cell_angle_beta   89.95122517
_cell_angle_gamma   90.00486186
_symmetry_Int_Tables_number   1
_chemical_formula_structural   Li17(CoO4)3
_chemical_formula_sum   'Li34 Co6 O24'
_cell_volume   610.77974809
_cell_formula_units_Z   2
loop_
 _symmetry_equiv_pos_site_id
 _symmetry_equiv_pos_as_xyz
  1  'x, y, z'
loop_
 _atom_site_type_symbol
 _atom_site_label
 _atom_site_symmetry_multiplicity
 _atom_site_fract_x
 _atom_site_fract_y
 _atom_site_fract_z
 _atom_site_occupancy
  Li  Li0  1  0.03263447  0.25986895  0.76193327  1
  Li  Li1  1  0.03099788  0.59230321  0.75484573  1
  Li  Li2  1  0.03574099  0.92831383  0.74603156  1
  Li  Li3  1  0.02973242  0.07943746  0.73657834  1
  Li  Li4  1  0.02582448  0.73215862  0.77231208  1
  Li  Li5  1  0.25036715  0.18785295  0.69330427  1
  Li  Li6  1  0.26942148  0.01248165  0.19194937  1
  Li  Li7  1  0.22612706  0.50717472  0.70445353  1
  Li  Li8  1  0.24486498  0.84932224  0.69580554  1
  Li  Li9  1  0.24662921  0.35157864  0.19707474  1
  Li  Li10  1  0.25061788  0.68922194  0.18804649  1
  Li  Li11  1  0.48167558  0.26328428  0.75305529  1
  Li  Li12  1  0.46570896  0.59043489  0.74666430  1
  Li  Li13  1  0.46792990  0.92731926  0.73764489  1
  Li  Li14  1  0.47232084  0.06805305  0.77896269  1
  Li  Li15  1  0.46747015  0.40725685  0.74644898  1
  Li  Li16  1  0.47934397  0.75525422  0.70663323  1
  Li  Li17  1  0.53695284  0.07286761  0.24241852  1
  Li  Li18  1  0.52870599  0.25712396  0.25683776  1
  Li  Li19  1  0.53952247  0.40320425  0.24993689  1
  Li  Li20  1  0.53292907  0.60316905  0.22727945  1
  Li  Li21  1  0.53880693  0.73791321  0.24400888  1
  Li  Li22  1  0.75075578  0.14681754  0.30586553  1
  Li  Li23  1  0.72612798  0.81859780  0.31095791  1
  Li  Li24  1  0.74439148  0.48163062  0.30997516  1
  Li  Li25  1  0.77136420  0.32440939  0.80384109  1
  Li  Li26  1  0.75044948  0.64465852  0.80922239  1
  Li  Li27  1  0.74759655  0.98192033  0.80185011  1
  Li  Li28  1  0.97351431  0.27083578  0.20897404  1
  Li  Li29  1  0.97618311  0.07036737  0.25121978  1
  Li  Li30  1  0.96460686  0.40409817  0.26011018  1
  Li  Li31  1  0.96928511  0.58068881  0.29364241  1
  Li  Li32  1  0.95996617  0.74031177  0.25164566  1
  Li  Li33  1  0.95386200  0.92738091  0.25580107  1
  Co  Co34  1  0.25345168  0.16491642  0.25197957  1
  Co  Co35  1  0.25335308  0.50045860  0.25254660  1
  Co  Co36  1  0.25276975  0.83570297  0.24743658  1
  Co  Co37  1  0.75296462  0.16881736  0.74753966  1
  Co  Co38  1  0.75297341  0.49686978  0.75239861  1
  Co  Co39  1  0.75396338  0.83238187  0.75080043  1
  O  O40  1  0.01794342  0.09522992  0.96052913  1
  O  O41  1  0.00701479  0.43381534  0.97128049  1
  O  O42  1  0.01282199  0.75975337  0.97257948  1
  O  O43  1  0.25383019  0.00503908  0.46087712  1
  O  O44  1  0.25239380  0.18529437  0.46089190  1
  O  O45  1  0.25208631  0.35111824  0.45132851  1
  O  O46  1  0.24606249  0.68112974  0.45224859  1
  O  O47  1  0.26211679  0.52769732  0.42507139  1
  O  O48  1  0.23130496  0.84253700  0.46430500  1
  O  O49  1  0.48531644  0.11259175  0.93203834  1
  O  O50  1  0.47997555  0.43057320  0.95740412  1
  O  O51  1  0.48329174  0.76614638  0.94944127  1
  O  O52  1  0.49444727  0.89678050  0.03928532  1
  O  O53  1  0.51813986  0.23960294  0.03786046  1
  O  O54  1  0.50256659  0.56901051  0.03753972  1
  O  O55  1  0.75047434  0.14630055  0.54558965  1
  O  O56  1  0.76385195  0.80227658  0.57126372  1
  O  O57  1  0.72874063  0.49136152  0.52141884  1
  O  O58  1  0.75429056  0.32829187  0.53619675  1
  O  O59  1  0.74521504  0.65890683  0.53901781  1
  O  O60  1  0.75177969  0.98831069  0.54595816  1
  O  O61  1  0.98739034  0.22355079  0.06356971  1
  O  O62  1  0.99350268  0.90135377  0.04748210  1
  O  O63  1  0.99569892  0.56371589  0.05878982  1
