# generated using pymatgen
data_SrLaCuRuO6
_symmetry_space_group_name_H-M   'P 1'
_cell_length_a   5.82564860
_cell_length_b   5.70052796
_cell_length_c   7.67552695
_cell_angle_alpha   89.71181178
_cell_angle_beta   90.00000000
_cell_angle_gamma   90.00000000
_symmetry_Int_Tables_number   1
_chemical_formula_structural   SrLaCuRuO6
_chemical_formula_sum   'Sr2 La2 Cu2 Ru2 O12'
_cell_volume   254.89544367
_cell_formula_units_Z   2
loop_
 _symmetry_equiv_pos_site_id
 _symmetry_equiv_pos_as_xyz
  1  'x, y, z'
loop_
 _atom_site_type_symbol
 _atom_site_label
 _atom_site_symmetry_multiplicity
 _atom_site_fract_x
 _atom_site_fract_y
 _atom_site_fract_z
 _atom_site_occupancy
  Sr  Sr0  1  0.03560193  0.00306200  0.25136768  1
  Sr  Sr1  1  0.46439807  0.50306200  0.75136768  1
  La  La2  1  0.55726015  0.48835227  0.25247043  1
  La  La3  1  0.94273985  0.98835227  0.75247043  1
  Cu  Cu4  1  0.48427693  0.99591345  0.00184960  1
  Cu  Cu5  1  0.01572307  0.49591345  0.50184960  1
  Ru  Ru6  1  0.49105019  -0.00010535  0.50016045  1
  Ru  Ru7  1  0.00894981  0.49989465  0.00016045  1
  O  O8  1  0.01934225  0.40719499  0.75048254  1
  O  O9  1  0.21199357  0.81521226  0.54398836  1
  O  O10  1  0.19383875  0.78408731  0.95503248  1
  O  O11  1  0.28800643  0.31521226  0.04398836  1
  O  O12  1  0.30616125  0.28408731  0.45503248  1
  O  O13  1  0.48065775  0.90719499  0.25048254  1
  O  O14  1  0.52731666  0.06919958  0.75057644  1
  O  O15  1  0.70256684  0.73190991  0.53735204  1
  O  O16  1  0.73790929  0.70517357  0.95671997  1
  O  O17  1  0.79743316  0.23190991  0.03735204  1
  O  O18  1  0.76209071  0.20517357  0.45671997  1
  O  O19  1  0.97268334  0.56919958  0.25057644  1
