# generated using pymatgen
data_CsPbI3
_symmetry_space_group_name_H-M   'P 1'
_cell_length_a   8.85338080
_cell_length_b   8.93053579
_cell_length_c   12.75775937
_cell_angle_alpha   90.00000000
_cell_angle_beta   90.00000000
_cell_angle_gamma   90.00000000
_symmetry_Int_Tables_number   1
_chemical_formula_structural   CsPbI3
_chemical_formula_sum   'Cs4 Pb4 I12'
_cell_volume   1008.69778269
_cell_formula_units_Z   4
loop_
 _symmetry_equiv_pos_site_id
 _symmetry_equiv_pos_as_xyz
  1  'x, y, z'
loop_
 _atom_site_type_symbol
 _atom_site_label
 _atom_site_symmetry_multiplicity
 _atom_site_fract_x
 _atom_site_fract_y
 _atom_site_fract_z
 _atom_site_occupancy
  Cs  Cs0  1  0.99242158  0.96543824  0.25000000  1
  Cs  Cs1  1  0.00757842  0.03456176  0.75000000  1
  Cs  Cs2  1  0.49242158  0.53456176  0.75000000  1
  Cs  Cs3  1  0.50757842  0.46543824  0.25000000  1
  Pb  Pb4  1  0.50000000  0.00000000  -0.00000000  1
  Pb  Pb5  1  -0.00000000  0.50000000  0.00000000  1
  Pb  Pb6  1  0.50000000  0.00000000  0.50000000  1
  Pb  Pb7  1  -0.00000000  0.50000000  0.50000000  1
  I  I8  1  0.05147852  0.50714122  0.25000000  1
  I  I9  1  0.94852148  0.49285878  0.75000000  1
  I  I10  1  0.55147852  0.99285878  0.75000000  1
  I  I11  1  0.44852148  0.00714122  0.25000000  1
  I  I12  1  0.79662389  0.20392442  0.02592474  1
  I  I13  1  0.20337611  0.79607558  0.97407526  1
  I  I14  1  0.29662389  0.29607558  0.97407526  1
  I  I15  1  0.70337611  0.70392442  0.02592474  1
  I  I16  1  0.20337611  0.79607558  0.52592474  1
  I  I17  1  0.79662389  0.20392442  0.47407526  1
  I  I18  1  0.70337611  0.70392442  0.47407526  1
  I  I19  1  0.29662389  0.29607558  0.52592474  1
