# generated using pymatgen
data_FeOF
_symmetry_space_group_name_H-M   'P 1'
_cell_length_a   14.23565644
_cell_length_b   9.46607845
_cell_length_c   3.08564731
_cell_angle_alpha   90.00000000
_cell_angle_beta   90.00000000
_cell_angle_gamma   90.05805059
_symmetry_Int_Tables_number   1
_chemical_formula_structural   FeOF
_chemical_formula_sum   'Fe12 O12 F12'
_cell_volume   415.80878386
_cell_formula_units_Z   12
loop_
 _symmetry_equiv_pos_site_id
 _symmetry_equiv_pos_as_xyz
  1  'x, y, z'
loop_
 _atom_site_type_symbol
 _atom_site_label
 _atom_site_symmetry_multiplicity
 _atom_site_fract_x
 _atom_site_fract_y
 _atom_site_fract_z
 _atom_site_occupancy
  Fe  Fe0  1  0.00482558  0.00724326  0.00000000  1
  Fe  Fe1  1  0.00711886  0.49571506  0.00000000  1
  Fe  Fe2  1  0.15392124  0.25003129  0.50000000  1
  Fe  Fe3  1  0.16698113  0.71809774  0.50000000  1
  Fe  Fe4  1  0.34797229  0.99217285  0.00000000  1
  Fe  Fe5  1  0.33758534  0.51657912  0.00000000  1
  Fe  Fe6  1  0.48783172  0.74643966  0.50000000  1
  Fe  Fe7  1  0.50269709  0.22309355  0.50000000  1
  Fe  Fe8  1  0.66907992  0.00323344  0.00000000  1
  Fe  Fe9  1  0.67590896  0.50233437  0.00000000  1
  Fe  Fe10  1  0.83587853  0.28600584  0.50000000  1
  Fe  Fe11  1  0.81593134  0.75359651  0.50000000  1
  O  O12  1  0.06857049  0.40472501  0.50000000  1
  O  O13  1  0.09855512  0.14603051  0.00000000  1
  O  O14  1  0.09750374  0.65628936  0.00000000  1
  O  O15  1  0.26993514  0.58875546  0.50000000  1
  O  O16  1  0.39765379  0.89217327  0.50000000  1
  O  O17  1  0.43414223  0.15137669  0.00000000  1
  O  O18  1  0.43644616  0.65365466  0.00000000  1
  O  O19  1  0.60681245  0.09786018  0.50000000  1
  O  O20  1  0.72695807  0.40641336  0.50000000  1
  O  O21  1  0.73369676  0.91017228  0.50000000  1
  O  O22  1  0.76651077  0.65703683  0.00000000  1
  O  O23  1  0.90279009  0.35485431  0.00000000  1
  F  F24  1  0.06259521  0.90173956  0.50000000  1
  F  F25  1  0.23334368  0.33605011  0.00000000  1
  F  F26  1  0.22705656  0.84889709  0.00000000  1
  F  F27  1  0.26715444  0.09183212  0.50000000  1
  F  F28  1  0.39927351  0.39886950  0.50000000  1
  F  F29  1  0.56340505  0.35183233  0.00000000  1
  F  F30  1  0.55904868  0.84020097  0.00000000  1
  F  F31  1  0.59590036  0.60170155  0.50000000  1
  F  F32  1  0.77704402  0.15955475  0.00000000  1
  F  F33  1  0.90317611  0.85581726  0.00000000  1
  F  F34  1  0.93290759  0.09345584  0.50000000  1
  F  F35  1  0.93378996  0.60616430  0.50000000  1
