# generated using pymatgen
data_Na3La5Cl18
_symmetry_space_group_name_H-M   'P 1'
_cell_length_a   7.60494048
_cell_length_b   7.60494051
_cell_length_c   13.24043800
_cell_angle_alpha   90.00000000
_cell_angle_beta   90.00000000
_cell_angle_gamma   119.99999994
_symmetry_Int_Tables_number   1
_chemical_formula_structural   Na3La5Cl18
_chemical_formula_sum   'Na3 La5 Cl18'
_cell_volume   663.16962252
_cell_formula_units_Z   1
loop_
 _symmetry_equiv_pos_site_id
 _symmetry_equiv_pos_as_xyz
  1  'x, y, z'
loop_
 _atom_site_type_symbol
 _atom_site_label
 _atom_site_symmetry_multiplicity
 _atom_site_fract_x
 _atom_site_fract_y
 _atom_site_fract_z
 _atom_site_occupancy
  Na  Na0  1  0.33333300  0.66666700  0.75000000  1
  Na  Na1  1  -0.00000000  0.00000000  0.62011500  1
  Na  Na2  1  -0.00000000  0.00000000  0.87988500  1
  La  La3  1  0.33333300  0.66666700  0.08475001  1
  La  La4  1  0.33333300  0.66666700  0.41524999  1
  La  La5  1  0.66666700  0.33333300  0.58277261  1
  La  La6  1  0.66666700  0.33333300  0.25000000  1
  La  La7  1  0.66666700  0.33333300  0.91722739  1
  Cl  Cl8  1  0.30524142  0.91321081  0.25000000  1
  Cl  Cl9  1  0.30887223  0.92207490  0.57595427  1
  Cl  Cl10  1  0.30887223  0.92207490  0.92404573  1
  Cl  Cl11  1  0.08678919  0.39203061  0.25000000  1
  Cl  Cl12  1  0.07792510  0.38679733  0.57595427  1
  Cl  Cl13  1  0.07792510  0.38679733  0.92404573  1
  Cl  Cl14  1  0.39216089  0.30604638  0.08577185  1
  Cl  Cl15  1  0.39216089  0.30604638  0.41422815  1
  Cl  Cl16  1  0.38152609  0.28850890  0.75000000  1
  Cl  Cl17  1  0.60796939  0.69475858  0.25000000  1
  Cl  Cl18  1  0.61320267  0.69112777  0.57595427  1
  Cl  Cl19  1  0.61320267  0.69112777  0.92404573  1
  Cl  Cl20  1  0.91388548  0.60783911  0.08577185  1
  Cl  Cl21  1  0.91388548  0.60783911  0.41422815  1
  Cl  Cl22  1  0.90698280  0.61847391  0.75000000  1
  Cl  Cl23  1  0.69395362  0.08611452  0.08577185  1
  Cl  Cl24  1  0.69395362  0.08611452  0.41422815  1
  Cl  Cl25  1  0.71149110  0.09301720  0.75000000  1
