# generated using pymatgen
data_Mn3P6WO24
_symmetry_space_group_name_H-M   'P 1'
_cell_length_a   8.72390449
_cell_length_b   8.72390434
_cell_length_c   8.72390421
_cell_angle_alpha   58.41919606
_cell_angle_beta   58.41919405
_cell_angle_gamma   58.41919738
_symmetry_Int_Tables_number   1
_chemical_formula_structural   Mn3P6WO24
_chemical_formula_sum   'Mn3 P6 W1 O24'
_cell_volume   452.49548577
_cell_formula_units_Z   1
loop_
 _symmetry_equiv_pos_site_id
 _symmetry_equiv_pos_as_xyz
  1  'x, y, z'
loop_
 _atom_site_type_symbol
 _atom_site_label
 _atom_site_symmetry_multiplicity
 _atom_site_fract_x
 _atom_site_fract_y
 _atom_site_fract_z
 _atom_site_occupancy
  Mn  Mn0  1  0.14337726  0.14337726  0.14337726  1
  Mn  Mn1  1  0.35823906  0.35823906  0.35823906  1
  Mn  Mn2  1  0.64470065  0.64470065  0.64470065  1
  P  P3  1  0.03737591  0.74920909  0.45736909  1
  P  P4  1  0.45736909  0.03737591  0.74920909  1
  P  P5  1  0.74920909  0.45736909  0.03737591  1
  P  P6  1  0.26244465  0.52431859  0.96786006  1
  P  P7  1  0.52431859  0.96786006  0.26244465  1
  P  P8  1  0.96786006  0.26244465  0.52431859  1
  W  W9  1  0.85942718  0.85942718  0.85942718  1
  O  O10  1  0.14395189  0.27229742  0.51289908  1
  O  O11  1  0.27229742  0.51289908  0.14395189  1
  O  O12  1  0.05747797  0.92868527  0.28044168  1
  O  O13  1  0.51289908  0.14395189  0.27229742  1
  O  O14  1  0.21974312  0.57216887  0.44508829  1
  O  O15  1  0.00213598  0.77942728  0.63824926  1
  O  O16  1  0.28044168  0.05747797  0.92868527  1
  O  O17  1  0.44508829  0.21974312  0.57216887  1
  O  O18  1  0.57216887  0.44508829  0.21974312  1
  O  O19  1  0.22896381  0.35733262  0.98906048  1
  O  O20  1  0.07886144  0.70996548  0.93824702  1
  O  O21  1  0.35733262  0.98906048  0.22896381  1
  O  O22  1  0.63824926  0.00213598  0.77942728  1
  O  O23  1  0.92868527  0.28044168  0.05747797  1
  O  O24  1  0.77942728  0.63824926  0.00213598  1
  O  O25  1  0.42992988  0.55684304  0.78142230  1
  O  O26  1  0.55684304  0.78142230  0.42992988  1
  O  O27  1  0.70996548  0.93824702  0.07886144  1
  O  O28  1  0.98906048  0.22896381  0.35733262  1
  O  O29  1  0.78142230  0.42992988  0.55684304  1
  O  O30  1  0.48526494  0.85978709  0.72743624  1
  O  O31  1  0.93824702  0.07886144  0.70996548  1
  O  O32  1  0.72743624  0.48526494  0.85978709  1
  O  O33  1  0.85978709  0.72743624  0.48526494  1
