# generated using pymatgen
data_Na5Mn3F14
_symmetry_space_group_name_H-M   'P 1'
_cell_length_a   7.72101461
_cell_length_b   12.27314628
_cell_length_c   12.52415820
_cell_angle_alpha   90.00000000
_cell_angle_beta   90.00000000
_cell_angle_gamma   90.00000000
_symmetry_Int_Tables_number   1
_chemical_formula_structural   Na5Mn3F14
_chemical_formula_sum   'Na20 Mn12 F56'
_cell_volume   1186.80353035
_cell_formula_units_Z   4
loop_
 _symmetry_equiv_pos_site_id
 _symmetry_equiv_pos_as_xyz
  1  'x, y, z'
loop_
 _atom_site_type_symbol
 _atom_site_label
 _atom_site_symmetry_multiplicity
 _atom_site_fract_x
 _atom_site_fract_y
 _atom_site_fract_z
 _atom_site_occupancy
  Na  Na0  1  0.02521992  0.47107111  0.01509935  1
  Na  Na1  1  0.17827035  0.25273360  0.58054107  1
  Na  Na2  1  0.21345107  0.74601396  0.92727615  1
  Na  Na3  1  0.23323418  0.00162294  0.26159553  1
  Na  Na4  1  0.24032828  0.49602016  0.26684485  1
  Na  Na5  1  0.25967172  0.00397984  0.76684485  1
  Na  Na6  1  0.26676582  0.49837706  0.76159553  1
  Na  Na7  1  0.28654893  0.75398604  0.42727615  1
  Na  Na8  1  0.32172965  0.24726640  0.08054107  1
  Na  Na9  1  0.47478008  0.02892889  0.51509935  1
  Na  Na10  1  0.52521992  0.52892889  0.48490065  1
  Na  Na11  1  0.67827035  0.74726640  0.91945893  1
  Na  Na12  1  0.71345107  0.25398604  0.57272385  1
  Na  Na13  1  0.74032828  0.50397984  0.23315515  1
  Na  Na14  1  0.73323418  0.99837706  0.23840447  1
  Na  Na15  1  0.76676582  0.50162294  0.73840447  1
  Na  Na16  1  0.75967172  0.99602016  0.73315515  1
  Na  Na17  1  0.78654893  0.24601396  0.07272385  1
  Na  Na18  1  0.82172965  0.75273360  0.41945893  1
  Na  Na19  1  0.97478008  0.97107111  0.98490065  1
  Mn  Mn20  1  0.99844839  0.50176224  0.50019013  1
  Mn  Mn21  1  0.00393621  0.75189929  0.69028394  1
  Mn  Mn22  1  0.00108074  0.75108897  0.16385450  1
  Mn  Mn23  1  0.49891926  0.74891103  0.66385450  1
  Mn  Mn24  1  0.49606379  0.74810071  0.19028394  1
  Mn  Mn25  1  0.50155161  0.99823776  0.00019013  1
  Mn  Mn26  1  0.49844839  0.49823776  0.99980987  1
  Mn  Mn27  1  0.50393621  0.24810071  0.80971606  1
  Mn  Mn28  1  0.50108074  0.24891103  0.33614550  1
  Mn  Mn29  1  0.99891926  0.25108897  0.83614550  1
  Mn  Mn30  1  0.99606379  0.25189929  0.30971606  1
  Mn  Mn31  1  0.00155161  0.00176224  0.49980987  1
  F  F32  1  0.00273096  0.90869626  0.16224017  1
  F  F33  1  0.00128614  0.59349718  0.15690636  1
  F  F34  1  0.05239830  0.86215638  0.79499338  1
  F  F35  1  0.05886364  0.64235372  0.78850408  1
  F  F36  1  0.06155582  0.25998695  0.98355762  1
  F  F37  1  0.06786694  0.14307936  0.41360080  1
  F  F38  1  0.06423394  0.36007897  0.40984997  1
  F  F39  1  0.07260853  0.74863709  0.30696300  1
  F  F40  1  0.15061968  0.05898487  0.60649942  1
  F  F41  1  0.13987588  0.44172465  0.60731518  1
  F  F42  1  0.19983948  0.56363014  0.43892260  1
  F  F43  1  0.20366322  0.93966846  0.43869223  1
  F  F44  1  0.24080505  0.75063800  0.61180140  1
  F  F45  1  0.24636987  0.24943148  0.76090035  1
  F  F46  1  0.25363013  0.25056852  0.26090035  1
  F  F47  1  0.25919495  0.74936200  0.11180140  1
  F  F48  1  0.30016052  0.93636986  0.93892260  1
  F  F49  1  0.29633678  0.56033154  0.93869223  1
  F  F50  1  0.36012412  0.05827535  0.10731518  1
  F  F51  1  0.34938032  0.44101513  0.10649942  1
  F  F52  1  0.42739147  0.75136291  0.80696300  1
  F  F53  1  0.43576606  0.13992103  0.90984997  1
  F  F54  1  0.43213306  0.35692064  0.91360080  1
  F  F55  1  0.43844418  0.24001305  0.48355762  1
  F  F56  1  0.44113636  0.85764628  0.28850408  1
  F  F57  1  0.44760170  0.63784362  0.29499338  1
  F  F58  1  0.49726904  0.59130374  0.66224017  1
  F  F59  1  0.49871386  0.90650282  0.65690636  1
  F  F60  1  0.50273096  0.09130374  0.33775983  1
  F  F61  1  0.50128614  0.40650282  0.34309364  1
  F  F62  1  0.55886364  0.35764628  0.71149592  1
  F  F63  1  0.55239830  0.13784362  0.70500662  1
  F  F64  1  0.56155582  0.74001305  0.51644238  1
  F  F65  1  0.56423394  0.63992103  0.09015003  1
  F  F66  1  0.56786694  0.85692064  0.08639920  1
  F  F67  1  0.57260853  0.25136291  0.19303700  1
  F  F68  1  0.63987588  0.55827535  0.89268482  1
  F  F69  1  0.65061968  0.94101513  0.89350058  1
  F  F70  1  0.69983948  0.43636986  0.06107740  1
  F  F71  1  0.70366322  0.06033154  0.06130777  1
  F  F72  1  0.74080505  0.24936200  0.88819860  1
  F  F73  1  0.74636987  0.75056852  0.73909965  1
  F  F74  1  0.75363013  0.74943148  0.23909965  1
  F  F75  1  0.75919495  0.25063800  0.38819860  1
  F  F76  1  0.80016052  0.06363014  0.56107740  1
  F  F77  1  0.79633678  0.43966846  0.56130777  1
  F  F78  1  0.84938032  0.55898487  0.39350058  1
  F  F79  1  0.86012412  0.94172465  0.39268482  1
  F  F80  1  0.92739147  0.24863709  0.69303700  1
  F  F81  1  0.93213306  0.64307936  0.58639920  1
  F  F82  1  0.93576606  0.86007897  0.59015003  1
  F  F83  1  0.93844418  0.75998695  0.01644238  1
  F  F84  1  0.94760170  0.36215638  0.20500662  1
  F  F85  1  0.94113636  0.14235372  0.21149592  1
  F  F86  1  0.99871386  0.09349718  0.84309364  1
  F  F87  1  0.99726904  0.40869626  0.83775983  1
