# generated using pymatgen
data_Na2FePCO7
_symmetry_space_group_name_H-M   'P 1'
_cell_length_a   8.94887098
_cell_length_b   8.40473843
_cell_length_c   8.40572079
_cell_angle_alpha   77.87389832
_cell_angle_beta   90.28805572
_cell_angle_gamma   91.35780446
_symmetry_Int_Tables_number   1
_chemical_formula_structural   Na2FePCO7
_chemical_formula_sum   'Na8 Fe4 P4 C4 O28'
_cell_volume   617.93895231
_cell_formula_units_Z   4
loop_
 _symmetry_equiv_pos_site_id
 _symmetry_equiv_pos_as_xyz
  1  'x, y, z'
loop_
 _atom_site_type_symbol
 _atom_site_label
 _atom_site_symmetry_multiplicity
 _atom_site_fract_x
 _atom_site_fract_y
 _atom_site_fract_z
 _atom_site_occupancy
  Na  Na0  1  0.91708112  0.23262356  0.50498164  1
  Na  Na1  1  0.90811606  0.77840724  0.96244074  1
  Na  Na2  1  0.74138616  0.37901309  0.12129110  1
  Na  Na3  1  0.74238451  0.63051523  0.37407933  1
  Na  Na4  1  0.26587326  0.38096175  0.63139505  1
  Na  Na5  1  0.26327485  0.87908398  0.13167003  1
  Na  Na6  1  0.08084905  0.76494765  0.52553649  1
  Na  Na7  1  0.08221290  0.24555272  0.00818936  1
  Fe  Fe8  1  0.65384931  0.01543405  0.23529324  1
  Fe  Fe9  1  0.65416678  0.51518632  0.73482241  1
  Fe  Fe10  1  0.35146332  0.97740870  0.76075997  1
  Fe  Fe11  1  0.33992423  0.47792144  0.25885675  1
  P  P12  1  0.57298055  0.23703613  0.51406404  1
  P  P13  1  0.57637614  0.72894033  0.02229794  1
  P  P14  1  0.42483319  0.26442179  0.98168370  1
  P  P15  1  0.42448414  0.76364429  0.48095135  1
  C  C16  1  0.93469862  0.48517455  0.75651252  1
  C  C17  1  0.93441069  0.99083244  0.26067193  1
  C  C18  1  0.07223584  0.01172290  0.74502424  1
  C  C19  1  0.05988605  0.51500226  0.24052872  1
  O  O20  1  0.93197754  0.02222964  0.73506605  1
  O  O21  1  0.91869503  0.53271088  0.22363946  1
  O  O22  1  0.87329427  0.59702522  0.64350598  1
  O  O23  1  0.87295804  0.11246895  0.15929811  1
  O  O24  1  0.84024102  0.39920525  0.86115310  1
  O  O25  1  0.84000585  0.89529854  0.35785704  1
  O  O26  1  0.66983214  0.17546563  0.38706198  1
  O  O27  1  0.67274143  0.65645841  0.90322707  1
  O  O28  1  0.67778655  0.36316069  0.57428932  1
  O  O29  1  0.68143530  0.84662079  0.09328970  1
  O  O30  1  0.56652725  0.68075223  0.56030526  1
  O  O31  1  0.56702743  0.18965286  0.06840334  1
  O  O32  1  0.52415006  0.09767603  0.65550050  1
  O  O33  1  0.53065334  0.58531995  0.16709560  1
  O  O34  1  0.47224887  0.39958474  0.83244202  1
  O  O35  1  0.47233011  0.90052362  0.33319572  1
  O  O36  1  0.43570588  0.81333251  0.94411738  1
  O  O37  1  0.43026394  0.32132702  0.43576709  1
  O  O38  1  0.32443949  0.13530620  0.92305903  1
  O  O39  1  0.32924356  0.83156770  0.60294490  1
  O  O40  1  0.31880886  0.64114137  0.41658974  1
  O  O41  1  0.32397802  0.33697057  0.09708973  1
  O  O42  1  0.16558634  0.10877115  0.64672189  1
  O  O43  1  0.15572425  0.60897082  0.14542386  1
  O  O44  1  0.11801077  0.39968599  0.35138674  1
  O  O45  1  0.13765860  0.89764240  0.85369997  1
  O  O46  1  0.07424786  0.46229770  0.76443223  1
  O  O47  1  0.07394143  0.96746771  0.26484968  1
