# generated using pymatgen
data_LiV5(BO5)2
_symmetry_space_group_name_H-M   'P 1'
_cell_length_a   9.51926834
_cell_length_b   12.53269330
_cell_length_c   3.05797122
_cell_angle_alpha   90.00000000
_cell_angle_beta   90.00000000
_cell_angle_gamma   90.00000000
_symmetry_Int_Tables_number   1
_chemical_formula_structural   LiV5(BO5)2
_chemical_formula_sum   'Li2 V10 B4 O20'
_cell_volume   364.82229821
_cell_formula_units_Z   2
loop_
 _symmetry_equiv_pos_site_id
 _symmetry_equiv_pos_as_xyz
  1  'x, y, z'
loop_
 _atom_site_type_symbol
 _atom_site_label
 _atom_site_symmetry_multiplicity
 _atom_site_fract_x
 _atom_site_fract_y
 _atom_site_fract_z
 _atom_site_occupancy
  Li  Li0  1  -0.00000000  0.50000000  0.50000000  1
  Li  Li1  1  0.50000000  -0.00000000  0.50000000  1
  V  V2  1  -0.00000000  0.00000000  -0.00000000  1
  V  V3  1  0.00604864  0.28590390  0.00000000  1
  V  V4  1  0.24798330  0.11178078  0.50000000  1
  V  V5  1  0.25201670  0.61178078  0.50000000  1
  V  V6  1  0.49395136  0.78590390  -0.00000000  1
  V  V7  1  0.50000000  0.50000000  -0.00000000  1
  V  V8  1  0.50604864  0.21409610  -0.00000000  1
  V  V9  1  0.74798330  0.38821922  0.50000000  1
  V  V10  1  0.75201670  0.88821922  0.50000000  1
  V  V11  1  0.99395136  0.71409610  -0.00000000  1
  B  B12  1  0.22364340  0.85862692  0.50000000  1
  B  B13  1  0.27635660  0.35862692  0.50000000  1
  B  B14  1  0.72364340  0.64137308  0.50000000  1
  B  B15  1  0.77635660  0.14137308  0.50000000  1
  O  O16  1  0.11187391  0.14452316  -0.00000000  1
  O  O17  1  0.11774709  0.58087008  -0.00000000  1
  O  O18  1  0.13105750  0.35446976  0.50000000  1
  O  O19  1  0.15314301  0.95585277  0.50000000  1
  O  O20  1  0.14544851  0.76437472  0.50000000  1
  O  O21  1  0.35455149  0.26437472  0.50000000  1
  O  O22  1  0.34685699  0.45585277  0.50000000  1
  O  O23  1  0.36894250  0.85446976  0.50000000  1
  O  O24  1  0.38225291  0.08087008  -0.00000000  1
  O  O25  1  0.38812609  0.64452216  -0.00000000  1
  O  O26  1  0.61187391  0.35547684  -0.00000000  1
  O  O27  1  0.61774709  0.91912992  -0.00000000  1
  O  O28  1  0.63105750  0.14553024  0.50000000  1
  O  O29  1  0.65314301  0.54414723  0.50000000  1
  O  O30  1  0.64544851  0.73562528  0.50000000  1
  O  O31  1  0.85455149  0.23562528  0.50000000  1
  O  O32  1  0.84685699  0.04414723  0.50000000  1
  O  O33  1  0.86894250  0.64553024  0.50000000  1
  O  O34  1  0.88225291  0.41912992  0.00000000  1
  O  O35  1  0.88812609  0.85547784  -0.00000000  1
