# generated using pymatgen
data_LiFeSnO4
_symmetry_space_group_name_H-M   'P 1'
_cell_length_a   3.11577635
_cell_length_b   5.18555689
_cell_length_c   9.91613391
_cell_angle_alpha   90.00000000
_cell_angle_beta   90.00000000
_cell_angle_gamma   90.00000000
_symmetry_Int_Tables_number   1
_chemical_formula_structural   LiFeSnO4
_chemical_formula_sum   'Li2 Fe2 Sn2 O8'
_cell_volume   160.21532780
_cell_formula_units_Z   2
loop_
 _symmetry_equiv_pos_site_id
 _symmetry_equiv_pos_as_xyz
  1  'x, y, z'
loop_
 _atom_site_type_symbol
 _atom_site_label
 _atom_site_symmetry_multiplicity
 _atom_site_fract_x
 _atom_site_fract_y
 _atom_site_fract_z
 _atom_site_occupancy
  Li  Li0  1  0.75000000  0.47084823  0.94145768  1
  Li  Li1  1  0.75000000  0.02915177  0.44145768  1
  Fe  Fe2  1  0.75000000  0.49398779  0.35075224  1
  Fe  Fe3  1  0.75000000  0.00601221  0.85075224  1
  Sn  Sn4  1  0.25000000  0.51946706  0.63423322  1
  Sn  Sn5  1  0.25000000  0.98053294  0.13423322  1
  O  O6  1  0.25000000  0.29206832  0.45787834  1
  O  O7  1  0.25000000  0.70023134  0.28355539  1
  O  O8  1  0.25000000  0.20793168  0.95787834  1
  O  O9  1  0.25000000  0.79976866  0.78355539  1
  O  O10  1  0.75000000  0.70564734  0.53174965  1
  O  O11  1  0.75000000  0.18185738  0.22937248  1
  O  O12  1  0.75000000  0.31814262  0.72937248  1
  O  O13  1  0.75000000  0.79435266  0.03174965  1
