# generated using pymatgen
data_Li4Fe2Cu3Te3O16
_symmetry_space_group_name_H-M   'P 1'
_cell_length_a   6.28014760
_cell_length_b   6.11329991
_cell_length_c   9.70003070
_cell_angle_alpha   89.38413977
_cell_angle_beta   87.81844321
_cell_angle_gamma   118.81438368
_symmetry_Int_Tables_number   1
_chemical_formula_structural   Li4Fe2Cu3Te3O16
_chemical_formula_sum   'Li4 Fe2 Cu3 Te3 O16'
_cell_volume   325.88173374
_cell_formula_units_Z   1
loop_
 _symmetry_equiv_pos_site_id
 _symmetry_equiv_pos_as_xyz
  1  'x, y, z'
loop_
 _atom_site_type_symbol
 _atom_site_label
 _atom_site_symmetry_multiplicity
 _atom_site_fract_x
 _atom_site_fract_y
 _atom_site_fract_z
 _atom_site_occupancy
  Li  Li0  1  0.34745767  0.68388697  0.90419644  1
  Li  Li1  1  0.00553366  0.99349374  0.01018562  1
  Li  Li2  1  0.05093363  0.02414151  0.48010764  1
  Li  Li3  1  0.69131304  0.34711990  0.38213106  1
  Fe  Fe4  1  0.29877427  0.63225716  0.47386804  1
  Fe  Fe5  1  0.62041619  0.31637063  0.00688316  1
  Cu  Cu6  1  0.16216853  0.82878344  0.21197488  1
  Cu  Cu7  1  0.16169214  0.33420517  0.20949908  1
  Cu  Cu8  1  0.33887734  0.18276002  0.71156466  1
  Te  Te9  1  0.64742503  0.82531884  0.21811472  1
  Te  Te10  1  0.83983751  0.66396289  0.71652572  1
  Te  Te11  1  0.82369209  0.16184127  0.71904722  1
  O  O12  1  0.14764636  0.82239229  0.60266125  1
  O  O13  1  0.05083994  0.52154864  0.33794737  1
  O  O14  1  0.34185809  0.67543853  0.11539079  1
  O  O15  1  0.97561863  0.98697198  0.29537645  1
  O  O16  1  0.97860248  0.96176416  0.82536408  1
  O  O17  1  0.19450845  0.33198332  0.58731634  1
  O  O18  1  0.51610402  0.96733836  0.35570946  1
  O  O19  1  0.51643426  0.54139419  0.34778264  1
  O  O20  1  0.31024695  0.15933965  0.09663618  1
  O  O21  1  0.70478285  0.83047598  0.60150933  1
  O  O22  1  0.53621265  0.49971911  0.83199503  1
  O  O23  1  0.51197384  0.04689764  0.83712996  1
  O  O24  1  0.70694281  0.37617907  0.59602144  1
  O  O25  1  0.77744229  0.65714233  0.09486488  1
  O  O26  1  0.96365601  0.50439114  0.84647220  1
  O  O27  1  0.77900926  0.12318206  0.09156535  1
