# generated using pymatgen
data_Na2NiPCO7
_symmetry_space_group_name_H-M   'P 1'
_cell_length_a   8.92465320
_cell_length_b   5.16197115
_cell_length_c   13.17509367
_cell_angle_alpha   90.13247714
_cell_angle_beta   90.44361405
_cell_angle_gamma   88.60795793
_symmetry_Int_Tables_number   1
_chemical_formula_structural   Na2NiPCO7
_chemical_formula_sum   'Na8 Ni4 P4 C4 O28'
_cell_volume   606.76209878
_cell_formula_units_Z   4
loop_
 _symmetry_equiv_pos_site_id
 _symmetry_equiv_pos_as_xyz
  1  'x, y, z'
loop_
 _atom_site_type_symbol
 _atom_site_label
 _atom_site_symmetry_multiplicity
 _atom_site_fract_x
 _atom_site_fract_y
 _atom_site_fract_z
 _atom_site_occupancy
  Na  Na0  1  0.25667382  0.24643555  0.00630788  1
  Na  Na1  1  0.24976258  0.24205440  0.24425365  1
  Na  Na2  1  0.25350061  0.24553002  0.50490191  1
  Na  Na3  1  0.26326756  0.24999886  0.74308516  1
  Na  Na4  1  0.74840916  0.75704364  0.25718712  1
  Na  Na5  1  0.75495419  0.76143105  0.50000736  1
  Na  Na6  1  0.73367347  0.74907846  0.98707541  1
  Na  Na7  1  0.90798688  0.21186024  0.85768951  1
  Ni  Ni8  1  0.35294896  0.78312845  0.37528349  1
  Ni  Ni9  1  0.34699187  0.78189716  0.87475946  1
  Ni  Ni10  1  0.64941289  0.21696666  0.12547661  1
  Ni  Ni11  1  0.65233944  0.21485473  0.62834051  1
  P  P12  1  0.42260773  0.71446381  0.12507832  1
  P  P13  1  0.42393147  0.71839959  0.62525685  1
  P  P14  1  0.57844102  0.28562951  0.37650468  1
  P  P15  1  0.57655844  0.28673410  0.87505593  1
  C  C16  1  0.07501538  0.71929623  0.37456376  1
  C  C17  1  0.07111904  0.71388523  0.87781240  1
  C  C18  1  0.93318196  0.28217398  0.62329375  1
  C  C19  1  0.92563679  0.28430475  0.12517761  1
  O  O20  1  0.06525070  0.30985676  0.12273138  1
  O  O21  1  0.07242852  0.31949316  0.62534156  1
  O  O22  1  0.13780117  0.94436108  0.37362418  1
  O  O23  1  0.12671295  0.94601447  0.87542280  1
  O  O24  1  0.17014011  0.52405142  0.37409889  1
  O  O25  1  0.16982193  0.52175689  0.87402545  1
  O  O26  1  0.32585952  0.79161773  0.53094586  1
  O  O27  1  0.32505878  0.79001387  0.03164184  1
  O  O28  1  0.32980264  0.79063525  0.21970490  1
  O  O29  1  0.32790529  0.79722829  0.71843949  1
  O  O30  1  0.42456640  0.15275909  0.37541863  1
  O  O31  1  0.42669371  0.14347664  0.87646712  1
  O  O32  1  0.45289331  0.41244794  0.12477100  1
  O  O33  1  0.45352398  0.41742779  0.62539117  1
  O  O34  1  0.54886315  0.58769375  0.37636095  1
  O  O35  1  0.53844550  0.58227386  0.88084320  1
  O  O36  1  0.57496165  0.85590836  0.62278061  1
  O  O37  1  0.57570188  0.84889887  0.12417212  1
  O  O38  1  0.67231276  0.22342610  0.78087327  1
  O  O39  1  0.67988085  0.21153875  0.96709888  1
  O  O40  1  0.67247232  0.20871128  0.28238952  1
  O  O41  1  0.67253634  0.20885987  0.47121584  1
  O  O42  1  0.82949282  0.47815352  0.12589022  1
  O  O43  1  0.83365620  0.46966401  0.62340209  1
  O  O44  1  0.87588294  0.05419259  0.62539372  1
  O  O45  1  0.86333287  0.05820708  0.12536612  1
  O  O46  1  0.93214234  0.67624710  0.88309452  1
  O  O47  1  0.93511912  0.69398401  0.37606432  1
