# generated using pymatgen
data_MnV4FeO12
_symmetry_space_group_name_H-M   'P 1'
_cell_length_a   6.91693831
_cell_length_b   6.91693866
_cell_length_c   5.93936154
_cell_angle_alpha   74.62847287
_cell_angle_beta   105.37152369
_cell_angle_gamma   95.85972954
_symmetry_Int_Tables_number   1
_chemical_formula_structural   MnV4FeO12
_chemical_formula_sum   'Mn1 V4 Fe1 O12'
_cell_volume   264.04124761
_cell_formula_units_Z   1
loop_
 _symmetry_equiv_pos_site_id
 _symmetry_equiv_pos_as_xyz
  1  'x, y, z'
loop_
 _atom_site_type_symbol
 _atom_site_label
 _atom_site_symmetry_multiplicity
 _atom_site_fract_x
 _atom_site_fract_y
 _atom_site_fract_z
 _atom_site_occupancy
  Mn  Mn0  1  0.91121077  0.91121077  0.25000000  1
  V  V1  1  0.20884442  0.61213214  0.76544902  1
  V  V2  1  0.38648937  0.79187383  0.26260217  1
  V  V3  1  0.61213214  0.20884442  0.73455098  1
  V  V4  1  0.79187383  0.38648937  0.23739783  1
  Fe  Fe5  1  0.08846842  0.08846842  0.75000000  1
  O  O6  1  0.04012078  0.80158606  0.65123635  1
  O  O7  1  0.09641953  0.38326993  0.79061068  1
  O  O8  1  0.19679358  0.95913042  0.14105419  1
  O  O9  1  0.36001568  0.64488849  0.55360218  1
  O  O10  1  0.38326993  0.09641953  0.70938932  1
  O  O11  1  0.35947681  0.63714642  0.05505304  1
  O  O12  1  0.64488849  0.36001569  0.94639782  1
  O  O13  1  0.61284138  0.90929097  0.28965327  1
  O  O14  1  0.63714642  0.35947681  0.44494696  1
  O  O15  1  0.80158606  0.04012078  0.84876365  1
  O  O16  1  0.90929097  0.61284138  0.21034673  1
  O  O17  1  0.95913042  0.19679358  0.35894581  1
