# generated using pymatgen
data_Mn2V3Sn(PO4)6
_symmetry_space_group_name_H-M   'P 1'
_cell_length_a   8.71487364
_cell_length_b   8.68065737
_cell_length_c   8.68065730
_cell_angle_alpha   60.00000494
_cell_angle_beta   60.12979202
_cell_angle_gamma   60.12979214
_symmetry_Int_Tables_number   1
_chemical_formula_structural   Mn2V3Sn(PO4)6
_chemical_formula_sum   'Mn2 V3 Sn1 P6 O24'
_cell_volume   465.26518983
_cell_formula_units_Z   1
loop_
 _symmetry_equiv_pos_site_id
 _symmetry_equiv_pos_as_xyz
  1  'x, y, z'
loop_
 _atom_site_type_symbol
 _atom_site_label
 _atom_site_symmetry_multiplicity
 _atom_site_fract_x
 _atom_site_fract_y
 _atom_site_fract_z
 _atom_site_occupancy
  Mn  Mn0  1  0.00989474  0.99670175  0.99670175  1
  Mn  Mn1  1  0.49797192  0.50067569  0.50067569  1
  V  V2  1  0.06603896  0.64465401  0.64465401  1
  V  V3  1  0.43350138  0.85549921  0.85549921  1
  V  V4  1  0.93002166  0.35665911  0.35665911  1
  Sn  Sn5  1  0.56536995  0.14487668  0.14487668  1
  P  P6  1  0.24538696  0.25202708  0.54668825  1
  P  P7  1  0.24538696  0.95589771  0.25202708  1
  P  P8  1  0.24538696  0.54668825  0.95589771  1
  P  P9  1  0.75073641  0.46050041  0.04160355  1
  P  P10  1  0.75073641  0.04160355  0.74715963  1
  P  P11  1  0.75073641  0.74715963  0.46050041  1
  O  O12  1  0.07157006  0.11752618  0.30647282  1
  O  O13  1  0.07157006  0.50443094  0.11752618  1
  O  O14  1  0.07157006  0.30647282  0.50443094  1
  O  O15  1  0.23698790  0.08652351  0.73766457  1
  O  O16  1  0.43112139  0.19501961  0.39046077  1
  O  O17  1  0.25720735  0.41585154  0.56382487  1
  O  O18  1  0.23698790  0.93882402  0.08652351  1
  O  O19  1  0.25720735  0.76311624  0.41585154  1
  O  O20  1  0.57122281  0.61561985  0.00548839  1
  O  O21  1  0.25720735  0.56382487  0.76311624  1
  O  O22  1  0.76722983  0.26407703  0.05642607  1
  O  O23  1  0.57122281  0.00548839  0.80766995  1
  O  O24  1  0.43112139  0.98339723  0.19501961  1
  O  O25  1  0.23698790  0.73766457  0.93882402  1
  O  O26  1  0.73810835  0.43960581  0.23639907  1
  O  O27  1  0.43112139  0.39046077  0.98339723  1
  O  O28  1  0.73810835  0.23639907  0.58588776  1
  O  O29  1  0.76722983  0.05642607  0.91226807  1
  O  O30  1  0.73810835  0.58588776  0.43960581  1
  O  O31  1  0.57122281  0.80766995  0.61561985  1
  O  O32  1  0.76722983  0.91226807  0.26407703  1
  O  O33  1  0.92949640  0.69014721  0.49675757  1
  O  O34  1  0.92949640  0.49675757  0.88359882  1
  O  O35  1  0.92949640  0.88359882  0.69014721  1
