# generated using pymatgen
data_Li7Mn4(P2O7)4
_symmetry_space_group_name_H-M   'P 1'
_cell_length_a   9.91363866
_cell_length_b   9.89178975
_cell_length_c   11.36553482
_cell_angle_alpha   90.12376956
_cell_angle_beta   102.93090563
_cell_angle_gamma   89.44354745
_symmetry_Int_Tables_number   1
_chemical_formula_structural   Li7Mn4(P2O7)4
_chemical_formula_sum   'Li14 Mn8 P16 O56'
_cell_volume   1086.23018946
_cell_formula_units_Z   2
loop_
 _symmetry_equiv_pos_site_id
 _symmetry_equiv_pos_as_xyz
  1  'x, y, z'
loop_
 _atom_site_type_symbol
 _atom_site_label
 _atom_site_symmetry_multiplicity
 _atom_site_fract_x
 _atom_site_fract_y
 _atom_site_fract_z
 _atom_site_occupancy
  Li  Li0  1  0.11211512  0.72052400  0.44613836  1
  Li  Li1  1  0.17925662  0.41327298  0.55014286  1
  Li  Li2  1  0.08693361  0.10999113  0.02741377  1
  Li  Li3  1  0.34211755  0.90467577  0.95857586  1
  Li  Li4  1  0.41355801  0.60725511  0.97281693  1
  Li  Li5  1  0.33816186  0.93235562  0.46015318  1
  Li  Li6  1  0.61172998  0.77939156  0.44888856  1
  Li  Li7  1  0.66328015  0.08047438  0.54351489  1
  Li  Li8  1  0.58658572  0.39249204  0.03123693  1
  Li  Li9  1  0.85279064  0.58669006  0.95841579  1
  Li  Li10  1  0.65394058  0.09068072  0.04241791  1
  Li  Li11  1  0.91453443  0.89378413  0.97161702  1
  Li  Li12  1  0.82954019  0.57663523  0.45594525  1
  Li  Li13  1  0.88789369  0.27990882  0.55194160  1
  Mn  Mn14  1  0.20161604  0.92347673  0.67119295  1
  Mn  Mn15  1  0.25972268  0.21578891  0.82422368  1
  Mn  Mn16  1  0.24186127  0.71110346  0.17553709  1
  Mn  Mn17  1  0.29643438  0.41816369  0.32451269  1
  Mn  Mn18  1  0.70282511  0.57787400  0.67755666  1
  Mn  Mn19  1  0.75705160  0.28435405  0.82580728  1
  Mn  Mn20  1  0.74731416  0.78423500  0.17810318  1
  Mn  Mn21  1  0.79699617  0.08097453  0.32419207  1
  P  P22  1  0.02845795  0.45164847  0.75752305  1
  P  P23  1  0.12035691  0.70615038  0.89077257  1
  P  P24  1  0.06033085  0.93282610  0.24374537  1
  P  P25  1  0.12308381  0.15160042  0.42548286  1
  P  P26  1  0.37674036  0.64869279  0.57247394  1
  P  P27  1  0.44027485  0.43183326  0.75805166  1
  P  P28  1  0.52453252  0.04850555  0.75897847  1
  P  P29  1  0.38046981  0.20708529  0.11025012  1
  P  P30  1  0.61816724  0.79531079  0.89320415  1
  P  P31  1  0.47364579  0.95065612  0.23795601  1
  P  P32  1  0.55973956  0.56742812  0.24432584  1
  P  P33  1  0.61927503  0.35305293  0.42241369  1
  P  P34  1  0.87646941  0.85024204  0.57303992  1
  P  P35  1  0.94126341  0.06820379  0.75556539  1
  P  P36  1  0.88186487  0.29416736  0.10874243  1
  P  P37  1  0.97800748  0.54294778  0.24337192  1
  O  O38  1  0.02056438  0.42111834  0.62514370  1
  O  O39  1  0.02332862  0.83770315  0.55350324  1
  O  O40  1  0.08790892  0.08736726  0.73263741  1
  O  O41  1  0.11681058  0.34904421  0.84503184  1
  O  O42  1  0.10128903  0.59670597  0.78023040  1
  O  O43  1  0.17880272  0.83056669  0.84032877  1
  O  O44  1  0.22856943  0.64680401  0.99768362  1
  O  O45  1  0.01760649  0.26907011  0.07665527  1
  O  O46  1  0.11276943  0.08021636  0.29458122  1
  O  O47  1  0.06392838  0.93556111  0.11107099  1
  O  O48  1  0.13243801  0.53092001  0.22872049  1
  O  O49  1  0.18208880  0.29287390  0.41162420  1
  O  O50  1  0.16492128  0.82663575  0.31189859  1
  O  O51  1  0.21657621  0.06009526  0.51677432  1
  O  O52  1  0.27501799  0.56245099  0.48121989  1
  O  O53  1  0.32851303  0.32840705  0.69763426  1
  O  O54  1  0.31199109  0.78928780  0.57999102  1
  O  O55  1  0.37340861  0.04291731  0.78614014  1
  O  O56  1  0.38541702  0.57888298  0.70305409  1
  O  O57  1  0.44248839  0.43933926  0.89130446  1
  O  O58  1  0.48021910  0.77577390  0.92605831  1
  O  O59  1  0.27664794  0.13976183  0.00003397  1
  O  O60  1  0.32222009  0.32879140  0.16279168  1
  O  O61  1  0.40144093  0.09767034  0.22000256  1
  O  O62  1  0.41393460  0.58182521  0.27186455  1
  O  O63  1  0.38422163  0.85850395  0.14341474  1
  O  O64  1  0.52330052  0.07866667  0.62981278  1
  O  O65  1  0.46770428  0.35204384  0.43267117  1
  O  O66  1  0.52377821  0.65858896  0.55358919  1
  O  O67  1  0.47683839  0.91346756  0.36813055  1
  O  O68  1  0.61323956  0.13712120  0.85711672  1
  O  O69  1  0.58274561  0.40929786  0.72802494  1
  O  O70  1  0.58949520  0.89704613  0.77844320  1
  O  O71  1  0.68353144  0.67010620  0.84857129  1
  O  O72  1  0.72313877  0.86593954  0.99773259  1
  O  O73  1  0.51837960  0.22365730  0.07586279  1
  O  O74  1  0.56319869  0.56766219  0.11207562  1
  O  O75  1  0.62063927  0.42050519  0.29298682  1
  O  O76  1  0.62120951  0.96348375  0.21242382  1
  O  O77  1  0.68040071  0.21082769  0.41842543  1
  O  O78  1  0.66230708  0.67261795  0.31407776  1
  O  O79  1  0.71920249  0.43642929  0.51744790  1
  O  O80  1  0.77493099  0.93754884  0.48171868  1
  O  O81  1  0.83680558  0.17320445  0.68573115  1
  O  O82  1  0.81108341  0.71129881  0.58146980  1
  O  O83  1  0.88295941  0.46430065  0.78812218  1
  O  O84  1  0.93525848  0.06498082  0.88745627  1
  O  O85  1  0.88797027  0.92062374  0.70387321  1
  O  O86  1  0.98031103  0.72473735  0.92114216  1
  O  O87  1  0.77652052  0.36791779  0.00457939  1
  O  O88  1  0.81182260  0.17366591  0.15487685  1
  O  O89  1  0.90794157  0.39750880  0.22512922  1
  O  O90  1  0.89631787  0.63594272  0.14382495  1
  O  O91  1  0.91507796  0.91290211  0.26908973  1
  O  O92  1  0.97503994  0.16567783  0.44428543  1
  O  O93  1  0.97309792  0.58609460  0.37056076  1
