# generated using pymatgen
data_Li5Ti2Fe3O10
_symmetry_space_group_name_H-M   'P 1'
_cell_length_a   5.21593037
_cell_length_b   5.19425089
_cell_length_c   7.91681110
_cell_angle_alpha   71.29648449
_cell_angle_beta   109.05128864
_cell_angle_gamma   99.76580701
_symmetry_Int_Tables_number   1
_chemical_formula_structural   Li5Ti2Fe3O10
_chemical_formula_sum   'Li5 Ti2 Fe3 O10'
_cell_volume   191.52813707
_cell_formula_units_Z   1
loop_
 _symmetry_equiv_pos_site_id
 _symmetry_equiv_pos_as_xyz
  1  'x, y, z'
loop_
 _atom_site_type_symbol
 _atom_site_label
 _atom_site_symmetry_multiplicity
 _atom_site_fract_x
 _atom_site_fract_y
 _atom_site_fract_z
 _atom_site_occupancy
  Li  Li0  1  0.22513071  0.49121320  0.40749934  1
  Li  Li1  1  0.39838263  0.50921699  0.79389348  1
  Li  Li2  1  0.49439713  0.99883318  0.49693984  1
  Li  Li3  1  0.78419272  0.50198109  0.59632139  1
  Li  Li4  1  0.59613917  0.48808742  0.20999889  1
  Ti  Ti5  1  0.09741971  0.01639151  0.69077720  1
  Ti  Ti6  1  0.88965096  0.97573822  0.31082835  1
  Fe  Fe7  1  0.00544760  0.49554860  0.00557806  1
  Fe  Fe8  1  0.30175216  0.99747097  0.10765480  1
  Fe  Fe9  1  0.69230927  0.00105914  0.89559059  1
  O  O10  1  0.03058632  0.23355284  0.83622930  1
  O  O11  1  0.13104020  0.77883396  0.54405206  1
  O  O12  1  0.34758619  0.77024786  0.93089928  1
  O  O13  1  0.22301183  0.23823364  0.24890446  1
  O  O14  1  0.43201262  0.23042293  0.66619145  1
  O  O15  1  0.57656158  0.75630374  0.35172544  1
  O  O16  1  0.77808111  0.76485246  0.76255599  1
  O  O17  1  0.66258015  0.22476311  0.06196614  1
  O  O18  1  0.86740474  0.21811989  0.45873895  1
  O  O19  1  0.93639021  0.76929225  0.15232601  1
