# generated using pymatgen
data_Li32Mn5Cr11O48
_symmetry_space_group_name_H-M   'P 1'
_cell_length_a   5.00927810
_cell_length_b   5.03274560
_cell_length_c   38.42233239
_cell_angle_alpha   88.79835868
_cell_angle_beta   90.74977302
_cell_angle_gamma   60.43439027
_symmetry_Int_Tables_number   1
_chemical_formula_structural   Li32Mn5Cr11O48
_chemical_formula_sum   'Li32 Mn5 Cr11 O48'
_cell_volume   842.02623438
_cell_formula_units_Z   1
loop_
 _symmetry_equiv_pos_site_id
 _symmetry_equiv_pos_as_xyz
  1  'x, y, z'
loop_
 _atom_site_type_symbol
 _atom_site_label
 _atom_site_symmetry_multiplicity
 _atom_site_fract_x
 _atom_site_fract_y
 _atom_site_fract_z
 _atom_site_occupancy
  Li  Li0  1  0.08348465  0.09189067  0.24977637  1
  Li  Li1  1  0.99764112  0.50531501  0.00020702  1
  Li  Li2  1  0.05759360  0.44210330  0.18745852  1
  Li  Li3  1  0.12622236  0.37459598  0.37486360  1
  Li  Li4  1  0.18632537  0.30878239  0.56255612  1
  Li  Li5  1  0.25379429  0.25033929  0.74998522  1
  Li  Li6  1  0.31265984  0.18740712  0.93752059  1
  Li  Li7  1  0.03302077  0.78439530  0.12511649  1
  Li  Li8  1  0.37645550  0.12436076  0.12498951  1
  Li  Li9  1  0.15855422  0.66285052  0.50013633  1
  Li  Li10  1  0.27920920  0.53893171  0.87498637  1
  Li  Li11  1  0.43920802  0.06614856  0.31240581  1
  Li  Li12  1  0.49822818  0.00134602  0.50008356  1
  Li  Li13  1  0.41287250  0.41096650  0.25009461  1
  Li  Li14  1  0.53795435  0.28544102  0.62494450  1
  Li  Li15  1  0.21496543  0.96444426  0.62484363  1
  Li  Li16  1  0.34078502  0.83549998  0.00005114  1
  Li  Li17  1  0.66175612  0.15966165  0.00029194  1
  Li  Li18  1  0.77912539  0.03986978  0.37486016  1
  Li  Li19  1  0.46888964  0.70941063  0.37493735  1
  Li  Li20  1  0.58318938  0.59230250  0.74977213  1
  Li  Li21  1  0.56269694  0.93740879  0.68749019  1
  Li  Li22  1  0.71503043  0.46590779  0.12491876  1
  Li  Li23  1  0.84416165  0.33662015  0.49989113  1
  Li  Li24  1  0.62589881  0.87560812  0.87501463  1
  Li  Li25  1  0.96902112  0.20924535  0.87506959  1
  Li  Li26  1  0.69227075  0.80949913  0.06254528  1
  Li  Li27  1  0.75369499  0.74594291  0.24990881  1
  Li  Li28  1  0.81258914  0.68747483  0.43753062  1
  Li  Li29  1  0.87221722  0.62563780  0.62493541  1
  Li  Li30  1  0.94025002  0.56557894  0.81247610  1
  Li  Li31  1  0.91264082  0.90750414  0.75027193  1
  Mn  Mn32  1  0.35410600  0.47943620  0.06252125  1
  Mn  Mn33  1  0.27012654  0.89535041  0.81250000  1
  Mn  Mn34  1  0.39556649  0.77085531  0.18749047  1
  Mn  Mn35  1  0.76986013  0.39540454  0.31247752  1
  Mn  Mn36  1  0.85573102  0.97951571  0.56253567  1
  Cr  Cr37  1  0.02657443  0.14007044  0.06263732  1
  Cr  Cr38  1  0.14221149  0.01580631  0.43740184  1
  Cr  Cr39  1  0.10701162  0.73467174  0.31254647  1
  Cr  Cr40  1  0.22240467  0.60910069  0.68723677  1
  Cr  Cr41  1  0.48285134  0.35853676  0.43756450  1
  Cr  Cr42  1  0.60749291  0.23414572  0.81255104  1
  Cr  Cr43  1  0.72386914  0.11047951  0.18736627  1
  Cr  Cr44  1  0.51876187  0.64022995  0.56239786  1
  Cr  Cr45  1  0.64198565  0.51601441  0.93742487  1
  Cr  Cr46  1  0.90222613  0.26599512  0.68775821  1
  Cr  Cr47  1  0.98269736  0.85868023  0.93758974  1
  O  O48  1  0.08561859  0.05285741  0.34033983  1
  O  O49  1  0.05453080  0.08427960  0.15942869  1
  O  O50  1  0.07073656  0.42985365  0.28401386  1
  O  O51  1  0.19008868  0.29941791  0.65858763  1
  O  O52  1  0.05518957  0.45046947  0.09156145  1
  O  O53  1  0.17865959  0.32051198  0.46595334  1
  O  O54  1  0.30434140  0.19391806  0.84091190  1
  O  O55  1  0.31616565  0.18175966  0.03411248  1
  O  O56  1  0.44543045  0.05522515  0.40907615  1
  O  O57  1  0.07140350  0.78653683  0.21559185  1
  O  O58  1  0.43477316  0.06731717  0.21590162  1
  O  O59  1  0.19795094  0.66409175  0.59042050  1
  O  O60  1  0.33101442  0.53091439  0.96581007  1
  O  O61  1  0.03892983  0.81287505  0.03424629  1
  O  O62  1  0.15595898  0.70726751  0.40917882  1
  O  O63  1  0.28124624  0.57883185  0.78417267  1
  O  O64  1  0.20703698  0.94205129  0.71568224  1
  O  O65  1  0.17432773  0.96838276  0.53412504  1
  O  O66  1  0.29409444  0.84307674  0.90912236  1
  O  O67  1  0.45100344  0.40664623  0.34091043  1
  O  O68  1  0.56972362  0.28702914  0.71541072  1
  O  O69  1  0.41420934  0.44428030  0.15966841  1
  O  O70  1  0.53949592  0.32205435  0.53468609  1
  O  O71  1  0.65613122  0.20705739  0.90916559  1
  O  O72  1  0.33400855  0.80664842  0.09030483  1
  O  O73  1  0.46878891  0.66730835  0.46584337  1
  O  O74  1  0.58511843  0.55254774  0.84032094  1
  O  O75  1  0.42766551  0.71082702  0.28465159  1
  O  O76  1  0.55515587  0.58728568  0.65960163  1
  O  O77  1  0.69433574  0.16466177  0.09053224  1
  O  O78  1  0.83045308  0.03189238  0.46588339  1
  O  O79  1  0.78128489  0.07815865  0.28420922  1
  O  O80  1  0.71151911  0.43593900  0.21556861  1
  O  O81  1  0.84375002  0.29676267  0.59080603  1
  O  O82  1  0.96899582  0.16733101  0.96577082  1
  O  O83  1  0.67993471  0.46262871  0.03453868  1
  O  O84  1  0.79413837  0.34342128  0.40915377  1
  O  O85  1  0.56991465  0.93091105  0.78408095  1
  O  O86  1  0.92783724  0.21085202  0.78463102  1
  O  O87  1  0.55479708  0.94500896  0.59100377  1
  O  O88  1  0.67831500  0.82036110  0.96584628  1
  O  O89  1  0.69499025  0.79967576  0.15844165  1
  O  O90  1  0.82012703  0.68122109  0.53411238  1
  O  O91  1  0.94573620  0.55475317  0.90906937  1
  O  O92  1  0.80527115  0.69379769  0.34092827  1
  O  O93  1  0.93477388  0.57532649  0.71645361  1
  O  O94  1  0.95126517  0.90636762  0.84087342  1
  O  O95  1  0.91788263  0.93282177  0.65936491  1
