# generated using pymatgen
data_Li7Mn4(P2O7)4
_symmetry_space_group_name_H-M   'P 1'
_cell_length_a   9.88334983
_cell_length_b   9.90622034
_cell_length_c   11.38481153
_cell_angle_alpha   89.99490775
_cell_angle_beta   102.99832485
_cell_angle_gamma   90.07804921
_symmetry_Int_Tables_number   1
_chemical_formula_structural   Li7Mn4(P2O7)4
_chemical_formula_sum   'Li14 Mn8 P16 O56'
_cell_volume   1086.08657961
_cell_formula_units_Z   2
loop_
 _symmetry_equiv_pos_site_id
 _symmetry_equiv_pos_as_xyz
  1  'x, y, z'
loop_
 _atom_site_type_symbol
 _atom_site_label
 _atom_site_symmetry_multiplicity
 _atom_site_fract_x
 _atom_site_fract_y
 _atom_site_fract_z
 _atom_site_occupancy
  Li  Li0  1  0.17651456  0.42086639  0.55115852  1
  Li  Li1  1  0.08650400  0.10752200  0.02967183  1
  Li  Li2  1  0.34339520  0.90709962  0.95841342  1
  Li  Li3  1  0.15637609  0.40657127  0.04216035  1
  Li  Li4  1  0.41361375  0.60777832  0.97026164  1
  Li  Li5  1  0.32307241  0.92088245  0.44878527  1
  Li  Li6  1  0.61204630  0.78080160  0.44934665  1
  Li  Li7  1  0.66195792  0.07871133  0.53983866  1
  Li  Li8  1  0.58589196  0.39353155  0.02910747  1
  Li  Li9  1  0.84777075  0.58871015  0.95748313  1
  Li  Li10  1  0.65266297  0.08815540  0.04222515  1
  Li  Li11  1  0.91404901  0.89371884  0.97115610  1
  Li  Li12  1  0.83797204  0.57877838  0.45988965  1
  Li  Li13  1  0.88777254  0.28109299  0.55086230  1
  Mn  Mn14  1  0.20069946  0.92363615  0.66683143  1
  Mn  Mn15  1  0.25659157  0.21423902  0.82101367  1
  Mn  Mn16  1  0.24343063  0.71464557  0.17910946  1
  Mn  Mn17  1  0.29918232  0.42405764  0.33318882  1
  Mn  Mn18  1  0.70033878  0.58005886  0.67641567  1
  Mn  Mn19  1  0.74797758  0.28404452  0.82034179  1
  Mn  Mn20  1  0.75221570  0.78418328  0.17980180  1
  Mn  Mn21  1  0.79976219  0.08024538  0.32362641  1
  P  P22  1  0.02526114  0.45195331  0.76188480  1
  P  P23  1  0.11851923  0.70386672  0.89017895  1
  P  P24  1  0.06263652  0.93373071  0.24399046  1
  P  P25  1  0.12413802  0.15360816  0.42427374  1
  P  P26  1  0.37570686  0.65344053  0.57560951  1
  P  P27  1  0.43762655  0.43372362  0.75605267  1
  P  P28  1  0.52063287  0.04069432  0.75360132  1
  P  P29  1  0.38169185  0.20360207  0.10996108  1
  P  P30  1  0.61860604  0.79514573  0.89396125  1
  P  P31  1  0.47508981  0.95212065  0.23854854  1
  P  P32  1  0.56067722  0.56664080  0.24357730  1
  P  P33  1  0.62136540  0.35269778  0.42115515  1
  P  P34  1  0.87840478  0.85268607  0.57875661  1
  P  P35  1  0.93923239  0.06658230  0.75638327  1
  P  P36  1  0.88121380  0.29483818  0.10611050  1
  P  P37  1  0.97925297  0.54080131  0.24615196  1
  O  O38  1  0.02217526  0.41321867  0.63243232  1
  O  O39  1  0.03080551  0.84828189  0.56893897  1
  O  O40  1  0.08693306  0.07751781  0.72929246  1
  O  O41  1  0.11496724  0.36088198  0.85806606  1
  O  O42  1  0.09670599  0.59962752  0.77731275  1
  O  O43  1  0.18289115  0.82816357  0.84384854  1
  O  O44  1  0.22184444  0.63502852  0.99782580  1
  O  O45  1  0.01995436  0.27704994  0.07354223  1
  O  O46  1  0.11251604  0.08431826  0.29321682  1
  O  O47  1  0.05935267  0.93852770  0.11004426  1
  O  O48  1  0.13336415  0.52367368  0.22628499  1
  O  O49  1  0.18340106  0.29605279  0.41126069  1
  O  O50  1  0.17322945  0.83401608  0.30870665  1
  O  O51  1  0.21665959  0.06159268  0.51544678  1
  O  O52  1  0.28268890  0.56166857  0.48444772  1
  O  O53  1  0.32688649  0.33365743  0.69146089  1
  O  O54  1  0.31704425  0.79592366  0.58886681  1
  O  O55  1  0.36647204  0.02357640  0.77334770  1
  O  O56  1  0.38748389  0.58401806  0.70661237  1
  O  O57  1  0.44137075  0.43878425  0.88991331  1
  O  O58  1  0.47981510  0.77742940  0.92651471  1
  O  O59  1  0.27823265  0.13437840  0.00234453  1
  O  O60  1  0.31746475  0.32780910  0.15611685  1
  O  O61  1  0.40358883  0.09954212  0.22303780  1
  O  O62  1  0.41304991  0.57770583  0.27085597  1
  O  O63  1  0.38558790  0.86090268  0.14230095  1
  O  O64  1  0.52533980  0.07644522  0.62731493  1
  O  O65  1  0.46897165  0.34901988  0.43122431  1
  O  O66  1  0.52423472  0.66795104  0.55648859  1
  O  O67  1  0.47788774  0.91326635  0.36809846  1
  O  O68  1  0.59874758  0.13473034  0.85426185  1
  O  O69  1  0.58222483  0.41209251  0.72760172  1
  O  O70  1  0.59465760  0.89487433  0.77809813  1
  O  O71  1  0.68252700  0.66919909  0.85077786  1
  O  O72  1  0.72417860  0.86628231  0.99872587  1
  O  O73  1  0.52113819  0.22461051  0.07898798  1
  O  O74  1  0.56245391  0.56811780  0.11152944  1
  O  O75  1  0.62166830  0.42045490  0.29144272  1
  O  O76  1  0.62319059  0.96593281  0.21280227  1
  O  O77  1  0.68158052  0.21106695  0.41705283  1
  O  O78  1  0.66116024  0.67394056  0.31362698  1
  O  O79  1  0.72026981  0.43745365  0.51599508  1
  O  O80  1  0.78014269  0.93769281  0.48387690  1
  O  O81  1  0.83903772  0.17379763  0.68646625  1
  O  O82  1  0.81739285  0.71111822  0.58254481  1
  O  O83  1  0.87720591  0.46570422  0.78792290  1
  O  O84  1  0.93736667  0.06794846  0.88853805  1
  O  O85  1  0.87801833  0.92030094  0.70845226  1
  O  O86  1  0.97905169  0.72500852  0.92098215  1
  O  O87  1  0.77563112  0.36551471  0.00137654  1
  O  O88  1  0.81735462  0.16870042  0.14947767  1
  O  O89  1  0.90515847  0.39474171  0.22182545  1
  O  O90  1  0.90113555  0.63465187  0.14544937  1
  O  O91  1  0.91789413  0.91207597  0.27206428  1
  O  O92  1  0.97571686  0.16850990  0.44325930  1
  O  O93  1  0.97469769  0.57667339  0.37239482  1
