# generated using pymatgen
data_Li7TiFe3(PO4)6
_symmetry_space_group_name_H-M   'P 1'
_cell_length_a   8.82016430
_cell_length_b   8.82016443
_cell_length_c   8.87568729
_cell_angle_alpha   60.20671377
_cell_angle_beta   60.20671888
_cell_angle_gamma   59.99999788
_symmetry_Int_Tables_number   1
_chemical_formula_structural   Li7TiFe3(PO4)6
_chemical_formula_sum   'Li7 Ti1 Fe3 P6 O24'
_cell_volume   489.76783719
_cell_formula_units_Z   1
loop_
 _symmetry_equiv_pos_site_id
 _symmetry_equiv_pos_as_xyz
  1  'x, y, z'
loop_
 _atom_site_type_symbol
 _atom_site_label
 _atom_site_symmetry_multiplicity
 _atom_site_fract_x
 _atom_site_fract_y
 _atom_site_fract_z
 _atom_site_occupancy
  Li  Li0  1  0.06785434  0.79858616  0.88161746  1
  Li  Li1  1  0.25194104  0.06785434  0.88161746  1
  Li  Li2  1  0.46874654  0.46874654  0.59376138  1
  Li  Li3  1  0.79858616  0.25194104  0.88161746  1
  Li  Li4  1  0.27291454  0.61116322  0.33389081  1
  Li  Li5  1  0.61116322  0.78203143  0.33389081  1
  Li  Li6  1  0.78203143  0.27291454  0.33389081  1
  Ti  Ti7  1  0.85469589  0.85469589  0.43591332  1
  Fe  Fe8  1  0.35264751  0.35264751  0.94205648  1
  Fe  Fe9  1  0.14655972  0.14655972  0.56032184  1
  Fe  Fe10  1  0.64633803  0.64633803  0.06098690  1
  P  P11  1  0.04220375  0.45445685  0.75177344  1
  P  P12  1  0.45445685  0.75156596  0.75177344  1
  P  P13  1  0.75156596  0.04220375  0.75177344  1
  P  P14  1  0.24834503  0.95561066  0.25532932  1
  P  P15  1  0.54071599  0.24834503  0.25532932  1
  P  P16  1  0.95561066  0.54071599  0.25532932  1
  O  O17  1  0.06656656  0.26742931  0.74692000  1
  O  O18  1  0.00336351  0.61757542  0.57235629  1
  O  O19  1  0.22656221  0.44120306  0.74370461  1
  O  O20  1  0.47595359  0.71945304  0.92560920  1
  O  O21  1  0.26742931  0.91908513  0.74692000  1
  O  O22  1  0.44120306  0.58853012  0.74370461  1
  O  O23  1  0.71945304  0.87898417  0.92560920  1
  O  O24  1  0.58853012  0.22656221  0.74370461  1
  O  O25  1  0.19372456  0.00824358  0.41872798  1
  O  O26  1  0.09382979  0.89916184  0.27466349  1
  O  O27  1  0.87898417  0.47595359  0.92560920  1
  O  O28  1  0.37930388  0.19372456  0.41872798  1
  O  O29  1  0.61757542  0.80670377  0.57235629  1
  O  O30  1  0.11138881  0.54226785  0.06962180  1
  O  O31  1  0.91908513  0.06656656  0.74692000  1
  O  O32  1  0.80670377  0.00336351  0.57235629  1
  O  O33  1  0.41875962  0.77383047  0.26849629  1
  O  O34  1  0.27672254  0.11138881  0.06962180  1
  O  O35  1  0.53891361  0.41875962  0.26849629  1
  O  O36  1  0.73234488  0.09382979  0.27466349  1
  O  O37  1  0.54226785  0.27672254  0.06962180  1
  O  O38  1  0.00824358  0.37930388  0.41872798  1
  O  O39  1  0.77383047  0.53891361  0.26849629  1
  O  O40  1  0.89916184  0.73234488  0.27466349  1
