# generated using pymatgen
data_Li7Mn4(P2O7)4
_symmetry_space_group_name_H-M   'P 1'
_cell_length_a   9.92817711
_cell_length_b   9.91641633
_cell_length_c   11.35069345
_cell_angle_alpha   89.89372982
_cell_angle_beta   102.78305245
_cell_angle_gamma   89.32612156
_symmetry_Int_Tables_number   1
_chemical_formula_structural   Li7Mn4(P2O7)4
_chemical_formula_sum   'Li14 Mn8 P16 O56'
_cell_volume   1089.71364834
_cell_formula_units_Z   2
loop_
 _symmetry_equiv_pos_site_id
 _symmetry_equiv_pos_as_xyz
  1  'x, y, z'
loop_
 _atom_site_type_symbol
 _atom_site_label
 _atom_site_symmetry_multiplicity
 _atom_site_fract_x
 _atom_site_fract_y
 _atom_site_fract_z
 _atom_site_occupancy
  Li  Li0  1  0.11394553  0.71072280  0.44869530  1
  Li  Li1  1  0.08708645  0.10993105  0.02790835  1
  Li  Li2  1  0.34215836  0.90511560  0.95854403  1
  Li  Li3  1  0.41388346  0.60797987  0.97276342  1
  Li  Li4  1  0.32737750  0.92002555  0.45208621  1
  Li  Li5  1  0.37764092  0.22503626  0.55110535  1
  Li  Li6  1  0.61189076  0.77836828  0.44844253  1
  Li  Li7  1  0.67055995  0.07957179  0.54820178  1
  Li  Li8  1  0.58513054  0.39245398  0.03046231  1
  Li  Li9  1  0.85272979  0.58698484  0.95657205  1
  Li  Li10  1  0.65334585  0.09234177  0.04356492  1
  Li  Li11  1  0.91481384  0.89368220  0.97168753  1
  Li  Li12  1  0.83787844  0.57145287  0.46270904  1
  Li  Li13  1  0.89620429  0.28015276  0.55237830  1
  Mn  Mn14  1  0.20174794  0.91962790  0.67296161  1
  Mn  Mn15  1  0.25552040  0.21629862  0.82409104  1
  Mn  Mn16  1  0.24147353  0.71189517  0.17481645  1
  Mn  Mn17  1  0.29300370  0.42417142  0.32725718  1
  Mn  Mn18  1  0.70367421  0.57765237  0.67745437  1
  Mn  Mn19  1  0.75949962  0.28538948  0.82681132  1
  Mn  Mn20  1  0.74669064  0.78357193  0.17781201  1
  Mn  Mn21  1  0.79772936  0.08037503  0.32433552  1
  P  P22  1  0.02519387  0.45411817  0.75538914  1
  P  P23  1  0.11974232  0.70567946  0.89094071  1
  P  P24  1  0.05937636  0.93081268  0.24364286  1
  P  P25  1  0.12466322  0.15178677  0.42439411  1
  P  P26  1  0.37769283  0.64728227  0.56994152  1
  P  P27  1  0.44218796  0.43087268  0.75793822  1
  P  P28  1  0.52471673  0.04989975  0.76162835  1
  P  P29  1  0.37970959  0.20850381  0.11142626  1
  P  P30  1  0.61831408  0.79644203  0.89163055  1
  P  P31  1  0.47346486  0.95096569  0.23868184  1
  P  P32  1  0.55882180  0.56799482  0.24401591  1
  P  P33  1  0.61962354  0.35190918  0.42444088  1
  P  P34  1  0.87697315  0.84925547  0.57305133  1
  P  P35  1  0.94119289  0.06759448  0.75517119  1
  P  P36  1  0.88167368  0.29457164  0.10925439  1
  P  P37  1  0.97558515  0.54461324  0.24158123  1
  O  O38  1  0.01218480  0.42436438  0.62406855  1
  O  O39  1  0.02304789  0.83742088  0.55190010  1
  O  O40  1  0.08732124  0.08691264  0.73155838  1
  O  O41  1  0.11223722  0.35099689  0.84446338  1
  O  O42  1  0.10031021  0.59794535  0.78036067  1
  O  O43  1  0.17898838  0.83048540  0.84124660  1
  O  O44  1  0.22856124  0.64646464  0.99808921  1
  O  O45  1  0.01708230  0.26889089  0.07656376  1
  O  O46  1  0.11255496  0.07674552  0.29501923  1
  O  O47  1  0.06412877  0.93397937  0.11096768  1
  O  O48  1  0.13010387  0.53367863  0.22650162  1
  O  O49  1  0.19460955  0.28534602  0.41136536  1
  O  O50  1  0.16454962  0.82523793  0.31281859  1
  O  O51  1  0.22410914  0.06383901  0.51823163  1
  O  O52  1  0.28156634  0.57014435  0.47027013  1
  O  O53  1  0.34422807  0.31648134  0.70004566  1
  O  O54  1  0.31380414  0.78767466  0.58170349  1
  O  O55  1  0.37555411  0.04108865  0.78863731  1
  O  O56  1  0.38147028  0.57289768  0.69807185  1
  O  O57  1  0.44121233  0.44201604  0.89034275  1
  O  O58  1  0.48021357  0.77686262  0.92393181  1
  O  O59  1  0.27592284  0.14127405  0.00207954  1
  O  O60  1  0.32282468  0.32978858  0.16551125  1
  O  O61  1  0.40205116  0.09798159  0.22149522  1
  O  O62  1  0.41349293  0.58496963  0.27061033  1
  O  O63  1  0.38420573  0.85929274  0.14385449  1
  O  O64  1  0.52135894  0.08784279  0.63139880  1
  O  O65  1  0.46845402  0.34624705  0.43902794  1
  O  O66  1  0.52819079  0.65931946  0.55808945  1
  O  O67  1  0.47599304  0.91337432  0.36915074  1
  O  O68  1  0.61586132  0.13716242  0.85815605  1
  O  O69  1  0.58685381  0.41213306  0.72951663  1
  O  O70  1  0.59110201  0.89957488  0.77588684  1
  O  O71  1  0.68346054  0.67169065  0.84657625  1
  O  O72  1  0.72239931  0.86625820  0.99643022  1
  O  O73  1  0.51733303  0.22442781  0.07616587  1
  O  O74  1  0.56393681  0.56616451  0.11186426  1
  O  O75  1  0.61543511  0.41964700  0.29442828  1
  O  O76  1  0.62091935  0.96287079  0.21270471  1
  O  O77  1  0.68120182  0.21025879  0.41955933  1
  O  O78  1  0.66180932  0.67195698  0.31334476  1
  O  O79  1  0.71790581  0.43664127  0.51814416  1
  O  O80  1  0.77452775  0.93648197  0.48200558  1
  O  O81  1  0.83602843  0.17214553  0.68479326  1
  O  O82  1  0.81230850  0.71045154  0.58292062  1
  O  O83  1  0.88048560  0.46882914  0.79094643  1
  O  O84  1  0.93535668  0.06495573  0.88741792  1
  O  O85  1  0.88829699  0.92006284  0.70401083  1
  O  O86  1  0.98055377  0.72530468  0.92218566  1
  O  O87  1  0.77609910  0.36797172  0.00502222  1
  O  O88  1  0.81198475  0.17429910  0.15597649  1
  O  O89  1  0.90820190  0.39807474  0.22538872  1
  O  O90  1  0.89353136  0.63554929  0.14004780  1
  O  O91  1  0.91393777  0.91141567  0.26814807  1
  O  O92  1  0.97785223  0.16417626  0.44431586  1
  O  O93  1  0.96879064  0.59029369  0.36695954  1
