# generated using pymatgen
data_Li3Cr2P2(O4F)2
_symmetry_space_group_name_H-M   'P 1'
_cell_length_a   5.29140060
_cell_length_b   5.28532894
_cell_length_c   7.50651663
_cell_angle_alpha   73.22484925
_cell_angle_beta   73.23049782
_cell_angle_gamma   97.22899655
_symmetry_Int_Tables_number   1
_chemical_formula_structural   Li3Cr2P2(O4F)2
_chemical_formula_sum   'Li3 Cr2 P2 O8 F2'
_cell_volume   187.37801371
_cell_formula_units_Z   1
loop_
 _symmetry_equiv_pos_site_id
 _symmetry_equiv_pos_as_xyz
  1  'x, y, z'
loop_
 _atom_site_type_symbol
 _atom_site_label
 _atom_site_symmetry_multiplicity
 _atom_site_fract_x
 _atom_site_fract_y
 _atom_site_fract_z
 _atom_site_occupancy
  Li  Li0  1  0.24004546  0.58486038  0.84808470  1
  Li  Li1  1  0.50000495  0.99999106  0.49999544  1
  Li  Li2  1  0.75995433  0.41513829  0.15191829  1
  Cr  Cr3  1  -0.00001332  0.00002101  -0.00000996  1
  Cr  Cr4  1  0.99998558  -0.00003648  0.50000676  1
  P  P5  1  0.32671319  0.63441188  0.23912439  1
  P  P6  1  0.67327713  0.36557323  0.76087347  1
  O  O7  1  0.12407223  0.64912984  0.12214188  1
  O  O8  1  0.26061497  0.79071884  0.38637920  1
  O  O9  1  0.31390937  0.32910412  0.35190735  1
  O  O10  1  0.62004212  0.74428784  0.09315374  1
  O  O11  1  0.37997130  0.25572932  0.90684280  1
  O  O12  1  0.68609079  0.67089576  0.64810253  1
  O  O13  1  0.73938494  0.20929707  0.61361668  1
  O  O14  1  0.87593755  0.35087294  0.87785290  1
  F  F15  1  0.16184957  0.91535917  0.70888701  1
  F  F16  1  0.83816084  0.08464174  0.29111983  1
