# generated using pymatgen
data_Li7Mn4(P2O7)4
_symmetry_space_group_name_H-M   'P 1'
_cell_length_a   9.93181639
_cell_length_b   9.91918741
_cell_length_c   11.38174971
_cell_angle_alpha   89.73957756
_cell_angle_beta   102.61875462
_cell_angle_gamma   89.64020413
_symmetry_Int_Tables_number   1
_chemical_formula_structural   Li7Mn4(P2O7)4
_chemical_formula_sum   'Li14 Mn8 P16 O56'
_cell_volume   1094.15346117
_cell_formula_units_Z   2
loop_
 _symmetry_equiv_pos_site_id
 _symmetry_equiv_pos_as_xyz
  1  'x, y, z'
loop_
 _atom_site_type_symbol
 _atom_site_label
 _atom_site_symmetry_multiplicity
 _atom_site_fract_x
 _atom_site_fract_y
 _atom_site_fract_z
 _atom_site_occupancy
  Li  Li0  1  0.11485736  0.71118466  0.45019161  1
  Li  Li1  1  0.08667959  0.10490722  0.02650220  1
  Li  Li2  1  0.15749315  0.40516476  0.04399610  1
  Li  Li3  1  0.41286432  0.61255095  0.97177404  1
  Li  Li4  1  0.32957850  0.92253000  0.45613362  1
  Li  Li5  1  0.38033931  0.22432235  0.55362156  1
  Li  Li6  1  0.61131387  0.77848158  0.44830884  1
  Li  Li7  1  0.67072459  0.07810506  0.54594879  1
  Li  Li8  1  0.58404477  0.39364279  0.02895426  1
  Li  Li9  1  0.84743434  0.59306306  0.95465215  1
  Li  Li10  1  0.64994660  0.08907478  0.04151827  1
  Li  Li11  1  0.91496343  0.89198484  0.97050487  1
  Li  Li12  1  0.83879830  0.57292926  0.46107047  1
  Li  Li13  1  0.89736983  0.27954252  0.55301376  1
  Mn  Mn14  1  0.20631818  0.91643468  0.68170219  1
  Mn  Mn15  1  0.25771616  0.21262101  0.82324301  1
  Mn  Mn16  1  0.24271000  0.71726697  0.17264913  1
  Mn  Mn17  1  0.29552068  0.42624081  0.33408286  1
  Mn  Mn18  1  0.70367097  0.57917584  0.67750458  1
  Mn  Mn19  1  0.75567651  0.28487406  0.82379393  1
  Mn  Mn20  1  0.74158581  0.78481612  0.17439045  1
  Mn  Mn21  1  0.79889874  0.07844199  0.32562519  1
  P  P22  1  0.02534402  0.45172228  0.75826290  1
  P  P23  1  0.11819748  0.70409685  0.89004182  1
  P  P24  1  0.05814661  0.93062362  0.24357333  1
  P  P25  1  0.12456859  0.15075034  0.42410329  1
  P  P26  1  0.37766364  0.64921765  0.57151902  1
  P  P27  1  0.44149663  0.43177099  0.75835415  1
  P  P28  1  0.52415199  0.04934763  0.75917910  1
  P  P29  1  0.38026235  0.20791432  0.10838453  1
  P  P30  1  0.61758325  0.79518620  0.89128339  1
  P  P31  1  0.47439377  0.95223907  0.24208062  1
  P  P32  1  0.55753169  0.56669550  0.24411429  1
  P  P33  1  0.62261068  0.35053759  0.42643135  1
  P  P34  1  0.87903399  0.85009198  0.57449940  1
  P  P35  1  0.94077909  0.06755543  0.75547203  1
  P  P36  1  0.88135175  0.29606089  0.10848886  1
  P  P37  1  0.97309071  0.54714586  0.23813442  1
  O  O38  1  0.01722574  0.41576754  0.62977300  1
  O  O39  1  0.02639407  0.83981171  0.55623378  1
  O  O40  1  0.08647043  0.08697210  0.73111800  1
  O  O41  1  0.11667983  0.35595608  0.85311014  1
  O  O42  1  0.09600935  0.59711272  0.77882122  1
  O  O43  1  0.17573407  0.82609392  0.83938657  1
  O  O44  1  0.22216909  0.63412248  0.99724840  1
  O  O45  1  0.01914935  0.27587564  0.07555954  1
  O  O46  1  0.11242891  0.07618149  0.29488243  1
  O  O47  1  0.06209836  0.93412221  0.11154341  1
  O  O48  1  0.12481806  0.53592434  0.21608275  1
  O  O49  1  0.19313581  0.28549802  0.41036946  1
  O  O50  1  0.16361671  0.82461291  0.31099546  1
  O  O51  1  0.22305945  0.06388006  0.51758729  1
  O  O52  1  0.28057454  0.57333737  0.47251321  1
  O  O53  1  0.34445290  0.31726734  0.69997689  1
  O  O54  1  0.31509390  0.78965997  0.58410129  1
  O  O55  1  0.37210720  0.04427053  0.77907520  1
  O  O56  1  0.38149471  0.57339099  0.69855253  1
  O  O57  1  0.43932002  0.44213510  0.89015264  1
  O  O58  1  0.48269384  0.76971544  0.92335504  1
  O  O59  1  0.27140957  0.15199076  0.99975936  1
  O  O60  1  0.32084756  0.33142371  0.15980126  1
  O  O61  1  0.39907102  0.09766038  0.21738480  1
  O  O62  1  0.41062315  0.58286604  0.26982984  1
  O  O63  1  0.39022970  0.85196933  0.15483789  1
  O  O64  1  0.52561617  0.08733746  0.63031274  1
  O  O65  1  0.47435794  0.34251260  0.44498248  1
  O  O66  1  0.52746124  0.66013875  0.55793939  1
  O  O67  1  0.47907021  0.92216007  0.37402696  1
  O  O68  1  0.61248163  0.13776137  0.85641595  1
  O  O69  1  0.58649377  0.41414850  0.73085295  1
  O  O70  1  0.58938653  0.90030292  0.77633907  1
  O  O71  1  0.68800585  0.67515296  0.84368691  1
  O  O72  1  0.72246064  0.86625588  0.99548829  1
  O  O73  1  0.51883539  0.22439757  0.07652197  1
  O  O74  1  0.56208313  0.56400096  0.11261539  1
  O  O75  1  0.61379916  0.41970938  0.29589062  1
  O  O76  1  0.62174353  0.96613754  0.21552229  1
  O  O77  1  0.68516763  0.21008842  0.41827431  1
  O  O78  1  0.65943938  0.67225601  0.31217142  1
  O  O79  1  0.72280989  0.43592813  0.51755236  1
  O  O80  1  0.77771856  0.93666642  0.48258544  1
  O  O81  1  0.83586236  0.17190651  0.68560584  1
  O  O82  1  0.81403824  0.71078481  0.58213970  1
  O  O83  1  0.88002766  0.46536801  0.79174586  1
  O  O84  1  0.93513646  0.06487771  0.88715652  1
  O  O85  1  0.88664670  0.92041553  0.70430425  1
  O  O86  1  0.98098595  0.72273171  0.92493767  1
  O  O87  1  0.77646553  0.36651390  0.00396831  1
  O  O88  1  0.81711417  0.17189197  0.15399180  1
  O  O89  1  0.90707310  0.39852570  0.22353156  1
  O  O90  1  0.88547329  0.63598585  0.13928762  1
  O  O91  1  0.91306258  0.91112372  0.26904503  1
  O  O92  1  0.97701419  0.16268190  0.44245133  1
  O  O93  1  0.97145456  0.58963305  0.36483217  1
