# generated using pymatgen
data_Cr2PO5
_symmetry_space_group_name_H-M   'P 1'
_cell_length_a   7.51452934
_cell_length_b   6.53197677
_cell_length_c   7.47400564
_cell_angle_alpha   90.00000000
_cell_angle_beta   90.00000000
_cell_angle_gamma   90.00000000
_symmetry_Int_Tables_number   1
_chemical_formula_structural   Cr2PO5
_chemical_formula_sum   'Cr8 P4 O20'
_cell_volume   366.85955698
_cell_formula_units_Z   4
loop_
 _symmetry_equiv_pos_site_id
 _symmetry_equiv_pos_as_xyz
  1  'x, y, z'
loop_
 _atom_site_type_symbol
 _atom_site_label
 _atom_site_symmetry_multiplicity
 _atom_site_fract_x
 _atom_site_fract_y
 _atom_site_fract_z
 _atom_site_occupancy
  Cr  Cr0  1  -0.00000000  0.00000000  -0.00000000  1
  Cr  Cr1  1  -0.00000000  0.50000000  -0.00000000  1
  Cr  Cr2  1  0.15700425  0.25000000  0.71891478  1
  Cr  Cr3  1  0.34299575  0.75000000  0.21891478  1
  Cr  Cr4  1  0.50000000  0.00000000  0.50000000  1
  Cr  Cr5  1  0.50000000  0.50000000  0.50000000  1
  Cr  Cr6  1  0.65700425  0.25000000  0.78108522  1
  Cr  Cr7  1  0.84299575  0.75000000  0.28108522  1
  P  P8  1  0.11255821  0.75000000  0.62184377  1
  P  P9  1  0.38744179  0.25000000  0.12184377  1
  P  P10  1  0.61255821  0.75000000  0.87815623  1
  P  P11  1  0.88744179  0.25000000  0.37815623  1
  O  O12  1  0.06695252  0.25000000  0.47388614  1
  O  O13  1  0.08846254  0.75000000  0.14136349  1
  O  O14  1  0.13076173  0.93991758  0.74783843  1
  O  O15  1  0.13076173  0.56008242  0.74783843  1
  O  O16  1  0.22955258  0.25000000  0.98856018  1
  O  O17  1  0.27044742  0.75000000  0.48856018  1
  O  O18  1  0.36923827  0.06008242  0.24783843  1
  O  O19  1  0.36923827  0.43991758  0.24783843  1
  O  O20  1  0.41153746  0.25000000  0.64136349  1
  O  O21  1  0.43304748  0.75000000  0.97388614  1
  O  O22  1  0.56695252  0.25000000  0.02611386  1
  O  O23  1  0.58846254  0.75000000  0.35863651  1
  O  O24  1  0.63076173  0.56008242  0.75216157  1
  O  O25  1  0.63076173  0.93991758  0.75216157  1
  O  O26  1  0.72955258  0.25000000  0.51143982  1
  O  O27  1  0.77044742  0.75000000  0.01143982  1
  O  O28  1  0.86923827  0.06008242  0.25216157  1
  O  O29  1  0.86923827  0.43991758  0.25216157  1
  O  O30  1  0.91153746  0.25000000  0.85863651  1
  O  O31  1  0.93304748  0.75000000  0.52611386  1
