# generated using pymatgen
data_SnSe
_symmetry_space_group_name_H-M   'P 1'
_cell_length_a   4.29929136
_cell_length_b   4.27887324
_cell_length_c   11.98585758
_cell_angle_alpha   90.00000000
_cell_angle_beta   90.00000000
_cell_angle_gamma   90.00000000
_symmetry_Int_Tables_number   1
_chemical_formula_structural   SnSe
_chemical_formula_sum   'Sn4 Se4'
_cell_volume   220.49330732
_cell_formula_units_Z   4
loop_
 _symmetry_equiv_pos_site_id
 _symmetry_equiv_pos_as_xyz
  1  'x, y, z'
loop_
 _atom_site_type_symbol
 _atom_site_label
 _atom_site_symmetry_multiplicity
 _atom_site_fract_x
 _atom_site_fract_y
 _atom_site_fract_z
 _atom_site_occupancy
  Sn  Sn0  1  0.75000000  0.49073474  0.37259087  1
  Sn  Sn1  1  0.25000000  0.99073474  0.12740913  1
  Sn  Sn2  1  0.25000000  0.50926526  0.62740913  1
  Sn  Sn3  1  0.75000000  0.00926526  0.87259087  1
  Se  Se4  1  0.25000000  0.50473141  0.85602879  1
  Se  Se5  1  0.25000000  0.99526859  0.35602879  1
  Se  Se6  1  0.75000000  0.00473141  0.64397121  1
  Se  Se7  1  0.75000000  0.49526859  0.14397121  1
