# generated using pymatgen
data_Ca(BH4)2
_symmetry_space_group_name_H-M   'P 1'
_cell_length_a   13.46758812
_cell_length_b   8.56120510
_cell_length_c   7.50147950
_cell_angle_alpha   90.00000000
_cell_angle_beta   90.00000000
_cell_angle_gamma   90.00000000
_symmetry_Int_Tables_number   1
_chemical_formula_structural   Ca(BH4)2
_chemical_formula_sum   'Ca8 B16 H64'
_cell_volume   864.91146528
_cell_formula_units_Z   8
loop_
 _symmetry_equiv_pos_site_id
 _symmetry_equiv_pos_as_xyz
  1  'x, y, z'
loop_
 _atom_site_type_symbol
 _atom_site_label
 _atom_site_symmetry_multiplicity
 _atom_site_fract_x
 _atom_site_fract_y
 _atom_site_fract_z
 _atom_site_occupancy
  Ca  Ca0  1  0.12189300  0.37636235  0.15318224  1
  Ca  Ca1  1  0.62189300  0.12363765  0.84681776  1
  Ca  Ca2  1  0.87810700  0.87636235  0.34681776  1
  Ca  Ca3  1  0.37810700  0.62363765  0.65318224  1
  Ca  Ca4  1  0.87810700  0.62363765  0.84681776  1
  Ca  Ca5  1  0.37810700  0.87636235  0.15318224  1
  Ca  Ca6  1  0.12189300  0.12363765  0.65318224  1
  Ca  Ca7  1  0.62189300  0.37636235  0.34681776  1
  B  B8  1  0.71351101  0.41566237  0.03925851  1
  B  B9  1  0.21351101  0.08433763  0.96074149  1
  B  B10  1  0.28648899  0.91566237  0.46074149  1
  B  B11  1  0.78648899  0.58433763  0.53925851  1
  B  B12  1  0.28648899  0.58433763  0.96074149  1
  B  B13  1  0.78648899  0.91566237  0.03925851  1
  B  B14  1  0.71351101  0.08433763  0.53925851  1
  B  B15  1  0.21351101  0.41566237  0.46074149  1
  B  B16  1  0.99895693  0.84322787  0.66540531  1
  B  B17  1  0.49895693  0.65677213  0.33459469  1
  B  B18  1  0.00104307  0.34322787  0.83459469  1
  B  B19  1  0.50104307  0.15677213  0.16540531  1
  B  B20  1  0.00104307  0.15677213  0.33459469  1
  B  B21  1  0.50104307  0.34322787  0.66540531  1
  B  B22  1  0.99895693  0.65677213  0.16540531  1
  B  B23  1  0.49895693  0.84322787  0.83459469  1
  H  H24  1  0.75727556  0.32250097  0.13606909  1
  H  H25  1  0.25727556  0.17749903  0.86393091  1
  H  H26  1  0.24272444  0.82250097  0.36393091  1
  H  H27  1  0.74272444  0.67749903  0.63606909  1
  H  H28  1  0.24272444  0.67749903  0.86393091  1
  H  H29  1  0.74272444  0.82250097  0.13606909  1
  H  H30  1  0.75727556  0.17749903  0.63606909  1
  H  H31  1  0.25727556  0.32250097  0.36393091  1
  H  H32  1  0.75774134  0.43433925  0.89963391  1
  H  H33  1  0.25774134  0.06566075  0.10036609  1
  H  H34  1  0.24225866  0.93433925  0.60036609  1
  H  H35  1  0.74225866  0.56566075  0.39963391  1
  H  H36  1  0.24225866  0.56566075  0.10036609  1
  H  H37  1  0.74225866  0.93433925  0.89963391  1
  H  H38  1  0.75774134  0.06566075  0.39963391  1
  H  H39  1  0.25774134  0.43433925  0.60036609  1
  H  H40  1  0.69989327  0.53935758  0.11689939  1
  H  H41  1  0.19989327  0.96064242  0.88310061  1
  H  H42  1  0.30010673  0.03935758  0.38310061  1
  H  H43  1  0.80010673  0.46064242  0.61689939  1
  H  H44  1  0.30010673  0.46064242  0.88310061  1
  H  H45  1  0.80010673  0.03935758  0.11689939  1
  H  H46  1  0.69989327  0.96064242  0.61689939  1
  H  H47  1  0.19989327  0.53935758  0.38310061  1
  H  H48  1  0.62990506  0.36709830  0.00190488  1
  H  H49  1  0.12990506  0.13290170  0.99809512  1
  H  H50  1  0.37009494  0.86709830  0.49809512  1
  H  H51  1  0.87009494  0.63290170  0.50190488  1
  H  H52  1  0.37009494  0.63290170  0.99809512  1
  H  H53  1  0.87009494  0.86709830  0.00190488  1
  H  H54  1  0.62990506  0.13290170  0.50190488  1
  H  H55  1  0.12990506  0.36709830  0.49809512  1
  H  H56  1  0.01956056  0.70793097  0.70133252  1
  H  H57  1  0.51956056  0.79206903  0.29866748  1
  H  H58  1  0.98043944  0.20793097  0.79866748  1
  H  H59  1  0.48043944  0.29206903  0.20133252  1
  H  H60  1  0.98043944  0.29206903  0.29866748  1
  H  H61  1  0.48043944  0.20793097  0.70133252  1
  H  H62  1  0.01956056  0.79206903  0.20133252  1
  H  H63  1  0.51956056  0.70793097  0.79866748  1
  H  H64  1  0.90842494  0.86639242  0.66235887  1
  H  H65  1  0.40842494  0.63360758  0.33764113  1
  H  H66  1  0.09157506  0.36639242  0.83764113  1
  H  H67  1  0.59157506  0.13360758  0.16235887  1
  H  H68  1  0.09157506  0.13360758  0.33764113  1
  H  H69  1  0.59157506  0.36639242  0.66235887  1
  H  H70  1  0.90842494  0.63360758  0.16235887  1
  H  H71  1  0.40842494  0.86639242  0.83764113  1
  H  H72  1  0.03585528  0.86843317  0.51893774  1
  H  H73  1  0.53585528  0.63156683  0.48106226  1
  H  H74  1  0.96414472  0.36843317  0.98106226  1
  H  H75  1  0.46414472  0.13156683  0.01893774  1
  H  H76  1  0.96414472  0.13156683  0.48106226  1
  H  H77  1  0.46414472  0.36843317  0.51893774  1
  H  H78  1  0.03585528  0.63156683  0.01893774  1
  H  H79  1  0.53585528  0.86843317  0.98106226  1
  H  H80  1  0.03117024  0.92741698  0.78286035  1
  H  H81  1  0.53117024  0.57258302  0.21713965  1
  H  H82  1  0.96882976  0.42741698  0.71713965  1
  H  H83  1  0.46882976  0.07258302  0.28286035  1
  H  H84  1  0.96882976  0.07258302  0.21713965  1
  H  H85  1  0.46882976  0.42741698  0.78286035  1
  H  H86  1  0.03117024  0.57258302  0.28286035  1
  H  H87  1  0.53117024  0.92741698  0.71713965  1
