# generated using pymatgen
data_Cs3Li2I5
_symmetry_space_group_name_H-M   'P 1'
_cell_length_a   5.05829623
_cell_length_b   12.12849765
_cell_length_c   15.76611999
_cell_angle_alpha   100.53612431
_cell_angle_beta   99.23107865
_cell_angle_gamma   89.99999818
_symmetry_Int_Tables_number   1
_chemical_formula_structural   Cs3Li2I5
_chemical_formula_sum   'Cs6 Li4 I10'
_cell_volume   938.19209211
_cell_formula_units_Z   2
loop_
 _symmetry_equiv_pos_site_id
 _symmetry_equiv_pos_as_xyz
  1  'x, y, z'
loop_
 _atom_site_type_symbol
 _atom_site_label
 _atom_site_symmetry_multiplicity
 _atom_site_fract_x
 _atom_site_fract_y
 _atom_site_fract_z
 _atom_site_occupancy
  Cs  Cs0  1  0.25305849  0.25798155  0.50611598  1
  Cs  Cs1  1  0.93040113  0.34434963  0.86080326  1
  Cs  Cs2  1  0.06157280  0.15593835  0.12314660  1
  Cs  Cs3  1  0.93842720  0.84406165  0.87685340  1
  Cs  Cs4  1  0.06959887  0.65565037  0.13919674  1
  Cs  Cs5  1  0.74694151  0.74201845  0.49388402  1
  Li  Li6  1  0.64570072  0.96475395  0.29140043  1
  Li  Li7  1  0.35429928  0.03524605  0.70859957  1
  Li  Li8  1  0.64315426  0.41606871  0.28630952  1
  Li  Li9  1  0.35684574  0.58393129  0.71369048  1
  I  I10  1  0.33987541  0.80142146  0.67974981  1
  I  I11  1  0.66012459  0.19857854  0.32025019  1
  I  I12  1  0.44569241  0.59328704  0.89138481  1
  I  I13  1  0.55517625  0.89282794  0.11035351  1
  I  I14  1  0.82147408  0.09493142  0.64294716  1
  I  I15  1  0.82306098  0.49346188  0.64612195  1
  I  I16  1  0.17852592  0.90506858  0.35705284  1
  I  I17  1  0.17693902  0.50653812  0.35387805  1
  I  I18  1  0.44482375  0.10717206  0.88964649  1
  I  I19  1  0.55430759  0.40671296  0.10861519  1
