# generated using pymatgen
data_CeAgAs2
_symmetry_space_group_name_H-M   'P 1'
_cell_length_a   5.81748098
_cell_length_b   5.76705437
_cell_length_c   20.25584599
_cell_angle_alpha   90.00241417
_cell_angle_beta   89.99947343
_cell_angle_gamma   89.99907863
_symmetry_Int_Tables_number   1
_chemical_formula_structural   CeAgAs2
_chemical_formula_sum   'Ce8 Ag8 As16'
_cell_volume   679.57814513
_cell_formula_units_Z   8
loop_
 _symmetry_equiv_pos_site_id
 _symmetry_equiv_pos_as_xyz
  1  'x, y, z'
loop_
 _atom_site_type_symbol
 _atom_site_label
 _atom_site_symmetry_multiplicity
 _atom_site_fract_x
 _atom_site_fract_y
 _atom_site_fract_z
 _atom_site_occupancy
  Ce  Ce0  1  0.24997990  0.49027638  0.88723336  1
  Ce  Ce1  1  0.25003359  0.50969492  0.38626395  1
  Ce  Ce2  1  0.25000231  0.99100374  0.60954007  1
  Ce  Ce3  1  0.24999557  0.00884103  0.10965042  1
  Ce  Ce4  1  0.75000756  0.99108620  0.89039395  1
  Ce  Ce5  1  0.75001795  0.50978119  0.11295426  1
  Ce  Ce6  1  0.75000856  0.00888260  0.38997048  1
  Ce  Ce7  1  0.74997271  0.49011571  0.61270390  1
  Ag  Ag8  1  0.00005157  0.73806342  0.75018177  1
  Ag  Ag9  1  0.49992117  0.26194876  0.25020969  1
  Ag  Ag10  1  0.00001950  0.23621094  0.75016118  1
  Ag  Ag11  1  0.00007792  0.26194039  0.25021097  1
  Ag  Ag12  1  0.49994266  0.73806898  0.75018054  1
  Ag  Ag13  1  0.49987434  0.76385805  0.25019236  1
  Ag  Ag14  1  0.49997915  0.23621199  0.75016897  1
  Ag  Ag15  1  0.00012058  0.76385276  0.25019741  1
  As  As16  1  0.74999830  0.98904382  0.65635529  1
  As  As17  1  0.24999411  0.01067423  0.34469480  1
  As  As18  1  0.25000948  0.51040369  0.15695558  1
  As  As19  1  0.49524082  0.73346812  0.99989995  1
  As  As20  1  0.50446670  0.73242170  0.49951513  1
  As  As21  1  0.74998869  0.51042027  0.34356256  1
  As  As22  1  0.49390944  0.26769254  0.49898190  1
  As  As23  1  0.00473785  0.73336933  0.99990406  1
  As  As24  1  0.00608930  0.26742551  0.49898784  1
  As  As25  1  0.99551806  0.73265230  0.49951754  1
  As  As26  1  0.50554298  0.26657508  0.00043274  1
  As  As27  1  0.75001469  0.01072417  0.15610993  1
  As  As28  1  0.74998885  0.48960808  0.84323739  1
  As  As29  1  0.25000121  0.48952740  0.65702227  1
  As  As30  1  0.24999132  0.98935646  0.84418541  1
  As  As31  1  0.99450118  0.26679724  0.00042633  1
