# generated using pymatgen
data_Li6FeCoP2(CO7)2
_symmetry_space_group_name_H-M   'P 1'
_cell_length_a   8.39748076
_cell_length_b   4.98670921
_cell_length_c   6.41546076
_cell_angle_alpha   90.00000000
_cell_angle_beta   90.00000000
_cell_angle_gamma   85.41029778
_symmetry_Int_Tables_number   1
_chemical_formula_structural   Li6FeCoP2(CO7)2
_chemical_formula_sum   'Li6 Fe1 Co1 P2 C2 O14'
_cell_volume   267.79102306
_cell_formula_units_Z   1
loop_
 _symmetry_equiv_pos_site_id
 _symmetry_equiv_pos_as_xyz
  1  'x, y, z'
loop_
 _atom_site_type_symbol
 _atom_site_label
 _atom_site_symmetry_multiplicity
 _atom_site_fract_x
 _atom_site_fract_y
 _atom_site_fract_z
 _atom_site_occupancy
  Li  Li0  1  0.09586246  0.76435492  0.25000000  1
  Li  Li1  1  0.27622683  0.24797024  0.02097169  1
  Li  Li2  1  0.27622683  0.24797024  0.47902831  1
  Li  Li3  1  0.72366987  0.75139880  0.52190235  1
  Li  Li4  1  0.72366987  0.75139880  0.97809765  1
  Li  Li5  1  0.90364964  0.23681745  0.75000000  1
  Fe  Fe6  1  0.67037611  0.20416894  0.25000000  1
  Co  Co7  1  0.33450805  0.79406247  0.75000000  1
  P  P8  1  0.41405237  0.71910638  0.25000000  1
  P  P9  1  0.58662062  0.28003351  0.75000000  1
  C  C10  1  0.03653117  0.70187981  0.75000000  1
  C  C11  1  0.96250889  0.29864983  0.25000000  1
  O  O12  1  0.07295994  0.94939540  0.75000000  1
  O  O13  1  0.11003683  0.35875116  0.25000000  1
  O  O14  1  0.15216068  0.51027695  0.75000000  1
  O  O15  1  0.30892930  0.82539776  0.06268947  1
  O  O16  1  0.30892930  0.82539776  0.43731053  1
  O  O17  1  0.41850245  0.17441918  0.75000000  1
  O  O18  1  0.43527859  0.40544337  0.25000000  1
  O  O19  1  0.56632736  0.59395064  0.75000000  1
  O  O20  1  0.58109504  0.82782911  0.25000000  1
  O  O21  1  0.69087244  0.17515012  0.93813730  1
  O  O22  1  0.69087244  0.17515012  0.56186270  1
  O  O23  1  0.84633363  0.48830956  0.25000000  1
  O  O24  1  0.88934142  0.64090942  0.75000000  1
  O  O25  1  0.92445587  0.05180403  0.25000000  1
