# generated using pymatgen
data_Cd(BrO2)2
_symmetry_space_group_name_H-M   'P 1'
_cell_length_a   6.80921940
_cell_length_b   9.51822261
_cell_length_c   3.70354055
_cell_angle_alpha   89.82890227
_cell_angle_beta   87.27773548
_cell_angle_gamma   90.29530744
_symmetry_Int_Tables_number   1
_chemical_formula_structural   Cd(BrO2)2
_chemical_formula_sum   'Cd2 Br4 O8'
_cell_volume   239.75731588
_cell_formula_units_Z   2
loop_
 _symmetry_equiv_pos_site_id
 _symmetry_equiv_pos_as_xyz
  1  'x, y, z'
loop_
 _atom_site_type_symbol
 _atom_site_label
 _atom_site_symmetry_multiplicity
 _atom_site_fract_x
 _atom_site_fract_y
 _atom_site_fract_z
 _atom_site_occupancy
  Cd  Cd0  1  0.49947209  0.49957896  0.49876930  1
  Cd  Cd1  1  0.00005236  0.00000047  0.00188142  1
  Br  Br2  1  0.50169946  0.17933310  0.92901984  1
  Br  Br3  1  0.49824110  0.81958241  0.07296597  1
  Br  Br4  1  0.00136558  0.32099046  0.42605731  1
  Br  Br5  1  0.99855086  0.67910148  0.57103265  1
  O  O6  1  0.81385391  0.42215272  0.63361173  1
  O  O7  1  0.18698353  0.57955054  0.36067369  1
  O  O8  1  0.31476376  0.07601288  0.13678857  1
  O  O9  1  0.68498621  0.92385873  0.86781494  1
  O  O10  1  0.91850383  0.14386014  0.50369408  1
  O  O11  1  0.08145482  0.85665617  0.49992982  1
  O  O12  1  0.41702804  0.35579195  0.00319539  1
  O  O13  1  0.58304746  0.64352898  0.99456331  1
