# generated using pymatgen
data_SiO2
_symmetry_space_group_name_H-M   'P 1'
_cell_length_a   7.17057796
_cell_length_b   7.17057796
_cell_length_c   17.93955318
_cell_angle_alpha   90.00000000
_cell_angle_beta   90.00000000
_cell_angle_gamma   90.00000000
_symmetry_Int_Tables_number   1
_chemical_formula_structural   SiO2
_chemical_formula_sum   'Si16 O32'
_cell_volume   922.40138352
_cell_formula_units_Z   16
loop_
 _symmetry_equiv_pos_site_id
 _symmetry_equiv_pos_as_xyz
  1  'x, y, z'
loop_
 _atom_site_type_symbol
 _atom_site_label
 _atom_site_symmetry_multiplicity
 _atom_site_fract_x
 _atom_site_fract_y
 _atom_site_fract_z
 _atom_site_occupancy
  Si  Si0  1  -0.00000000  0.46988446  0.08933169  1
  Si  Si1  1  0.78011554  0.75000000  0.33933169  1
  Si  Si2  1  0.71988446  0.25000000  0.83933169  1
  Si  Si3  1  -0.00000000  0.53011554  0.91066831  1
  Si  Si4  1  -0.00000000  0.96988446  0.91066831  1
  Si  Si5  1  -0.00000000  0.03011554  0.08933169  1
  Si  Si6  1  0.71988446  0.75000000  0.16066831  1
  Si  Si7  1  0.78011554  0.25000000  0.66066831  1
  Si  Si8  1  0.21988446  0.25000000  0.66066831  1
  Si  Si9  1  0.28011554  0.75000000  0.16066831  1
  Si  Si10  1  0.28011554  0.25000000  0.83933169  1
  Si  Si11  1  0.21988446  0.75000000  0.33933169  1
  Si  Si12  1  0.50000000  0.96988446  0.58933169  1
  Si  Si13  1  0.50000000  0.03011554  0.41066831  1
  Si  Si14  1  0.50000000  0.46988446  0.41066831  1
  Si  Si15  1  0.50000000  0.53011554  0.58933169  1
  O  O16  1  -0.00000000  0.25000000  0.10905826  1
  O  O17  1  -0.00000000  0.75000000  0.35905826  1
  O  O18  1  0.50000000  0.25000000  0.85905826  1
  O  O19  1  -0.00000000  0.75000000  0.89094174  1
  O  O20  1  0.50000000  0.75000000  0.14094174  1
  O  O21  1  -0.00000000  0.25000000  0.64094174  1
  O  O22  1  0.50000000  0.75000000  0.60905826  1
  O  O23  1  0.50000000  0.25000000  0.39094174  1
  O  O24  1  0.81288544  0.56288544  0.12500000  1
  O  O25  1  0.68711456  0.56288544  0.37500000  1
  O  O26  1  0.81288544  0.43711456  0.87500000  1
  O  O27  1  0.18711456  0.06288544  0.87500000  1
  O  O28  1  0.18711456  0.93711456  0.12500000  1
  O  O29  1  0.68711456  0.43711456  0.62500000  1
  O  O30  1  0.18711456  0.43711456  0.87500000  1
  O  O31  1  0.31288544  0.43711456  0.62500000  1
  O  O32  1  0.18711456  0.56288544  0.12500000  1
  O  O33  1  0.81288544  0.93711456  0.12500000  1
  O  O34  1  0.81288544  0.06288544  0.87500000  1
  O  O35  1  0.31288544  0.56288544  0.37500000  1
  O  O36  1  0.31288544  0.06288544  0.62500000  1
  O  O37  1  0.31288544  0.93711456  0.37500000  1
  O  O38  1  0.68711456  0.93711456  0.37500000  1
  O  O39  1  0.68711456  0.06288544  0.62500000  1
  O  O40  1  -0.00000000  0.50000000  -0.00000000  1
  O  O41  1  0.75000000  0.75000000  0.25000000  1
  O  O42  1  0.75000000  0.25000000  0.75000000  1
  O  O43  1  -0.00000000  0.00000000  -0.00000000  1
  O  O44  1  0.25000000  0.25000000  0.75000000  1
  O  O45  1  0.25000000  0.75000000  0.25000000  1
  O  O46  1  0.50000000  -0.00000000  0.50000000  1
  O  O47  1  0.50000000  0.50000000  0.50000000  1
