# generated using pymatgen
data_RbPbF3
_symmetry_space_group_name_H-M   'P 1'
_cell_length_a   4.74170301
_cell_length_b   4.76457463
_cell_length_c   20.67693650
_cell_angle_alpha   89.19034468
_cell_angle_beta   104.76992938
_cell_angle_gamma   90.08098766
_symmetry_Int_Tables_number   1
_chemical_formula_structural   RbPbF3
_chemical_formula_sum   'Rb4 Pb4 F12'
_cell_volume   451.65571194
_cell_formula_units_Z   4
loop_
 _symmetry_equiv_pos_site_id
 _symmetry_equiv_pos_as_xyz
  1  'x, y, z'
loop_
 _atom_site_type_symbol
 _atom_site_label
 _atom_site_symmetry_multiplicity
 _atom_site_fract_x
 _atom_site_fract_y
 _atom_site_fract_z
 _atom_site_occupancy
  Rb  Rb0  1  0.11865574  0.80575891  0.32444620  1
  Rb  Rb1  1  0.38440482  0.32046159  0.17967201  1
  Rb  Rb2  1  0.88209973  0.19380711  0.67518320  1
  Rb  Rb3  1  0.61473947  0.67879421  0.82064571  1
  Pb  Pb4  1  0.24231870  0.18130165  0.92442778  1
  Pb  Pb5  1  0.74737950  0.29361480  0.42864461  1
  Pb  Pb6  1  0.25591808  0.70649331  0.57089465  1
  Pb  Pb7  1  0.75409874  0.81878417  0.07588797  1
  F  F8  1  0.85726869  0.80939408  0.18790294  1
  F  F9  1  0.13649472  0.19153775  0.81242411  1
  F  F10  1  0.77766101  0.31890038  0.09494867  1
  F  F11  1  0.26887117  0.82856105  0.09730557  1
  F  F12  1  0.36438364  0.70002875  0.68338661  1
  F  F13  1  0.64205286  0.30055135  0.31639304  1
  F  F14  1  0.72725579  0.79668141  0.40958046  1
  F  F15  1  0.77324688  0.69746803  0.59266477  1
  F  F16  1  0.22084137  0.68152297  0.90552760  1
  F  F17  1  0.23115773  0.30216007  0.40678187  1
  F  F18  1  0.72675952  0.17062371  0.90322698  1
  F  F19  1  0.27438984  0.20355469  0.59005423  1
