# generated using pymatgen
data_B4H5
_symmetry_space_group_name_H-M   'P 1'
_cell_length_a   5.87189509
_cell_length_b   13.46845626
_cell_length_c   16.54638216
_cell_angle_alpha   90.00003678
_cell_angle_beta   87.49061032
_cell_angle_gamma   89.99999143
_symmetry_Int_Tables_number   1
_chemical_formula_structural   B4H5
_chemical_formula_sum   'B64 H80'
_cell_volume   1307.32177879
_cell_formula_units_Z   16
loop_
 _symmetry_equiv_pos_site_id
 _symmetry_equiv_pos_as_xyz
  1  'x, y, z'
loop_
 _atom_site_type_symbol
 _atom_site_label
 _atom_site_symmetry_multiplicity
 _atom_site_fract_x
 _atom_site_fract_y
 _atom_site_fract_z
 _atom_site_occupancy
  B  B0  1  0.69699592  0.19048217  0.99109646  1
  B  B1  1  0.30300450  0.69048212  0.50890340  1
  B  B2  1  0.30300393  0.80951780  0.00890324  1
  B  B3  1  0.69699709  0.30951796  0.49109641  1
  B  B4  1  0.71010232  0.39158525  0.04809376  1
  B  B5  1  0.28989890  0.89158562  0.45190583  1
  B  B6  1  0.28989861  0.60841448  0.95190588  1
  B  B7  1  0.71010152  0.10841491  0.54809378  1
  B  B8  1  0.57645890  0.31185780  0.98250380  1
  B  B9  1  0.42354059  0.81185807  0.51749614  1
  B  B10  1  0.42354063  0.68814245  0.01749609  1
  B  B11  1  0.57645954  0.18814255  0.48250358  1
  B  B12  1  0.86810991  0.30321165  0.99422499  1
  B  B13  1  0.13189013  0.80321222  0.50577483  1
  B  B14  1  0.13188999  0.69678769  0.00577481  1
  B  B15  1  0.86810990  0.19678794  0.49422493  1
  B  B16  1  0.91628022  0.32177960  0.10120801  1
  B  B17  1  0.08372083  0.82177996  0.39879173  1
  B  B18  1  0.08372041  0.67822013  0.89879172  1
  B  B19  1  0.91628027  0.17821983  0.60120783  1
  B  B20  1  0.74660944  0.99403627  0.11634005  1
  B  B21  1  0.25339046  0.49403697  0.38365980  1
  B  B22  1  0.25339099  0.00596307  0.88365940  1
  B  B23  1  0.74660881  0.50596331  0.61634006  1
  B  B24  1  0.93026681  0.19891070  0.05726890  1
  B  B25  1  0.06973465  0.69891129  0.44273097  1
  B  B26  1  0.06973452  0.80108890  0.94273098  1
  B  B27  1  0.93026675  0.30108878  0.55726912  1
  B  B28  1  0.59163256  0.97126576  0.21027435  1
  B  B29  1  0.40836718  0.47126650  0.28972557  1
  B  B30  1  0.40836716  0.02873405  0.78972550  1
  B  B31  1  0.59163230  0.52873440  0.71027429  1
  B  B32  1  0.69761993  0.13035354  0.09030056  1
  B  B33  1  0.30237991  0.63035347  0.40969948  1
  B  B34  1  0.30238027  0.86964618  0.90969922  1
  B  B35  1  0.69762062  0.36964642  0.59030032  1
  B  B36  1  0.81542484  0.21331516  0.15429053  1
  B  B37  1  0.18457591  0.71331502  0.34570948  1
  B  B38  1  0.18457582  0.78668477  0.84570931  1
  B  B39  1  0.81542483  0.28668506  0.65429039  1
  B  B40  1  0.72361026  0.17998959  0.25297142  1
  B  B41  1  0.27639022  0.67998943  0.24702871  1
  B  B42  1  0.27639098  0.82001065  0.74702900  1
  B  B43  1  0.72361088  0.32001038  0.75297139  1
  B  B44  1  0.49021433  0.05948095  0.13967250  1
  B  B45  1  0.50978575  0.55948100  0.36032720  1
  B  B46  1  0.50978621  0.94051880  0.86032730  1
  B  B47  1  0.49021468  0.44051876  0.63967249  1
  B  B48  1  0.53100656  0.18458575  0.17198534  1
  B  B49  1  0.46899441  0.68458576  0.32801461  1
  B  B50  1  0.46899351  0.81541452  0.82801441  1
  B  B51  1  0.53100646  0.31541441  0.67198522  1
  B  B52  1  0.50218070  0.09131970  0.24503126  1
  B  B53  1  0.49781928  0.59132005  0.25496836  1
  B  B54  1  0.49781936  0.90868013  0.75496833  1
  B  B55  1  0.50218129  0.40868023  0.74503125  1
  B  B56  1  0.74848439  0.03814631  0.28245295  1
  B  B57  1  0.25151571  0.53814652  0.21754696  1
  B  B58  1  0.25151581  0.96185356  0.71754686  1
  B  B59  1  0.74848502  0.46185351  0.78245298  1
  B  B60  1  0.88295784  0.96293946  0.20669834  1
  B  B61  1  0.11704272  0.46293941  0.29330167  1
  B  B62  1  0.11704195  0.03706036  0.79330163  1
  B  B63  1  0.88295773  0.53706036  0.70669791  1
  H  H64  1  0.49071842  0.22351503  0.01047986  1
  H  H65  1  0.50928149  0.72351550  0.48952026  1
  H  H66  1  0.50928179  0.77648492  0.98951999  1
  H  H67  1  0.49071911  0.27648526  0.51047957  1
  H  H68  1  0.72786239  0.36605541  0.12771283  1
  H  H69  1  0.27213896  0.86605564  0.37228689  1
  H  H70  1  0.27213924  0.63394417  0.87228684  1
  H  H71  1  0.72786082  0.13394474  0.62771278  1
  H  H72  1  0.49288789  0.36051995  0.04908912  1
  H  H73  1  0.50711317  0.86051981  0.45091106  1
  H  H74  1  0.50711276  0.63948041  0.95091099  1
  H  H75  1  0.49288830  0.13948030  0.54908914  1
  H  H76  1  0.00377346  0.32651486  0.94206914  1
  H  H77  1  0.99622682  0.82651574  0.55793049  1
  H  H78  1  0.99622614  0.67348455  0.05793096  1
  H  H79  1  0.00377316  0.17348429  0.44206898  1
  H  H80  1  0.07831453  0.36675249  0.12165955  1
  H  H81  1  0.92168661  0.86675290  0.37834034  1
  H  H82  1  0.92168612  0.63324732  0.87834024  1
  H  H83  1  0.07831494  0.13324713  0.62165942  1
  H  H84  1  0.71008395  0.47966287  0.04176760  1
  H  H85  1  0.28991691  0.97966305  0.45823228  1
  H  H86  1  0.28991675  0.52033696  0.95823244  1
  H  H87  1  0.71008312  0.02033753  0.54176770  1
  H  H88  1  0.47046445  0.34007404  0.92748570  1
  H  H89  1  0.52953498  0.84007421  0.57251393  1
  H  H90  1  0.52953554  0.65992629  0.07251390  1
  H  H91  1  0.47046417  0.15992638  0.42748580  1
  H  H92  1  0.69343421  0.14285647  0.93067766  1
  H  H93  1  0.30656523  0.64285647  0.56932197  1
  H  H94  1  0.30656546  0.85714413  0.06932183  1
  H  H95  1  0.69343548  0.35714355  0.43067762  1
  H  H96  1  0.93219902  0.17974349  0.21528117  1
  H  H97  1  0.06780131  0.67974321  0.28471882  1
  H  H98  1  0.06780208  0.82025656  0.78471849  1
  H  H99  1  0.93219982  0.32025625  0.71528141  1
  H  H100  1  0.96243335  0.03517323  0.25451615  1
  H  H101  1  0.03756740  0.53517294  0.24548332  1
  H  H102  1  0.03756718  0.96482677  0.74548324  1
  H  H103  1  0.96243313  0.46482669  0.75451644  1
  H  H104  1  0.95667557  0.01109919  0.13912566  1
  H  H105  1  0.04332469  0.51109978  0.36087404  1
  H  H106  1  0.04332477  0.98890016  0.86087403  1
  H  H107  1  0.95667534  0.48890035  0.63912588  1
  H  H108  1  0.76752746  0.93693401  0.06147523  1
  H  H109  1  0.23247195  0.43693457  0.43852456  1
  H  H110  1  0.23247255  0.06306537  0.93852425  1
  H  H111  1  0.76752806  0.56306544  0.56147535  1
  H  H112  1  0.11098133  0.16190118  0.04188249  1
  H  H113  1  0.88901923  0.66190180  0.45811709  1
  H  H114  1  0.88901869  0.83809845  0.95811692  1
  H  H115  1  0.11098215  0.33809841  0.54188255  1
  H  H116  1  0.38524587  0.24555670  0.16480543  1
  H  H117  1  0.61475536  0.74555667  0.33519431  1
  H  H118  1  0.61475449  0.75444327  0.83519423  1
  H  H119  1  0.38524592  0.25444288  0.66480528  1
  H  H120  1  0.34673296  0.09696183  0.29429716  1
  H  H121  1  0.65326715  0.59696141  0.20570256  1
  H  H122  1  0.65326757  0.90303832  0.70570273  1
  H  H123  1  0.34673322  0.40303829  0.79429686  1
  H  H124  1  0.32599354  0.03601123  0.10398079  1
  H  H125  1  0.67400624  0.53601135  0.39601872  1
  H  H126  1  0.67400644  0.96398874  0.89601897  1
  H  H127  1  0.32599388  0.46398853  0.60398094  1
  H  H128  1  0.75858160  0.01911812  0.35266586  1
  H  H129  1  0.24141978  0.51911780  0.14733419  1
  H  H130  1  0.24141930  0.98088207  0.64733411  1
  H  H131  1  0.75858133  0.48088227  0.85266575  1
  H  H132  1  0.00455785  0.89316984  0.21581412  1
  H  H133  1  0.99544154  0.39317006  0.28418624  1
  H  H134  1  0.99544147  0.10683004  0.78418614  1
  H  H135  1  0.00455744  0.60682980  0.71581359  1
  H  H136  1  0.47687054  0.90002991  0.22596775  1
  H  H137  1  0.52312875  0.40003040  0.27403248  1
  H  H138  1  0.52312838  0.09997008  0.77403229  1
  H  H139  1  0.47687010  0.59996980  0.72596751  1
  H  H140  1  0.73797085  0.23655440  0.30783319  1
  H  H141  1  0.26202994  0.73655465  0.19216664  1
  H  H142  1  0.26202982  0.76344543  0.69216644  1
  H  H143  1  0.73797028  0.26344550  0.80783318  1
