# generated using pymatgen
data_Li15(FeO4)4
_symmetry_space_group_name_H-M   'P 1'
_cell_length_a   9.16738727
_cell_length_b   9.27088677
_cell_length_c   9.38559854
_cell_angle_alpha   90.00000000
_cell_angle_beta   90.46801318
_cell_angle_gamma   90.00000000
_symmetry_Int_Tables_number   1
_chemical_formula_structural   Li15(FeO4)4
_chemical_formula_sum   'Li30 Fe8 O32'
_cell_volume   797.65361865
_cell_formula_units_Z   2
loop_
 _symmetry_equiv_pos_site_id
 _symmetry_equiv_pos_as_xyz
  1  'x, y, z'
loop_
 _atom_site_type_symbol
 _atom_site_label
 _atom_site_symmetry_multiplicity
 _atom_site_fract_x
 _atom_site_fract_y
 _atom_site_fract_z
 _atom_site_occupancy
  Li  Li0  1  0.10436333  0.61490286  0.14350404  1
  Li  Li1  1  0.10436333  0.88509714  0.64350404  1
  Li  Li2  1  0.12446590  0.84840345  0.36370958  1
  Li  Li3  1  0.12446590  0.65159655  0.86370958  1
  Li  Li4  1  0.35745722  0.12955409  0.85847693  1
  Li  Li5  1  0.35745722  0.37044591  0.35847693  1
  Li  Li6  1  0.38914665  0.62078904  0.84339749  1
  Li  Li7  1  0.38914665  0.87921096  0.34339749  1
  Li  Li8  1  0.40040886  0.12282960  0.13582810  1
  Li  Li9  1  0.40040886  0.37717040  0.63582810  1
  Li  Li10  1  0.59162946  0.61948859  0.37237055  1
  Li  Li11  1  0.59162946  0.88051141  0.87237055  1
  Li  Li12  1  0.60703754  0.11557316  0.65170325  1
  Li  Li13  1  0.60703754  0.38442684  0.15170325  1
  Li  Li14  1  0.61996107  0.64782228  0.63111580  1
  Li  Li15  1  0.61996107  0.85217772  0.13111580  1
  Li  Li16  1  0.65778689  0.61292657  0.89326931  1
  Li  Li17  1  0.65778689  0.88707343  0.39326931  1
  Li  Li18  1  0.66768866  0.11453711  0.10427993  1
  Li  Li19  1  0.66768866  0.38546289  0.60427993  1
  Li  Li20  1  0.82765586  0.61412074  0.10499241  1
  Li  Li21  1  0.82765586  0.88587926  0.60499241  1
  Li  Li22  1  0.86158169  0.38296442  0.39446826  1
  Li  Li23  1  0.86158169  0.11703558  0.89446826  1
  Li  Li24  1  0.87829923  0.14322178  0.63805719  1
  Li  Li25  1  0.87829923  0.35677822  0.13805719  1
  Li  Li26  1  0.89439164  0.61835684  0.64748634  1
  Li  Li27  1  0.89439164  0.88164316  0.14748634  1
  Li  Li28  1  0.90516033  0.11810561  0.36623213  1
  Li  Li29  1  0.90516033  0.38189439  0.86623213  1
  Fe  Fe30  1  0.11972613  0.13608167  0.12259270  1
  Fe  Fe31  1  0.11972613  0.36391833  0.62259270  1
  Fe  Fe32  1  0.38224195  0.64008266  0.12508266  1
  Fe  Fe33  1  0.38224195  0.85991734  0.62508266  1
  Fe  Fe34  1  0.61748186  0.15471890  0.37836720  1
  Fe  Fe35  1  0.61748186  0.34528110  0.87836720  1
  Fe  Fe36  1  0.87997603  0.65294227  0.37808382  1
  Fe  Fe37  1  0.87997603  0.84705773  0.87808382  1
  O  O38  1  0.99317520  0.26930815  0.52222335  1
  O  O39  1  0.99317520  0.23069185  0.02222335  1
  O  O40  1  0.02939940  0.01605404  0.23334544  1
  O  O41  1  0.02939940  0.48394596  0.73334544  1
  O  O42  1  0.23530294  0.04638542  0.01632186  1
  O  O43  1  0.23530294  0.45361458  0.51632186  1
  O  O44  1  0.23434032  0.23850912  0.22132382  1
  O  O45  1  0.23434032  0.26149088  0.72132382  1
  O  O46  1  0.26120611  0.73860868  0.23799604  1
  O  O47  1  0.26120611  0.76139132  0.73799604  1
  O  O48  1  0.25616804  0.56881342  0.00014355  1
  O  O49  1  0.25616804  0.93118658  0.50014355  1
  O  O50  1  0.47520669  0.51488915  0.24250421  1
  O  O51  1  0.47520669  0.98511085  0.74250421  1
  O  O52  1  0.51739440  0.77928535  0.50324591  1
  O  O53  1  0.51739440  0.72071465  0.00324591  1
  O  O54  1  0.51650035  0.22576751  0.00015811  1
  O  O55  1  0.51650035  0.27423249  0.50015811  1
  O  O56  1  0.53707120  0.00968833  0.25426842  1
  O  O57  1  0.53707120  0.49031167  0.75426842  1
  O  O58  1  0.74785835  0.04591508  0.49795552  1
  O  O59  1  0.74785835  0.45408492  0.99795552  1
  O  O60  1  0.75213406  0.25126889  0.26110514  1
  O  O61  1  0.75213406  0.24873111  0.76110514  1
  O  O62  1  0.75727142  0.75842736  0.25941624  1
  O  O63  1  0.75727142  0.74157264  0.75941624  1
  O  O64  1  0.75963931  0.54089311  0.49866234  1
  O  O65  1  0.75963931  0.95910689  0.99866234  1
  O  O66  1  0.94872959  0.98124943  0.75346735  1
  O  O67  1  0.94872959  0.51875057  0.25346735  1
  O  O68  1  0.97262634  0.72682891  0.00176801  1
  O  O69  1  0.97262634  0.77317109  0.50176801  1
