# generated using pymatgen
data_NdAg3
_symmetry_space_group_name_H-M   'P 1'
_cell_length_a   6.57794593
_cell_length_b   6.57794647
_cell_length_c   4.86464810
_cell_angle_alpha   90.00000000
_cell_angle_beta   90.00000000
_cell_angle_gamma   119.99999722
_symmetry_Int_Tables_number   1
_chemical_formula_structural   NdAg3
_chemical_formula_sum   'Nd2 Ag6'
_cell_volume   182.28994252
_cell_formula_units_Z   2
loop_
 _symmetry_equiv_pos_site_id
 _symmetry_equiv_pos_as_xyz
  1  'x, y, z'
loop_
 _atom_site_type_symbol
 _atom_site_label
 _atom_site_symmetry_multiplicity
 _atom_site_fract_x
 _atom_site_fract_y
 _atom_site_fract_z
 _atom_site_occupancy
  Nd  Nd0  1  0.66666700  0.33333400  0.24999900  1
  Nd  Nd1  1  0.33333400  0.66666900  0.75000100  1
  Ag  Ag2  1  0.84918473  0.15081727  0.75000100  1
  Ag  Ag3  1  0.30163155  0.15081727  0.75000100  1
  Ag  Ag4  1  0.84918573  0.69836845  0.75000100  1
  Ag  Ag5  1  0.15081627  0.84918573  0.24999900  1
  Ag  Ag6  1  0.69836945  0.84918573  0.24999900  1
  Ag  Ag7  1  0.15081527  0.30163055  0.24999900  1
