# generated using pymatgen
data_MgIn2
_symmetry_space_group_name_H-M   'P 1'
_cell_length_a   5.72410276
_cell_length_b   5.72410457
_cell_length_c   6.25929456
_cell_angle_alpha   117.20966631
_cell_angle_beta   62.79033187
_cell_angle_gamma   119.99998124
_symmetry_Int_Tables_number   1
_chemical_formula_structural   MgIn2
_chemical_formula_sum   'Mg2 In4'
_cell_volume   150.83727360
_cell_formula_units_Z   2
loop_
 _symmetry_equiv_pos_site_id
 _symmetry_equiv_pos_as_xyz
  1  'x, y, z'
loop_
 _atom_site_type_symbol
 _atom_site_label
 _atom_site_symmetry_multiplicity
 _atom_site_fract_x
 _atom_site_fract_y
 _atom_site_fract_z
 _atom_site_occupancy
  Mg  Mg0  1  0.16785303  0.16547997  0.49643990  1
  Mg  Mg1  1  0.83214597  0.50118703  0.50356110  1
  In  In2  1  0.66797426  0.33333300  1.00000000  1
  In  In3  1  0.00000000  0.00130826  0.00000000  1
  In  In4  1  0.33202374  0.66535874  1.00000000  1
  In  In5  1  0.50000000  0.83333400  0.50000000  1
