# generated using pymatgen
data_LiPrPCO7
_symmetry_space_group_name_H-M   'P 1'
_cell_length_a   9.49011183
_cell_length_b   7.08894719
_cell_length_c   4.94248266
_cell_angle_alpha   90.00000000
_cell_angle_beta   85.17781632
_cell_angle_gamma   90.00000000
_symmetry_Int_Tables_number   1
_chemical_formula_structural   LiPrPCO7
_chemical_formula_sum   'Li2 Pr2 P2 C2 O14'
_cell_volume   331.32809550
_cell_formula_units_Z   2
loop_
 _symmetry_equiv_pos_site_id
 _symmetry_equiv_pos_as_xyz
  1  'x, y, z'
loop_
 _atom_site_type_symbol
 _atom_site_label
 _atom_site_symmetry_multiplicity
 _atom_site_fract_x
 _atom_site_fract_y
 _atom_site_fract_z
 _atom_site_occupancy
  Li  Li0  1  0.22528490  0.44525232  0.25023307  1
  Li  Li1  1  0.77471510  0.94525232  0.74976693  1
  Pr  Pr2  1  0.37207911  0.77738132  0.76243560  1
  Pr  Pr3  1  0.62792089  0.27738132  0.23756440  1
  P  P4  1  0.39641617  0.27882145  0.72762554  1
  P  P5  1  0.60358383  0.77882145  0.27237446  1
  C  C6  1  0.05966483  0.71727020  0.72084840  1
  C  C7  1  0.94033517  0.21727020  0.27915160  1
  O  O8  1  0.06426647  0.27020750  0.31295718  1
  O  O9  1  0.10280054  0.70418113  0.96008602  1
  O  O10  1  0.15357379  0.68037214  0.52252425  1
  O  O11  1  0.32254764  0.09325876  0.81402330  1
  O  O12  1  0.33721629  0.44928167  0.89445108  1
  O  O13  1  0.43931105  0.76321912  0.24149277  1
  O  O14  1  0.38839474  0.31860439  0.41901927  1
  O  O15  1  0.61160526  0.81860439  0.58098073  1
  O  O16  1  0.56068895  0.26321912  0.75850723  1
  O  O17  1  0.66278371  0.94928167  0.10554892  1
  O  O18  1  0.67745236  0.59325876  0.18597670  1
  O  O19  1  0.84642621  0.18037214  0.47747575  1
  O  O20  1  0.89719946  0.20418113  0.03991398  1
  O  O21  1  0.93573353  0.77020750  0.68704282  1
