# generated using pymatgen
data_PH9(NO2)2
_symmetry_space_group_name_H-M   'P 1'
_cell_length_a   10.69433630
_cell_length_b   6.64385596
_cell_length_c   7.84548869
_cell_angle_alpha   89.99999776
_cell_angle_beta   111.09879211
_cell_angle_gamma   90.00001862
_symmetry_Int_Tables_number   1
_chemical_formula_structural   PH9(NO2)2
_chemical_formula_sum   'P4 H36 N8 O16'
_cell_volume   520.06495952
_cell_formula_units_Z   4
loop_
 _symmetry_equiv_pos_site_id
 _symmetry_equiv_pos_as_xyz
  1  'x, y, z'
loop_
 _atom_site_type_symbol
 _atom_site_label
 _atom_site_symmetry_multiplicity
 _atom_site_fract_x
 _atom_site_fract_y
 _atom_site_fract_z
 _atom_site_occupancy
  P  P0  1  0.24187561  0.90321466  0.43643782  1
  P  P1  1  0.75812441  0.40321505  0.06356172  1
  P  P2  1  0.75812454  0.09678529  0.56356238  1
  P  P3  1  0.24187511  0.59678548  0.93643739  1
  H  H4  1  0.16419164  0.30006023  0.39782216  1
  H  H5  1  0.83580902  0.80005932  0.10217771  1
  H  H6  1  0.83580956  0.69994031  0.60217761  1
  H  H7  1  0.16419140  0.19994107  0.89782283  1
  H  H8  1  0.53466807  0.11936327  0.15907657  1
  H  H9  1  0.46533184  0.61936409  0.34092294  1
  H  H10  1  0.46533214  0.88063648  0.84092323  1
  H  H11  1  0.53466829  0.38063627  0.65907666  1
  H  H12  1  0.41170798  0.93447310  0.09758091  1
  H  H13  1  0.58829165  0.43447366  0.40241784  1
  H  H14  1  0.58829200  0.06552689  0.90241851  1
  H  H15  1  0.41170852  0.56552700  0.59758176  1
  H  H16  1  0.16026921  0.86997424  0.13369041  1
  H  H17  1  0.83973086  0.36997425  0.36630955  1
  H  H18  1  0.83973063  0.13002517  0.86630971  1
  H  H19  1  0.16026892  0.63002615  0.63368991  1
  H  H20  1  0.18936305  0.41178795  0.21836270  1
  H  H21  1  0.81063751  0.91178771  0.28163768  1
  H  H22  1  0.81063787  0.58821240  0.78163706  1
  H  H23  1  0.18936287  0.08821281  0.71836308  1
  H  H24  1  0.11761771  0.54532170  0.34753361  1
  H  H25  1  0.88238250  0.04532104  0.15246625  1
  H  H26  1  0.88238323  0.45467856  0.65246617  1
  H  H27  1  0.11761760  0.95467891  0.84753375  1
  H  H28  1  0.47295972  0.03242500  0.31349059  1
  H  H29  1  0.52703979  0.53242592  0.18650852  1
  H  H30  1  0.52704022  0.96757481  0.68650921  1
  H  H31  1  0.47296052  0.46757388  0.81349107  1
  H  H32  1  0.37768627  0.18022337  0.13882068  1
  H  H33  1  0.62231351  0.68022392  0.36117878  1
  H  H34  1  0.62231408  0.81977663  0.86117931  1
  H  H35  1  0.37768688  0.31977637  0.63882081  1
  H  H36  1  0.03247585  0.35621693  0.20216721  1
  H  H37  1  0.96752440  0.85621606  0.29783279  1
  H  H38  1  0.96752524  0.64378336  0.79783359  1
  H  H39  1  0.03247591  0.14378385  0.70216744  1
  N  N40  1  0.44899444  0.06536515  0.17735007  1
  N  N41  1  0.55100521  0.56536549  0.32264934  1
  N  N42  1  0.55100555  0.93463501  0.82264968  1
  N  N43  1  0.44899533  0.43463450  0.67735045  1
  N  N44  1  0.12554551  0.40431943  0.29291815  1
  N  N45  1  0.87445471  0.90431949  0.20708217  1
  N  N46  1  0.87445537  0.59568096  0.70708227  1
  N  N47  1  0.12554548  0.09568111  0.79291758  1
  O  O48  1  0.12846019  0.77705117  0.46558911  1
  O  O49  1  0.87154010  0.27705079  0.03441061  1
  O  O50  1  0.87154021  0.22294904  0.53441198  1
  O  O51  1  0.12845935  0.72295006  0.96558796  1
  O  O52  1  0.36690544  0.77366040  0.46115831  1
  O  O53  1  0.63309465  0.27366008  0.03884068  1
  O  O54  1  0.63309472  0.22633940  0.53884192  1
  O  O55  1  0.36690459  0.72633993  0.96115828  1
  O  O56  1  0.27243076  0.09595914  0.55377003  1
  O  O57  1  0.72756949  0.59595952  0.94623079  1
  O  O58  1  0.72756931  0.90404112  0.44623013  1
  O  O59  1  0.27243026  0.40404123  0.05376950  1
  O  O60  1  0.18171106  0.98251217  0.22901330  1
  O  O61  1  0.81828851  0.48251149  0.27098579  1
  O  O62  1  0.81828871  0.01748738  0.77098648  1
  O  O63  1  0.18171090  0.51748777  0.72901350  1
