# generated using pymatgen
data_SbN3(O3F)3
_symmetry_space_group_name_H-M   'P 1'
_cell_length_a   8.89303566
_cell_length_b   8.89303566
_cell_length_c   7.45640464
_cell_angle_alpha   90.00000000
_cell_angle_beta   90.00000000
_cell_angle_gamma   80.82237513
_symmetry_Int_Tables_number   1
_chemical_formula_structural   SbN3(O3F)3
_chemical_formula_sum   'Sb2 N6 O18 F6'
_cell_volume   582.14889639
_cell_formula_units_Z   2
loop_
 _symmetry_equiv_pos_site_id
 _symmetry_equiv_pos_as_xyz
  1  'x, y, z'
loop_
 _atom_site_type_symbol
 _atom_site_label
 _atom_site_symmetry_multiplicity
 _atom_site_fract_x
 _atom_site_fract_y
 _atom_site_fract_z
 _atom_site_occupancy
  Sb  Sb0  1  0.14157341  0.14157341  0.10760325  1
  Sb  Sb1  1  0.85842659  0.85842659  0.60760325  1
  N  N2  1  0.31720301  0.78619387  0.25182986  1
  N  N3  1  0.21380613  0.68279699  0.75182986  1
  N  N4  1  0.70085074  0.70085074  0.02613972  1
  N  N5  1  0.29914926  0.29914926  0.52613972  1
  N  N6  1  0.78619387  0.31720301  0.25182986  1
  N  N7  1  0.68279699  0.21380613  0.75182986  1
  O  O8  1  0.21021366  0.84418786  0.14707930  1
  O  O9  1  0.15581214  0.78978634  0.64707930  1
  O  O10  1  0.37887687  0.86731551  0.35496132  1
  O  O11  1  0.13268449  0.62112313  0.85496132  1
  O  O12  1  0.35521060  0.64334234  0.74598366  1
  O  O13  1  0.35665766  0.64478940  0.24598366  1
  O  O14  1  0.60283408  0.79042429  0.94237482  1
  O  O15  1  0.20957571  0.39716592  0.44237482  1
  O  O16  1  0.28996388  0.28996388  0.69229390  1
  O  O17  1  0.71003612  0.71003612  0.19229390  1
  O  O18  1  0.39716592  0.20957571  0.44237482  1
  O  O19  1  0.79042429  0.60283408  0.94237482  1
  O  O20  1  0.64478940  0.35665766  0.24598366  1
  O  O21  1  0.64334234  0.35521060  0.74598366  1
  O  O22  1  0.62112313  0.13268449  0.85496132  1
  O  O23  1  0.86731551  0.37887687  0.35496132  1
  O  O24  1  0.84418786  0.21021366  0.14707930  1
  O  O25  1  0.78978634  0.15581214  0.64707930  1
  F  F26  1  0.64592400  0.88845516  0.54476472  1
  F  F27  1  0.11154484  0.35407600  0.04476472  1
  F  F28  1  0.07246323  0.07246323  0.88133576  1
  F  F29  1  0.92753677  0.92753677  0.38133576  1
  F  F30  1  0.35407600  0.11154484  0.04476472  1
  F  F31  1  0.88845516  0.64592400  0.54476472  1
