# generated using pymatgen
data_PrEr3
_symmetry_space_group_name_H-M   'P 1'
_cell_length_a   7.23231520
_cell_length_b   7.23231463
_cell_length_c   5.74212430
_cell_angle_alpha   90.00000000
_cell_angle_beta   90.00000000
_cell_angle_gamma   120.00000790
_symmetry_Int_Tables_number   1
_chemical_formula_structural   PrEr3
_chemical_formula_sum   'Pr2 Er6'
_cell_volume   260.11047538
_cell_formula_units_Z   2
loop_
 _symmetry_equiv_pos_site_id
 _symmetry_equiv_pos_as_xyz
  1  'x, y, z'
loop_
 _atom_site_type_symbol
 _atom_site_label
 _atom_site_symmetry_multiplicity
 _atom_site_fract_x
 _atom_site_fract_y
 _atom_site_fract_z
 _atom_site_occupancy
  Pr  Pr0  1  0.33333400  0.66666700  0.75000000  1
  Pr  Pr1  1  0.66666700  0.33333400  0.25000000  1
  Er  Er2  1  0.16413129  0.32826159  0.25000000  1
  Er  Er3  1  0.67173941  0.83586971  0.25000000  1
  Er  Er4  1  0.16412929  0.83586971  0.25000000  1
  Er  Er5  1  0.83586871  0.67173841  0.75000000  1
  Er  Er6  1  0.32826259  0.16413229  0.75000000  1
  Er  Er7  1  0.83586971  0.16413229  0.75000000  1
