# generated using pymatgen
data_Sc2CuRh
_symmetry_space_group_name_H-M   'P 1'
_cell_length_a   4.59365187
_cell_length_b   4.59365677
_cell_length_c   4.59363010
_cell_angle_alpha   59.99988344
_cell_angle_beta   59.99966805
_cell_angle_gamma   59.99936350
_symmetry_Int_Tables_number   1
_chemical_formula_structural   Sc2CuRh
_chemical_formula_sum   'Sc2 Cu1 Rh1'
_cell_volume   68.54157558
_cell_formula_units_Z   1
loop_
 _symmetry_equiv_pos_site_id
 _symmetry_equiv_pos_as_xyz
  1  'x, y, z'
loop_
 _atom_site_type_symbol
 _atom_site_label
 _atom_site_symmetry_multiplicity
 _atom_site_fract_x
 _atom_site_fract_y
 _atom_site_fract_z
 _atom_site_occupancy
  Sc  Sc0  1  0.99999932  0.00000083  0.99999846  1
  Sc  Sc1  1  0.49999977  0.50000044  0.50000235  1
  Cu  Cu2  1  0.25000225  0.25000124  0.25000167  1
  Rh  Rh3  1  0.75000066  0.74999950  0.74999951  1
