# generated using pymatgen
data_Mn2Co3Te3O16
_symmetry_space_group_name_H-M   'P 1'
_cell_length_a   5.97801856
_cell_length_b   6.02288483
_cell_length_c   9.30052133
_cell_angle_alpha   90.25992767
_cell_angle_beta   90.07035405
_cell_angle_gamma   120.42841852
_symmetry_Int_Tables_number   1
_chemical_formula_structural   Mn2Co3Te3O16
_chemical_formula_sum   'Mn2 Co3 Te3 O16'
_cell_volume   288.73574166
_cell_formula_units_Z   1
loop_
 _symmetry_equiv_pos_site_id
 _symmetry_equiv_pos_as_xyz
  1  'x, y, z'
loop_
 _atom_site_type_symbol
 _atom_site_label
 _atom_site_symmetry_multiplicity
 _atom_site_fract_x
 _atom_site_fract_y
 _atom_site_fract_z
 _atom_site_occupancy
  Mn  Mn0  1  0.35146380  0.67583449  0.51108903  1
  Mn  Mn1  1  0.69679651  0.34739633  0.97483555  1
  Co  Co2  1  0.67040124  0.83483802  0.20848779  1
  Co  Co3  1  0.81635968  0.65724974  0.71316179  1
  Co  Co4  1  0.81627247  0.15852972  0.71289765  1
  Te  Te5  1  0.17414772  0.83490803  0.21371665  1
  Te  Te6  1  0.17402137  0.33809166  0.21371920  1
  Te  Te7  1  0.31852970  0.16151627  0.71346678  1
  O  O8  1  0.15124173  0.83550414  0.60720084  1
  O  O9  1  0.03875519  0.51941605  0.34065350  1
  O  O10  1  0.31255917  0.65547005  0.09116426  1
  O  O11  1  0.02242253  0.01034802  0.32496141  1
  O  O12  1  0.98302887  0.99211904  0.81718432  1
  O  O13  1  0.14893319  0.31442376  0.60625436  1
  O  O14  1  0.47602782  0.96767160  0.32900329  1
  O  O15  1  0.47592146  0.50889228  0.32910297  1
  O  O16  1  0.33638807  0.16723252  0.09688994  1
  O  O17  1  0.68534384  0.84260941  0.60428972  1
  O  O18  1  0.51130742  0.48175056  0.83096870  1
  O  O19  1  0.51518843  0.03685476  0.83371247  1
  O  O20  1  0.65661798  0.32767452  0.60727199  1
  O  O21  1  0.86058493  0.68141645  0.10433720  1
  O  O22  1  0.94580659  0.47434796  0.82602248  1
  O  O23  1  0.86188028  0.17610462  0.10532611  1
