# generated using pymatgen
data_Zr3Al
_symmetry_space_group_name_H-M   'P 1'
_cell_length_a   6.21176638
_cell_length_b   6.21176578
_cell_length_c   5.07684529
_cell_angle_alpha   90.00000000
_cell_angle_beta   90.00000000
_cell_angle_gamma   120.00000322
_symmetry_Int_Tables_number   1
_chemical_formula_structural   Zr3Al
_chemical_formula_sum   'Zr6 Al2'
_cell_volume   169.65033915
_cell_formula_units_Z   2
loop_
 _symmetry_equiv_pos_site_id
 _symmetry_equiv_pos_as_xyz
  1  'x, y, z'
loop_
 _atom_site_type_symbol
 _atom_site_label
 _atom_site_symmetry_multiplicity
 _atom_site_fract_x
 _atom_site_fract_y
 _atom_site_fract_z
 _atom_site_occupancy
  Zr  Zr0  1  0.17148016  0.34296032  0.25000100  1
  Zr  Zr1  1  0.65704068  0.82851984  0.25000100  1
  Zr  Zr2  1  0.17147916  0.82851984  0.25000100  1
  Zr  Zr3  1  0.82851884  0.65703868  0.75000000  1
  Zr  Zr4  1  0.34296032  0.17148116  0.75000000  1
  Zr  Zr5  1  0.82851984  0.17148116  0.75000000  1
  Al  Al6  1  0.33333400  0.66666800  0.75000000  1
  Al  Al7  1  0.66666700  0.33333400  0.25000100  1
