# generated using pymatgen
data_Yb5Sn3
_symmetry_space_group_name_H-M   'P 1'
_cell_length_a   8.12470067
_cell_length_b   8.12470067
_cell_length_c   9.55209166
_cell_angle_alpha   115.16863550
_cell_angle_beta   115.16863550
_cell_angle_gamma   90.00000000
_symmetry_Int_Tables_number   1
_chemical_formula_structural   Yb5Sn3
_chemical_formula_sum   'Yb10 Sn6'
_cell_volume   503.74932759
_cell_formula_units_Z   2
loop_
 _symmetry_equiv_pos_site_id
 _symmetry_equiv_pos_as_xyz
  1  'x, y, z'
loop_
 _atom_site_type_symbol
 _atom_site_label
 _atom_site_symmetry_multiplicity
 _atom_site_fract_x
 _atom_site_fract_y
 _atom_site_fract_z
 _atom_site_occupancy
  Yb  Yb0  1  0.50000000  0.50000000  -0.00000000  1
  Yb  Yb1  1  -0.00000000  -0.00000000  0.00000000  1
  Yb  Yb2  1  0.03126293  0.53126293  0.71364310  1
  Yb  Yb3  1  0.68238017  0.18238017  0.71364310  1
  Yb  Yb4  1  0.18238017  0.03126293  0.71364310  1
  Yb  Yb5  1  0.53126293  0.68238017  0.71364310  1
  Yb  Yb6  1  0.96873707  0.46873707  0.28635690  1
  Yb  Yb7  1  0.31761983  0.81761983  0.28635690  1
  Yb  Yb8  1  0.81761983  0.96873707  0.28635690  1
  Yb  Yb9  1  0.46873707  0.31761983  0.28635690  1
  Sn  Sn10  1  0.25000000  0.25000000  0.50000000  1
  Sn  Sn11  1  0.75000000  0.75000000  0.50000000  1
  Sn  Sn12  1  0.37401156  0.87401156  0.00000000  1
  Sn  Sn13  1  0.62598844  0.12598844  1.00000000  1
  Sn  Sn14  1  0.12598844  0.37401156  0.00000000  1
  Sn  Sn15  1  0.87401156  0.62598844  -0.00000000  1
