# generated using pymatgen
data_Tm5Ga3
_symmetry_space_group_name_H-M   'P 1'
_cell_length_a   6.48839358
_cell_length_b   8.47323781
_cell_length_c   8.47297748
_cell_angle_alpha   120.00101725
_cell_angle_beta   90.00000000
_cell_angle_gamma   90.00000000
_symmetry_Int_Tables_number   1
_chemical_formula_structural   Tm5Ga3
_chemical_formula_sum   'Tm10 Ga6'
_cell_volume   403.41200098
_cell_formula_units_Z   2
loop_
 _symmetry_equiv_pos_site_id
 _symmetry_equiv_pos_as_xyz
  1  'x, y, z'
loop_
 _atom_site_type_symbol
 _atom_site_label
 _atom_site_symmetry_multiplicity
 _atom_site_fract_x
 _atom_site_fract_y
 _atom_site_fract_z
 _atom_site_occupancy
  Tm  Tm0  1  0.50000049  0.33330831  0.66668190  1
  Tm  Tm1  1  0.50000049  0.66662641  0.33331810  1
  Tm  Tm2  1  0.00000049  0.66669169  0.33331810  1
  Tm  Tm3  1  0.00000049  0.33337359  0.66668190  1
  Tm  Tm4  1  0.75000654  0.24453919  0.00000000  1
  Tm  Tm5  1  0.74999745  0.75540700  0.75543242  1
  Tm  Tm6  1  0.74999745  0.99997458  0.24456758  1
  Tm  Tm7  1  0.25000654  0.75546081  1.00000000  1
  Tm  Tm8  1  0.24999745  0.24459300  0.24456758  1
  Tm  Tm9  1  0.24999745  0.00002542  0.75543242  1
  Ga  Ga10  1  0.74999322  0.60132697  1.00000000  1
  Ga  Ga11  1  0.75000218  0.39870725  0.39869610  1
  Ga  Ga12  1  0.75000218  0.00001115  0.60130390  1
  Ga  Ga13  1  0.24999322  0.39867303  0.00000000  1
  Ga  Ga14  1  0.25000218  0.60129275  0.60130390  1
  Ga  Ga15  1  0.25000218  0.99998885  0.39869610  1
