# generated using pymatgen
data_NaNbO3
_symmetry_space_group_name_H-M   'P 1'
_cell_length_a   5.61527108
_cell_length_b   5.64296129
_cell_length_c   7.87569479
_cell_angle_alpha   90.00000000
_cell_angle_beta   90.00000000
_cell_angle_gamma   90.00000000
_symmetry_Int_Tables_number   1
_chemical_formula_structural   NaNbO3
_chemical_formula_sum   'Na4 Nb4 O12'
_cell_volume   249.55522967
_cell_formula_units_Z   4
loop_
 _symmetry_equiv_pos_site_id
 _symmetry_equiv_pos_as_xyz
  1  'x, y, z'
loop_
 _atom_site_type_symbol
 _atom_site_label
 _atom_site_symmetry_multiplicity
 _atom_site_fract_x
 _atom_site_fract_y
 _atom_site_fract_z
 _atom_site_occupancy
  Na  Na0  1  0.49679846  0.25097347  0.00000000  1
  Na  Na1  1  0.99679846  0.74902653  0.50000000  1
  Na  Na2  1  0.49198748  0.22603282  0.50000000  1
  Na  Na3  1  0.99198748  0.77396718  -0.00000000  1
  Nb  Nb4  1  0.48357648  0.74452447  0.74652544  1
  Nb  Nb5  1  0.48357648  0.74452447  0.25347456  1
  Nb  Nb6  1  0.98357648  0.25547553  0.75347456  1
  Nb  Nb7  1  0.98357648  0.25547553  0.24652544  1
  O  O8  1  0.07571939  0.23847045  -0.00000000  1
  O  O9  1  0.57571939  0.76152955  0.50000000  1
  O  O10  1  0.94912569  0.25708449  0.50000000  1
  O  O11  1  0.44912569  0.74291551  -0.00000000  1
  O  O12  1  0.79561568  0.53516691  0.78206234  1
  O  O13  1  0.79561568  0.53516691  0.21793766  1
  O  O14  1  0.29561568  0.46483309  0.71793766  1
  O  O15  1  0.29561568  0.46483309  0.28206234  1
  O  O16  1  0.23319234  0.96992101  0.71699927  1
  O  O17  1  0.23319234  0.96992101  0.28300073  1
  O  O18  1  0.73319234  0.03007899  0.78300073  1
  O  O19  1  0.73319234  0.03007899  0.21699927  1
