# generated using pymatgen
data_Tl4PbSe3
_symmetry_space_group_name_H-M   'P 1'
_cell_length_a   8.54865419
_cell_length_b   8.54865419
_cell_length_c   8.90910899
_cell_angle_alpha   118.67041272
_cell_angle_beta   118.67041272
_cell_angle_gamma   90.00000000
_symmetry_Int_Tables_number   1
_chemical_formula_structural   Tl4PbSe3
_chemical_formula_sum   'Tl8 Pb2 Se6'
_cell_volume   478.27983273
_cell_formula_units_Z   2
loop_
 _symmetry_equiv_pos_site_id
 _symmetry_equiv_pos_as_xyz
  1  'x, y, z'
loop_
 _atom_site_type_symbol
 _atom_site_label
 _atom_site_symmetry_multiplicity
 _atom_site_fract_x
 _atom_site_fract_y
 _atom_site_fract_z
 _atom_site_occupancy
  Tl  Tl0  1  0.00422342  0.80656661  0.31079003  1
  Tl  Tl1  1  0.30656661  0.50422342  0.31079003  1
  Tl  Tl2  1  0.80656661  0.30656661  0.31079003  1
  Tl  Tl3  1  0.50422342  0.00422342  0.31079003  1
  Tl  Tl4  1  0.99577658  0.19343339  0.68920997  1
  Tl  Tl5  1  0.69343339  0.49577658  0.68920997  1
  Tl  Tl6  1  0.19343339  0.69343339  0.68920997  1
  Tl  Tl7  1  0.49577658  0.99577658  0.68920997  1
  Pb  Pb8  1  0.50000000  0.50000000  -0.00000000  1
  Pb  Pb9  1  -0.00000000  -0.00000000  -0.00000000  1
  Se  Se10  1  0.75000000  0.75000000  0.50000000  1
  Se  Se11  1  0.25000000  0.25000000  0.50000000  1
  Se  Se12  1  0.66307396  0.83692604  -0.00000000  1
  Se  Se13  1  0.33692604  0.16307396  -0.00000000  1
  Se  Se14  1  0.83692604  0.33692604  0.00000000  1
  Se  Se15  1  0.16307396  0.66307396  1.00000000  1
