# generated using pymatgen
data_Y2MnCrO6
_symmetry_space_group_name_H-M   'P 1'
_cell_length_a   5.34871070
_cell_length_b   5.70983767
_cell_length_c   7.61662357
_cell_angle_alpha   90.36244842
_cell_angle_beta   90.00000000
_cell_angle_gamma   90.00000000
_symmetry_Int_Tables_number   1
_chemical_formula_structural   Y2MnCrO6
_chemical_formula_sum   'Y4 Mn2 Cr2 O12'
_cell_volume   232.60908488
_cell_formula_units_Z   2
loop_
 _symmetry_equiv_pos_site_id
 _symmetry_equiv_pos_as_xyz
  1  'x, y, z'
loop_
 _atom_site_type_symbol
 _atom_site_label
 _atom_site_symmetry_multiplicity
 _atom_site_fract_x
 _atom_site_fract_y
 _atom_site_fract_z
 _atom_site_occupancy
  Y  Y0  1  0.51915921  0.07343673  0.24955219  1
  Y  Y1  1  0.48084079  0.92656327  0.75044781  1
  Y  Y2  1  0.01915921  0.42656327  0.75044781  1
  Y  Y3  1  0.98084079  0.57343673  0.24955219  1
  Mn  Mn4  1  0.50000000  0.50000000  0.50000000  1
  Mn  Mn5  1  0.00000000  -0.00000000  0.50000000  1
  Cr  Cr6  1  0.50000000  0.50000000  -0.00000000  1
  Cr  Cr7  1  0.00000000  -0.00000000  -0.00000000  1
  O  O8  1  0.80826964  0.30353049  0.05859789  1
  O  O9  1  0.19173036  0.69646951  0.94140211  1
  O  O10  1  0.30826964  0.19646951  0.94140211  1
  O  O11  1  0.69173036  0.80353049  0.05859789  1
  O  O12  1  0.20411380  0.67956051  0.55678230  1
  O  O13  1  0.79588620  0.32043949  0.44321770  1
  O  O14  1  0.70411380  0.82043949  0.44321770  1
  O  O15  1  0.29588620  0.17956051  0.55678230  1
  O  O16  1  0.38472918  0.45867486  0.24964828  1
  O  O17  1  0.61527082  0.54132514  0.75035172  1
  O  O18  1  0.88472918  0.04132514  0.75035172  1
  O  O19  1  0.11527082  0.95867486  0.24964828  1
