# generated using pymatgen
data_Lu5In3
_symmetry_space_group_name_H-M   'P 1'
_cell_length_a   6.50060989
_cell_length_b   8.85647026
_cell_length_c   8.86658985
_cell_angle_alpha   119.96225774
_cell_angle_beta   90.00257992
_cell_angle_gamma   89.99483427
_symmetry_Int_Tables_number   1
_chemical_formula_structural   Lu5In3
_chemical_formula_sum   'Lu10 In6'
_cell_volume   442.24920966
_cell_formula_units_Z   2
loop_
 _symmetry_equiv_pos_site_id
 _symmetry_equiv_pos_as_xyz
  1  'x, y, z'
loop_
 _atom_site_type_symbol
 _atom_site_label
 _atom_site_symmetry_multiplicity
 _atom_site_fract_x
 _atom_site_fract_y
 _atom_site_fract_z
 _atom_site_occupancy
  Lu  Lu0  1  0.49999175  0.33330459  0.66665579  1
  Lu  Lu1  1  0.49999175  0.66664879  0.33334421  1
  Lu  Lu2  1  0.00002199  0.66671759  0.33336906  1
  Lu  Lu3  1  0.00002199  0.33334853  0.66663094  1
  Lu  Lu4  1  0.75002859  0.24909297  0.00000000  1
  Lu  Lu5  1  0.75002558  0.75084667  0.75088209  1
  Lu  Lu6  1  0.75002558  0.99996458  0.24911791  1
  Lu  Lu7  1  0.25002296  0.75089815  1.00000000  1
  Lu  Lu8  1  0.25001711  0.24915161  0.24910885  1
  Lu  Lu9  1  0.25001711  0.00004276  0.75089115  1
  In  In10  1  0.74994714  0.60729799  1.00000000  1
  In  In11  1  0.74996779  0.39260269  0.39266011  1
  In  In12  1  0.74996779  0.99994258  0.60733989  1
  In  In13  1  0.24997134  0.39268166  0.00000000  1
  In  In14  1  0.24999076  0.60737347  0.60728810  1
  In  In15  1  0.24999076  0.00008537  0.39271190  1
