# generated using pymatgen
data_LaMn7O12
_symmetry_space_group_name_H-M   'P 1'
_cell_length_a   6.55703038
_cell_length_b   6.55703038
_cell_length_c   6.60138798
_cell_angle_alpha   109.32956763
_cell_angle_beta   109.32333875
_cell_angle_gamma   109.48877065
_symmetry_Int_Tables_number   1
_chemical_formula_structural   LaMn7O12
_chemical_formula_sum   'La1 Mn7 O12'
_cell_volume   219.21796684
_cell_formula_units_Z   1
loop_
 _symmetry_equiv_pos_site_id
 _symmetry_equiv_pos_as_xyz
  1  'x, y, z'
loop_
 _atom_site_type_symbol
 _atom_site_label
 _atom_site_symmetry_multiplicity
 _atom_site_fract_x
 _atom_site_fract_y
 _atom_site_fract_z
 _atom_site_occupancy
  La  La0  1  0.00000000  -0.00000000  -0.00000000  1
  Mn  Mn1  1  0.50000000  0.50000000  -0.00000000  1
  Mn  Mn2  1  0.50000000  -0.00000000  0.50000000  1
  Mn  Mn3  1  0.00000000  0.50000000  0.50000000  1
  Mn  Mn4  1  0.50000000  -0.00000000  -0.00000000  1
  Mn  Mn5  1  0.00000000  0.50000000  -0.00000000  1
  Mn  Mn6  1  0.50000000  0.50000000  0.50000000  1
  Mn  Mn7  1  0.00000000  -0.00000000  0.50000000  1
  O  O8  1  0.17145561  0.69430257  0.86575818  1
  O  O9  1  0.82854439  0.30569743  0.13424182  1
  O  O10  1  0.17870314  0.31085693  0.48956007  1
  O  O11  1  0.82129686  0.68914307  0.51043993  1
  O  O12  1  0.31734303  0.13335359  0.83316602  1
  O  O13  1  0.30018757  0.48417701  0.16683398  1
  O  O14  1  0.68265697  0.86664641  0.16683398  1
  O  O15  1  0.69981243  0.51582299  0.83316602  1
  O  O16  1  0.48484509  0.18066327  0.31452543  1
  O  O17  1  0.86613783  0.17031965  0.68547457  1
  O  O18  1  0.51515491  0.81933673  0.68547457  1
  O  O19  1  0.13386217  0.82968035  0.31452543  1
