# generated using pymatgen
data_NaNb(CuS2)2
_symmetry_space_group_name_H-M   'P 1'
_cell_length_a   5.52530064
_cell_length_b   7.49888962
_cell_length_c   9.61664853
_cell_angle_alpha   90.00000000
_cell_angle_beta   106.69505614
_cell_angle_gamma   90.00000000
_symmetry_Int_Tables_number   1
_chemical_formula_structural   NaNb(CuS2)2
_chemical_formula_sum   'Na2 Nb2 Cu4 S8'
_cell_volume   381.65670071
_cell_formula_units_Z   2
loop_
 _symmetry_equiv_pos_site_id
 _symmetry_equiv_pos_as_xyz
  1  'x, y, z'
loop_
 _atom_site_type_symbol
 _atom_site_label
 _atom_site_symmetry_multiplicity
 _atom_site_fract_x
 _atom_site_fract_y
 _atom_site_fract_z
 _atom_site_occupancy
  Na  Na0  1  0.82620971  0.75000000  0.63791614  1
  Na  Na1  1  0.18829357  0.25000000  0.36208386  1
  Nb  Nb2  1  0.86378912  0.75000000  0.22372867  1
  Nb  Nb3  1  0.64006045  0.25000000  0.77627133  1
  Cu  Cu4  1  0.35807847  0.75000000  0.21160688  1
  Cu  Cu5  1  0.14647159  0.25000000  0.78839312  1
  Cu  Cu6  1  0.72937285  -0.00000000  0.00000000  1
  Cu  Cu7  1  0.72937285  0.50000000  0.00000000  1
  S  S8  1  0.99235244  0.75000000  0.01196321  1
  S  S9  1  0.98038923  0.25000000  0.98803679  1
  S  S10  1  0.61333070  0.00012789  0.21396442  1
  S  S11  1  0.39936628  0.99987211  0.78603558  1
  S  S12  1  0.61333070  0.49987211  0.21396442  1
  S  S13  1  0.39936628  0.50012789  0.78603558  1
  S  S14  1  0.21826533  0.75000000  0.42011489  1
  S  S15  1  0.79815044  0.25000000  0.57988511  1
