# generated using pymatgen
data_La7(FeO8)2
_symmetry_space_group_name_H-M   'P 1'
_cell_length_a   6.95286018
_cell_length_b   7.60757567
_cell_length_c   7.60757567
_cell_angle_alpha   89.37379635
_cell_angle_beta   74.24737606
_cell_angle_gamma   105.75262394
_symmetry_Int_Tables_number   1
_chemical_formula_structural   La7(FeO8)2
_chemical_formula_sum   'La7 Fe2 O16'
_cell_volume   371.18086275
_cell_formula_units_Z   1
loop_
 _symmetry_equiv_pos_site_id
 _symmetry_equiv_pos_as_xyz
  1  'x, y, z'
loop_
 _atom_site_type_symbol
 _atom_site_label
 _atom_site_symmetry_multiplicity
 _atom_site_fract_x
 _atom_site_fract_y
 _atom_site_fract_z
 _atom_site_occupancy
  La  La0  1  0.77539365  0.19562121  0.30437879  1
  La  La1  1  0.72192350  0.17866781  0.81863416  1
  La  La2  1  0.26830570  0.31827203  0.68213194  1
  La  La3  1  0.72167182  0.67715756  0.82284244  1
  La  La4  1  0.72192350  0.68136584  0.32133219  1
  La  La5  1  0.26830570  0.81786806  0.18172797  1
  La  La6  1  0.27476196  0.81991456  0.68008544  1
  Fe  Fe7  1  0.00610989  0.00171542  0.49828458  1
  Fe  Fe8  1  0.00771221  0.50172499  0.99827501  1
  O  O9  1  0.30573205  0.06429044  0.43570956  1
  O  O10  1  0.98781636  0.98990872  0.26328201  1
  O  O11  1  0.99045235  0.99286105  0.74489428  1
  O  O12  1  0.38007052  0.05822703  0.86779021  1
  O  O13  1  0.62122079  0.41296270  0.60490068  1
  O  O14  1  0.99598596  0.25880615  0.99418999  1
  O  O15  1  0.98781636  0.23671799  0.51009128  1
  O  O16  1  0.70382037  0.42659272  0.07340728  1
  O  O17  1  0.31930587  0.59419236  0.90580764  1
  O  O18  1  0.99721181  0.50418915  0.75747626  1
  O  O19  1  0.99598596  0.50581001  0.24119385  1
  O  O20  1  0.38007052  0.63220979  0.44177297  1
  O  O21  1  0.62122079  0.89509932  0.08703730  1
  O  O22  1  0.99045235  0.75510572  0.50713895  1
  O  O23  1  0.68351718  0.91919564  0.58080436  1
  O  O24  1  0.99721181  0.74252374  0.99581085  1
