# generated using pymatgen
data_EuFe4(CuO4)3
_symmetry_space_group_name_H-M   'P 1'
_cell_length_a   6.49073758
_cell_length_b   6.49030929
_cell_length_c   6.49136049
_cell_angle_alpha   109.46229771
_cell_angle_beta   109.45950465
_cell_angle_gamma   109.49932861
_symmetry_Int_Tables_number   1
_chemical_formula_structural   EuFe4(CuO4)3
_chemical_formula_sum   'Eu1 Fe4 Cu3 O12'
_cell_volume   210.49083606
_cell_formula_units_Z   1
loop_
 _symmetry_equiv_pos_site_id
 _symmetry_equiv_pos_as_xyz
  1  'x, y, z'
loop_
 _atom_site_type_symbol
 _atom_site_label
 _atom_site_symmetry_multiplicity
 _atom_site_fract_x
 _atom_site_fract_y
 _atom_site_fract_z
 _atom_site_occupancy
  Eu  Eu0  1  0.00000392  -0.00000006  -0.00000675  1
  Fe  Fe1  1  0.00000115  0.99999898  0.50000239  1
  Fe  Fe2  1  0.50000004  -0.00000006  0.00000014  1
  Fe  Fe3  1  -0.00000084  0.50000251  0.00000192  1
  Fe  Fe4  1  0.50000052  0.49999858  0.50000110  1
  Cu  Cu5  1  0.49999835  -0.00000116  0.49999822  1
  Cu  Cu6  1  0.00000090  0.49999860  0.49999954  1
  Cu  Cu7  1  0.49999828  0.50000026  -0.00000001  1
  O  O8  1  0.16652301  0.85498992  0.68843780  1
  O  O9  1  0.83347794  0.14500583  0.31156329  1
  O  O10  1  0.83314507  0.52139431  0.68824009  1
  O  O11  1  0.16685968  0.47860461  0.31175937  1
  O  O12  1  0.85514768  0.68849239  0.16660034  1
  O  O13  1  0.14485165  0.31151229  0.83340105  1
  O  O14  1  0.52166837  0.68841141  0.83324198  1
  O  O15  1  0.47833255  0.31159425  0.16676067  1
  O  O16  1  0.68848099  0.16657446  0.85500841  1
  O  O17  1  0.31151572  0.83342300  0.14499074  1
  O  O18  1  0.68819118  0.83315466  0.52140326  1
  O  O19  1  0.31180384  0.16684524  0.47859647  1
