# generated using pymatgen
data_Ba2U(Cu2Se3)2
_symmetry_space_group_name_H-M   'P 1'
_cell_length_a   7.33751626
_cell_length_b   8.95904099
_cell_length_c   9.82982605
_cell_angle_alpha   90.00000000
_cell_angle_beta   90.00000000
_cell_angle_gamma   107.68806818
_symmetry_Int_Tables_number   1
_chemical_formula_structural   Ba2U(Cu2Se3)2
_chemical_formula_sum   'Ba4 U2 Cu8 Se12'
_cell_volume   615.63583557
_cell_formula_units_Z   2
loop_
 _symmetry_equiv_pos_site_id
 _symmetry_equiv_pos_as_xyz
  1  'x, y, z'
loop_
 _atom_site_type_symbol
 _atom_site_label
 _atom_site_symmetry_multiplicity
 _atom_site_fract_x
 _atom_site_fract_y
 _atom_site_fract_z
 _atom_site_occupancy
  Ba  Ba0  1  0.48536838  0.37570777  0.76836095  1
  Ba  Ba1  1  0.51463162  0.12429223  0.26836095  1
  Ba  Ba2  1  0.51463162  0.62429223  0.23163905  1
  Ba  Ba3  1  0.48536838  0.87570777  0.73163905  1
  U  U4  1  -0.00000000  0.50000000  0.50000000  1
  U  U5  1  -0.00000000  -0.00000000  -0.00000000  1
  Cu  Cu6  1  0.99520076  0.13984621  0.50052047  1
  Cu  Cu7  1  0.00479924  0.36015379  0.00052047  1
  Cu  Cu8  1  0.00479924  0.86015379  0.49947953  1
  Cu  Cu9  1  0.99520076  0.63984621  0.99947953  1
  Cu  Cu10  1  0.93485434  0.23491410  0.75327235  1
  Cu  Cu11  1  0.06514566  0.26508590  0.25327235  1
  Cu  Cu12  1  0.06514566  0.76508590  0.24672765  1
  Cu  Cu13  1  0.93485434  0.73491410  0.74672765  1
  Se  Se14  1  0.88835210  0.47032778  0.21794475  1
  Se  Se15  1  0.11164790  0.02967222  0.71794475  1
  Se  Se16  1  0.11164790  0.52967222  0.78205525  1
  Se  Se17  1  0.88835210  0.97032778  0.28205525  1
  Se  Se18  1  0.71656173  0.14810046  0.94854549  1
  Se  Se19  1  0.28343827  0.35189954  0.44854549  1
  Se  Se20  1  0.28343827  0.85189954  0.05145451  1
  Se  Se21  1  0.71656173  0.64810046  0.55145451  1
  Se  Se22  1  0.71176321  0.21130382  0.56218512  1
  Se  Se23  1  0.28823679  0.28869618  0.06218512  1
  Se  Se24  1  0.28823679  0.78869618  0.43781488  1
  Se  Se25  1  0.71176321  0.71130382  0.93781488  1
