# generated using pymatgen
data_Eu2ZnGe3
_symmetry_space_group_name_H-M   'P 1'
_cell_length_a   8.45814163
_cell_length_b   8.44715642
_cell_length_c   9.03402929
_cell_angle_alpha   90.00000000
_cell_angle_beta   90.00000000
_cell_angle_gamma   120.04302826
_symmetry_Int_Tables_number   1
_chemical_formula_structural   Eu2ZnGe3
_chemical_formula_sum   'Eu8 Zn4 Ge12'
_cell_volume   558.73921051
_cell_formula_units_Z   4
loop_
 _symmetry_equiv_pos_site_id
 _symmetry_equiv_pos_as_xyz
  1  'x, y, z'
loop_
 _atom_site_type_symbol
 _atom_site_label
 _atom_site_symmetry_multiplicity
 _atom_site_fract_x
 _atom_site_fract_y
 _atom_site_fract_z
 _atom_site_occupancy
  Eu  Eu0  1  0.49898551  0.99797102  0.74249135  1
  Eu  Eu1  1  0.50101449  0.00202898  0.25750865  1
  Eu  Eu2  1  0.00101449  0.00202898  0.24249135  1
  Eu  Eu3  1  0.99898551  0.99797102  0.75750865  1
  Eu  Eu4  1  0.00168764  0.50337528  0.75000000  1
  Eu  Eu5  1  0.49831236  0.49662472  0.25000000  1
  Eu  Eu6  1  0.99831236  0.49662472  0.25000000  1
  Eu  Eu7  1  0.50168764  0.50337528  0.75000000  1
  Zn  Zn8  1  0.16663559  0.33327119  0.53215106  1
  Zn  Zn9  1  0.83336441  0.66672881  0.46784894  1
  Zn  Zn10  1  0.33336441  0.66672881  0.03215106  1
  Zn  Zn11  1  0.66663559  0.33327119  0.96784894  1
  Ge  Ge12  1  0.33129716  0.66259432  0.46664646  1
  Ge  Ge13  1  0.66870284  0.33740568  0.53335354  1
  Ge  Ge14  1  0.16870284  0.33740568  0.96664646  1
  Ge  Ge15  1  0.83129716  0.66259432  0.03335354  1
  Ge  Ge16  1  0.16123877  0.83094980  0.52598726  1
  Ge  Ge17  1  0.33028897  0.16905020  0.47401274  1
  Ge  Ge18  1  0.83028897  0.16905020  0.02598726  1
  Ge  Ge19  1  0.66123877  0.83094980  0.97401274  1
  Ge  Ge20  1  0.83876123  0.16905020  0.47401274  1
  Ge  Ge21  1  0.66971103  0.83094980  0.52598726  1
  Ge  Ge22  1  0.16971103  0.83094980  0.97401274  1
  Ge  Ge23  1  0.33876123  0.16905020  0.02598726  1
