# generated using pymatgen
data_KHgI3
_symmetry_space_group_name_H-M   'P 1'
_cell_length_a   9.29600319
_cell_length_b   8.49522053
_cell_length_c   12.54621625
_cell_angle_alpha   90.00000000
_cell_angle_beta   90.00000000
_cell_angle_gamma   90.00000000
_symmetry_Int_Tables_number   1
_chemical_formula_structural   KHgI3
_chemical_formula_sum   'K4 Hg4 I12'
_cell_volume   990.79473541
_cell_formula_units_Z   4
loop_
 _symmetry_equiv_pos_site_id
 _symmetry_equiv_pos_as_xyz
  1  'x, y, z'
loop_
 _atom_site_type_symbol
 _atom_site_label
 _atom_site_symmetry_multiplicity
 _atom_site_fract_x
 _atom_site_fract_y
 _atom_site_fract_z
 _atom_site_occupancy
  K  K0  1  0.49638961  0.21355640  0.63906904  1
  K  K1  1  0.50361039  0.78644360  0.13906904  1
  K  K2  1  0.00361039  0.71355640  0.13906904  1
  K  K3  1  0.99638961  0.28644360  0.63906904  1
  Hg  Hg4  1  0.75383957  0.31103313  0.99553985  1
  Hg  Hg5  1  0.24616043  0.68896687  0.49553985  1
  Hg  Hg6  1  0.74616043  0.81103313  0.49553985  1
  Hg  Hg7  1  0.25383957  0.18896687  0.99553985  1
  I  I8  1  0.50680487  0.23225276  0.13430785  1
  I  I9  1  0.49319513  0.76774724  0.63430785  1
  I  I10  1  0.99319513  0.73225276  0.63430785  1
  I  I11  1  0.00680487  0.26774724  0.13430785  1
  I  I12  1  0.76033780  0.09784165  0.82572538  1
  I  I13  1  0.23966220  0.90215835  0.32572538  1
  I  I14  1  0.73966220  0.59784165  0.32572538  1
  I  I15  1  0.26033780  0.40215835  0.82572538  1
  I  I16  1  0.73781619  0.63060283  0.94535787  1
  I  I17  1  0.26218381  0.36939717  0.44535787  1
  I  I18  1  0.76218381  0.13060283  0.44535787  1
  I  I19  1  0.23781619  0.86939717  0.94535787  1
