# generated using pymatgen
data_BaReH9
_symmetry_space_group_name_H-M   'P 1'
_cell_length_a   5.19709271
_cell_length_b   5.22986499
_cell_length_c   9.51646435
_cell_angle_alpha   90.00000000
_cell_angle_beta   90.00000000
_cell_angle_gamma   115.84650660
_symmetry_Int_Tables_number   1
_chemical_formula_structural   BaReH9
_chemical_formula_sum   'Ba2 Re2 H18'
_cell_volume   232.78354844
_cell_formula_units_Z   2
loop_
 _symmetry_equiv_pos_site_id
 _symmetry_equiv_pos_as_xyz
  1  'x, y, z'
loop_
 _atom_site_type_symbol
 _atom_site_label
 _atom_site_symmetry_multiplicity
 _atom_site_fract_x
 _atom_site_fract_y
 _atom_site_fract_z
 _atom_site_occupancy
  Ba  Ba0  1  -0.00000000  0.00000000  0.50000000  1
  Ba  Ba1  1  -0.00000000  0.00000000  -0.00000000  1
  Re  Re2  1  0.34843059  0.60560719  0.25000000  1
  Re  Re3  1  0.65156941  0.39439281  0.75000000  1
  H  H4  1  0.28461674  0.89949061  0.25000000  1
  H  H5  1  0.71538326  0.10050939  0.75000000  1
  H  H6  1  0.70724757  0.82513387  0.25000000  1
  H  H7  1  0.29275243  0.17486613  0.75000000  1
  H  H8  1  0.15844053  0.25240241  0.25000000  1
  H  H9  1  0.84155947  0.74759759  0.75000000  1
  H  H10  1  0.49882681  0.44374053  0.35466040  1
  H  H11  1  0.50117319  0.55625947  0.85466040  1
  H  H12  1  0.50117319  0.55625947  0.64533960  1
  H  H13  1  0.49882681  0.44374053  0.14533960  1
  H  H14  1  0.05584807  0.50905389  0.35649484  1
  H  H15  1  0.94415193  0.49094611  0.85649484  1
  H  H16  1  0.94415193  0.49094611  0.64350516  1
  H  H17  1  0.05584807  0.50905389  0.14350516  1
  H  H18  1  0.43942777  0.77037800  0.40712954  1
  H  H19  1  0.56057223  0.22962200  0.90712954  1
  H  H20  1  0.56057223  0.22962200  0.59287046  1
  H  H21  1  0.43942777  0.77037800  0.09287046  1
