# generated using pymatgen
data_Li4Ti3Nb5O16
_symmetry_space_group_name_H-M   'P 1'
_cell_length_a   6.10463777
_cell_length_b   6.02692080
_cell_length_c   9.81208724
_cell_angle_alpha   89.98675637
_cell_angle_beta   89.28392698
_cell_angle_gamma   119.54920902
_symmetry_Int_Tables_number   1
_chemical_formula_structural   Li4Ti3Nb5O16
_chemical_formula_sum   'Li4 Ti3 Nb5 O16'
_cell_volume   314.01953318
_cell_formula_units_Z   1
loop_
 _symmetry_equiv_pos_site_id
 _symmetry_equiv_pos_as_xyz
  1  'x, y, z'
loop_
 _atom_site_type_symbol
 _atom_site_label
 _atom_site_symmetry_multiplicity
 _atom_site_fract_x
 _atom_site_fract_y
 _atom_site_fract_z
 _atom_site_occupancy
  Li  Li0  1  0.34436169  0.67222311  0.90914942  1
  Li  Li1  1  0.02421123  0.01191651  0.99134254  1
  Li  Li2  1  0.00040951  0.00033822  0.49770126  1
  Li  Li3  1  0.66966362  0.33479154  0.39091384  1
  Ti  Ti4  1  0.17776482  0.83806884  0.21467633  1
  Ti  Ti5  1  0.17757281  0.33915013  0.21472202  1
  Ti  Ti6  1  0.34471620  0.17246394  0.71961606  1
  Nb  Nb7  1  0.33308469  0.66675648  0.49665213  1
  Nb  Nb8  1  0.66008900  0.83017300  0.20917917  1
  Nb  Nb9  1  0.68308665  0.34158820  0.95981183  1
  Nb  Nb10  1  0.81699525  0.62649078  0.72565303  1
  Nb  Nb11  1  0.81709617  0.19062067  0.72566887  1
  O  O12  1  0.16761904  0.83539507  0.59388663  1
  O  O13  1  0.04759809  0.52392729  0.33819040  1
  O  O14  1  0.32192907  0.66057542  0.10419711  1
  O  O15  1  0.00311480  0.00215626  0.31184547  1
  O  O16  1  0.00091682  0.00034558  0.80724527  1
  O  O17  1  0.16763035  0.33230038  0.59389046  1
  O  O18  1  0.47468569  0.96147409  0.34271701  1
  O  O19  1  0.47511047  0.51348175  0.34214982  1
  O  O20  1  0.32730745  0.16349143  0.10484376  1
  O  O21  1  0.65664877  0.82833843  0.59124382  1
  O  O22  1  0.48243926  0.47435572  0.84369081  1
  O  O23  1  0.48251272  0.00827201  0.84376897  1
  O  O24  1  0.64264964  0.32147442  0.59005699  1
  O  O25  1  0.83974575  0.67611067  0.09739877  1
  O  O26  1  0.02120160  0.51052316  0.85016067  1
  O  O27  1  0.83983782  0.16349590  0.09746852  1
