# generated using pymatgen
data_Cu2SnSe3
_symmetry_space_group_name_H-M   'P 1'
_cell_length_a   7.06987432
_cell_length_b   7.06346926
_cell_length_c   13.45874790
_cell_angle_alpha   85.08371935
_cell_angle_beta   80.13979890
_cell_angle_gamma   59.96999916
_symmetry_Int_Tables_number   1
_chemical_formula_structural   Cu2SnSe3
_chemical_formula_sum   'Cu8 Sn4 Se12'
_cell_volume   573.28508849
_cell_formula_units_Z   4
loop_
 _symmetry_equiv_pos_site_id
 _symmetry_equiv_pos_as_xyz
  1  'x, y, z'
loop_
 _atom_site_type_symbol
 _atom_site_label
 _atom_site_symmetry_multiplicity
 _atom_site_fract_x
 _atom_site_fract_y
 _atom_site_fract_z
 _atom_site_occupancy
  Cu  Cu0  1  0.91971706  0.16511986  0.74144686  1
  Cu  Cu1  1  0.08483692  0.83488014  0.24144686  1
  Cu  Cu2  1  0.74012040  0.49368673  0.24346012  1
  Cu  Cu3  1  0.23380713  0.50631327  0.74346012  1
  Cu  Cu4  1  0.31350883  0.84124113  0.49151686  1
  Cu  Cu5  1  0.15474996  0.15875887  0.99151686  1
  Cu  Cu6  1  0.65695381  0.17874346  0.49204503  1
  Cu  Cu7  1  0.83569727  0.82125654  0.99204503  1
  Sn  Sn8  1  0.00349990  0.49258824  0.50083233  1
  Sn  Sn9  1  0.49608814  0.50741176  0.00083233  1
  Sn  Sn10  1  0.57665765  0.84967077  0.74958269  1
  Sn  Sn11  1  0.42632842  0.15032923  0.24958269  1
  Se  Se12  1  0.96719780  0.15006930  0.55995656  1
  Se  Se13  1  0.11726711  0.84993070  0.05995656  1
  Se  Se14  1  0.61547293  0.86106898  0.54815863  1
  Se  Se15  1  0.47654191  0.13893102  0.04815863  1
  Se  Se16  1  0.03978247  0.52017601  0.29903413  1
  Se  Se17  1  0.55995847  0.47982399  0.79903413  1
  Se  Se18  1  0.32742745  0.50598480  0.56094676  1
  Se  Se19  1  0.83341226  0.49401520  0.06094676  1
  Se  Se20  1  0.20017866  0.19144812  0.80987988  1
  Se  Se21  1  0.39162678  0.80855188  0.30987988  1
  Se  Se22  1  0.91213865  0.83849136  0.81044014  1
  Se  Se23  1  0.75063001  0.16150864  0.31044014  1
