# generated using pymatgen
data_V2FeAg3O8
_symmetry_space_group_name_H-M   'P 1'
_cell_length_a   5.21290703
_cell_length_b   5.61308144
_cell_length_c   14.51882836
_cell_angle_alpha   93.70649533
_cell_angle_beta   90.00000000
_cell_angle_gamma   117.66838401
_symmetry_Int_Tables_number   1
_chemical_formula_structural   V2FeAg3O8
_chemical_formula_sum   'V4 Fe2 Ag6 O16'
_cell_volume   375.24507242
_cell_formula_units_Z   2
loop_
 _symmetry_equiv_pos_site_id
 _symmetry_equiv_pos_as_xyz
  1  'x, y, z'
loop_
 _atom_site_type_symbol
 _atom_site_label
 _atom_site_symmetry_multiplicity
 _atom_site_fract_x
 _atom_site_fract_y
 _atom_site_fract_z
 _atom_site_occupancy
  V  V0  1  0.36818744  0.66429441  0.60612829  1
  V  V1  1  0.70389303  0.33570559  0.89387171  1
  V  V2  1  0.63181256  0.33570559  0.39387171  1
  V  V3  1  0.29610697  0.66429441  0.10612829  1
  Fe  Fe4  1  0.00000000  -0.00000000  0.00000000  1
  Fe  Fe5  1  0.00000000  -0.00000000  0.50000000  1
  Ag  Ag6  1  0.04397603  -0.00000000  0.75000000  1
  Ag  Ag7  1  0.95602397  -0.00000000  0.25000000  1
  Ag  Ag8  1  0.71736130  0.32085765  0.64055187  1
  Ag  Ag9  1  0.39650366  0.67914235  0.85944813  1
  Ag  Ag10  1  0.28263870  0.67914235  0.35944813  1
  Ag  Ag11  1  0.60349634  0.32085765  0.14055187  1
  O  O12  1  0.21409538  0.66802115  0.71119753  1
  O  O13  1  0.54607423  0.33197885  0.78880247  1
  O  O14  1  0.78590462  0.33197885  0.28880247  1
  O  O15  1  0.45392577  0.66802115  0.21119753  1
  O  O16  1  0.21164863  0.78579502  0.52859519  1
  O  O17  1  0.42585361  0.21420498  0.97140481  1
  O  O18  1  0.78835137  0.21420498  0.47140481  1
  O  O19  1  0.57414639  0.78579502  0.02859519  1
  O  O20  1  0.75105791  0.88129772  0.61473022  1
  O  O21  1  0.86976020  0.11870228  0.88526978  1
  O  O22  1  0.24894209  0.11870228  0.38526978  1
  O  O23  1  0.13023980  0.88129772  0.11473022  1
  O  O24  1  0.29214399  0.32727209  0.57473664  1
  O  O25  1  0.96487190  0.67272791  0.92526336  1
  O  O26  1  0.70785601  0.67272791  0.42526336  1
  O  O27  1  0.03512810  0.32727209  0.07473664  1
