# generated using pymatgen
data_Yb(HoSe2)2
_symmetry_space_group_name_H-M   'P 1'
_cell_length_a   4.04247581
_cell_length_b   13.48153191
_cell_length_c   13.77705585
_cell_angle_alpha   90.00000000
_cell_angle_beta   90.00000000
_cell_angle_gamma   90.00000000
_symmetry_Int_Tables_number   1
_chemical_formula_structural   Yb(HoSe2)2
_chemical_formula_sum   'Yb4 Ho8 Se16'
_cell_volume   750.83255159
_cell_formula_units_Z   4
loop_
 _symmetry_equiv_pos_site_id
 _symmetry_equiv_pos_as_xyz
  1  'x, y, z'
loop_
 _atom_site_type_symbol
 _atom_site_label
 _atom_site_symmetry_multiplicity
 _atom_site_fract_x
 _atom_site_fract_y
 _atom_site_fract_z
 _atom_site_occupancy
  Yb  Yb0  1  0.75000000  0.12907214  0.91839206  1
  Yb  Yb1  1  0.75000000  0.62907214  0.58160794  1
  Yb  Yb2  1  0.25000000  0.87092786  0.08160794  1
  Yb  Yb3  1  0.25000000  0.37092786  0.41839206  1
  Ho  Ho4  1  0.75000000  0.39185240  0.08247075  1
  Ho  Ho5  1  0.75000000  0.89185240  0.41752925  1
  Ho  Ho6  1  0.25000000  0.60814760  0.91752925  1
  Ho  Ho7  1  0.25000000  0.10814760  0.58247075  1
  Ho  Ho8  1  0.75000000  0.35182268  0.70325797  1
  Ho  Ho9  1  0.75000000  0.85182268  0.79674203  1
  Ho  Ho10  1  0.25000000  0.64817732  0.29674203  1
  Ho  Ho11  1  0.25000000  0.14817732  0.20325797  1
  Se  Se12  1  0.75000000  0.28563420  0.26418805  1
  Se  Se13  1  0.75000000  0.78563420  0.23581195  1
  Se  Se14  1  0.25000000  0.71436580  0.73581195  1
  Se  Se15  1  0.25000000  0.21436580  0.76418805  1
  Se  Se16  1  0.75000000  0.24478593  0.52446345  1
  Se  Se17  1  0.75000000  0.74478593  0.97553655  1
  Se  Se18  1  0.25000000  0.75521407  0.47553655  1
  Se  Se19  1  0.25000000  0.25521407  0.02446345  1
  Se  Se20  1  0.75000000  0.02970759  0.11614491  1
  Se  Se21  1  0.75000000  0.52970759  0.38385509  1
  Se  Se22  1  0.25000000  0.97029241  0.88385509  1
  Se  Se23  1  0.25000000  0.47029241  0.61614491  1
  Se  Se24  1  0.75000000  0.46487821  0.88182198  1
  Se  Se25  1  0.75000000  0.96487821  0.61817802  1
  Se  Se26  1  0.25000000  0.53512179  0.11817802  1
  Se  Se27  1  0.25000000  0.03512179  0.38182198  1
