# generated using pymatgen
data_NaFe2P2HO8
_symmetry_space_group_name_H-M   'P 1'
_cell_length_a   5.25544327
_cell_length_b   8.91454602
_cell_length_c   9.02907099
_cell_angle_alpha   94.87634854
_cell_angle_beta   100.37332922
_cell_angle_gamma   104.84616590
_symmetry_Int_Tables_number   1
_chemical_formula_structural   NaFe2P2HO8
_chemical_formula_sum   'Na2 Fe4 P4 H2 O16'
_cell_volume   398.36255140
_cell_formula_units_Z   2
loop_
 _symmetry_equiv_pos_site_id
 _symmetry_equiv_pos_as_xyz
  1  'x, y, z'
loop_
 _atom_site_type_symbol
 _atom_site_label
 _atom_site_symmetry_multiplicity
 _atom_site_fract_x
 _atom_site_fract_y
 _atom_site_fract_z
 _atom_site_occupancy
  Na  Na0  1  0.61167740  0.82912915  0.32168792  1
  Na  Na1  1  0.38832260  0.17087085  0.67831208  1
  Fe  Fe2  1  0.78195306  0.89269280  0.74621059  1
  Fe  Fe3  1  0.21804694  0.10730720  0.25378941  1
  Fe  Fe4  1  0.31260151  0.61535098  0.88717596  1
  Fe  Fe5  1  0.68739849  0.38464902  0.11282404  1
  P  P6  1  0.16887460  0.77043297  0.57989504  1
  P  P7  1  0.83112540  0.22956703  0.42010496  1
  P  P8  1  0.90471218  0.75082544  0.06534252  1
  P  P9  1  0.09528782  0.24917456  0.93465748  1
  H  H10  1  0.04817944  0.65076448  0.34422880  1
  H  H11  1  0.95182056  0.34923552  0.65577120  1
  O  O12  1  0.90620754  0.82054939  0.55887054  1
  O  O13  1  0.09379246  0.17945061  0.44112946  1
  O  O14  1  0.71389927  0.74383100  0.90703383  1
  O  O15  1  0.28610073  0.25616900  0.09296617  1
  O  O16  1  0.41674204  0.91050784  0.64714988  1
  O  O17  1  0.58325796  0.08949216  0.35285012  1
  O  O18  1  0.05998178  0.09148168  0.83822811  1
  O  O19  1  0.94001822  0.90851832  0.16177189  1
  O  O20  1  0.15973524  0.63179505  0.66906964  1
  O  O21  1  0.84026476  0.36820495  0.33093036  1
  O  O22  1  0.17635528  0.72671771  0.04384398  1
  O  O23  1  0.82364472  0.27328229  0.95615602  1
  O  O24  1  0.24973736  0.37992401  0.85236587  1
  O  O25  1  0.75026264  0.62007599  0.14763413  1
  O  O26  1  0.21073273  0.72209795  0.41118444  1
  O  O27  1  0.78926727  0.27790205  0.58881556  1
