# generated using pymatgen
data_Th(BO2)4
_symmetry_space_group_name_H-M   'P 1'
_cell_length_a   4.23220513
_cell_length_b   7.35173143
_cell_length_c   8.40609643
_cell_angle_alpha   113.91530257
_cell_angle_beta   104.58016545
_cell_angle_gamma   90.00000000
_symmetry_Int_Tables_number   1
_chemical_formula_structural   Th(BO2)4
_chemical_formula_sum   'Th2 B8 O16'
_cell_volume   229.84842832
_cell_formula_units_Z   2
loop_
 _symmetry_equiv_pos_site_id
 _symmetry_equiv_pos_as_xyz
  1  'x, y, z'
loop_
 _atom_site_type_symbol
 _atom_site_label
 _atom_site_symmetry_multiplicity
 _atom_site_fract_x
 _atom_site_fract_y
 _atom_site_fract_z
 _atom_site_occupancy
  Th  Th0  1  0.81200598  0.75000000  0.00000000  1
  Th  Th1  1  0.18799402  0.25000000  1.00000000  1
  B  B2  1  0.00058923  0.79608375  0.60780336  1
  B  B3  1  0.39278586  0.70391625  0.39219664  1
  B  B4  1  0.99941077  0.20391625  0.39219664  1
  B  B5  1  0.60721414  0.29608375  0.60780336  1
  B  B6  1  0.17030116  0.50895205  0.71764280  1
  B  B7  1  0.45265837  0.99104795  0.28235720  1
  B  B8  1  0.82969884  0.49104795  0.28235720  1
  B  B9  1  0.54734163  0.00895205  0.71764280  1
  O  O10  1  0.07093409  0.66721868  0.43218124  1
  O  O11  1  0.63875285  0.83278132  0.56781876  1
  O  O12  1  0.92906591  0.33278132  0.56781876  1
  O  O13  1  0.36124715  0.16721868  0.43218124  1
  O  O14  1  0.19217009  0.99066517  0.68585002  1
  O  O15  1  0.50632008  0.50933483  0.31414998  1
  O  O16  1  0.80782991  0.00933483  0.31414998  1
  O  O17  1  0.49367992  0.49066517  0.68585002  1
  O  O18  1  0.06395225  0.70335333  0.73426912  1
  O  O19  1  0.32968313  0.79664667  0.26573088  1
  O  O20  1  0.93604775  0.29664667  0.26573088  1
  O  O21  1  0.67031687  0.20335333  0.73426912  1
  O  O22  1  0.18635368  0.51415831  0.89606862  1
  O  O23  1  0.29028506  0.98584169  0.10393138  1
  O  O24  1  0.81364632  0.48584169  0.10393138  1
  O  O25  1  0.70971494  0.01415831  0.89606862  1
