# generated using pymatgen
data_Sm2GaB13H10C4O29
_symmetry_space_group_name_H-M   'P 1'
_cell_length_a   8.64892871
_cell_length_b   10.64975090
_cell_length_c   17.62470134
_cell_angle_alpha   104.58679032
_cell_angle_beta   90.00000000
_cell_angle_gamma   113.95772533
_symmetry_Int_Tables_number   1
_chemical_formula_structural   Sm2GaB13H10C4O29
_chemical_formula_sum   'Sm4 Ga2 B26 H20 C8 O58'
_cell_volume   1426.08052178
_cell_formula_units_Z   2
loop_
 _symmetry_equiv_pos_site_id
 _symmetry_equiv_pos_as_xyz
  1  'x, y, z'
loop_
 _atom_site_type_symbol
 _atom_site_label
 _atom_site_symmetry_multiplicity
 _atom_site_fract_x
 _atom_site_fract_y
 _atom_site_fract_z
 _atom_site_occupancy
  Sm  Sm0  1  0.48586487  0.31238341  0.31219522  1
  Sm  Sm1  1  0.17348146  0.68761659  0.18780478  1
  Sm  Sm2  1  0.51413513  0.68761659  0.68780478  1
  Sm  Sm3  1  0.82651854  0.31238341  0.81219522  1
  Ga  Ga4  1  0.00000000  0.50000000  -0.00000000  1
  Ga  Ga5  1  0.50000000  0.50000000  0.50000000  1
  B  B6  1  0.61501089  0.87612841  0.25029176  1
  B  B7  1  0.73888248  0.12387159  0.24970824  1
  B  B8  1  0.38498911  0.12387159  0.74970824  1
  B  B9  1  0.26111752  0.87612841  0.75029176  1
  B  B10  1  0.42510692  -0.00000000  0.25000000  1
  B  B11  1  0.57489308  -0.00000000  0.75000000  1
  B  B12  1  0.22140396  0.01043010  0.15071007  1
  B  B13  1  0.21097386  0.98956990  0.34928993  1
  B  B14  1  0.77859604  0.98956990  0.84928993  1
  B  B15  1  0.78902614  0.01043010  0.65071007  1
  B  B16  1  0.03283916  0.79954397  0.04207025  1
  B  B17  1  0.23329519  0.20045603  0.45792975  1
  B  B18  1  0.96716084  0.20045603  0.95792975  1
  B  B19  1  0.76670481  0.79954397  0.54207025  1
  B  B20  1  0.90709796  0.65895357  0.90388968  1
  B  B21  1  0.24814440  0.34104643  0.59611032  1
  B  B22  1  0.09290204  0.34104643  0.09611032  1
  B  B23  1  0.75185560  0.65895357  0.40388968  1
  B  B24  1  0.78732790  0.55642515  0.76095214  1
  B  B25  1  0.23090275  0.44357485  0.73904786  1
  B  B26  1  0.21267210  0.44357485  0.23904786  1
  B  B27  1  0.76909725  0.55642515  0.26095214  1
  B  B28  1  0.09310524  0.61582729  0.73810326  1
  B  B29  1  0.47727794  0.38417271  0.76189674  1
  B  B30  1  0.90689476  0.38417271  0.26189674  1
  B  B31  1  0.52272206  0.61582729  0.23810326  1
  H  H32  1  0.86586376  0.21727329  0.47453777  1
  H  H33  1  0.64859047  0.78272671  0.02546223  1
  H  H34  1  0.13413624  0.78272671  0.52546223  1
  H  H35  1  0.35140953  0.21727329  0.97453777  1
  H  H36  1  0.97728754  0.40024822  0.52873046  1
  H  H37  1  0.57703932  0.59975178  0.97126954  1
  H  H38  1  0.02271246  0.59975178  0.47126954  1
  H  H39  1  0.42296068  0.40024822  0.02873046  1
  H  H40  1  0.81492346  0.28392296  0.57104312  1
  H  H41  1  0.53100050  0.71607704  0.92895688  1
  H  H42  1  0.18507654  0.71607704  0.42895688  1
  H  H43  1  0.46899950  0.28392296  0.07104312  1
  H  H44  1  0.22186247  0.20946052  0.16731012  1
  H  H45  1  0.01240195  0.79053948  0.33268988  1
  H  H46  1  0.77813753  0.79053948  0.83268988  1
  H  H47  1  0.98759805  0.20946052  0.66731012  1
  H  H48  1  0.73756394  0.54268710  0.64614200  1
  H  H49  1  0.19487685  0.45731290  0.85385800  1
  H  H50  1  0.26243606  0.45731290  0.35385800  1
  H  H51  1  0.80512315  0.54268710  0.14614200  1
  C  C52  1  0.72524996  0.34645465  0.47963133  1
  C  C53  1  0.37879532  0.65354535  0.02036867  1
  C  C54  1  0.27475004  0.65354535  0.52036867  1
  C  C55  1  0.62120468  0.34645465  0.97963133  1
  C  C56  1  0.85258244  0.30765042  0.51511950  1
  C  C57  1  0.54493202  0.69234958  0.98488050  1
  C  C58  1  0.14741756  0.69234958  0.48488050  1
  C  C59  1  0.45506798  0.30765042  0.01511950  1
  O  O60  1  0.75537169  -0.00000000  0.25000000  1
  O  O61  1  0.24462831  -0.00000000  0.75000000  1
  O  O62  1  0.45744142  0.87906683  0.25917562  1
  O  O63  1  0.57837459  0.12093317  0.24082438  1
  O  O64  1  0.54255858  0.12093317  0.74082438  1
  O  O65  1  0.42162541  0.87906683  0.75917562  1
  O  O66  1  0.29417104  0.93667461  0.18086766  1
  O  O67  1  0.35749643  0.06332539  0.31913234  1
  O  O68  1  0.70582896  0.06332539  0.81913234  1
  O  O69  1  0.64250357  0.93667461  0.68086766  1
  O  O70  1  0.28172987  0.15570540  0.18581294  1
  O  O71  1  0.12602447  0.84429460  0.31418706  1
  O  O72  1  0.71827013  0.84429460  0.81418706  1
  O  O73  1  0.87397553  0.15570540  0.68581294  1
  O  O74  1  0.09736619  0.94164602  0.08817740  1
  O  O75  1  0.15572017  0.05835398  0.41182260  1
  O  O76  1  0.90263381  0.05835398  0.91182260  1
  O  O77  1  0.84427983  0.94164602  0.58817740  1
  O  O78  1  0.04223004  0.69309959  0.06887850  1
  O  O79  1  0.34913045  0.30690041  0.43112150  1
  O  O80  1  0.95776996  0.30690041  0.93112150  1
  O  O81  1  0.65086955  0.69309959  0.56887850  1
  O  O82  1  0.95850012  0.77880201  0.96774918  1
  O  O83  1  0.17969811  0.22119799  0.53225082  1
  O  O84  1  0.04149988  0.22119799  0.03225082  1
  O  O85  1  0.82030189  0.77880201  0.46774918  1
  O  O86  1  0.93022057  0.53999022  0.90518219  1
  O  O87  1  0.39023035  0.46000978  0.59481781  1
  O  O88  1  0.06977943  0.46000978  0.09481781  1
  O  O89  1  0.60976965  0.53999022  0.40518219  1
  O  O90  1  0.83127784  0.66698729  0.83672794  1
  O  O91  1  0.16429055  0.33301271  0.66327206  1
  O  O92  1  0.16872216  0.33301271  0.16327206  1
  O  O93  1  0.83570945  0.66698729  0.33672794  1
  O  O94  1  0.73481968  0.60262565  0.69834733  1
  O  O95  1  0.13219403  0.39737435  0.80165267  1
  O  O96  1  0.26518032  0.39737435  0.30165267  1
  O  O97  1  0.86780597  0.60262565  0.19834733  1
  O  O98  1  0.93178693  0.51505823  0.74086955  1
  O  O99  1  0.41672870  0.48494177  0.75913045  1
  O  O100  1  0.06821307  0.48494177  0.25913045  1
  O  O101  1  0.58327130  0.51505823  0.24086955  1
  O  O102  1  0.23014869  0.58065299  0.73076673  1
  O  O103  1  0.64949570  0.41934701  0.76923327  1
  O  O104  1  0.76985131  0.41934701  0.26923327  1
  O  O105  1  0.35050430  0.58065299  0.23076673  1
  O  O106  1  0.11603275  0.75432639  0.74373164  1
  O  O107  1  0.36170637  0.24567361  0.75626836  1
  O  O108  1  0.88396725  0.24567361  0.25626836  1
  O  O109  1  0.63829363  0.75432639  0.24373164  1
  O  O110  1  0.68020052  0.29943896  0.40630790  1
  O  O111  1  0.38076156  0.70056104  0.09369210  1
  O  O112  1  0.31979948  0.70056104  0.59369210  1
  O  O113  1  0.61923844  0.29943896  0.90630790  1
  O  O114  1  0.67218807  0.42873586  0.52874524  1
  O  O115  1  0.24345221  0.57126414  0.97125476  1
  O  O116  1  0.32781193  0.57126414  0.47125476  1
  O  O117  1  0.75654779  0.42873586  0.02874524  1
