# generated using pymatgen
data_MnGe2Pd3
_symmetry_space_group_name_H-M   'P 1'
_cell_length_a   3.19643352
_cell_length_b   6.95657633
_cell_length_c   16.60126029
_cell_angle_alpha   90.00000000
_cell_angle_beta   90.00000000
_cell_angle_gamma   90.00000000
_symmetry_Int_Tables_number   1
_chemical_formula_structural   MnGe2Pd3
_chemical_formula_sum   'Mn4 Ge8 Pd12'
_cell_volume   369.14950461
_cell_formula_units_Z   4
loop_
 _symmetry_equiv_pos_site_id
 _symmetry_equiv_pos_as_xyz
  1  'x, y, z'
loop_
 _atom_site_type_symbol
 _atom_site_label
 _atom_site_symmetry_multiplicity
 _atom_site_fract_x
 _atom_site_fract_y
 _atom_site_fract_z
 _atom_site_occupancy
  Mn  Mn0  1  0.25000000  0.48546888  0.78895662  1
  Mn  Mn1  1  0.25000000  0.98546888  0.71104338  1
  Mn  Mn2  1  0.75000000  0.51453112  0.21104338  1
  Mn  Mn3  1  0.75000000  0.01453112  0.28895662  1
  Ge  Ge4  1  0.25000000  0.25501019  0.95052309  1
  Ge  Ge5  1  0.25000000  0.75501019  0.54947691  1
  Ge  Ge6  1  0.75000000  0.74498981  0.04947691  1
  Ge  Ge7  1  0.75000000  0.24498981  0.45052309  1
  Ge  Ge8  1  0.75000000  0.29838174  0.68495129  1
  Ge  Ge9  1  0.75000000  0.79838174  0.81504871  1
  Ge  Ge10  1  0.25000000  0.70161826  0.31504871  1
  Ge  Ge11  1  0.25000000  0.20161826  0.18495129  1
  Pd  Pd12  1  0.75000000  0.03442220  0.57558100  1
  Pd  Pd13  1  0.75000000  0.53442220  0.92441900  1
  Pd  Pd14  1  0.25000000  0.96557780  0.42441900  1
  Pd  Pd15  1  0.25000000  0.46557780  0.07558100  1
  Pd  Pd16  1  0.75000000  0.16993694  0.83071298  1
  Pd  Pd17  1  0.75000000  0.66993694  0.66928702  1
  Pd  Pd18  1  0.25000000  0.83006306  0.16928702  1
  Pd  Pd19  1  0.25000000  0.33006306  0.33071298  1
  Pd  Pd20  1  0.25000000  0.39754808  0.56534297  1
  Pd  Pd21  1  0.25000000  0.89754808  0.93465703  1
  Pd  Pd22  1  0.75000000  0.60245192  0.43465703  1
  Pd  Pd23  1  0.75000000  0.10245192  0.06534297  1
