# generated using pymatgen
data_Gd3Si2S8Br
_symmetry_space_group_name_H-M   'P 1'
_cell_length_a   7.59151916
_cell_length_b   8.74280359
_cell_length_c   10.86200822
_cell_angle_alpha   98.46075985
_cell_angle_beta   90.00000000
_cell_angle_gamma   115.73174237
_symmetry_Int_Tables_number   1
_chemical_formula_structural   Gd3Si2S8Br
_chemical_formula_sum   'Gd6 Si4 S16 Br2'
_cell_volume   640.71408805
_cell_formula_units_Z   2
loop_
 _symmetry_equiv_pos_site_id
 _symmetry_equiv_pos_as_xyz
  1  'x, y, z'
loop_
 _atom_site_type_symbol
 _atom_site_label
 _atom_site_symmetry_multiplicity
 _atom_site_fract_x
 _atom_site_fract_y
 _atom_site_fract_z
 _atom_site_occupancy
  Gd  Gd0  1  0.92491588  0.60186368  0.81943561  1
  Gd  Gd1  1  0.32305220  0.39813632  0.68056439  1
  Gd  Gd2  1  0.07508412  0.39813632  0.18056439  1
  Gd  Gd3  1  0.67694780  0.60186368  0.31943561  1
  Gd  Gd4  1  0.62901328  0.00000000  0.75000000  1
  Gd  Gd5  1  0.37098672  1.00000000  0.25000000  1
  Si  Si6  1  0.30596569  0.68538078  0.47602065  1
  Si  Si7  1  0.62058492  0.31461922  0.02397935  1
  Si  Si8  1  0.69403431  0.31461922  0.52397935  1
  Si  Si9  1  0.37941508  0.68538078  0.97602065  1
  S  S10  1  0.10211513  0.71571504  0.35928250  1
  S  S11  1  0.38640009  0.28428496  0.14071750  1
  S  S12  1  0.89788487  0.28428496  0.64071750  1
  S  S13  1  0.61359991  0.71571504  0.85928250  1
  S  S14  1  0.28334477  0.43401564  0.41288432  1
  S  S15  1  0.84932913  0.56598436  0.08711568  1
  S  S16  1  0.71665523  0.56598436  0.58711568  1
  S  S17  1  0.15067087  0.43401564  0.91288432  1
  S  S18  1  0.60021841  0.86644828  0.46485963  1
  S  S19  1  0.73377012  0.13355172  0.03514037  1
  S  S20  1  0.39978159  0.13355172  0.53514037  1
  S  S21  1  0.26622988  0.86644828  0.96485963  1
  S  S22  1  0.25994498  0.70997055  0.66973462  1
  S  S23  1  0.54997443  0.29002945  0.83026538  1
  S  S24  1  0.74005502  0.29002945  0.33026538  1
  S  S25  1  0.45002557  0.70997055  0.16973462  1
  Br  Br26  1  0.98606643  0.00000000  0.25000000  1
  Br  Br27  1  0.01393357  1.00000000  0.75000000  1
