# generated using pymatgen
data_FeH6C2(NO2)2
_symmetry_space_group_name_H-M   'P 1'
_cell_length_a   6.75586084
_cell_length_b   7.93524589
_cell_length_c   8.19459996
_cell_angle_alpha   70.97404806
_cell_angle_beta   65.65599687
_cell_angle_gamma   64.80584874
_symmetry_Int_Tables_number   1
_chemical_formula_structural   FeH6C2(NO2)2
_chemical_formula_sum   'Fe2 H12 C4 N4 O8'
_cell_volume   356.08441587
_cell_formula_units_Z   2
loop_
 _symmetry_equiv_pos_site_id
 _symmetry_equiv_pos_as_xyz
  1  'x, y, z'
loop_
 _atom_site_type_symbol
 _atom_site_label
 _atom_site_symmetry_multiplicity
 _atom_site_fract_x
 _atom_site_fract_y
 _atom_site_fract_z
 _atom_site_occupancy
  Fe  Fe0  1  0.26316342  0.25000000  0.75000000  1
  Fe  Fe1  1  0.73683658  0.75000000  0.25000000  1
  H  H2  1  0.05317233  0.00049056  0.77323074  1
  H  H3  1  0.82689362  0.49950944  0.72676926  1
  H  H4  1  0.94682767  0.99950944  0.22676926  1
  H  H5  1  0.17310638  0.50049056  0.27323074  1
  H  H6  1  0.13964303  0.09879310  0.55903095  1
  H  H7  1  0.79746707  0.40120690  0.94096905  1
  H  H8  1  0.86035697  0.90120690  0.44096905  1
  H  H9  1  0.20253293  0.59879310  0.05903095  1
  H  H10  1  0.32474202  0.92724328  0.65078004  1
  H  H11  1  0.90276534  0.57275672  0.84921996  1
  H  H12  1  0.67525798  0.07275672  0.34921996  1
  H  H13  1  0.09723466  0.42724328  0.15078004  1
  C  C14  1  0.61332200  0.96877609  0.92068538  1
  C  C15  1  0.50278347  0.53122391  0.57931462  1
  C  C16  1  0.38667800  0.03122391  0.07931462  1
  C  C17  1  0.49721653  0.46877609  0.42068538  1
  N  N18  1  0.18353089  0.04702147  0.67606806  1
  N  N19  1  0.90662042  0.45297853  0.82393194  1
  N  N20  1  0.81646911  0.95297853  0.32393194  1
  N  N21  1  0.09337958  0.54702147  0.17606806  1
  O  O22  1  0.60491543  0.03545056  0.76053170  1
  O  O23  1  0.40089770  0.46454944  0.73946830  1
  O  O24  1  0.39508457  0.96454944  0.23946830  1
  O  O25  1  0.59910230  0.53545056  0.26053170  1
  O  O26  1  0.79192412  0.85415228  0.96563662  1
  O  O27  1  0.61171303  0.64584772  0.53436338  1
  O  O28  1  0.20807588  0.14584772  0.03436338  1
  O  O29  1  0.38828697  0.35415228  0.46563662  1
