# generated using pymatgen
data_BaYCo4O7
_symmetry_space_group_name_H-M   'P 1'
_cell_length_a   6.42075808
_cell_length_b   6.42075808
_cell_length_c   10.32560929
_cell_angle_alpha   90.00000000
_cell_angle_beta   90.00000000
_cell_angle_gamma   119.60959898
_symmetry_Int_Tables_number   1
_chemical_formula_structural   BaYCo4O7
_chemical_formula_sum   'Ba2 Y2 Co8 O14'
_cell_volume   370.09567946
_cell_formula_units_Z   2
loop_
 _symmetry_equiv_pos_site_id
 _symmetry_equiv_pos_as_xyz
  1  'x, y, z'
loop_
 _atom_site_type_symbol
 _atom_site_label
 _atom_site_symmetry_multiplicity
 _atom_site_fract_x
 _atom_site_fract_y
 _atom_site_fract_z
 _atom_site_occupancy
  Ba  Ba0  1  0.33617287  0.66382713  0.00109324  1
  Ba  Ba1  1  0.66382713  0.33617287  0.50109324  1
  Y  Y2  1  0.33256515  0.66743485  0.37021453  1
  Y  Y3  1  0.66743485  0.33256515  0.87021453  1
  Co  Co4  1  0.82995995  0.17004005  0.18839309  1
  Co  Co5  1  0.33542401  0.16805525  0.18955974  1
  Co  Co6  1  0.83194475  0.66457599  0.18955974  1
  Co  Co7  1  0.17004005  0.82995995  0.68839309  1
  Co  Co8  1  0.66457599  0.83194475  0.68955974  1
  Co  Co9  1  0.16805525  0.33542401  0.68955974  1
  Co  Co10  1  0.00223992  0.99776008  0.94611931  1
  Co  Co11  1  0.99776008  0.00223992  0.44611931  1
  O  O12  1  0.50026576  0.49973424  0.24725680  1
  O  O13  1  0.00134911  0.50148993  0.24791551  1
  O  O14  1  0.49851007  0.99865089  0.24791551  1
  O  O15  1  0.49973424  0.50026576  0.74725680  1
  O  O16  1  0.99865089  0.49851007  0.74791551  1
  O  O17  1  0.50148993  0.00134911  0.74791551  1
  O  O18  1  0.00160145  0.99839855  0.75725854  1
  O  O19  1  0.99839855  0.00160145  0.25725854  1
  O  O20  1  0.83783149  0.16216851  0.99780928  1
  O  O21  1  0.32233684  0.17047848  0.99644235  1
  O  O22  1  0.82952152  0.67766316  0.99644235  1
  O  O23  1  0.16216851  0.83783149  0.49780928  1
  O  O24  1  0.67766316  0.82952152  0.49644235  1
  O  O25  1  0.17047848  0.32233684  0.49644235  1
