# generated using pymatgen
data_Li4MnFe5O12
_symmetry_space_group_name_H-M   'P 1'
_cell_length_a   5.13143200
_cell_length_b   5.12385903
_cell_length_c   10.22289934
_cell_angle_alpha   89.51649255
_cell_angle_beta   89.31661403
_cell_angle_gamma   59.82116218
_symmetry_Int_Tables_number   1
_chemical_formula_structural   Li4MnFe5O12
_chemical_formula_sum   'Li4 Mn1 Fe5 O12'
_cell_volume   232.33914087
_cell_formula_units_Z   1
loop_
 _symmetry_equiv_pos_site_id
 _symmetry_equiv_pos_as_xyz
  1  'x, y, z'
loop_
 _atom_site_type_symbol
 _atom_site_label
 _atom_site_symmetry_multiplicity
 _atom_site_fract_x
 _atom_site_fract_y
 _atom_site_fract_z
 _atom_site_occupancy
  Li  Li0  1  0.15329362  0.48321829  0.74953745  1
  Li  Li1  1  0.35969327  0.49791175  0.24909552  1
  Li  Li2  1  0.65020916  0.49732093  0.74728497  1
  Li  Li3  1  0.86622010  0.47662045  0.24936683  1
  Mn  Mn4  1  0.00196437  -0.00252957  0.99868687  1
  Fe  Fe5  1  0.16230653  0.67504327  0.49985730  1
  Fe  Fe6  1  0.66343070  0.67382587  0.99910608  1
  Fe  Fe7  1  0.33857014  0.32429450  0.00014515  1
  Fe  Fe8  1  0.83745090  0.32928257  0.50010249  1
  Fe  Fe9  1  0.50310646  0.00185465  0.49867544  1
  O  O10  1  0.01097275  0.66783987  0.10622673  1
  O  O11  1  0.32105427  0.66815136  0.89238335  1
  O  O12  1  0.15614354  0.34476028  0.39366938  1
  O  O13  1  0.52930908  0.64030689  0.39381079  1
  O  O14  1  0.50393495  0.34441491  0.60501471  1
  O  O15  1  0.15315095  0.02037818  0.59676218  1
  O  O16  1  0.83517718  0.64524147  0.60625841  1
  O  O17  1  0.68004259  0.32874211  0.10527374  1
  O  O18  1  0.31622979  -0.00209471  0.09792977  1
  O  O19  1  0.99129485  0.32978845  0.89318546  1
  O  O20  1  0.68435444  -0.00063311  0.90038428  1
  O  O21  1  0.83234736  0.01618658  0.40103108  1
