# generated using pymatgen
data_Sc3H20N5F14
_symmetry_space_group_name_H-M   'P 1'
_cell_length_a   8.20408446
_cell_length_b   8.20408446
_cell_length_c   13.97349841
_cell_angle_alpha   107.07113349
_cell_angle_beta   107.07113349
_cell_angle_gamma   90.00000000
_symmetry_Int_Tables_number   1
_chemical_formula_structural   Sc3H20N5F14
_chemical_formula_sum   'Sc6 H40 N10 F28'
_cell_volume   855.63362627
_cell_formula_units_Z   2
loop_
 _symmetry_equiv_pos_site_id
 _symmetry_equiv_pos_as_xyz
  1  'x, y, z'
loop_
 _atom_site_type_symbol
 _atom_site_label
 _atom_site_symmetry_multiplicity
 _atom_site_fract_x
 _atom_site_fract_y
 _atom_site_fract_z
 _atom_site_occupancy
  Sc  Sc0  1  0.50156759  0.00156759  0.00313518  1
  Sc  Sc1  1  0.74843241  0.74843241  0.49686482  1
  Sc  Sc2  1  0.99843241  0.49843241  0.99686482  1
  Sc  Sc3  1  0.25156759  0.25156759  0.50313518  1
  Sc  Sc4  1  0.25000000  0.75000000  0.50000000  1
  Sc  Sc5  1  -0.00000000  -0.00000000  0.00000000  1
  H  H6  1  0.66903690  0.26300760  0.54591281  1
  H  H7  1  0.87687591  0.28290521  0.54591281  1
  H  H8  1  0.37312409  0.46709479  0.95408719  1
  H  H9  1  0.58096310  0.48699240  0.95408719  1
  H  H10  1  0.71709479  0.33096310  0.45408719  1
  H  H11  1  0.73699240  0.12312409  0.45408719  1
  H  H12  1  0.51300760  0.62687591  0.04591281  1
  H  H13  1  0.53290521  0.41903690  0.04591281  1
  H  H14  1  0.29556723  0.34967318  0.28750272  1
  H  H15  1  0.99193549  0.93782954  0.28750272  1
  H  H16  1  0.25806451  0.81217046  0.21249728  1
  H  H17  1  0.95443277  0.40032682  0.21249728  1
  H  H18  1  0.06217046  0.70443277  0.71249728  1
  H  H19  1  0.65032682  0.00806451  0.71249728  1
  H  H20  1  0.59967318  0.74193549  0.78750272  1
  H  H21  1  0.18782954  0.04556723  0.78750272  1
  H  H22  1  0.47755936  0.44946045  0.29223404  1
  H  H23  1  0.81467468  0.84277360  0.29223404  1
  H  H24  1  0.43532532  0.90722640  0.20776596  1
  H  H25  1  0.77244064  0.30053955  0.20776596  1
  H  H26  1  0.15722640  0.52244064  0.70776596  1
  H  H27  1  0.55053955  0.18532532  0.70776596  1
  H  H28  1  0.69946045  0.56467468  0.79223404  1
  H  H29  1  0.09277360  0.22755936  0.79223404  1
  H  H30  1  0.38963333  0.27361247  0.19313450  1
  H  H31  1  0.80350117  0.91952203  0.19313450  1
  H  H32  1  0.44649883  0.83047797  0.30686550  1
  H  H33  1  0.86036667  0.47638753  0.30686550  1
  H  H34  1  0.08047797  0.61036667  0.80686550  1
  H  H35  1  0.72638753  0.19649883  0.80686550  1
  H  H36  1  0.52361247  0.55350117  0.69313450  1
  H  H37  1  0.16952203  0.13963333  0.69313450  1
  H  H38  1  0.29226766  0.45409603  0.19541191  1
  H  H39  1  0.90314426  0.74131588  0.19541191  1
  H  H40  1  0.34685574  0.00868412  0.30458809  1
  H  H41  1  0.95773234  0.29590397  0.30458809  1
  H  H42  1  0.25868412  0.70773234  0.80458809  1
  H  H43  1  0.54590397  0.09685574  0.80458809  1
  H  H44  1  0.70409603  0.65314426  0.69541191  1
  H  H45  1  0.99131588  0.04226766  0.69541191  1
  N  N46  1  0.75000000  0.25000000  0.50000000  1
  N  N47  1  0.50000000  0.50000000  0.00000000  1
  N  N48  1  0.63236318  0.63172682  0.74284463  1
  N  N49  1  0.11048146  0.11111781  0.74284463  1
  N  N50  1  0.13951854  0.63888219  0.75715537  1
  N  N51  1  0.61763682  0.11827318  0.75715537  1
  N  N52  1  0.88888219  0.36763682  0.25715537  1
  N  N53  1  0.36827318  0.88951854  0.25715537  1
  N  N54  1  0.88172682  0.86048146  0.24284463  1
  N  N55  1  0.36111781  0.38236318  0.24284463  1
  F  F56  1  0.11949943  0.44343822  0.88316884  1
  F  F57  1  0.76366941  0.43973061  0.88316884  1
  F  F58  1  0.48633059  0.31026939  0.61683116  1
  F  F59  1  0.13050057  0.30656178  0.61683116  1
  F  F60  1  0.56026939  0.88050057  0.11683116  1
  F  F61  1  0.55656178  0.23633059  0.11683116  1
  F  F62  1  0.69343822  0.51366941  0.38316884  1
  F  F63  1  0.68973061  0.86949943  0.38316884  1
  F  F64  1  0.22854092  0.55363611  0.10859208  1
  F  F65  1  0.88005115  0.55495596  0.10859208  1
  F  F66  1  0.36994885  0.19504404  0.39140792  1
  F  F67  1  0.02145908  0.19636389  0.39140792  1
  F  F68  1  0.44504404  0.77145908  0.89140792  1
  F  F69  1  0.44636389  0.11994885  0.89140792  1
  F  F70  1  0.80363611  0.63005115  0.60859208  1
  F  F71  1  0.80495596  0.97854092  0.60859208  1
  F  F72  1  0.49938038  0.74914254  0.49632430  1
  F  F73  1  0.99694392  0.74718176  0.49632430  1
  F  F74  1  0.25305608  0.00281824  0.00367570  1
  F  F75  1  0.75061962  0.00085746  0.00367570  1
  F  F76  1  0.25281824  0.50061962  0.50367570  1
  F  F77  1  0.25085746  0.00305608  0.50367570  1
  F  F78  1  0.99914254  0.74694392  0.99632430  1
  F  F79  1  0.99718176  0.24938038  0.99632430  1
  F  F80  1  0.32813701  0.82813701  0.65627401  1
  F  F81  1  0.92186299  0.92186299  0.84372599  1
  F  F82  1  0.17186299  0.67186299  0.34372599  1
  F  F83  1  0.07813701  0.07813701  0.15627401  1
