# generated using pymatgen
data_P3Pb5IO12
_symmetry_space_group_name_H-M   'P 1'
_cell_length_a   7.47762813
_cell_length_b   10.38861407
_cell_length_c   10.38860990
_cell_angle_alpha   119.99924217
_cell_angle_beta   90.00000000
_cell_angle_gamma   90.00000000
_symmetry_Int_Tables_number   1
_chemical_formula_structural   P3Pb5IO12
_chemical_formula_sum   'P6 Pb10 I2 O24'
_cell_volume   698.89649530
_cell_formula_units_Z   2
loop_
 _symmetry_equiv_pos_site_id
 _symmetry_equiv_pos_as_xyz
  1  'x, y, z'
loop_
 _atom_site_type_symbol
 _atom_site_label
 _atom_site_symmetry_multiplicity
 _atom_site_fract_x
 _atom_site_fract_y
 _atom_site_fract_z
 _atom_site_occupancy
  P  P0  1  0.75000000  0.03970997  0.62532572  1
  P  P1  1  0.75000000  0.37466425  0.41438772  1
  P  P2  1  0.75000000  0.58561117  0.96028167  1
  P  P3  1  0.25000000  0.96029003  0.37467428  1
  P  P4  1  0.25000000  0.62533575  0.58561228  1
  P  P5  1  0.25000000  0.41438883  0.03971833  1
  Pb  Pb6  1  0.50461310  0.66666429  0.33333315  1
  Pb  Pb7  1  0.00461310  0.33333571  0.66666685  1
  Pb  Pb8  1  0.49538690  0.33333571  0.66666685  1
  Pb  Pb9  1  0.99538690  0.66666429  0.33333315  1
  Pb  Pb10  1  0.75000000  0.25704936  0.98213460  1
  Pb  Pb11  1  0.75000000  0.01785221  0.27490978  1
  Pb  Pb12  1  0.75000000  0.72509224  0.74294497  1
  Pb  Pb13  1  0.25000000  0.74295064  0.01786540  1
  Pb  Pb14  1  0.25000000  0.98214779  0.72509022  1
  Pb  Pb15  1  0.25000000  0.27490776  0.25705503  1
  I  I16  1  0.50000000  0.00000000  -0.00000000  1
  I  I17  1  -0.00000000  0.00000000  -0.00000000  1
  O  O18  1  0.75000000  0.87063199  0.51338137  1
  O  O19  1  0.75000000  0.48661964  0.35725021  1
  O  O20  1  0.75000000  0.64274651  0.12935985  1
  O  O21  1  0.25000000  0.12936801  0.48661863  1
  O  O22  1  0.25000000  0.51338036  0.64274979  1
  O  O23  1  0.25000000  0.35725349  0.87064015  1
  O  O24  1  0.75000000  0.13064280  0.53893925  1
  O  O25  1  0.75000000  0.46106276  0.59170385  1
  O  O26  1  0.75000000  0.40829637  0.86935372  1
  O  O27  1  0.25000000  0.86935720  0.46106075  1
  O  O28  1  0.25000000  0.53893724  0.40829615  1
  O  O29  1  0.25000000  0.59170363  0.13064628  1
  O  O30  1  0.58133914  0.09351583  0.72746133  1
  O  O31  1  0.58134087  0.27253390  0.36605976  1
  O  O32  1  0.58133786  0.63393830  0.90647089  1
  O  O33  1  0.08133914  0.90648417  0.27253867  1
  O  O34  1  0.08134087  0.72746610  0.63394024  1
  O  O35  1  0.08133786  0.36606170  0.09352911  1
  O  O36  1  0.41866086  0.90648417  0.27253867  1
  O  O37  1  0.41865913  0.72746610  0.63394024  1
  O  O38  1  0.41866214  0.36606170  0.09352911  1
  O  O39  1  0.91866086  0.09351583  0.72746133  1
  O  O40  1  0.91865913  0.27253390  0.36605976  1
  O  O41  1  0.91866214  0.63393830  0.90647089  1
