# generated using pymatgen
data_Y2Fe17
_symmetry_space_group_name_H-M   'P 1'
_cell_length_a   8.21171368
_cell_length_b   8.51713055
_cell_length_c   8.51713055
_cell_angle_alpha   119.95062573
_cell_angle_beta   90.00000000
_cell_angle_gamma   90.00000000
_symmetry_Int_Tables_number   1
_chemical_formula_structural   Y2Fe17
_chemical_formula_sum   'Y4 Fe34'
_cell_volume   516.13926203
_cell_formula_units_Z   2
loop_
 _symmetry_equiv_pos_site_id
 _symmetry_equiv_pos_as_xyz
  1  'x, y, z'
loop_
 _atom_site_type_symbol
 _atom_site_label
 _atom_site_symmetry_multiplicity
 _atom_site_fract_x
 _atom_site_fract_y
 _atom_site_fract_z
 _atom_site_occupancy
  Y  Y0  1  0.75000000  0.00001694  0.99998306  1
  Y  Y1  1  0.25000000  0.99998306  0.00001694  1
  Y  Y2  1  0.25000000  0.66676085  0.33323915  1
  Y  Y3  1  0.75000000  0.33323915  0.66676085  1
  Fe  Fe4  1  0.60645498  0.66671945  0.33328055  1
  Fe  Fe5  1  0.39354502  0.33328055  0.66671945  1
  Fe  Fe6  1  0.10645498  0.33328055  0.66671945  1
  Fe  Fe7  1  0.89354502  0.66671945  0.33328055  1
  Fe  Fe8  1  0.50000000  0.50000000  0.00000000  1
  Fe  Fe9  1  0.50000000  0.50000000  0.50000000  1
  Fe  Fe10  1  0.50000000  0.00000000  0.50000000  1
  Fe  Fe11  1  -0.00000000  0.50000000  0.00000000  1
  Fe  Fe12  1  -0.00000000  0.50000000  0.50000000  1
  Fe  Fe13  1  -0.00000000  0.00000000  0.50000000  1
  Fe  Fe14  1  0.75000000  0.67119080  0.04023066  1
  Fe  Fe15  1  0.75000000  0.36900216  0.32884071  1
  Fe  Fe16  1  0.75000000  0.95981441  0.63093453  1
  Fe  Fe17  1  0.75000000  0.36906547  0.04018559  1
  Fe  Fe18  1  0.75000000  0.95976934  0.32880920  1
  Fe  Fe19  1  0.75000000  0.67115929  0.63099784  1
  Fe  Fe20  1  0.25000000  0.32880920  0.95976934  1
  Fe  Fe21  1  0.25000000  0.63099784  0.67115929  1
  Fe  Fe22  1  0.25000000  0.04018559  0.36906547  1
  Fe  Fe23  1  0.25000000  0.63093453  0.95981441  1
  Fe  Fe24  1  0.25000000  0.04023066  0.67119080  1
  Fe  Fe25  1  0.25000000  0.32884071  0.36900216  1
  Fe  Fe26  1  0.48358151  0.83378022  0.66763023  1
  Fe  Fe27  1  0.48361848  0.83379837  0.16620163  1
  Fe  Fe28  1  0.48358151  0.33236977  0.16621978  1
  Fe  Fe29  1  0.51641849  0.16621978  0.33236977  1
  Fe  Fe30  1  0.51638152  0.16620163  0.83379837  1
  Fe  Fe31  1  0.51641849  0.66763023  0.83378022  1
  Fe  Fe32  1  0.98358151  0.16621978  0.33236977  1
  Fe  Fe33  1  0.98361848  0.16620163  0.83379837  1
  Fe  Fe34  1  0.98358151  0.66763023  0.83378022  1
  Fe  Fe35  1  0.01641849  0.83378022  0.66763023  1
  Fe  Fe36  1  0.01638152  0.83379837  0.16620163  1
  Fe  Fe37  1  0.01641849  0.33236977  0.16621978  1
