# generated using pymatgen
data_Na2Fe3(PO4)3
_symmetry_space_group_name_H-M   'P 1'
_cell_length_a   5.00996735
_cell_length_b   12.13303390
_cell_length_c   16.07969178
_cell_angle_alpha   99.24448090
_cell_angle_beta   90.00000000
_cell_angle_gamma   90.00000000
_symmetry_Int_Tables_number   1
_chemical_formula_structural   Na2Fe3(PO4)3
_chemical_formula_sum   'Na8 Fe12 P12 O48'
_cell_volume   964.72690674
_cell_formula_units_Z   4
loop_
 _symmetry_equiv_pos_site_id
 _symmetry_equiv_pos_as_xyz
  1  'x, y, z'
loop_
 _atom_site_type_symbol
 _atom_site_label
 _atom_site_symmetry_multiplicity
 _atom_site_fract_x
 _atom_site_fract_y
 _atom_site_fract_z
 _atom_site_occupancy
  Na  Na0  1  0.51483326  0.86003350  0.84150827  1
  Na  Na1  1  0.98516674  0.86003350  0.34150827  1
  Na  Na2  1  0.48516674  0.13996650  0.15849173  1
  Na  Na3  1  0.01483326  0.13996650  0.65849173  1
  Na  Na4  1  0.50229141  0.66577166  0.66250613  1
  Na  Na5  1  0.99770859  0.66577166  0.16250613  1
  Na  Na6  1  0.49770859  0.33422834  0.33749387  1
  Na  Na7  1  0.00229141  0.33422834  0.83749387  1
  Fe  Fe8  1  0.51840701  0.05978175  0.34540022  1
  Fe  Fe9  1  0.98159299  0.05978175  0.84540022  1
  Fe  Fe10  1  0.48159299  0.94021825  0.65459978  1
  Fe  Fe11  1  0.01840701  0.94021825  0.15459978  1
  Fe  Fe12  1  0.51550090  0.39719855  0.67746820  1
  Fe  Fe13  1  0.98449910  0.39719855  0.17746820  1
  Fe  Fe14  1  0.48449910  0.60280145  0.32253180  1
  Fe  Fe15  1  0.01550090  0.60280145  0.82253180  1
  Fe  Fe16  1  0.49621862  0.27544286  0.99125322  1
  Fe  Fe17  1  0.00378138  0.27544286  0.49125322  1
  Fe  Fe18  1  0.50378138  0.72455714  0.00874678  1
  Fe  Fe19  1  0.99621862  0.72455714  0.50874678  1
  P  P20  1  0.05746321  0.18004171  0.28762132  1
  P  P21  1  0.44253679  0.18004171  0.78762132  1
  P  P22  1  0.94253679  0.81995829  0.71237868  1
  P  P23  1  0.55746321  0.81995829  0.21237868  1
  P  P24  1  0.93438339  0.15805964  0.04567806  1
  P  P25  1  0.56561661  0.15805964  0.54567806  1
  P  P26  1  0.06561661  0.84194036  0.95432194  1
  P  P27  1  0.43438339  0.84194036  0.45432194  1
  P  P28  1  0.05399242  0.51340889  0.61531820  1
  P  P29  1  0.44600758  0.51340889  0.11531820  1
  P  P30  1  0.94600758  0.48659111  0.38468180  1
  P  P31  1  0.55399242  0.48659111  0.88468180  1
  O  O32  1  0.75065739  0.17183100  0.28771759  1
  O  O33  1  0.74934261  0.17183100  0.78771759  1
  O  O34  1  0.24934261  0.82816900  0.71228241  1
  O  O35  1  0.25065739  0.82816900  0.21228241  1
  O  O36  1  0.23800261  0.17435032  0.04036605  1
  O  O37  1  0.26199739  0.17435032  0.54036605  1
  O  O38  1  0.76199739  0.82564968  0.95963395  1
  O  O39  1  0.73800261  0.82564968  0.45963395  1
  O  O40  1  0.75054373  0.50994543  0.62107427  1
  O  O41  1  0.74945627  0.50994543  0.12107427  1
  O  O42  1  0.24945627  0.49005457  0.37892573  1
  O  O43  1  0.25054373  0.49005457  0.87892573  1
  O  O44  1  0.37047153  0.93807967  0.40598730  1
  O  O45  1  0.12952847  0.93807967  0.90598730  1
  O  O46  1  0.62952847  0.06192033  0.59401270  1
  O  O47  1  0.87047153  0.06192033  0.09401270  1
  O  O48  1  0.64895272  0.39025441  0.93163934  1
  O  O49  1  0.85104728  0.39025441  0.43163934  1
  O  O50  1  0.35104728  0.60974559  0.06836066  1
  O  O51  1  0.14895272  0.60974559  0.56836066  1
  O  O52  1  0.34225590  0.26845767  0.73527690  1
  O  O53  1  0.15774410  0.26845767  0.23527690  1
  O  O54  1  0.65774410  0.73154233  0.26472310  1
  O  O55  1  0.84225590  0.73154233  0.76472310  1
  O  O56  1  0.17932459  0.20790106  0.37910236  1
  O  O57  1  0.32067541  0.20790106  0.87910236  1
  O  O58  1  0.82067541  0.79209894  0.62089764  1
  O  O59  1  0.67932459  0.79209894  0.12089764  1
  O  O60  1  0.80549949  0.93390344  0.74856719  1
  O  O61  1  0.69450051  0.93390344  0.24856719  1
  O  O62  1  0.19450051  0.06609656  0.25143281  1
  O  O63  1  0.30549949  0.06609656  0.75143281  1
  O  O64  1  0.19580987  0.53447721  0.70390149  1
  O  O65  1  0.30419013  0.53447721  0.20390149  1
  O  O66  1  0.80419013  0.46552279  0.29609851  1
  O  O67  1  0.69580987  0.46552279  0.79609851  1
  O  O68  1  0.78387780  0.26683048  0.08993177  1
  O  O69  1  0.71612220  0.26683048  0.58993177  1
  O  O70  1  0.21612220  0.73316952  0.91006823  1
  O  O71  1  0.28387780  0.73316952  0.41006823  1
  O  O72  1  0.20932274  0.85673229  0.04187917  1
  O  O73  1  0.29067726  0.85673229  0.54187917  1
  O  O74  1  0.79067726  0.14326771  0.95812083  1
  O  O75  1  0.70932274  0.14326771  0.45812083  1
  O  O76  1  0.82031960  0.60083366  0.42704481  1
  O  O77  1  0.67968040  0.60083366  0.92704481  1
  O  O78  1  0.17968040  0.39916634  0.57295519  1
  O  O79  1  0.32031960  0.39916634  0.07295519  1
