# generated using pymatgen
data_NdH5(SeO4)2
_symmetry_space_group_name_H-M   'P 1'
_cell_length_a   6.86486698
_cell_length_b   7.23498544
_cell_length_c   16.61809092
_cell_angle_alpha   90.00000000
_cell_angle_beta   90.00000000
_cell_angle_gamma   90.00000000
_symmetry_Int_Tables_number   1
_chemical_formula_structural   NdH5(SeO4)2
_chemical_formula_sum   'Nd4 H20 Se8 O32'
_cell_volume   825.37425552
_cell_formula_units_Z   4
loop_
 _symmetry_equiv_pos_site_id
 _symmetry_equiv_pos_as_xyz
  1  'x, y, z'
loop_
 _atom_site_type_symbol
 _atom_site_label
 _atom_site_symmetry_multiplicity
 _atom_site_fract_x
 _atom_site_fract_y
 _atom_site_fract_z
 _atom_site_occupancy
  Nd  Nd0  1  0.86796179  0.88615490  0.21431531  1
  Nd  Nd1  1  0.63203821  0.11384510  0.71431531  1
  Nd  Nd2  1  0.36796179  0.61384510  0.78568469  1
  Nd  Nd3  1  0.13203821  0.38615490  0.28568469  1
  H  H4  1  0.20301846  0.32780766  0.95690663  1
  H  H5  1  0.29698154  0.67219234  0.45690663  1
  H  H6  1  0.70301846  0.17219234  0.04309337  1
  H  H7  1  0.79698154  0.82780766  0.54309337  1
  H  H8  1  0.96927916  0.57593348  0.09707776  1
  H  H9  1  0.53072084  0.42406652  0.59707776  1
  H  H10  1  0.46927916  0.92406652  0.90292224  1
  H  H11  1  0.03072084  0.07593348  0.40292224  1
  H  H12  1  0.83762889  0.70431710  0.04124296  1
  H  H13  1  0.66237111  0.29568290  0.54124296  1
  H  H14  1  0.33762889  0.79568290  0.95875704  1
  H  H15  1  0.16237111  0.20431710  0.45875704  1
  H  H16  1  0.61031925  0.06243487  0.46817884  1
  H  H17  1  0.88968075  0.93756513  0.96817884  1
  H  H18  1  0.11031925  0.43756513  0.53182116  1
  H  H19  1  0.38968075  0.56243487  0.03182116  1
  H  H20  1  0.64852491  0.18397291  0.39212673  1
  H  H21  1  0.85147509  0.81602709  0.89212673  1
  H  H22  1  0.14852491  0.31602709  0.60787327  1
  H  H23  1  0.35147509  0.68397291  0.10787327  1
  Se  Se24  1  0.33302099  0.88721337  0.27336389  1
  Se  Se25  1  0.16697901  0.11278663  0.77336389  1
  Se  Se26  1  0.83302099  0.61278663  0.72663611  1
  Se  Se27  1  0.66697901  0.38721337  0.22663611  1
  Se  Se28  1  0.13432670  0.18876066  0.08017270  1
  Se  Se29  1  0.36567330  0.81123934  0.58017270  1
  Se  Se30  1  0.63432670  0.31123934  0.91982730  1
  Se  Se31  1  0.86567330  0.68876066  0.41982730  1
  O  O32  1  0.19020124  0.70999797  0.23339276  1
  O  O33  1  0.30979876  0.29000203  0.73339276  1
  O  O34  1  0.69020124  0.79000203  0.76660724  1
  O  O35  1  0.80979876  0.20999797  0.26660724  1
  O  O36  1  0.52642358  0.89351732  0.20950983  1
  O  O37  1  0.97357642  0.10648268  0.70950983  1
  O  O38  1  0.02642358  0.60648268  0.79049017  1
  O  O39  1  0.47357642  0.39351732  0.29049017  1
  O  O40  1  0.18263674  0.06311095  0.23591651  1
  O  O41  1  0.31736326  0.93688905  0.73591651  1
  O  O42  1  0.68263674  0.43688905  0.76408349  1
  O  O43  1  0.81736326  0.56311095  0.26408349  1
  O  O44  1  0.90942671  0.08733457  0.09216488  1
  O  O45  1  0.59057329  0.91266543  0.59216488  1
  O  O46  1  0.40942671  0.41266543  0.90783512  1
  O  O47  1  0.09057329  0.58733457  0.40783512  1
  O  O48  1  0.12499307  0.38417257  0.13809624  1
  O  O49  1  0.37500693  0.61582743  0.63809624  1
  O  O50  1  0.62499307  0.11582743  0.86190376  1
  O  O51  1  0.87500693  0.88417257  0.36190376  1
  O  O52  1  0.07691758  0.29059261  0.98350743  1
  O  O53  1  0.42308242  0.70940739  0.48350743  1
  O  O54  1  0.57691758  0.20940739  0.01649257  1
  O  O55  1  0.92308242  0.79059261  0.51649257  1
  O  O56  1  0.86340247  0.66893520  0.09793070  1
  O  O57  1  0.63659753  0.33106480  0.59793070  1
  O  O58  1  0.36340247  0.83106480  0.90206930  1
  O  O59  1  0.13659753  0.16893520  0.40206930  1
  O  O60  1  0.60178810  0.18890718  0.44795102  1
  O  O61  1  0.89821190  0.81109282  0.94795102  1
  O  O62  1  0.10178810  0.31109282  0.55204898  1
  O  O63  1  0.39821190  0.68890718  0.05204898  1
