# generated using pymatgen
data_Ho2HfS5
_symmetry_space_group_name_H-M   'P 1'
_cell_length_a   7.24436924
_cell_length_b   7.71280368
_cell_length_c   11.53956193
_cell_angle_alpha   90.00000000
_cell_angle_beta   90.00000000
_cell_angle_gamma   90.00000000
_symmetry_Int_Tables_number   1
_chemical_formula_structural   Ho2HfS5
_chemical_formula_sum   'Ho8 Hf4 S20'
_cell_volume   644.76607295
_cell_formula_units_Z   4
loop_
 _symmetry_equiv_pos_site_id
 _symmetry_equiv_pos_as_xyz
  1  'x, y, z'
loop_
 _atom_site_type_symbol
 _atom_site_label
 _atom_site_symmetry_multiplicity
 _atom_site_fract_x
 _atom_site_fract_y
 _atom_site_fract_z
 _atom_site_occupancy
  Ho  Ho0  1  0.97904863  0.00304831  0.17927488  1
  Ho  Ho1  1  0.52095137  0.49695169  0.67927488  1
  Ho  Ho2  1  0.02095137  0.50304831  0.82072512  1
  Ho  Ho3  1  0.47904863  0.99695169  0.32072512  1
  Ho  Ho4  1  0.02095137  0.99695169  0.82072512  1
  Ho  Ho5  1  0.47904863  0.50304831  0.32072512  1
  Ho  Ho6  1  0.97904863  0.49695169  0.17927488  1
  Ho  Ho7  1  0.52095137  0.00304831  0.67927488  1
  Hf  Hf8  1  0.42328176  0.75000000  0.00580149  1
  Hf  Hf9  1  0.07671824  0.75000000  0.50580149  1
  Hf  Hf10  1  0.57671824  0.25000000  0.99419851  1
  Hf  Hf11  1  0.92328176  0.25000000  0.49419851  1
  S  S12  1  0.66096260  0.53671540  0.90579287  1
  S  S13  1  0.83903740  0.96328460  0.40579287  1
  S  S14  1  0.33903740  0.03671540  0.09420713  1
  S  S15  1  0.16096260  0.46328460  0.59420713  1
  S  S16  1  0.33903740  0.46328460  0.09420713  1
  S  S17  1  0.16096260  0.03671540  0.59420713  1
  S  S18  1  0.66096260  0.96328460  0.90579287  1
  S  S19  1  0.83903740  0.53671540  0.40579287  1
  S  S20  1  0.66762734  0.75000000  0.18117997  1
  S  S21  1  0.83237266  0.75000000  0.68117997  1
  S  S22  1  0.33237266  0.25000000  0.81882003  1
  S  S23  1  0.16762734  0.25000000  0.31882003  1
  S  S24  1  0.05245638  0.75000000  0.00368070  1
  S  S25  1  0.44754362  0.75000000  0.50368070  1
  S  S26  1  0.94754362  0.25000000  0.99631930  1
  S  S27  1  0.55245638  0.25000000  0.49631930  1
  S  S28  1  0.31023121  0.75000000  0.79273780  1
  S  S29  1  0.18976879  0.75000000  0.29273780  1
  S  S30  1  0.68976879  0.25000000  0.20726220  1
  S  S31  1  0.81023121  0.25000000  0.70726220  1
