# generated using pymatgen
data_CsAlVP2(HO5)2
_symmetry_space_group_name_H-M   'P 1'
_cell_length_a   8.13334755
_cell_length_b   8.24665350
_cell_length_c   14.39562874
_cell_angle_alpha   90.00000000
_cell_angle_beta   106.32435214
_cell_angle_gamma   90.00000000
_symmetry_Int_Tables_number   1
_chemical_formula_structural   CsAlVP2(HO5)2
_chemical_formula_sum   'Cs4 Al4 V4 P8 H8 O40'
_cell_volume   926.63102383
_cell_formula_units_Z   4
loop_
 _symmetry_equiv_pos_site_id
 _symmetry_equiv_pos_as_xyz
  1  'x, y, z'
loop_
 _atom_site_type_symbol
 _atom_site_label
 _atom_site_symmetry_multiplicity
 _atom_site_fract_x
 _atom_site_fract_y
 _atom_site_fract_z
 _atom_site_occupancy
  Cs  Cs0  1  0.82854673  0.96508569  0.70971852  1
  Cs  Cs1  1  0.17145327  0.46508569  0.79028148  1
  Cs  Cs2  1  0.17145327  0.03491431  0.29028148  1
  Cs  Cs3  1  0.82854673  0.53491431  0.20971852  1
  Al  Al4  1  0.78407156  0.96610720  0.03147202  1
  Al  Al5  1  0.21592844  0.46610720  0.46852798  1
  Al  Al6  1  0.21592844  0.03389280  0.96852798  1
  Al  Al7  1  0.78407156  0.53389280  0.53147202  1
  V  V8  1  0.28578852  0.94634702  0.64122150  1
  V  V9  1  0.71421148  0.44634702  0.85877850  1
  V  V10  1  0.71421148  0.05365298  0.35877850  1
  V  V11  1  0.28578852  0.55365298  0.14122150  1
  P  P12  1  0.00548309  0.22508362  0.54068224  1
  P  P13  1  0.99451691  0.72508362  0.95931776  1
  P  P14  1  0.99451691  0.77491638  0.45931776  1
  P  P15  1  0.00548309  0.27491638  0.04068224  1
  P  P16  1  0.49761385  0.10727940  0.85508129  1
  P  P17  1  0.50238615  0.60727940  0.64491871  1
  P  P18  1  0.50238615  0.89272060  0.14491871  1
  P  P19  1  0.49761385  0.39272060  0.35508129  1
  H  H20  1  0.47482559  0.21227639  0.60794811  1
  H  H21  1  0.52517441  0.71227639  0.89205189  1
  H  H22  1  0.52517441  0.78772361  0.39205189  1
  H  H23  1  0.47482559  0.28772361  0.10794811  1
  H  H24  1  0.47374097  0.15079728  0.50332726  1
  H  H25  1  0.52625903  0.65079728  0.99667274  1
  H  H26  1  0.52625903  0.84920272  0.49667274  1
  H  H27  1  0.47374097  0.34920272  0.00332726  1
  O  O28  1  0.10274141  0.28250545  0.46706930  1
  O  O29  1  0.89725859  0.78250545  0.03293070  1
  O  O30  1  0.89725859  0.71749455  0.53293070  1
  O  O31  1  0.10274141  0.21749455  0.96706930  1
  O  O32  1  0.93619262  0.38167052  0.57879035  1
  O  O33  1  0.06380738  0.88167052  0.92120965  1
  O  O34  1  0.06380738  0.61832948  0.42120965  1
  O  O35  1  0.93619262  0.11832948  0.07879035  1
  O  O36  1  0.85405993  0.11474767  0.49284928  1
  O  O37  1  0.14594007  0.61474767  0.00715072  1
  O  O38  1  0.14594007  0.88525233  0.50715072  1
  O  O39  1  0.85405993  0.38525233  0.99284928  1
  O  O40  1  0.13025249  0.14530036  0.62967633  1
  O  O41  1  0.86974751  0.64530036  0.87032367  1
  O  O42  1  0.86974751  0.85469964  0.37032367  1
  O  O43  1  0.13025249  0.35469964  0.12967633  1
  O  O44  1  0.45646054  0.11780904  0.56570692  1
  O  O45  1  0.54353946  0.61780904  0.93429308  1
  O  O46  1  0.54353946  0.88219096  0.43429308  1
  O  O47  1  0.45646054  0.38219096  0.06570692  1
  O  O48  1  0.47323226  0.78994721  0.62222920  1
  O  O49  1  0.52676774  0.28994721  0.87777080  1
  O  O50  1  0.52676774  0.21005279  0.37777080  1
  O  O51  1  0.47323226  0.71005279  0.12222920  1
  O  O52  1  0.20383529  0.82817868  0.70753441  1
  O  O53  1  0.79616471  0.32817868  0.79246559  1
  O  O54  1  0.79616471  0.17182132  0.29246559  1
  O  O55  1  0.20383529  0.67182132  0.20753441  1
  O  O56  1  0.65613404  0.00635807  0.91314438  1
  O  O57  1  0.34386596  0.50635807  0.58685562  1
  O  O58  1  0.34386596  0.99364193  0.08685562  1
  O  O59  1  0.65613404  0.49364193  0.41314438  1
  O  O60  1  0.34138782  0.05568635  0.88967610  1
  O  O61  1  0.65861218  0.55568635  0.61032390  1
  O  O62  1  0.65861218  0.94431365  0.11032390  1
  O  O63  1  0.34138782  0.44431365  0.38967610  1
  O  O64  1  0.46525342  0.06698392  0.74793955  1
  O  O65  1  0.53474658  0.56698392  0.75206045  1
  O  O66  1  0.53474658  0.93301608  0.25206045  1
  O  O67  1  0.46525342  0.43301608  0.24793955  1
