# generated using pymatgen
data_TlB3O5
_symmetry_space_group_name_H-M   'P 1'
_cell_length_a   6.72467572
_cell_length_b   6.72467572
_cell_length_c   9.21911309
_cell_angle_alpha   80.16712154
_cell_angle_beta   80.16712154
_cell_angle_gamma   83.15470905
_symmetry_Int_Tables_number   1
_chemical_formula_structural   TlB3O5
_chemical_formula_sum   'Tl4 B12 O20'
_cell_volume   402.99756008
_cell_formula_units_Z   4
loop_
 _symmetry_equiv_pos_site_id
 _symmetry_equiv_pos_as_xyz
  1  'x, y, z'
loop_
 _atom_site_type_symbol
 _atom_site_label
 _atom_site_symmetry_multiplicity
 _atom_site_fract_x
 _atom_site_fract_y
 _atom_site_fract_z
 _atom_site_occupancy
  Tl  Tl0  1  0.73094050  0.42953278  0.05978587  1
  Tl  Tl1  1  0.57046722  0.26905950  0.44021413  1
  Tl  Tl2  1  0.26905950  0.57046722  0.94021413  1
  Tl  Tl3  1  0.42953278  0.73094050  0.55978587  1
  B  B4  1  0.19068359  0.21002146  0.26553790  1
  B  B5  1  0.78997854  0.80931641  0.23446210  1
  B  B6  1  0.80931641  0.78997854  0.73446210  1
  B  B7  1  0.21002146  0.19068359  0.76553790  1
  B  B8  1  0.06942812  0.57221905  0.31985757  1
  B  B9  1  0.42778095  0.93057188  0.18014243  1
  B  B10  1  0.93057188  0.42778095  0.68014243  1
  B  B11  1  0.57221905  0.06942812  0.81985757  1
  B  B12  1  0.96492788  0.88831051  0.43311136  1
  B  B13  1  0.11168949  0.03507212  0.06688864  1
  B  B14  1  0.03507212  0.11168949  0.56688864  1
  B  B15  1  0.88831051  0.96492788  0.93311136  1
  O  O16  1  0.06757199  0.09072993  0.40206568  1
  O  O17  1  0.90927007  0.93242801  0.09793432  1
  O  O18  1  0.93242801  0.90927007  0.59793432  1
  O  O19  1  0.09072993  0.06757199  0.90206568  1
  O  O20  1  0.09635205  0.21564349  0.13299162  1
  O  O21  1  0.78435651  0.90364795  0.36700838  1
  O  O22  1  0.90364795  0.78435651  0.86700838  1
  O  O23  1  0.21564349  0.09635205  0.63299162  1
  O  O24  1  0.89750263  0.60243214  0.25252499  1
  O  O25  1  0.39756786  0.10249737  0.24747501  1
  O  O26  1  0.10249737  0.39756786  0.74747501  1
  O  O27  1  0.60243214  0.89750263  0.75252499  1
  O  O28  1  0.20937791  0.40786402  0.30368248  1
  O  O29  1  0.59213598  0.79062209  0.19631752  1
  O  O30  1  0.79062209  0.59213598  0.69631752  1
  O  O31  1  0.40786402  0.20937791  0.80368248  1
  O  O32  1  0.10606667  0.71430725  0.40251334  1
  O  O33  1  0.28569275  0.89393333  0.09748666  1
  O  O34  1  0.89393333  0.28569275  0.59748666  1
  O  O35  1  0.71430725  0.10606667  0.90251334  1
