# generated using pymatgen
data_TeSO5
_symmetry_space_group_name_H-M   'P 1'
_cell_length_a   8.41428933
_cell_length_b   8.62687247
_cell_length_c   12.07662255
_cell_angle_alpha   82.79262618
_cell_angle_beta   69.83373888
_cell_angle_gamma   82.08365564
_symmetry_Int_Tables_number   1
_chemical_formula_structural   TeSO5
_chemical_formula_sum   'Te8 S8 O40'
_cell_volume   812.17545690
_cell_formula_units_Z   8
loop_
 _symmetry_equiv_pos_site_id
 _symmetry_equiv_pos_as_xyz
  1  'x, y, z'
loop_
 _atom_site_type_symbol
 _atom_site_label
 _atom_site_symmetry_multiplicity
 _atom_site_fract_x
 _atom_site_fract_y
 _atom_site_fract_z
 _atom_site_occupancy
  Te  Te0  1  0.06002391  0.81435226  0.24069518  1
  Te  Te1  1  0.93997609  0.18564774  0.75930482  1
  Te  Te2  1  0.45350100  0.27866002  0.27102865  1
  Te  Te3  1  0.54649900  0.72133998  0.72897135  1
  Te  Te4  1  0.42072682  0.67781216  0.34167694  1
  Te  Te5  1  0.57927318  0.32218784  0.65832306  1
  Te  Te6  1  0.10557644  0.24240974  0.15454626  1
  Te  Te7  1  0.89442356  0.75759026  0.84545374  1
  S  S8  1  0.81228666  0.40076230  0.37939087  1
  S  S9  1  0.18771334  0.59923770  0.62060913  1
  S  S10  1  0.74410744  0.88907486  0.45931336  1
  S  S11  1  0.25589256  0.11092514  0.54068664  1
  S  S12  1  0.31618710  0.15312687  0.89687315  1
  S  S13  1  0.68381290  0.84687313  0.10312685  1
  S  S14  1  0.73045873  0.33213292  0.02104982  1
  S  S15  1  0.26954127  0.66786708  0.97895018  1
  O  O16  1  0.89624938  0.24705751  0.32744292  1
  O  O17  1  0.10375062  0.75294249  0.67255708  1
  O  O18  1  0.36502039  0.49872933  0.28468176  1
  O  O19  1  0.63497961  0.50127067  0.71531824  1
  O  O20  1  0.24958995  0.22425304  0.25297670  1
  O  O21  1  0.75041005  0.77574696  0.74702330  1
  O  O22  1  0.32905585  0.15868972  0.02116837  1
  O  O23  1  0.67094415  0.84131028  0.97883163  1
  O  O24  1  0.04938072  0.02989774  0.18504922  1
  O  O25  1  0.95061928  0.97010226  0.81495078  1
  O  O26  1  0.80386407  0.37917769  0.50806754  1
  O  O27  1  0.19613593  0.62082231  0.49193246  1
  O  O28  1  0.26609842  0.81663300  0.28016734  1
  O  O29  1  0.73390158  0.18336700  0.71983266  1
  O  O30  1  0.70086822  0.88313174  0.35250841  1
  O  O31  1  0.29913178  0.11686826  0.64749159  1
  O  O32  1  0.41892416  0.01630885  0.84370367  1
  O  O33  1  0.58107584  0.98369115  0.15629633  1
  O  O34  1  0.63365801  0.42466128  0.37747134  1
  O  O35  1  0.36634199  0.57533872  0.62252866  1
  O  O36  1  0.39463054  0.30431240  0.82810320  1
  O  O37  1  0.60536946  0.69568760  0.17189680  1
  O  O38  1  0.67638907  0.02563855  0.52552475  1
  O  O39  1  0.32361093  0.97436145  0.47447525  1
  O  O40  1  0.75278746  0.20184346  0.94244821  1
  O  O41  1  0.24721254  0.79815654  0.05755179  1
  O  O42  1  0.13500830  0.17285640  0.91123264  1
  O  O43  1  0.86499170  0.82714360  0.08876736  1
  O  O44  1  0.53631542  0.35518209  0.08790000  1
  O  O45  1  0.46368458  0.64481791  0.91210000  1
  O  O46  1  0.94273406  0.87318795  0.41768799  1
  O  O47  1  0.05726594  0.12681205  0.58231201  1
  O  O48  1  0.91411964  0.52741916  0.31648308  1
  O  O49  1  0.08588036  0.47258084  0.68351692  1
  O  O50  1  0.80787745  0.28257427  0.11388444  1
  O  O51  1  0.19212255  0.71742573  0.88611556  1
  O  O52  1  0.78649869  0.47495684  0.94848073  1
  O  O53  1  0.21350131  0.52504316  0.05151927  1
  O  O54  1  0.69376823  0.73886285  0.54044994  1
  O  O55  1  0.30623177  0.26113715  0.45955006  1
