# generated using pymatgen
data_Y2Ni17
_symmetry_space_group_name_H-M   'P 1'
_cell_length_a   8.01611807
_cell_length_b   8.25351430
_cell_length_c   8.25351430
_cell_angle_alpha   120.01840655
_cell_angle_beta   90.00000000
_cell_angle_gamma   90.00000000
_symmetry_Int_Tables_number   1
_chemical_formula_structural   Y2Ni17
_chemical_formula_sum   'Y4 Ni34'
_cell_volume   472.81578984
_cell_formula_units_Z   2
loop_
 _symmetry_equiv_pos_site_id
 _symmetry_equiv_pos_as_xyz
  1  'x, y, z'
loop_
 _atom_site_type_symbol
 _atom_site_label
 _atom_site_symmetry_multiplicity
 _atom_site_fract_x
 _atom_site_fract_y
 _atom_site_fract_z
 _atom_site_occupancy
  Y  Y0  1  0.75000000  0.99976798  0.00023202  1
  Y  Y1  1  0.25000000  0.00023202  0.99976798  1
  Y  Y2  1  0.25000000  0.66657099  0.33342901  1
  Y  Y3  1  0.75000000  0.33342901  0.66657099  1
  Ni  Ni4  1  0.60284121  0.66670337  0.33329663  1
  Ni  Ni5  1  0.39715879  0.33329663  0.66670337  1
  Ni  Ni6  1  0.10284121  0.33329663  0.66670337  1
  Ni  Ni7  1  0.89715879  0.66670337  0.33329663  1
  Ni  Ni8  1  0.50000000  0.50000000  -0.00000000  1
  Ni  Ni9  1  0.50000000  0.50000000  0.50000000  1
  Ni  Ni10  1  0.50000000  -0.00000000  0.50000000  1
  Ni  Ni11  1  -0.00000000  0.50000000  -0.00000000  1
  Ni  Ni12  1  -0.00000000  0.50000000  0.50000000  1
  Ni  Ni13  1  -0.00000000  -0.00000000  0.50000000  1
  Ni  Ni14  1  0.75000000  0.67158874  0.04325987  1
  Ni  Ni15  1  0.75000000  0.37181129  0.32847103  1
  Ni  Ni16  1  0.75000000  0.95656591  0.62811317  1
  Ni  Ni17  1  0.75000000  0.37188683  0.04343409  1
  Ni  Ni18  1  0.75000000  0.95674013  0.32841126  1
  Ni  Ni19  1  0.75000000  0.67152897  0.62818871  1
  Ni  Ni20  1  0.25000000  0.32841126  0.95674013  1
  Ni  Ni21  1  0.25000000  0.62818871  0.67152897  1
  Ni  Ni22  1  0.25000000  0.04343409  0.37188683  1
  Ni  Ni23  1  0.25000000  0.62811317  0.95656591  1
  Ni  Ni24  1  0.25000000  0.04325987  0.67158874  1
  Ni  Ni25  1  0.25000000  0.32847103  0.37181129  1
  Ni  Ni26  1  0.47818355  0.83444456  0.66893017  1
  Ni  Ni27  1  0.47826579  0.83444399  0.16555601  1
  Ni  Ni28  1  0.47818355  0.33106983  0.16555544  1
  Ni  Ni29  1  0.52181645  0.16555544  0.33106983  1
  Ni  Ni30  1  0.52173421  0.16555601  0.83444399  1
  Ni  Ni31  1  0.52181645  0.66893017  0.83444456  1
  Ni  Ni32  1  0.97818355  0.16555544  0.33106983  1
  Ni  Ni33  1  0.97826579  0.16555601  0.83444399  1
  Ni  Ni34  1  0.97818355  0.66893017  0.83444456  1
  Ni  Ni35  1  0.02181645  0.83444456  0.66893017  1
  Ni  Ni36  1  0.02173421  0.83444399  0.16555601  1
  Ni  Ni37  1  0.02181645  0.33106983  0.16555544  1
