# generated using pymatgen
data_KYbF4
_symmetry_space_group_name_H-M   'P 1'
_cell_length_a   10.14287386
_cell_length_b   14.49346275
_cell_length_c   14.49346275
_cell_angle_alpha   120.00000329
_cell_angle_beta   90.00000000
_cell_angle_gamma   90.00000000
_symmetry_Int_Tables_number   1
_chemical_formula_structural   KYbF4
_chemical_formula_sum   'K18 Yb18 F72'
_cell_volume   1845.16819115
_cell_formula_units_Z   18
loop_
 _symmetry_equiv_pos_site_id
 _symmetry_equiv_pos_as_xyz
  1  'x, y, z'
loop_
 _atom_site_type_symbol
 _atom_site_label
 _atom_site_symmetry_multiplicity
 _atom_site_fract_x
 _atom_site_fract_y
 _atom_site_fract_z
 _atom_site_occupancy
  K  K0  1  0.00749498  0.04371645  0.78351149  1
  K  K1  1  0.67416098  0.21648851  0.26020496  1
  K  K2  1  0.34082798  0.73979504  0.95628355  1
  K  K3  1  0.98913578  0.06534892  0.28353882  1
  K  K4  1  0.65580178  0.71646118  0.78181011  1
  K  K5  1  0.32246878  0.21818989  0.93465108  1
  K  K6  1  0.00698693  0.73186344  0.12609878  1
  K  K7  1  0.67365293  0.87390122  0.60576466  1
  K  K8  1  0.34031993  0.39423534  0.26813656  1
  K  K9  1  0.98274839  0.70878540  0.60222534  1
  K  K10  1  0.64941439  0.39777466  0.10656006  1
  K  K11  1  0.31608139  0.89343994  0.29121460  1
  K  K12  1  0.98474364  0.39281513  0.93622040  1
  K  K13  1  0.65140964  0.06377960  0.45659473  1
  K  K14  1  0.31807664  0.54340527  0.60718487  1
  K  K15  1  0.00483185  0.38442129  0.43277720  1
  K  K16  1  0.67149785  0.56722280  0.95164409  1
  K  K17  1  0.33816485  0.04835591  0.61557871  1
  Yb  Yb18  1  0.99149847  0.23416290  0.10390268  1
  Yb  Yb19  1  0.65816447  0.89609732  0.13026022  1
  Yb  Yb20  1  0.32483147  0.86973978  0.76583710  1
  Yb  Yb21  1  0.98842759  0.55100397  0.26706584  1
  Yb  Yb22  1  0.65509359  0.73293416  0.28393814  1
  Yb  Yb23  1  0.32176059  0.71606186  0.44899603  1
  Yb  Yb24  1  0.00739216  0.56876566  0.78992085  1
  Yb  Yb25  1  0.67405816  0.21007915  0.77884481  1
  Yb  Yb26  1  0.34072516  0.22115519  0.43123434  1
  Yb  Yb27  1  0.99525999  0.88123369  0.93852846  1
  Yb  Yb28  1  0.66192599  0.06147154  0.94270523  1
  Yb  Yb29  1  0.32859299  0.05729477  0.11876631  1
  Yb  Yb30  1  0.98718636  0.89598345  0.45006045  1
  Yb  Yb31  1  0.65385236  0.54993955  0.44592300  1
  Yb  Yb32  1  0.32051936  0.55407700  0.10401655  1
  Yb  Yb33  1  0.01174736  0.22956589  0.62040370  1
  Yb  Yb34  1  0.67841336  0.37959630  0.60916220  1
  Yb  Yb35  1  0.34508036  0.39083780  0.77043411  1
  F  F36  1  0.77531549  0.20078146  0.06936886  1
  F  F37  1  0.44198149  0.93063114  0.13141260  1
  F  F38  1  0.10864849  0.86858740  0.79921854  1
  F  F39  1  0.20055095  0.17977660  0.10765441  1
  F  F40  1  0.86721695  0.89234559  0.07212219  1
  F  F41  1  0.53388395  0.92787781  0.82022340  1
  F  F42  1  0.14084977  0.60863315  0.39915294  1
  F  F43  1  0.80751577  0.60084706  0.20948020  1
  F  F44  1  0.47418277  0.79051980  0.39136685  1
  F  F45  1  0.31339777  0.60484003  0.27523283  1
  F  F46  1  0.98006377  0.72476717  0.32960720  1
  F  F47  1  0.64673077  0.67039280  0.39515997  1
  F  F48  1  0.22726310  0.53223363  0.78620825  1
  F  F49  1  0.89392910  0.21379175  0.74602538  1
  F  F50  1  0.56059610  0.25397462  0.46776637  1
  F  F51  1  0.79609274  0.51766419  0.73597158  1
  F  F52  1  0.46275874  0.26402842  0.78169262  1
  F  F53  1  0.12942574  0.21830738  0.48233581  1
  F  F54  1  0.31726557  0.93195755  0.94447486  1
  F  F55  1  0.98393157  0.05552514  0.98748269  1
  F  F56  1  0.65059857  0.01251731  0.06804245  1
  F  F57  1  0.15267583  0.94686192  0.06624731  1
  F  F58  1  0.81934183  0.93375269  0.88061461  1
  F  F59  1  0.48600883  0.11938539  0.05313808  1
  F  F60  1  0.19783941  0.84886624  0.45636474  1
  F  F61  1  0.86450541  0.54363526  0.39250150  1
  F  F62  1  0.53117241  0.60749850  0.15113376  1
  F  F63  1  0.77064043  0.86789806  0.41525598  1
  F  F64  1  0.43730643  0.58474402  0.45264208  1
  F  F65  1  0.10397343  0.54735792  0.13210194  1
  F  F66  1  0.20267994  0.25487174  0.71031279  1
  F  F67  1  0.86934594  0.28968721  0.54455894  1
  F  F68  1  0.53601294  0.45544106  0.74512826  1
  F  F69  1  0.36064688  0.35000322  0.60169005  1
  F  F70  1  0.02731288  0.39830995  0.74831317  1
  F  F71  1  0.69397988  0.25168683  0.64999678  1
  F  F72  1  0.73139967  0.04390231  0.27516541  1
  F  F73  1  0.39806567  0.72483459  0.76873690  1
  F  F74  1  0.06473267  0.23126310  0.95609769  1
  F  F75  1  0.25154965  0.08428957  0.27771381  1
  F  F76  1  0.91821565  0.72228619  0.80657575  1
  F  F77  1  0.58488265  0.19342425  0.91571043  1
  F  F78  1  0.26912377  0.02537502  0.77880167  1
  F  F79  1  0.93578977  0.22119833  0.24657335  1
  F  F80  1  0.60245677  0.75342665  0.97462498  1
  F  F81  1  0.08147271  0.72928180  0.92321565  1
  F  F82  1  0.74813871  0.07678435  0.80606615  1
  F  F83  1  0.41480571  0.19393385  0.27071820  1
  F  F84  1  0.24617835  0.73666490  0.60604559  1
  F  F85  1  0.91284435  0.39395441  0.13061930  1
  F  F86  1  0.57951135  0.86938070  0.26333510  1
  F  F87  1  0.72413823  0.69062032  0.59795367  1
  F  F88  1  0.39080423  0.40204633  0.09266665  1
  F  F89  1  0.05747123  0.90733335  0.30937968  1
  F  F90  1  0.07592117  0.39254547  0.23614409  1
  F  F91  1  0.74258717  0.76385591  0.15640138  1
  F  F92  1  0.40925417  0.84359862  0.60745453  1
  F  F93  1  0.26794252  0.70899051  0.11694107  1
  F  F94  1  0.93460852  0.88305893  0.59204944  1
  F  F95  1  0.60127552  0.40795056  0.29100949  1
  F  F96  1  0.26153519  0.36540183  0.42658849  1
  F  F97  1  0.92820119  0.57341151  0.93881334  1
  F  F98  1  0.59486819  0.06118666  0.63459817  1
  F  F99  1  0.07163132  0.05904337  0.58015244  1
  F  F100  1  0.73829732  0.41984756  0.47889093  1
  F  F101  1  0.40496432  0.52110907  0.94095663  1
  F  F102  1  0.25328032  0.42918368  0.93191008  1
  F  F103  1  0.91994632  0.06808992  0.49727360  1
  F  F104  1  0.58661332  0.50272640  0.57081632  1
  F  F105  1  0.72023772  0.37317673  0.91586318  1
  F  F106  1  0.38690372  0.08413682  0.45731355  1
  F  F107  1  0.05357072  0.54268645  0.62682327  1
