# generated using pymatgen
data_Y5(Ge5Ir2)2
_symmetry_space_group_name_H-M   'P 1'
_cell_length_a   4.35902473
_cell_length_b   13.03941550
_cell_length_c   13.03941550
_cell_angle_alpha   90.00000000
_cell_angle_beta   90.00000000
_cell_angle_gamma   90.00000000
_symmetry_Int_Tables_number   1
_chemical_formula_structural   Y5(Ge5Ir2)2
_chemical_formula_sum   'Y10 Ge20 Ir8'
_cell_volume   741.14909309
_cell_formula_units_Z   2
loop_
 _symmetry_equiv_pos_site_id
 _symmetry_equiv_pos_as_xyz
  1  'x, y, z'
loop_
 _atom_site_type_symbol
 _atom_site_label
 _atom_site_symmetry_multiplicity
 _atom_site_fract_x
 _atom_site_fract_y
 _atom_site_fract_z
 _atom_site_occupancy
  Y  Y0  1  -0.00000000  0.50000000  0.50000000  1
  Y  Y1  1  -0.00000000  -0.00000000  0.00000000  1
  Y  Y2  1  0.50000000  0.17425121  0.67425121  1
  Y  Y3  1  0.50000000  0.82574879  0.32574879  1
  Y  Y4  1  0.50000000  0.32574879  0.17425121  1
  Y  Y5  1  0.50000000  0.67425121  0.82574879  1
  Y  Y6  1  0.50000000  0.38397782  0.88397782  1
  Y  Y7  1  0.50000000  0.61602218  0.11602218  1
  Y  Y8  1  0.50000000  0.11602218  0.38397782  1
  Y  Y9  1  0.50000000  0.88397782  0.61602218  1
  Ge  Ge10  1  -0.00000000  0.06654576  0.56654576  1
  Ge  Ge11  1  0.00000000  0.93345424  0.43345424  1
  Ge  Ge12  1  0.00000000  0.43345424  0.06654576  1
  Ge  Ge13  1  -0.00000000  0.56654576  0.93345424  1
  Ge  Ge14  1  -0.00000000  0.70006361  0.66288715  1
  Ge  Ge15  1  0.00000000  0.29993639  0.33711285  1
  Ge  Ge16  1  0.00000000  0.79993639  0.16288715  1
  Ge  Ge17  1  -0.00000000  0.20006361  0.83711285  1
  Ge  Ge18  1  0.00000000  0.66288715  0.29993639  1
  Ge  Ge19  1  -0.00000000  0.33711285  0.70006361  1
  Ge  Ge20  1  0.00000000  0.16288715  0.20006361  1
  Ge  Ge21  1  -0.00000000  0.83711285  0.79993639  1
  Ge  Ge22  1  0.50000000  0.50859781  0.65693839  1
  Ge  Ge23  1  0.50000000  0.49140219  0.34306161  1
  Ge  Ge24  1  0.50000000  0.99140219  0.15693839  1
  Ge  Ge25  1  0.50000000  0.00859781  0.84306161  1
  Ge  Ge26  1  0.50000000  0.65693839  0.49140219  1
  Ge  Ge27  1  0.50000000  0.34306161  0.50859781  1
  Ge  Ge28  1  0.50000000  0.15693839  0.00859781  1
  Ge  Ge29  1  0.50000000  0.84306161  0.99140219  1
  Ir  Ir30  1  -0.00000000  0.52119079  0.74604639  1
  Ir  Ir31  1  0.00000000  0.47880921  0.25395361  1
  Ir  Ir32  1  0.00000000  0.97880921  0.24604639  1
  Ir  Ir33  1  -0.00000000  0.02119079  0.75395361  1
  Ir  Ir34  1  0.00000000  0.74604639  0.47880921  1
  Ir  Ir35  1  -0.00000000  0.25395361  0.52119079  1
  Ir  Ir36  1  0.00000000  0.24604639  0.02119079  1
  Ir  Ir37  1  -0.00000000  0.75395361  0.97880921  1
