# generated using pymatgen
data_CsHgCl3
_symmetry_space_group_name_H-M   'P 1'
_cell_length_a   9.57100739
_cell_length_b   9.55200915
_cell_length_c   15.70788244
_cell_angle_alpha   90.00000000
_cell_angle_beta   90.00000000
_cell_angle_gamma   109.99753128
_symmetry_Int_Tables_number   1
_chemical_formula_structural   CsHgCl3
_chemical_formula_sum   'Cs8 Hg8 Cl24'
_cell_volume   1349.46818650
_cell_formula_units_Z   8
loop_
 _symmetry_equiv_pos_site_id
 _symmetry_equiv_pos_as_xyz
  1  'x, y, z'
loop_
 _atom_site_type_symbol
 _atom_site_label
 _atom_site_symmetry_multiplicity
 _atom_site_fract_x
 _atom_site_fract_y
 _atom_site_fract_z
 _atom_site_occupancy
  Cs  Cs0  1  0.50000000  -0.00000000  0.50000000  1
  Cs  Cs1  1  -0.00000000  0.50000000  -0.00000000  1
  Cs  Cs2  1  0.24735491  0.24302894  0.25224555  1
  Cs  Cs3  1  0.74735491  0.74302894  0.24775445  1
  Cs  Cs4  1  0.75264509  0.75697106  0.74775445  1
  Cs  Cs5  1  0.25264509  0.25697106  0.75224555  1
  Cs  Cs6  1  0.50000000  -0.00000000  -0.00000000  1
  Cs  Cs7  1  -0.00000000  0.50000000  0.50000000  1
  Hg  Hg8  1  0.50000000  0.50000000  0.50000000  1
  Hg  Hg9  1  -0.00000000  -0.00000000  -0.00000000  1
  Hg  Hg10  1  -0.00000000  -0.00000000  0.50000000  1
  Hg  Hg11  1  0.50000000  0.50000000  -0.00000000  1
  Hg  Hg12  1  0.24301788  0.75009666  0.24341547  1
  Hg  Hg13  1  0.74301788  0.25009666  0.25658453  1
  Hg  Hg14  1  0.75698212  0.24990334  0.75658453  1
  Hg  Hg15  1  0.25698212  0.74990334  0.74341547  1
  Cl  Cl16  1  0.21286258  0.22175579  0.50153395  1
  Cl  Cl17  1  0.71286258  0.72175579  0.99846605  1
  Cl  Cl18  1  0.78713742  0.77824421  0.49846605  1
  Cl  Cl19  1  0.28713742  0.27824421  0.00153395  1
  Cl  Cl20  1  0.61474327  0.38968267  0.61028320  1
  Cl  Cl21  1  0.11474327  0.88968267  0.88971680  1
  Cl  Cl22  1  0.38525673  0.61031733  0.38971680  1
  Cl  Cl23  1  0.88525673  0.11031733  0.11028320  1
  Cl  Cl24  1  0.86277934  0.13059101  0.36676878  1
  Cl  Cl25  1  0.36277934  0.63059101  0.13323122  1
  Cl  Cl26  1  0.13722066  0.86940899  0.63323122  1
  Cl  Cl27  1  0.63722066  0.36940899  0.86676878  1
  Cl  Cl28  1  0.13868646  0.86003937  0.36545366  1
  Cl  Cl29  1  0.63868646  0.36003937  0.13454634  1
  Cl  Cl30  1  0.86131354  0.13996063  0.63454634  1
  Cl  Cl31  1  0.36131354  0.63996063  0.86545366  1
  Cl  Cl32  1  0.38734971  0.62722918  0.62458039  1
  Cl  Cl33  1  0.88734971  0.12722918  0.87541961  1
  Cl  Cl34  1  0.61265029  0.37277082  0.37541961  1
  Cl  Cl35  1  0.11265029  0.87277082  0.12458039  1
  Cl  Cl36  1  0.99317285  0.51382052  0.75058344  1
  Cl  Cl37  1  0.49317285  0.01382052  0.74941656  1
  Cl  Cl38  1  0.00682715  0.48617948  0.24941656  1
  Cl  Cl39  1  0.50682715  0.98617948  0.25058344  1
