# generated using pymatgen
data_TbSbMo2O9
_symmetry_space_group_name_H-M   'P 1'
_cell_length_a   9.71274448
_cell_length_b   9.71274448
_cell_length_c   10.87340685
_cell_angle_alpha   111.93185320
_cell_angle_beta   111.93185320
_cell_angle_gamma   95.20363536
_symmetry_Int_Tables_number   1
_chemical_formula_structural   TbSbMo2O9
_chemical_formula_sum   'Tb4 Sb4 Mo8 O36'
_cell_volume   850.49764152
_cell_formula_units_Z   4
loop_
 _symmetry_equiv_pos_site_id
 _symmetry_equiv_pos_as_xyz
  1  'x, y, z'
loop_
 _atom_site_type_symbol
 _atom_site_label
 _atom_site_symmetry_multiplicity
 _atom_site_fract_x
 _atom_site_fract_y
 _atom_site_fract_z
 _atom_site_occupancy
  Tb  Tb0  1  0.67149308  0.32850692  0.25000000  1
  Tb  Tb1  1  0.32850692  0.67149308  0.75000000  1
  Tb  Tb2  1  0.12535139  0.87464861  0.25000000  1
  Tb  Tb3  1  0.87464861  0.12535139  0.75000000  1
  Sb  Sb4  1  0.65144114  0.61781026  0.03532310  1
  Sb  Sb5  1  0.38218974  0.34855886  0.46467690  1
  Sb  Sb6  1  0.34855886  0.38218974  0.96467690  1
  Sb  Sb7  1  0.61781026  0.65144114  0.53532310  1
  Mo  Mo8  1  0.04700868  0.25996379  0.52682906  1
  Mo  Mo9  1  0.74003621  0.95299132  0.97317094  1
  Mo  Mo10  1  0.95299132  0.74003621  0.47317094  1
  Mo  Mo11  1  0.25996379  0.04700868  0.02682906  1
  Mo  Mo12  1  0.05900475  0.43415722  0.19450266  1
  Mo  Mo13  1  0.56584278  0.94099525  0.30549734  1
  Mo  Mo14  1  0.94099525  0.56584278  0.80549734  1
  Mo  Mo15  1  0.43415722  0.05900475  0.69450266  1
  O  O16  1  0.06488987  0.09496007  0.39808985  1
  O  O17  1  0.90503993  0.93511013  0.10191015  1
  O  O18  1  0.93511013  0.90503993  0.60191015  1
  O  O19  1  0.09496007  0.06488987  0.89808985  1
  O  O20  1  0.87053354  0.29974560  0.43513827  1
  O  O21  1  0.70025440  0.12946646  0.06486173  1
  O  O22  1  0.12946646  0.70025440  0.56486173  1
  O  O23  1  0.29974560  0.87053354  0.93513827  1
  O  O24  1  0.04547106  0.22177346  0.67608140  1
  O  O25  1  0.77822654  0.95452894  0.82391860  1
  O  O26  1  0.95452894  0.77822654  0.32391860  1
  O  O27  1  0.22177346  0.04547106  0.17608140  1
  O  O28  1  0.77741991  0.59552928  0.42063494  1
  O  O29  1  0.40447072  0.22258009  0.07936506  1
  O  O30  1  0.22258009  0.40447072  0.57936506  1
  O  O31  1  0.59552928  0.77741991  0.92063494  1
  O  O32  1  0.97917107  0.30429085  0.00398101  1
  O  O33  1  0.69570915  0.02082893  0.49601899  1
  O  O34  1  0.02082893  0.69570915  0.99601899  1
  O  O35  1  0.30429085  0.97917107  0.50398101  1
  O  O36  1  0.14484031  0.62004596  0.22562553  1
  O  O37  1  0.37995404  0.85515969  0.27437447  1
  O  O38  1  0.85515969  0.37995404  0.77437447  1
  O  O39  1  0.62004596  0.14484031  0.72562553  1
  O  O40  1  0.90847103  0.44500234  0.25145614  1
  O  O41  1  0.55499766  0.09152897  0.24854386  1
  O  O42  1  0.09152897  0.55499766  0.74854386  1
  O  O43  1  0.44500234  0.90847103  0.75145614  1
  O  O44  1  0.21027197  0.36577824  0.30014814  1
  O  O45  1  0.63422176  0.78972803  0.19985186  1
  O  O46  1  0.78972803  0.63422176  0.69985186  1
  O  O47  1  0.36577824  0.21027197  0.80014814  1
  O  O48  1  0.57600867  0.45974439  0.10165504  1
  O  O49  1  0.54025561  0.42399133  0.39834496  1
  O  O50  1  0.42399133  0.54025561  0.89834496  1
  O  O51  1  0.45974439  0.57600867  0.60165504  1
