# generated using pymatgen
data_Li5Nb2Ni5O12
_symmetry_space_group_name_H-M   'P 1'
_cell_length_a   5.24169847
_cell_length_b   5.24169853
_cell_length_c   10.03261891
_cell_angle_alpha   84.28762908
_cell_angle_beta   95.71236851
_cell_angle_gamma   58.55082488
_symmetry_Int_Tables_number   1
_chemical_formula_structural   Li5Nb2Ni5O12
_chemical_formula_sum   'Li5 Nb2 Ni5 O12'
_cell_volume   230.23530520
_cell_formula_units_Z   1
loop_
 _symmetry_equiv_pos_site_id
 _symmetry_equiv_pos_as_xyz
  1  'x, y, z'
loop_
 _atom_site_type_symbol
 _atom_site_label
 _atom_site_symmetry_multiplicity
 _atom_site_fract_x
 _atom_site_fract_y
 _atom_site_fract_z
 _atom_site_occupancy
  Li  Li0  1  0.18216240  0.68154932  0.50467267  1
  Li  Li1  1  0.31671511  0.82554704  0.99464280  1
  Li  Li2  1  0.68154932  0.18216240  0.99532733  1
  Li  Li3  1  0.82554704  0.31671511  0.50535720  1
  Li  Li4  1  0.92161180  0.92161180  0.75000000  1
  Nb  Nb5  1  0.25347790  0.25347790  0.75000000  1
  Nb  Nb6  1  0.74732206  0.74732206  0.25000000  1
  Ni  Ni7  1  0.07797863  0.07797863  0.25000000  1
  Ni  Ni8  1  0.99613022  0.50686207  0.99699657  1
  Ni  Ni9  1  0.50686207  0.99613022  0.50300343  1
  Ni  Ni10  1  0.41712867  0.41712867  0.25000000  1
  Ni  Ni11  1  0.58266350  0.58266350  0.75000000  1
  O  O12  1  0.97078113  0.22154763  0.87084245  1
  O  O13  1  0.22154763  0.97078113  0.62915755  1
  O  O14  1  0.12147995  0.37385916  0.36776296  1
  O  O15  1  0.37385916  0.12147995  0.13223704  1
  O  O16  1  0.29134145  0.52730706  0.86912853  1
  O  O17  1  0.52730706  0.29134145  0.63087147  1
  O  O18  1  0.46169100  0.70738980  0.37330177  1
  O  O19  1  0.70738980  0.46169100  0.12669823  1
  O  O20  1  0.61364272  0.88031152  0.86962314  1
  O  O21  1  0.88031152  0.61364272  0.63037686  1
  O  O22  1  0.78826085  0.03323901  0.37408272  1
  O  O23  1  0.03323901  0.78826085  0.12591728  1
