# generated using pymatgen
data_Dy2GaB13H10C4O29
_symmetry_space_group_name_H-M   'P 1'
_cell_length_a   8.57213380
_cell_length_b   10.59689954
_cell_length_c   17.52796964
_cell_angle_alpha   104.91799658
_cell_angle_beta   90.00000000
_cell_angle_gamma   113.85755790
_symmetry_Int_Tables_number   1
_chemical_formula_structural   Dy2GaB13H10C4O29
_chemical_formula_sum   'Dy4 Ga2 B26 H20 C8 O58'
_cell_volume   1397.27813771
_cell_formula_units_Z   2
loop_
 _symmetry_equiv_pos_site_id
 _symmetry_equiv_pos_as_xyz
  1  'x, y, z'
loop_
 _atom_site_type_symbol
 _atom_site_label
 _atom_site_symmetry_multiplicity
 _atom_site_fract_x
 _atom_site_fract_y
 _atom_site_fract_z
 _atom_site_occupancy
  Dy  Dy0  1  0.48703252  0.31224036  0.31281019  1
  Dy  Dy1  1  0.17479216  0.68775964  0.18718981  1
  Dy  Dy2  1  0.51296748  0.68775964  0.68718981  1
  Dy  Dy3  1  0.82520784  0.31224036  0.81281019  1
  Ga  Ga4  1  -0.00000000  0.50000000  -0.00000000  1
  Ga  Ga5  1  0.50000000  0.50000000  0.50000000  1
  B  B6  1  0.61631454  0.87555032  0.24975095  1
  B  B7  1  0.74076422  0.12444968  0.25024905  1
  B  B8  1  0.38368546  0.12444968  0.75024905  1
  B  B9  1  0.25923578  0.87555032  0.74975095  1
  B  B10  1  0.42556649  -0.00000000  0.25000000  1
  B  B11  1  0.57443351  -0.00000000  0.75000000  1
  B  B12  1  0.22128820  0.01133368  0.15216268  1
  B  B13  1  0.20995452  0.98866632  0.34783732  1
  B  B14  1  0.77871180  0.98866632  0.84783732  1
  B  B15  1  0.79004548  0.01133368  0.65216268  1
  B  B16  1  0.03220053  0.80008416  0.04333773  1
  B  B17  1  0.23211638  0.19991584  0.45666227  1
  B  B18  1  0.96779947  0.19991584  0.95666227  1
  B  B19  1  0.76788362  0.80008416  0.54333773  1
  B  B20  1  0.90604679  0.65783662  0.90332211  1
  B  B21  1  0.24821017  0.34216338  0.59667789  1
  B  B22  1  0.09395321  0.34216338  0.09667789  1
  B  B23  1  0.75178983  0.65783662  0.40332211  1
  B  B24  1  0.78572973  0.55477069  0.75955661  1
  B  B25  1  0.23095904  0.44522931  0.74044339  1
  B  B26  1  0.21427027  0.44522931  0.24044339  1
  B  B27  1  0.76904096  0.55477069  0.25955661  1
  B  B28  1  0.09222993  0.61525068  0.73647891  1
  B  B29  1  0.47697925  0.38474932  0.76352109  1
  B  B30  1  0.90777007  0.38474932  0.26352109  1
  B  B31  1  0.52302075  0.61525068  0.23647891  1
  H  H32  1  0.22463106  0.21208787  0.16946999  1
  H  H33  1  0.01254319  0.78791213  0.33053001  1
  H  H34  1  0.77536894  0.78791213  0.83053001  1
  H  H35  1  0.98745681  0.21208787  0.66946999  1
  H  H36  1  0.73082546  0.54113542  0.64441093  1
  H  H37  1  0.18969004  0.45886458  0.85558907  1
  H  H38  1  0.26917454  0.45886458  0.35558907  1
  H  H39  1  0.81030996  0.54113542  0.14441093  1
  H  H40  1  0.88950012  0.23234499  0.46554198  1
  H  H41  1  0.65715514  0.76765501  0.03445802  1
  H  H42  1  0.11049988  0.76765501  0.53445802  1
  H  H43  1  0.34284486  0.23234499  0.96554198  1
  H  H44  1  0.96547373  0.40020069  0.54239870  1
  H  H45  1  0.56527304  0.59979931  0.95760130  1
  H  H46  1  0.03452627  0.59979931  0.45760130  1
  H  H47  1  0.43472696  0.40020069  0.04239870  1
  H  H48  1  0.79537696  0.24819312  0.55683819  1
  H  H49  1  0.54718384  0.75180688  0.94316181  1
  H  H50  1  0.20462304  0.75180688  0.44316181  1
  H  H51  1  0.45281616  0.24819312  0.05683819  1
  C  C52  1  0.72466065  0.34420739  0.47759063  1
  C  C53  1  0.38045326  0.65579261  0.02240937  1
  C  C54  1  0.27533935  0.65579261  0.52240937  1
  C  C55  1  0.61954674  0.34420739  0.97759063  1
  C  C56  1  0.85190272  0.30257026  0.51160181  1
  C  C57  1  0.54933246  0.69742974  0.98839819  1
  C  C58  1  0.14809728  0.69742974  0.48839819  1
  C  C59  1  0.45066754  0.30257026  0.01160181  1
  O  O60  1  0.75763716  -0.00000000  0.25000000  1
  O  O61  1  0.24236284  -0.00000000  0.75000000  1
  O  O62  1  0.45738239  0.87831596  0.25933559  1
  O  O63  1  0.57906643  0.12168404  0.24066441  1
  O  O64  1  0.54261761  0.12168404  0.74066441  1
  O  O65  1  0.42093357  0.87831596  0.75933559  1
  O  O66  1  0.29256269  0.93444542  0.18086626  1
  O  O67  1  0.35811726  0.06555458  0.31913374  1
  O  O68  1  0.70743731  0.06555458  0.81913374  1
  O  O69  1  0.64188274  0.93444542  0.68086626  1
  O  O70  1  0.28533381  0.15780761  0.18800284  1
  O  O71  1  0.12752619  0.84219239  0.31199716  1
  O  O72  1  0.71466619  0.84219239  0.81199716  1
  O  O73  1  0.87247381  0.15780761  0.68800284  1
  O  O74  1  0.09494261  0.94336348  0.08962497  1
  O  O75  1  0.15157913  0.05663652  0.41037503  1
  O  O76  1  0.90505739  0.05663652  0.91037503  1
  O  O77  1  0.84842087  0.94336348  0.58962497  1
  O  O78  1  0.04293683  0.69403582  0.07060190  1
  O  O79  1  0.34890100  0.30596418  0.42939810  1
  O  O80  1  0.95706317  0.30596418  0.92939810  1
  O  O81  1  0.65109900  0.69403582  0.57060190  1
  O  O82  1  0.95801257  0.77788229  0.96814388  1
  O  O83  1  0.18013028  0.22211771  0.53185612  1
  O  O84  1  0.04198743  0.22211771  0.03185612  1
  O  O85  1  0.81986972  0.77788229  0.46814388  1
  O  O86  1  0.92849891  0.53742175  0.90385427  1
  O  O87  1  0.39107716  0.46257825  0.59614573  1
  O  O88  1  0.07150109  0.46257825  0.09614573  1
  O  O89  1  0.60892284  0.53742175  0.40385427  1
  O  O90  1  0.93050502  0.51284996  0.73855181  1
  O  O91  1  0.41765506  0.48715004  0.76144819  1
  O  O92  1  0.06949498  0.48715004  0.26144819  1
  O  O93  1  0.58234494  0.51284996  0.23855181  1
  O  O94  1  0.23286935  0.58276816  0.73089987  1
  O  O95  1  0.65010119  0.41723184  0.76910013  1
  O  O96  1  0.76713065  0.41723184  0.26910013  1
  O  O97  1  0.34989881  0.58276816  0.23089987  1
  O  O98  1  0.11250546  0.75339608  0.74171087  1
  O  O99  1  0.35910938  0.24660392  0.75828913  1
  O  O100  1  0.88749454  0.24660392  0.25828913  1
  O  O101  1  0.64089062  0.75339608  0.24171087  1
  O  O102  1  0.67707544  0.29776920  0.40357567  1
  O  O103  1  0.37930625  0.70223080  0.09642433  1
  O  O104  1  0.32292456  0.70223080  0.59642433  1
  O  O105  1  0.62069375  0.29776920  0.90357567  1
  O  O106  1  0.67222120  0.42681611  0.52798313  1
  O  O107  1  0.24540510  0.57318389  0.97201687  1
  O  O108  1  0.32777880  0.57318389  0.47201687  1
  O  O109  1  0.75459490  0.42681611  0.02798313  1
  O  O110  1  0.72930949  0.60128714  0.69745874  1
  O  O111  1  0.12802235  0.39871286  0.80254126  1
  O  O112  1  0.27069051  0.39871286  0.30254126  1
  O  O113  1  0.87197765  0.60128714  0.19745874  1
  O  O114  1  0.83032403  0.66672207  0.83603571  1
  O  O115  1  0.16360195  0.33327793  0.66396429  1
  O  O116  1  0.16967597  0.33327793  0.16396429  1
  O  O117  1  0.83639805  0.66672207  0.33603571  1
