# generated using pymatgen
data_Fe4P3H4NO12
_symmetry_space_group_name_H-M   'P 1'
_cell_length_a   6.33183449
_cell_length_b   9.94523147
_cell_length_c   16.96144905
_cell_angle_alpha   90.00000000
_cell_angle_beta   90.00000000
_cell_angle_gamma   90.00000000
_symmetry_Int_Tables_number   1
_chemical_formula_structural   Fe4P3H4NO12
_chemical_formula_sum   'Fe16 P12 H16 N4 O48'
_cell_volume   1068.08890031
_cell_formula_units_Z   4
loop_
 _symmetry_equiv_pos_site_id
 _symmetry_equiv_pos_as_xyz
  1  'x, y, z'
loop_
 _atom_site_type_symbol
 _atom_site_label
 _atom_site_symmetry_multiplicity
 _atom_site_fract_x
 _atom_site_fract_y
 _atom_site_fract_z
 _atom_site_occupancy
  Fe  Fe0  1  0.50000000  0.03458683  0.40574389  1
  Fe  Fe1  1  0.50000000  0.96541317  0.59425611  1
  Fe  Fe2  1  0.00000000  0.53458683  0.09425611  1
  Fe  Fe3  1  0.00000000  0.46541317  0.90574389  1
  Fe  Fe4  1  0.50000000  0.48624276  0.36205189  1
  Fe  Fe5  1  0.50000000  0.51375724  0.63794811  1
  Fe  Fe6  1  0.00000000  0.98624276  0.13794811  1
  Fe  Fe7  1  0.00000000  0.01375724  0.86205189  1
  Fe  Fe8  1  0.74903279  0.74798953  0.29594280  1
  Fe  Fe9  1  0.74903279  0.25201047  0.70405720  1
  Fe  Fe10  1  0.75096721  0.24798953  0.20405720  1
  Fe  Fe11  1  0.75096721  0.75201047  0.79594280  1
  Fe  Fe12  1  0.25096721  0.25201047  0.70405720  1
  Fe  Fe13  1  0.25096721  0.74798953  0.29594280  1
  Fe  Fe14  1  0.24903279  0.75201047  0.79594280  1
  Fe  Fe15  1  0.24903279  0.24798953  0.20405720  1
  P  P16  1  0.50000000  0.53899806  0.16759721  1
  P  P17  1  0.50000000  0.46100194  0.83240279  1
  P  P18  1  0.00000000  0.03899806  0.33240279  1
  P  P19  1  0.00000000  0.96100194  0.66759721  1
  P  P20  1  0.50000000  0.95916179  0.21516943  1
  P  P21  1  0.50000000  0.04083821  0.78483057  1
  P  P22  1  0.00000000  0.45916179  0.28483057  1
  P  P23  1  0.00000000  0.54083821  0.71516943  1
  P  P24  1  0.50000000  0.71170807  0.46220103  1
  P  P25  1  0.50000000  0.28829193  0.53779897  1
  P  P26  1  0.00000000  0.21170807  0.03779897  1
  P  P27  1  0.00000000  0.78829193  0.96220103  1
  H  H28  1  0.50000000  0.69280990  0.03499008  1
  H  H29  1  0.50000000  0.30719010  0.96500992  1
  H  H30  1  0.00000000  0.19280990  0.46500992  1
  H  H31  1  0.00000000  0.80719010  0.53499008  1
  H  H32  1  0.50000000  0.82738217  0.97415155  1
  H  H33  1  0.50000000  0.17261783  0.02584845  1
  H  H34  1  0.00000000  0.32738217  0.52584845  1
  H  H35  1  0.00000000  0.67261783  0.47415155  1
  H  H36  1  0.63300225  0.82997289  0.06132309  1
  H  H37  1  0.63300225  0.17002711  0.93867691  1
  H  H38  1  0.86699775  0.32997289  0.43867691  1
  H  H39  1  0.86699775  0.67002711  0.56132309  1
  H  H40  1  0.36699775  0.17002711  0.93867691  1
  H  H41  1  0.36699775  0.82997289  0.06132309  1
  H  H42  1  0.13300225  0.67002711  0.56132309  1
  H  H43  1  0.13300225  0.32997289  0.43867691  1
  N  N44  1  0.50000000  0.79631186  0.03202267  1
  N  N45  1  0.50000000  0.20368814  0.96797733  1
  N  N46  1  0.00000000  0.29631186  0.46797733  1
  N  N47  1  0.00000000  0.70368814  0.53202267  1
  O  O48  1  0.50000000  0.61570060  0.81588447  1
  O  O49  1  0.50000000  0.38429940  0.18411553  1
  O  O50  1  0.00000000  0.11570060  0.68411553  1
  O  O51  1  0.00000000  0.88429940  0.31588447  1
  O  O52  1  0.50000000  0.11482164  0.22386003  1
  O  O53  1  0.50000000  0.88517836  0.77613997  1
  O  O54  1  0.00000000  0.61482164  0.27613997  1
  O  O55  1  0.00000000  0.38517836  0.72386003  1
  O  O56  1  0.69903288  0.58062822  0.12252744  1
  O  O57  1  0.69903288  0.41937178  0.87747256  1
  O  O58  1  0.80096712  0.08062822  0.37747256  1
  O  O59  1  0.80096712  0.91937178  0.62252744  1
  O  O60  1  0.30096712  0.41937178  0.87747256  1
  O  O61  1  0.30096712  0.58062822  0.12252744  1
  O  O62  1  0.19903288  0.91937178  0.62252744  1
  O  O63  1  0.19903288  0.08062822  0.37747256  1
  O  O64  1  0.50000000  0.89492962  0.30067931  1
  O  O65  1  0.50000000  0.10507038  0.69932069  1
  O  O66  1  0.00000000  0.39492962  0.19932069  1
  O  O67  1  0.00000000  0.60507038  0.80067931  1
  O  O68  1  0.50000000  0.61472799  0.25105181  1
  O  O69  1  0.50000000  0.38527201  0.74894819  1
  O  O70  1  0.00000000  0.11472799  0.24894819  1
  O  O71  1  0.00000000  0.88527201  0.75105181  1
  O  O72  1  0.50000000  0.36050973  0.45832816  1
  O  O73  1  0.50000000  0.63949027  0.54167184  1
  O  O74  1  0.00000000  0.86050973  0.04167184  1
  O  O75  1  0.00000000  0.13949027  0.95832816  1
  O  O76  1  0.69524384  0.66900156  0.40993861  1
  O  O77  1  0.69524384  0.33099844  0.59006139  1
  O  O78  1  0.80475616  0.16900156  0.09006139  1
  O  O79  1  0.80475616  0.83099844  0.90993861  1
  O  O80  1  0.30475616  0.33099844  0.59006139  1
  O  O81  1  0.30475616  0.66900156  0.40993861  1
  O  O82  1  0.19524384  0.83099844  0.90993861  1
  O  O83  1  0.19524384  0.16900156  0.09006139  1
  O  O84  1  0.70376807  0.90681283  0.17562191  1
  O  O85  1  0.70376807  0.09318717  0.82437809  1
  O  O86  1  0.79623193  0.40681283  0.32437809  1
  O  O87  1  0.79623193  0.59318717  0.67562191  1
  O  O88  1  0.29623193  0.09318717  0.82437809  1
  O  O89  1  0.29623193  0.90681283  0.17562191  1
  O  O90  1  0.20376807  0.59318717  0.67562191  1
  O  O91  1  0.20376807  0.40681283  0.32437809  1
  O  O92  1  0.50000000  0.86574290  0.47888404  1
  O  O93  1  0.50000000  0.13425710  0.52111596  1
  O  O94  1  0.00000000  0.36574290  0.02111596  1
  O  O95  1  0.00000000  0.63425710  0.97888404  1
