# generated using pymatgen
data_Ho11Cd45
_symmetry_space_group_name_H-M   'P 1'
_cell_length_a   15.34883295
_cell_length_b   15.34883295
_cell_length_c   15.34883295
_cell_angle_alpha   60.00000000
_cell_angle_beta   60.00000000
_cell_angle_gamma   60.00000000
_symmetry_Int_Tables_number   1
_chemical_formula_structural   Ho11Cd45
_chemical_formula_sum   'Ho22 Cd90'
_cell_volume   2556.88432212
_cell_formula_units_Z   2
loop_
 _symmetry_equiv_pos_site_id
 _symmetry_equiv_pos_as_xyz
  1  'x, y, z'
loop_
 _atom_site_type_symbol
 _atom_site_label
 _atom_site_symmetry_multiplicity
 _atom_site_fract_x
 _atom_site_fract_y
 _atom_site_fract_z
 _atom_site_occupancy
  Ho  Ho0  1  -0.00000000  0.00000000  -0.00000000  1
  Ho  Ho1  1  0.36147014  0.66610437  0.98621275  1
  Ho  Ho2  1  0.36147014  0.98621275  0.98621275  1
  Ho  Ho3  1  0.36147014  0.98621275  0.66610437  1
  Ho  Ho4  1  0.66610437  0.36147014  0.98621275  1
  Ho  Ho5  1  0.98621275  0.36147014  0.66610437  1
  Ho  Ho6  1  0.98621275  0.36147014  0.98621275  1
  Ho  Ho7  1  0.98621275  0.98621275  0.36147014  1
  Ho  Ho8  1  0.98621275  0.66610437  0.36147014  1
  Ho  Ho9  1  0.66610437  0.98621275  0.36147014  1
  Ho  Ho10  1  0.98621275  0.98621275  0.66610437  1
  Ho  Ho11  1  0.66610437  0.98621275  0.98621275  1
  Ho  Ho12  1  0.98621275  0.66610437  0.98621275  1
  Ho  Ho13  1  0.75000000  0.75000000  0.75000000  1
  Ho  Ho14  1  0.21876987  0.59374338  0.59374338  1
  Ho  Ho15  1  0.59374338  0.21876987  0.59374338  1
  Ho  Ho16  1  0.59374338  0.59374338  0.21876987  1
  Ho  Ho17  1  0.59374338  0.59374338  0.59374338  1
  Ho  Ho18  1  0.98586571  0.33804476  0.33804476  1
  Ho  Ho19  1  0.33804476  0.98586571  0.33804476  1
  Ho  Ho20  1  0.33804476  0.33804476  0.98586571  1
  Ho  Ho21  1  0.33804476  0.33804476  0.33804476  1
  Cd  Cd22  1  0.24972540  0.91675820  0.91675820  1
  Cd  Cd23  1  0.91675820  0.24972540  0.91675820  1
  Cd  Cd24  1  0.91675820  0.91675820  0.24972540  1
  Cd  Cd25  1  0.91675820  0.91675820  0.91675820  1
  Cd  Cd26  1  0.73976709  0.08674430  0.08674430  1
  Cd  Cd27  1  0.08674430  0.73976709  0.08674430  1
  Cd  Cd28  1  0.08674430  0.08674430  0.73976709  1
  Cd  Cd29  1  0.08674430  0.08674430  0.08674430  1
  Cd  Cd30  1  0.15633633  0.84366367  0.84366367  1
  Cd  Cd31  1  0.15633633  0.84366367  0.15633633  1
  Cd  Cd32  1  0.15633633  0.15633633  0.84366367  1
  Cd  Cd33  1  0.84366367  0.15633633  0.15633633  1
  Cd  Cd34  1  0.84366367  0.15633633  0.84366367  1
  Cd  Cd35  1  0.84366367  0.84366367  0.15633633  1
  Cd  Cd36  1  0.98228074  0.79887165  0.60942381  1
  Cd  Cd37  1  0.98228074  0.60942381  0.60942381  1
  Cd  Cd38  1  0.98228074  0.60942381  0.79887165  1
  Cd  Cd39  1  0.79887165  0.98228074  0.60942381  1
  Cd  Cd40  1  0.60942381  0.98228074  0.79887165  1
  Cd  Cd41  1  0.60942381  0.98228074  0.60942381  1
  Cd  Cd42  1  0.60942381  0.60942381  0.98228074  1
  Cd  Cd43  1  0.60942381  0.79887165  0.98228074  1
  Cd  Cd44  1  0.79887165  0.60942381  0.98228074  1
  Cd  Cd45  1  0.60942381  0.60942381  0.79887165  1
  Cd  Cd46  1  0.79887165  0.60942381  0.60942381  1
  Cd  Cd47  1  0.60942381  0.79887165  0.60942381  1
  Cd  Cd48  1  0.49054686  0.83648438  0.83648438  1
  Cd  Cd49  1  0.83648438  0.49054686  0.83648438  1
  Cd  Cd50  1  0.83648438  0.83648438  0.49054686  1
  Cd  Cd51  1  0.83648438  0.83648438  0.83648438  1
  Cd  Cd52  1  0.13829106  0.38810051  0.73680421  1
  Cd  Cd53  1  0.13829106  0.73680421  0.73680421  1
  Cd  Cd54  1  0.13829106  0.73680421  0.38810051  1
  Cd  Cd55  1  0.38810051  0.13829106  0.73680421  1
  Cd  Cd56  1  0.73680421  0.13829106  0.38810051  1
  Cd  Cd57  1  0.73680421  0.13829106  0.73680421  1
  Cd  Cd58  1  0.73680421  0.73680421  0.13829106  1
  Cd  Cd59  1  0.73680421  0.38810051  0.13829106  1
  Cd  Cd60  1  0.38810051  0.73680421  0.13829106  1
  Cd  Cd61  1  0.73680421  0.73680421  0.38810051  1
  Cd  Cd62  1  0.38810051  0.73680421  0.73680421  1
  Cd  Cd63  1  0.73680421  0.38810051  0.73680421  1
  Cd  Cd64  1  0.50000000  0.50000000  0.50000000  1
  Cd  Cd65  1  0.73125981  0.54958577  0.35957721  1
  Cd  Cd66  1  0.73125981  0.35957721  0.35957721  1
  Cd  Cd67  1  0.73125981  0.35957721  0.54958577  1
  Cd  Cd68  1  0.54958577  0.73125981  0.35957721  1
  Cd  Cd69  1  0.35957721  0.73125981  0.54958577  1
  Cd  Cd70  1  0.35957721  0.73125981  0.35957721  1
  Cd  Cd71  1  0.35957721  0.35957721  0.73125981  1
  Cd  Cd72  1  0.35957721  0.54958577  0.73125981  1
  Cd  Cd73  1  0.54958577  0.35957721  0.73125981  1
  Cd  Cd74  1  0.35957721  0.35957721  0.54958577  1
  Cd  Cd75  1  0.54958577  0.35957721  0.35957721  1
  Cd  Cd76  1  0.35957721  0.54958577  0.35957721  1
  Cd  Cd77  1  0.85852083  0.16619677  0.48764120  1
  Cd  Cd78  1  0.85852083  0.48764120  0.48764120  1
  Cd  Cd79  1  0.85852083  0.48764120  0.16619677  1
  Cd  Cd80  1  0.16619677  0.85852083  0.48764120  1
  Cd  Cd81  1  0.48764120  0.85852083  0.16619677  1
  Cd  Cd82  1  0.48764120  0.85852083  0.48764120  1
  Cd  Cd83  1  0.48764120  0.48764120  0.85852083  1
  Cd  Cd84  1  0.48764120  0.16619677  0.85852083  1
  Cd  Cd85  1  0.16619677  0.48764120  0.85852083  1
  Cd  Cd86  1  0.48764120  0.48764120  0.16619677  1
  Cd  Cd87  1  0.16619677  0.48764120  0.48764120  1
  Cd  Cd88  1  0.48764120  0.16619677  0.48764120  1
  Cd  Cd89  1  0.25000000  0.25000000  0.25000000  1
  Cd  Cd90  1  0.49006122  0.16997959  0.16997959  1
  Cd  Cd91  1  0.16997959  0.49006122  0.16997959  1
  Cd  Cd92  1  0.16997959  0.16997959  0.49006122  1
  Cd  Cd93  1  0.16997959  0.16997959  0.16997959  1
  Cd  Cd94  1  0.41099615  0.08900385  0.08900385  1
  Cd  Cd95  1  0.41099615  0.08900385  0.41099615  1
  Cd  Cd96  1  0.41099615  0.41099615  0.08900385  1
  Cd  Cd97  1  0.08900385  0.41099615  0.41099615  1
  Cd  Cd98  1  0.08900385  0.41099615  0.08900385  1
  Cd  Cd99  1  0.08900385  0.08900385  0.41099615  1
  Cd  Cd100  1  0.59536883  0.93249363  0.23606877  1
  Cd  Cd101  1  0.59536883  0.23606877  0.23606877  1
  Cd  Cd102  1  0.59536883  0.23606877  0.93249363  1
  Cd  Cd103  1  0.93249363  0.59536883  0.23606877  1
  Cd  Cd104  1  0.23606877  0.59536883  0.93249363  1
  Cd  Cd105  1  0.23606877  0.59536883  0.23606877  1
  Cd  Cd106  1  0.23606877  0.23606877  0.59536883  1
  Cd  Cd107  1  0.23606877  0.93249363  0.59536883  1
  Cd  Cd108  1  0.93249363  0.23606877  0.59536883  1
  Cd  Cd109  1  0.23606877  0.23606877  0.93249363  1
  Cd  Cd110  1  0.93249363  0.23606877  0.23606877  1
  Cd  Cd111  1  0.23606877  0.93249363  0.23606877  1
