# generated using pymatgen
data_P2H10N6O
_symmetry_space_group_name_H-M   'P 1'
_cell_length_a   9.88280792
_cell_length_b   10.39920595
_cell_length_c   14.87765519
_cell_angle_alpha   111.01141902
_cell_angle_beta   90.00000000
_cell_angle_gamma   90.00000000
_symmetry_Int_Tables_number   1
_chemical_formula_structural   P2H10N6O
_chemical_formula_sum   'P16 H80 N48 O8'
_cell_volume   1427.36001211
_cell_formula_units_Z   8
loop_
 _symmetry_equiv_pos_site_id
 _symmetry_equiv_pos_as_xyz
  1  'x, y, z'
loop_
 _atom_site_type_symbol
 _atom_site_label
 _atom_site_symmetry_multiplicity
 _atom_site_fract_x
 _atom_site_fract_y
 _atom_site_fract_z
 _atom_site_occupancy
  P  P0  1  0.73690837  0.16720534  0.67515245  1
  P  P1  1  0.23690837  0.33279466  0.32484755  1
  P  P2  1  0.26309163  0.83279466  0.32484755  1
  P  P3  1  0.76309163  0.66720534  0.67515245  1
  P  P4  1  0.68477218  0.39701014  0.85253746  1
  P  P5  1  0.18477218  0.10298986  0.14746254  1
  P  P6  1  0.31522782  0.60298986  0.14746254  1
  P  P7  1  0.81522782  0.89701014  0.85253746  1
  P  P8  1  0.79785490  0.71455450  0.17301007  1
  P  P9  1  0.29785490  0.78544550  0.82698993  1
  P  P10  1  0.20214510  0.28544550  0.82698993  1
  P  P11  1  0.70214510  0.21455450  0.17301007  1
  P  P12  1  0.80729498  0.92821681  0.36544906  1
  P  P13  1  0.30729498  0.57178319  0.63455094  1
  P  P14  1  0.19270502  0.07178319  0.63455094  1
  P  P15  1  0.69270502  0.42821681  0.36544906  1
  H  H16  1  0.60410111  0.13897028  0.54227439  1
  H  H17  1  0.10410111  0.36102972  0.45772561  1
  H  H18  1  0.39589889  0.86102972  0.45772561  1
  H  H19  1  0.89589889  0.63897028  0.54227439  1
  H  H20  1  0.53972513  0.25709526  0.64103904  1
  H  H21  1  0.03972513  0.24290474  0.35896096  1
  H  H22  1  0.46027487  0.74290474  0.35896096  1
  H  H23  1  0.96027487  0.75709526  0.64103904  1
  H  H24  1  0.94548408  0.25127792  0.65879342  1
  H  H25  1  0.44548408  0.24872208  0.34120658  1
  H  H26  1  0.05451592  0.74872208  0.34120658  1
  H  H27  1  0.55451592  0.75127792  0.65879342  1
  H  H28  1  0.81985199  0.34887554  0.63964145  1
  H  H29  1  0.31985199  0.15112446  0.36035855  1
  H  H30  1  0.18014801  0.65112446  0.36035855  1
  H  H31  1  0.68014801  0.84887554  0.63964145  1
  H  H32  1  0.59912181  0.51717534  0.76533117  1
  H  H33  1  0.09912181  0.98282466  0.23466883  1
  H  H34  1  0.40087819  0.48282466  0.23466883  1
  H  H35  1  0.90087819  0.01717534  0.76533117  1
  H  H36  1  0.47137767  0.45867832  0.81884857  1
  H  H37  1  0.97137767  0.04132168  0.18115143  1
  H  H38  1  0.52862233  0.54132168  0.18115143  1
  H  H39  1  0.02862233  0.95867832  0.81884857  1
  H  H40  1  0.67598644  0.31352617  0.97390272  1
  H  H41  1  0.17598644  0.18647383  0.02609728  1
  H  H42  1  0.32401356  0.68647383  0.02609728  1
  H  H43  1  0.82401356  0.81352617  0.97390272  1
  H  H44  1  0.63684021  0.48063655  0.01477145  1
  H  H45  1  0.13684021  0.01936345  0.98522855  1
  H  H46  1  0.36315979  0.51936345  0.98522855  1
  H  H47  1  0.86315979  0.98063655  0.01477145  1
  H  H48  1  0.91328201  0.44011817  0.85654322  1
  H  H49  1  0.41328201  0.05988183  0.14345678  1
  H  H50  1  0.08671799  0.55988183  0.14345678  1
  H  H51  1  0.58671799  0.94011817  0.85654322  1
  H  H52  1  0.82071607  0.56908578  0.83482382  1
  H  H53  1  0.32071607  0.93091422  0.16517618  1
  H  H54  1  0.17928393  0.43091422  0.16517618  1
  H  H55  1  0.67928393  0.06908578  0.83482382  1
  H  H56  1  0.70548140  0.89947725  0.13995378  1
  H  H57  1  0.20548140  0.60052275  0.86004622  1
  H  H58  1  0.29451860  0.10052275  0.86004622  1
  H  H59  1  0.79451860  0.39947725  0.13995378  1
  H  H60  1  0.59118902  0.76911961  0.12400433  1
  H  H61  1  0.09118902  0.73088039  0.87599567  1
  H  H62  1  0.40881098  0.23088039  0.87599567  1
  H  H63  1  0.90881098  0.26911961  0.12400433  1
  H  H64  1  0.99354460  0.75189196  0.10552493  1
  H  H65  1  0.49354460  0.74810804  0.89447507  1
  H  H66  1  0.00645540  0.24810804  0.89447507  1
  H  H67  1  0.50645540  0.25189196  0.10552493  1
  H  H68  1  0.90945016  0.61568138  0.03009337  1
  H  H69  1  0.40945016  0.88431862  0.96990663  1
  H  H70  1  0.09054984  0.38431862  0.96990663  1
  H  H71  1  0.59054984  0.11568138  0.03009337  1
  H  H72  1  0.57972441  0.96050190  0.35716926  1
  H  H73  1  0.07972441  0.53949810  0.64283074  1
  H  H74  1  0.42027559  0.03949810  0.64283074  1
  H  H75  1  0.92027559  0.46050190  0.35716926  1
  H  H76  1  0.67111727  0.05514276  0.30544805  1
  H  H77  1  0.17111727  0.44485724  0.69455195  1
  H  H78  1  0.32888273  0.94485724  0.69455195  1
  H  H79  1  0.82888273  0.55514276  0.30544805  1
  H  H80  1  0.76520561  0.91474981  0.51752845  1
  H  H81  1  0.26520561  0.58525019  0.48247155  1
  H  H82  1  0.23479439  0.08525019  0.48247155  1
  H  H83  1  0.73479439  0.41474981  0.51752845  1
  H  H84  1  0.74551001  0.75785427  0.42335859  1
  H  H85  1  0.24551001  0.74214573  0.57664141  1
  H  H86  1  0.25448999  0.24214573  0.57664141  1
  H  H87  1  0.75448999  0.25785427  0.42335859  1
  H  H88  1  0.01827980  0.02328511  0.39455473  1
  H  H89  1  0.51827980  0.47671489  0.60544527  1
  H  H90  1  0.98172020  0.97671489  0.60544527  1
  H  H91  1  0.48172020  0.52328511  0.39455473  1
  H  H92  1  0.90469553  0.12086216  0.47604992  1
  H  H93  1  0.40469553  0.37913784  0.52395008  1
  H  H94  1  0.09530447  0.87913784  0.52395008  1
  H  H95  1  0.59530447  0.62086216  0.47604992  1
  N  N96  1  0.59193802  0.16613419  0.61519651  1
  N  N97  1  0.09193802  0.33386581  0.38480349  1
  N  N98  1  0.40806198  0.83386581  0.38480349  1
  N  N99  1  0.90806198  0.66613419  0.61519651  1
  N  N100  1  0.85016740  0.25047186  0.63085011  1
  N  N101  1  0.35016740  0.24952814  0.36914989  1
  N  N102  1  0.14983260  0.74952814  0.36914989  1
  N  N103  1  0.64983260  0.75047186  0.63085011  1
  N  N104  1  0.70322572  0.23731551  0.78800274  1
  N  N105  1  0.20322572  0.26268449  0.21199726  1
  N  N106  1  0.29677428  0.76268449  0.21199726  1
  N  N107  1  0.79677428  0.73731551  0.78800274  1
  N  N108  1  0.57060039  0.49047551  0.82269142  1
  N  N109  1  0.07060039  0.00952449  0.17730858  1
  N  N110  1  0.42939961  0.50952449  0.17730858  1
  N  N111  1  0.92939961  0.99047551  0.82269142  1
  N  N112  1  0.63223314  0.39051411  0.95664767  1
  N  N113  1  0.13223314  0.10948589  0.04335233  1
  N  N114  1  0.36776686  0.60948589  0.04335233  1
  N  N115  1  0.86776686  0.89051411  0.95664767  1
  N  N116  1  0.82278743  0.49126591  0.86221125  1
  N  N117  1  0.32278743  0.00873409  0.13778875  1
  N  N118  1  0.17721257  0.50873409  0.13778875  1
  N  N119  1  0.67721257  0.99126591  0.86221125  1
  N  N120  1  0.69038123  0.79582159  0.12456904  1
  N  N121  1  0.19038123  0.70417841  0.87543096  1
  N  N122  1  0.30961877  0.20417841  0.87543096  1
  N  N123  1  0.80961877  0.29582159  0.12456904  1
  N  N124  1  0.93491643  0.66851505  0.10062717  1
  N  N125  1  0.43491643  0.83148495  0.89937283  1
  N  N126  1  0.06508357  0.33148495  0.89937283  1
  N  N127  1  0.56508357  0.16851505  0.10062717  1
  N  N128  1  0.86641220  0.81525839  0.27148674  1
  N  N129  1  0.36641220  0.68474161  0.72851326  1
  N  N130  1  0.13358780  0.18474161  0.72851326  1
  N  N131  1  0.63358780  0.31525839  0.27148674  1
  N  N132  1  0.66745707  0.01444114  0.35886658  1
  N  N133  1  0.16745707  0.48555886  0.64113342  1
  N  N134  1  0.33254293  0.98555886  0.64113342  1
  N  N135  1  0.83254293  0.51444114  0.35886658  1
  N  N136  1  0.77714581  0.85722702  0.44571334  1
  N  N137  1  0.27714581  0.64277298  0.55428666  1
  N  N138  1  0.22285419  0.14277298  0.55428666  1
  N  N139  1  0.72285419  0.35722702  0.44571334  1
  N  N140  1  0.91915377  0.05507318  0.40603515  1
  N  N141  1  0.41915377  0.44492682  0.59396485  1
  N  N142  1  0.08084623  0.94492682  0.59396485  1
  N  N143  1  0.58084623  0.55507318  0.40603515  1
  O  O144  1  0.78919321  0.02095009  0.64965094  1
  O  O145  1  0.28919321  0.47904991  0.35034906  1
  O  O146  1  0.21080679  0.97904991  0.35034906  1
  O  O147  1  0.71080679  0.52095009  0.64965094  1
  O  O148  1  0.72744089  0.58553590  0.17411886  1
  O  O149  1  0.22744089  0.91446410  0.82588114  1
  O  O150  1  0.27255911  0.41446410  0.82588114  1
  O  O151  1  0.77255911  0.08553590  0.17411886  1
