# generated using pymatgen
data_Ba20Zn5Hg99
_symmetry_space_group_name_H-M   'P 1'
_cell_length_a   17.10467449
_cell_length_b   17.10467449
_cell_length_c   17.10467449
_cell_angle_alpha   60.00000000
_cell_angle_beta   60.00000000
_cell_angle_gamma   60.00000000
_symmetry_Int_Tables_number   1
_chemical_formula_structural   Ba20Zn5Hg99
_chemical_formula_sum   'Ba20 Zn5 Hg99'
_cell_volume   3538.58346062
_cell_formula_units_Z   1
loop_
 _symmetry_equiv_pos_site_id
 _symmetry_equiv_pos_as_xyz
  1  'x, y, z'
loop_
 _atom_site_type_symbol
 _atom_site_label
 _atom_site_symmetry_multiplicity
 _atom_site_fract_x
 _atom_site_fract_y
 _atom_site_fract_z
 _atom_site_occupancy
  Ba  Ba0  1  0.78985531  0.40338156  0.40338156  1
  Ba  Ba1  1  0.40338156  0.78985531  0.40338156  1
  Ba  Ba2  1  0.40338156  0.40338156  0.78985531  1
  Ba  Ba3  1  0.40338156  0.40338156  0.40338156  1
  Ba  Ba4  1  0.53148791  0.15617070  0.15617070  1
  Ba  Ba5  1  0.15617070  0.53148791  0.15617070  1
  Ba  Ba6  1  0.15617070  0.15617070  0.53148791  1
  Ba  Ba7  1  0.15617070  0.15617070  0.15617070  1
  Ba  Ba8  1  0.18514998  0.81485002  0.81485002  1
  Ba  Ba9  1  0.18514998  0.81485002  0.18514998  1
  Ba  Ba10  1  0.18514998  0.18514998  0.81485002  1
  Ba  Ba11  1  0.81485002  0.18514998  0.18514998  1
  Ba  Ba12  1  0.81485002  0.18514998  0.81485002  1
  Ba  Ba13  1  0.81485002  0.81485002  0.18514998  1
  Ba  Ba14  1  0.55137759  0.94862241  0.94862241  1
  Ba  Ba15  1  0.55137759  0.94862241  0.55137759  1
  Ba  Ba16  1  0.55137759  0.55137759  0.94862241  1
  Ba  Ba17  1  0.94862241  0.55137759  0.55137759  1
  Ba  Ba18  1  0.94862241  0.55137759  0.94862241  1
  Ba  Ba19  1  0.94862241  0.94862241  0.55137759  1
  Zn  Zn20  1  0.00000000  0.00000000  0.00000000  1
  Zn  Zn21  1  0.39255127  0.86914958  0.86914958  1
  Zn  Zn22  1  0.86914958  0.39255127  0.86914958  1
  Zn  Zn23  1  0.86914958  0.86914958  0.39255127  1
  Zn  Zn24  1  0.86914958  0.86914958  0.86914958  1
  Hg  Hg25  1  0.89165323  0.17374526  0.58235250  1
  Hg  Hg26  1  0.89165323  0.58235250  0.35224901  1
  Hg  Hg27  1  0.89165323  0.35224901  0.17374526  1
  Hg  Hg28  1  0.89165323  0.17374526  0.35224901  1
  Hg  Hg29  1  0.89165323  0.58235250  0.17374526  1
  Hg  Hg30  1  0.89165323  0.35224901  0.58235250  1
  Hg  Hg31  1  0.17374526  0.89165323  0.35224901  1
  Hg  Hg32  1  0.58235250  0.89165323  0.17374526  1
  Hg  Hg33  1  0.35224901  0.89165323  0.58235250  1
  Hg  Hg34  1  0.17374526  0.89165323  0.58235250  1
  Hg  Hg35  1  0.58235250  0.89165323  0.35224901  1
  Hg  Hg36  1  0.35224901  0.89165323  0.17374526  1
  Hg  Hg37  1  0.58235250  0.35224901  0.89165323  1
  Hg  Hg38  1  0.35224901  0.17374526  0.89165323  1
  Hg  Hg39  1  0.17374526  0.58235250  0.89165323  1
  Hg  Hg40  1  0.35224901  0.58235250  0.89165323  1
  Hg  Hg41  1  0.17374526  0.35224901  0.89165323  1
  Hg  Hg42  1  0.58235250  0.17374526  0.89165323  1
  Hg  Hg43  1  0.35224901  0.58235250  0.17374526  1
  Hg  Hg44  1  0.17374526  0.35224901  0.58235250  1
  Hg  Hg45  1  0.58235250  0.17374526  0.35224901  1
  Hg  Hg46  1  0.58235250  0.35224901  0.17374526  1
  Hg  Hg47  1  0.35224901  0.17374526  0.58235250  1
  Hg  Hg48  1  0.17374526  0.58235250  0.35224901  1
  Hg  Hg49  1  0.03103448  0.20438367  0.38229093  1
  Hg  Hg50  1  0.03103448  0.38229093  0.38229093  1
  Hg  Hg51  1  0.03103448  0.38229093  0.20438367  1
  Hg  Hg52  1  0.20438367  0.03103448  0.38229093  1
  Hg  Hg53  1  0.38229093  0.03103448  0.20438367  1
  Hg  Hg54  1  0.38229093  0.03103448  0.38229093  1
  Hg  Hg55  1  0.38229093  0.38229093  0.03103448  1
  Hg  Hg56  1  0.38229093  0.20438367  0.03103448  1
  Hg  Hg57  1  0.20438367  0.38229093  0.03103448  1
  Hg  Hg58  1  0.38229093  0.38229093  0.20438367  1
  Hg  Hg59  1  0.20438367  0.38229093  0.38229093  1
  Hg  Hg60  1  0.38229093  0.20438367  0.38229093  1
  Hg  Hg61  1  0.29328394  0.70498290  0.00086658  1
  Hg  Hg62  1  0.29328394  0.00086658  0.00086658  1
  Hg  Hg63  1  0.29328394  0.00086658  0.70498290  1
  Hg  Hg64  1  0.70498290  0.29328394  0.00086658  1
  Hg  Hg65  1  0.00086658  0.29328394  0.70498290  1
  Hg  Hg66  1  0.00086658  0.29328394  0.00086658  1
  Hg  Hg67  1  0.00086658  0.00086658  0.29328394  1
  Hg  Hg68  1  0.00086658  0.70498290  0.29328394  1
  Hg  Hg69  1  0.70498290  0.00086658  0.29328394  1
  Hg  Hg70  1  0.00086658  0.00086658  0.70498290  1
  Hg  Hg71  1  0.70498290  0.00086658  0.00086658  1
  Hg  Hg72  1  0.00086658  0.70498290  0.00086658  1
  Hg  Hg73  1  0.73304367  0.17280413  0.54707610  1
  Hg  Hg74  1  0.73304367  0.54707610  0.54707610  1
  Hg  Hg75  1  0.73304367  0.54707610  0.17280413  1
  Hg  Hg76  1  0.17280413  0.73304367  0.54707610  1
  Hg  Hg77  1  0.54707610  0.73304367  0.17280413  1
  Hg  Hg78  1  0.54707610  0.73304367  0.54707610  1
  Hg  Hg79  1  0.54707610  0.54707610  0.73304367  1
  Hg  Hg80  1  0.54707610  0.17280413  0.73304367  1
  Hg  Hg81  1  0.17280413  0.54707610  0.73304367  1
  Hg  Hg82  1  0.54707610  0.54707610  0.17280413  1
  Hg  Hg83  1  0.17280413  0.54707610  0.54707610  1
  Hg  Hg84  1  0.54707610  0.17280413  0.54707610  1
  Hg  Hg85  1  0.60370544  0.79876485  0.79876485  1
  Hg  Hg86  1  0.79876485  0.60370544  0.79876485  1
  Hg  Hg87  1  0.79876485  0.79876485  0.60370544  1
  Hg  Hg88  1  0.79876485  0.79876485  0.79876485  1
  Hg  Hg89  1  0.97968313  0.67343896  0.67343896  1
  Hg  Hg90  1  0.67343896  0.97968313  0.67343896  1
  Hg  Hg91  1  0.67343896  0.67343896  0.97968313  1
  Hg  Hg92  1  0.67343896  0.67343896  0.67343896  1
  Hg  Hg93  1  0.36154601  0.54615133  0.54615133  1
  Hg  Hg94  1  0.54615133  0.36154601  0.54615133  1
  Hg  Hg95  1  0.54615133  0.54615133  0.36154601  1
  Hg  Hg96  1  0.54615133  0.54615133  0.54615133  1
  Hg  Hg97  1  0.19240703  0.93586432  0.93586432  1
  Hg  Hg98  1  0.93586432  0.19240703  0.93586432  1
  Hg  Hg99  1  0.93586432  0.93586432  0.19240703  1
  Hg  Hg100  1  0.93586432  0.93586432  0.93586432  1
  Hg  Hg101  1  0.78633643  0.07122119  0.07122119  1
  Hg  Hg102  1  0.07122119  0.78633643  0.07122119  1
  Hg  Hg103  1  0.07122119  0.07122119  0.78633643  1
  Hg  Hg104  1  0.07122119  0.07122119  0.07122119  1
  Hg  Hg105  1  0.43932987  0.03357442  0.76354785  1
  Hg  Hg106  1  0.43932987  0.76354785  0.76354785  1
  Hg  Hg107  1  0.43932987  0.76354785  0.03357442  1
  Hg  Hg108  1  0.03357442  0.43932987  0.76354785  1
  Hg  Hg109  1  0.76354785  0.43932987  0.03357442  1
  Hg  Hg110  1  0.76354785  0.43932987  0.76354785  1
  Hg  Hg111  1  0.76354785  0.76354785  0.43932987  1
  Hg  Hg112  1  0.76354785  0.03357442  0.43932987  1
  Hg  Hg113  1  0.03357442  0.76354785  0.43932987  1
  Hg  Hg114  1  0.76354785  0.76354785  0.03357442  1
  Hg  Hg115  1  0.03357442  0.76354785  0.76354785  1
  Hg  Hg116  1  0.76354785  0.03357442  0.76354785  1
  Hg  Hg117  1  0.32662999  0.67337001  0.67337001  1
  Hg  Hg118  1  0.32662999  0.67337001  0.32662999  1
  Hg  Hg119  1  0.32662999  0.32662999  0.67337001  1
  Hg  Hg120  1  0.67337001  0.32662999  0.32662999  1
  Hg  Hg121  1  0.67337001  0.32662999  0.67337001  1
  Hg  Hg122  1  0.67337001  0.67337001  0.32662999  1
  Hg  Hg123  1  0.25000000  0.25000000  0.25000000  1
