# generated using pymatgen
data_LiH4CN3
_symmetry_space_group_name_H-M   'P 1'
_cell_length_a   4.57686465
_cell_length_b   7.33573577
_cell_length_c   9.13822010
_cell_angle_alpha   103.23601072
_cell_angle_beta   90.00000000
_cell_angle_gamma   90.00000000
_symmetry_Int_Tables_number   1
_chemical_formula_structural   LiH4CN3
_chemical_formula_sum   'Li4 H16 C4 N12'
_cell_volume   298.66230025
_cell_formula_units_Z   4
loop_
 _symmetry_equiv_pos_site_id
 _symmetry_equiv_pos_as_xyz
  1  'x, y, z'
loop_
 _atom_site_type_symbol
 _atom_site_label
 _atom_site_symmetry_multiplicity
 _atom_site_fract_x
 _atom_site_fract_y
 _atom_site_fract_z
 _atom_site_occupancy
  Li  Li0  1  0.38113398  0.14937968  0.98059961  1
  Li  Li1  1  0.88113398  0.85062032  0.51940039  1
  Li  Li2  1  0.61886602  0.85062032  0.01940039  1
  Li  Li3  1  0.11886602  0.14937968  0.48059961  1
  H  H4  1  0.87127470  0.31326460  0.99268712  1
  H  H5  1  0.37127470  0.68673540  0.50731288  1
  H  H6  1  0.12872530  0.68673540  0.00731288  1
  H  H7  1  0.62872530  0.31326460  0.49268712  1
  H  H8  1  0.12408136  0.43416389  0.11576728  1
  H  H9  1  0.62408136  0.56583611  0.38423272  1
  H  H10  1  0.87591864  0.56583611  0.88423272  1
  H  H11  1  0.37591864  0.43416389  0.61576728  1
  H  H12  1  0.10512157  0.41827584  0.34960307  1
  H  H13  1  0.60512157  0.58172416  0.15039693  1
  H  H14  1  0.89487843  0.58172416  0.65039693  1
  H  H15  1  0.39487843  0.41827584  0.84960307  1
  H  H16  1  0.56824237  0.08984087  0.24725334  1
  H  H17  1  0.06824237  0.91015913  0.25274666  1
  H  H18  1  0.43175763  0.91015913  0.75274666  1
  H  H19  1  0.93175763  0.08984087  0.74725334  1
  C  C20  1  0.87076885  0.24869160  0.19857214  1
  C  C21  1  0.37076885  0.75130840  0.30142786  1
  C  C22  1  0.12923115  0.75130840  0.80142786  1
  C  C23  1  0.62923115  0.24869160  0.69857214  1
  N  N24  1  0.01157718  0.31075478  0.08120692  1
  N  N25  1  0.51157718  0.68924522  0.41879308  1
  N  N26  1  0.98842282  0.68924522  0.91879308  1
  N  N27  1  0.48842282  0.31075478  0.58120692  1
  N  N28  1  0.95093414  0.31509909  0.34202824  1
  N  N29  1  0.45093414  0.68490091  0.15797176  1
  N  N30  1  0.04906586  0.68490091  0.65797176  1
  N  N31  1  0.54906586  0.31509909  0.84202824  1
  N  N32  1  0.66301896  0.11986726  0.15368233  1
  N  N33  1  0.16301896  0.88013274  0.34631767  1
  N  N34  1  0.33698104  0.88013274  0.84631767  1
  N  N35  1  0.83698104  0.11986726  0.65368233  1
