# generated using pymatgen
data_Cs2PH4Se3O2
_symmetry_space_group_name_H-M   'P 1'
_cell_length_a   8.03372831
_cell_length_b   10.21256451
_cell_length_c   13.01651278
_cell_angle_alpha   90.00000000
_cell_angle_beta   90.00000000
_cell_angle_gamma   90.00000000
_symmetry_Int_Tables_number   1
_chemical_formula_structural   Cs2PH4Se3O2
_chemical_formula_sum   'Cs8 P4 H16 Se12 O8'
_cell_volume   1067.93938260
_cell_formula_units_Z   4
loop_
 _symmetry_equiv_pos_site_id
 _symmetry_equiv_pos_as_xyz
  1  'x, y, z'
loop_
 _atom_site_type_symbol
 _atom_site_label
 _atom_site_symmetry_multiplicity
 _atom_site_fract_x
 _atom_site_fract_y
 _atom_site_fract_z
 _atom_site_occupancy
  Cs  Cs0  1  -0.00000000  0.89475454  0.34010557  1
  Cs  Cs1  1  -0.00000000  0.10524546  0.65989443  1
  Cs  Cs2  1  0.50000000  0.39475454  0.15989443  1
  Cs  Cs3  1  0.50000000  0.60524546  0.84010557  1
  Cs  Cs4  1  -0.00000000  0.50000000  0.50000000  1
  Cs  Cs5  1  0.50000000  -0.00000000  0.00000000  1
  Cs  Cs6  1  0.50000000  0.50000000  0.50000000  1
  Cs  Cs7  1  -0.00000000  -0.00000000  0.00000000  1
  P  P8  1  0.50000000  0.88648000  0.49110543  1
  P  P9  1  0.50000000  0.11352000  0.50889457  1
  P  P10  1  -0.00000000  0.38648000  0.00889457  1
  P  P11  1  -0.00000000  0.61352000  0.99110543  1
  H  H12  1  0.70029427  0.65836021  0.30724046  1
  H  H13  1  0.70029427  0.34163979  0.69275954  1
  H  H14  1  0.79970573  0.15836021  0.19275954  1
  H  H15  1  0.79970573  0.84163979  0.80724046  1
  H  H16  1  0.29970573  0.34163979  0.69275954  1
  H  H17  1  0.29970573  0.65836021  0.30724046  1
  H  H18  1  0.20029427  0.84163979  0.80724046  1
  H  H19  1  0.20029427  0.15836021  0.19275954  1
  H  H20  1  0.81895516  0.55139263  0.26109637  1
  H  H21  1  0.81895516  0.44860737  0.73890363  1
  H  H22  1  0.68104484  0.05139263  0.23890363  1
  H  H23  1  0.68104484  0.94860737  0.76109637  1
  H  H24  1  0.18104484  0.44860737  0.73890363  1
  H  H25  1  0.18104484  0.55139263  0.26109637  1
  H  H26  1  0.31895516  0.94860737  0.76109637  1
  H  H27  1  0.31895516  0.05139263  0.23890363  1
  Se  Se28  1  0.72624133  0.81282437  0.56659567  1
  Se  Se29  1  0.72624133  0.18717563  0.43340433  1
  Se  Se30  1  0.77375867  0.31282437  0.93340433  1
  Se  Se31  1  0.77375867  0.68717563  0.06659567  1
  Se  Se32  1  0.27375867  0.18717563  0.43340433  1
  Se  Se33  1  0.27375867  0.81282437  0.56659567  1
  Se  Se34  1  0.22624133  0.68717563  0.06659567  1
  Se  Se35  1  0.22624133  0.31282437  0.93340433  1
  Se  Se36  1  0.50000000  0.85097332  0.32134217  1
  Se  Se37  1  0.50000000  0.14902668  0.67865783  1
  Se  Se38  1  -0.00000000  0.35097332  0.17865783  1
  Se  Se39  1  -0.00000000  0.64902668  0.82134217  1
  O  O40  1  0.75812274  0.57593336  0.32432155  1
  O  O41  1  0.75812274  0.42406664  0.67567845  1
  O  O42  1  0.74187726  0.07593336  0.17567845  1
  O  O43  1  0.74187726  0.92406664  0.82432155  1
  O  O44  1  0.24187726  0.42406664  0.67567845  1
  O  O45  1  0.24187726  0.57593336  0.32432155  1
  O  O46  1  0.25812274  0.92406664  0.82432155  1
  O  O47  1  0.25812274  0.07593336  0.17567845  1
