# generated using pymatgen
data_PrIn2Ni
_symmetry_space_group_name_H-M   'P 1'
_cell_length_a   4.42132472
_cell_length_b   9.54406649
_cell_length_c   22.00893092
_cell_angle_alpha   90.00000000
_cell_angle_beta   90.00000000
_cell_angle_gamma   103.39286899
_symmetry_Int_Tables_number   1
_chemical_formula_structural   PrIn2Ni
_chemical_formula_sum   'Pr10 In20 Ni10'
_cell_volume   903.46323073
_cell_formula_units_Z   10
loop_
 _symmetry_equiv_pos_site_id
 _symmetry_equiv_pos_as_xyz
  1  'x, y, z'
loop_
 _atom_site_type_symbol
 _atom_site_label
 _atom_site_symmetry_multiplicity
 _atom_site_fract_x
 _atom_site_fract_y
 _atom_site_fract_z
 _atom_site_occupancy
  Pr  Pr0  1  0.43747234  0.87494469  0.08015055  1
  Pr  Pr1  1  0.56252766  0.12505531  0.91984945  1
  Pr  Pr2  1  0.43747234  0.87494469  0.41984945  1
  Pr  Pr3  1  0.56252766  0.12505531  0.58015055  1
  Pr  Pr4  1  0.22795479  0.45590958  0.12902572  1
  Pr  Pr5  1  0.77204521  0.54409042  0.87097428  1
  Pr  Pr6  1  0.22795479  0.45590958  0.37097428  1
  Pr  Pr7  1  0.77204521  0.54409042  0.62902572  1
  Pr  Pr8  1  0.46958093  0.93916186  0.25000000  1
  Pr  Pr9  1  0.53041907  0.06083814  0.75000000  1
  In  In10  1  0.72490491  0.44980983  0.25000000  1
  In  In11  1  0.27509509  0.55019017  0.75000000  1
  In  In12  1  0.79967060  0.59934120  0.03316348  1
  In  In13  1  0.20032940  0.40065880  0.96683652  1
  In  In14  1  0.79967060  0.59934120  0.46683652  1
  In  In15  1  0.20032940  0.40065880  0.53316348  1
  In  In16  1  0.59886651  0.19773302  0.14339604  1
  In  In17  1  0.40113349  0.80226698  0.85660396  1
  In  In18  1  0.59886651  0.19773302  0.35660396  1
  In  In19  1  0.40113349  0.80226698  0.64339604  1
  In  In20  1  0.86345205  0.72690410  0.17524765  1
  In  In21  1  0.13654795  0.27309590  0.82475235  1
  In  In22  1  0.86345205  0.72690410  0.32475235  1
  In  In23  1  0.13654795  0.27309590  0.67524765  1
  In  In24  1  0.10823243  0.21646485  0.25000000  1
  In  In25  1  0.89176757  0.78353515  0.75000000  1
  In  In26  1  0.06734197  0.13468395  0.04322939  1
  In  In27  1  0.93265803  0.86531605  0.95677061  1
  In  In28  1  0.06734197  0.13468395  0.45677061  1
  In  In29  1  0.93265803  0.86531605  0.54322939  1
  Ni  Ni30  1  0.34461040  0.68922080  0.96779115  1
  Ni  Ni31  1  0.65538960  0.31077920  0.03220885  1
  Ni  Ni32  1  0.34461040  0.68922080  0.53220885  1
  Ni  Ni33  1  0.65538960  0.31077920  0.46779115  1
  Ni  Ni34  1  0.01475723  0.02951446  0.15775506  1
  Ni  Ni35  1  0.98524277  0.97048554  0.84224494  1
  Ni  Ni36  1  0.01475723  0.02951446  0.34224494  1
  Ni  Ni37  1  0.98524277  0.97048554  0.65775506  1
  Ni  Ni38  1  0.31744089  0.63488178  0.25000000  1
  Ni  Ni39  1  0.68255911  0.36511822  0.75000000  1
