# generated using pymatgen
data_Na2VFeF7
_symmetry_space_group_name_H-M   'P 1'
_cell_length_a   7.49854478
_cell_length_b   7.49854478
_cell_length_c   25.04184860
_cell_angle_alpha   89.98979783
_cell_angle_beta   98.69653671
_cell_angle_gamma   119.71258387
_symmetry_Int_Tables_number   1
_chemical_formula_structural   Na2VFeF7
_chemical_formula_sum   'Na16 V8 Fe8 F56'
_cell_volume   1204.27730057
_cell_formula_units_Z   8
loop_
 _symmetry_equiv_pos_site_id
 _symmetry_equiv_pos_as_xyz
  1  'x, y, z'
loop_
 _atom_site_type_symbol
 _atom_site_label
 _atom_site_symmetry_multiplicity
 _atom_site_fract_x
 _atom_site_fract_y
 _atom_site_fract_z
 _atom_site_occupancy
  Na  Na0  1  0.50000000  -0.00000000  0.50000000  1
  Na  Na1  1  -0.00000000  -0.00000000  0.00000000  1
  Na  Na2  1  -0.00000000  0.50000000  0.50000000  1
  Na  Na3  1  0.50000000  0.50000000  0.00000000  1
  Na  Na4  1  -0.00000000  0.50000000  0.00000000  1
  Na  Na5  1  -0.00000000  -0.00000000  0.50000000  1
  Na  Na6  1  0.53267853  0.78267853  0.75000000  1
  Na  Na7  1  0.46732147  0.21732147  0.25000000  1
  Na  Na8  1  0.54039819  0.29313727  0.75258545  1
  Na  Na9  1  0.04055181  0.78781274  0.74741455  1
  Na  Na10  1  0.45960181  0.70686273  0.24741455  1
  Na  Na11  1  0.95944819  0.21218726  0.25258545  1
  Na  Na12  1  0.75673947  0.88412040  0.62173658  1
  Na  Na13  1  0.76238382  0.13500289  0.87826342  1
  Na  Na14  1  0.24326053  0.11587960  0.37826342  1
  Na  Na15  1  0.23761618  0.86499711  0.12173658  1
  V  V16  1  0.50000000  0.50000000  0.50000000  1
  V  V17  1  0.50000000  -0.00000000  0.00000000  1
  V  V18  1  0.99443986  0.24443986  0.75000000  1
  V  V19  1  0.00556014  0.75556014  0.25000000  1
  V  V20  1  0.26082209  0.88753779  0.62622881  1
  V  V21  1  0.76130898  0.63459328  0.87377119  1
  V  V22  1  0.73917791  0.11246221  0.37377119  1
  V  V23  1  0.23869102  0.36540672  0.12622881  1
  Fe  Fe24  1  0.25767494  0.38474028  0.62817486  1
  Fe  Fe25  1  0.25656542  0.62950008  0.87182514  1
  Fe  Fe26  1  0.74232506  0.61525972  0.37182514  1
  Fe  Fe27  1  0.74343458  0.37049992  0.12817486  1
  Fe  Fe28  1  0.75887155  0.38646757  0.62633920  1
  Fe  Fe29  1  0.26012836  0.13253235  0.87366080  1
  Fe  Fe30  1  0.24112845  0.61353243  0.37366080  1
  Fe  Fe31  1  0.73987164  0.86746765  0.12633920  1
  F  F32  1  0.28719038  0.41350309  0.54634051  1
  F  F33  1  0.36716258  0.74084987  0.95365949  1
  F  F34  1  0.71280962  0.58649691  0.45365949  1
  F  F35  1  0.63283742  0.25915013  0.04634051  1
  F  F36  1  0.23464460  0.36295475  0.71003456  1
  F  F37  1  0.15292019  0.52461004  0.78996544  1
  F  F38  1  0.76535540  0.63704525  0.28996544  1
  F  F39  1  0.84707981  0.47538996  0.21003456  1
  F  F40  1  0.37284265  0.69976792  0.64329610  1
  F  F41  1  0.55647182  0.72954656  0.85670390  1
  F  F42  1  0.62715735  0.30023208  0.35670390  1
  F  F43  1  0.44352818  0.27045344  0.14329610  1
  F  F44  1  0.14401720  0.07218804  0.60942505  1
  F  F45  1  0.96276299  0.53459215  0.89057495  1
  F  F46  1  0.85598280  0.92781196  0.39057495  1
  F  F47  1  0.03723701  0.46540785  0.10942505  1
  F  F48  1  0.68379465  0.41898638  0.54495011  1
  F  F49  1  0.37403628  0.13884455  0.95504989  1
  F  F50  1  0.31620535  0.58101362  0.45504989  1
  F  F51  1  0.62596372  0.86115545  0.04495011  1
  F  F52  1  0.83854142  0.36039220  0.70715361  1
  F  F53  1  0.15323859  0.13138781  0.79284639  1
  F  F54  1  0.16145858  0.63960780  0.29284639  1
  F  F55  1  0.84676141  0.86861219  0.20715361  1
  F  F56  1  0.54292205  0.07288303  0.60872704  1
  F  F57  1  0.96415599  0.93419501  0.89127296  1
  F  F58  1  0.45707795  0.92711697  0.39127296  1
  F  F59  1  0.03584401  0.06580499  0.10872704  1
  F  F60  1  0.97775869  0.69995732  0.64253895  1
  F  F61  1  0.55741837  0.33521974  0.85746105  1
  F  F62  1  0.02224131  0.30004268  0.35746105  1
  F  F63  1  0.44258163  0.66478026  0.14253895  1
  F  F64  1  0.56329622  0.46565355  0.65587068  1
  F  F65  1  0.30978287  0.90742554  0.84412932  1
  F  F66  1  0.43670378  0.53434645  0.34412932  1
  F  F67  1  0.69021713  0.09257446  0.15587068  1
  F  F68  1  0.95311515  0.30253974  0.59795441  1
  F  F69  1  0.20458534  0.35516075  0.90204559  1
  F  F70  1  0.04688485  0.69746026  0.40204559  1
  F  F71  1  0.79541466  0.64483925  0.09795441  1
  F  F72  1  0.66218619  0.79483929  0.53229558  1
  F  F73  1  0.76254371  0.12989061  0.96770442  1
  F  F74  1  0.33781381  0.20516071  0.46770442  1
  F  F75  1  0.23745629  0.87010939  0.03229558  1
  F  F76  1  0.76361257  0.13574929  0.79083545  1
  F  F77  1  0.84491384  0.97277712  0.70916455  1
  F  F78  1  0.23638743  0.86425071  0.20916455  1
  F  F79  1  0.15508616  0.02722288  0.29083545  1
  F  F80  1  0.34285241  0.97114387  0.70443393  1
  F  F81  1  0.76670994  0.63841848  0.79556607  1
  F  F82  1  0.65714759  0.02885613  0.29556607  1
  F  F83  1  0.23329006  0.36158152  0.20443393  1
  F  F84  1  0.18055167  0.80944085  0.54689060  1
  F  F85  1  0.76255025  0.63366107  0.95310940  1
  F  F86  1  0.81944833  0.19055915  0.45310940  1
  F  F87  1  0.23744975  0.36633893  0.04689060  1
