# generated using pymatgen
data_Pr7Si5Ni2
_symmetry_space_group_name_H-M   'P 1'
_cell_length_a   4.31036226
_cell_length_b   13.75131923
_cell_length_c   23.27570004
_cell_angle_alpha   90.00000000
_cell_angle_beta   90.00000000
_cell_angle_gamma   90.00000000
_symmetry_Int_Tables_number   1
_chemical_formula_structural   Pr7Si5Ni2
_chemical_formula_sum   'Pr28 Si20 Ni8'
_cell_volume   1379.62446562
_cell_formula_units_Z   4
loop_
 _symmetry_equiv_pos_site_id
 _symmetry_equiv_pos_as_xyz
  1  'x, y, z'
loop_
 _atom_site_type_symbol
 _atom_site_label
 _atom_site_symmetry_multiplicity
 _atom_site_fract_x
 _atom_site_fract_y
 _atom_site_fract_z
 _atom_site_occupancy
  Pr  Pr0  1  0.25000000  0.88347455  0.97946209  1
  Pr  Pr1  1  0.25000000  0.61652545  0.47946209  1
  Pr  Pr2  1  0.75000000  0.11652545  0.02053791  1
  Pr  Pr3  1  0.75000000  0.38347455  0.52053791  1
  Pr  Pr4  1  0.25000000  0.47397113  0.63321040  1
  Pr  Pr5  1  0.25000000  0.02602887  0.13321040  1
  Pr  Pr6  1  0.75000000  0.52602887  0.36678960  1
  Pr  Pr7  1  0.75000000  0.97397113  0.86678960  1
  Pr  Pr8  1  0.25000000  0.74912505  0.61828624  1
  Pr  Pr9  1  0.25000000  0.75087495  0.11828624  1
  Pr  Pr10  1  0.75000000  0.25087495  0.38171376  1
  Pr  Pr11  1  0.75000000  0.24912505  0.88171376  1
  Pr  Pr12  1  0.25000000  0.59984515  0.77539551  1
  Pr  Pr13  1  0.25000000  0.90015485  0.27539551  1
  Pr  Pr14  1  0.75000000  0.40015485  0.22460449  1
  Pr  Pr15  1  0.75000000  0.09984515  0.72460449  1
  Pr  Pr16  1  0.25000000  0.45679055  0.93187015  1
  Pr  Pr17  1  0.25000000  0.04320945  0.43187015  1
  Pr  Pr18  1  0.75000000  0.54320945  0.06812985  1
  Pr  Pr19  1  0.75000000  0.95679055  0.56812985  1
  Pr  Pr20  1  0.25000000  0.19009742  0.60349762  1
  Pr  Pr21  1  0.25000000  0.30990258  0.10349762  1
  Pr  Pr22  1  0.75000000  0.80990258  0.39650238  1
  Pr  Pr23  1  0.75000000  0.69009742  0.89650238  1
  Pr  Pr24  1  0.25000000  0.33449543  0.76220268  1
  Pr  Pr25  1  0.25000000  0.16550457  0.26220268  1
  Pr  Pr26  1  0.75000000  0.66550457  0.23779732  1
  Pr  Pr27  1  0.75000000  0.83449543  0.73779732  1
  Si  Si28  1  0.25000000  0.84127652  0.49562145  1
  Si  Si29  1  0.25000000  0.65872348  0.99562145  1
  Si  Si30  1  0.75000000  0.15872348  0.50437855  1
  Si  Si31  1  0.75000000  0.34127652  0.00437855  1
  Si  Si32  1  0.25000000  0.10490482  0.92718141  1
  Si  Si33  1  0.25000000  0.39509518  0.42718141  1
  Si  Si34  1  0.75000000  0.89509518  0.07281859  1
  Si  Si35  1  0.75000000  0.60490482  0.57281859  1
  Si  Si36  1  0.25000000  0.12124290  0.82029578  1
  Si  Si37  1  0.25000000  0.37875710  0.32029578  1
  Si  Si38  1  0.75000000  0.87875710  0.17970422  1
  Si  Si39  1  0.75000000  0.62124290  0.67970422  1
  Si  Si40  1  0.25000000  0.96594227  0.66684321  1
  Si  Si41  1  0.25000000  0.53405773  0.16684321  1
  Si  Si42  1  0.75000000  0.03405773  0.33315679  1
  Si  Si43  1  0.75000000  0.46594227  0.83315679  1
  Si  Si44  1  0.25000000  0.81855664  0.83587773  1
  Si  Si45  1  0.25000000  0.68144336  0.33587773  1
  Si  Si46  1  0.75000000  0.18144336  0.16412227  1
  Si  Si47  1  0.75000000  0.31855664  0.66412227  1
  Ni  Ni48  1  0.25000000  0.25600159  0.98028391  1
  Ni  Ni49  1  0.25000000  0.24399841  0.48028391  1
  Ni  Ni50  1  0.75000000  0.74399841  0.01971609  1
  Ni  Ni51  1  0.75000000  0.75600159  0.51971609  1
  Ni  Ni52  1  0.25000000  0.96718406  0.77198646  1
  Ni  Ni53  1  0.25000000  0.53281594  0.27198646  1
  Ni  Ni54  1  0.75000000  0.03281594  0.22801354  1
  Ni  Ni55  1  0.75000000  0.46718406  0.72801354  1
