# generated using pymatgen
data_SiP2H18(C3Br2)2
_symmetry_space_group_name_H-M   'P 1'
_cell_length_a   8.81441256
_cell_length_b   14.17927243
_cell_length_c   15.27132349
_cell_angle_alpha   113.57059548
_cell_angle_beta   90.00000000
_cell_angle_gamma   90.00000000
_symmetry_Int_Tables_number   1
_chemical_formula_structural   SiP2H18(C3Br2)2
_chemical_formula_sum   'Si4 P8 H72 C24 Br16'
_cell_volume   1749.39838545
_cell_formula_units_Z   4
loop_
 _symmetry_equiv_pos_site_id
 _symmetry_equiv_pos_as_xyz
  1  'x, y, z'
loop_
 _atom_site_type_symbol
 _atom_site_label
 _atom_site_symmetry_multiplicity
 _atom_site_fract_x
 _atom_site_fract_y
 _atom_site_fract_z
 _atom_site_occupancy
  Si  Si0  1  -0.00000000  -0.00000000  -0.00000000  1
  Si  Si1  1  0.50000000  0.50000000  -0.00000000  1
  Si  Si2  1  0.50000000  0.50000000  0.50000000  1
  Si  Si3  1  -0.00000000  -0.00000000  0.50000000  1
  P  P4  1  0.20558738  0.94745295  0.07670860  1
  P  P5  1  0.70558738  0.55254705  0.92329140  1
  P  P6  1  0.79441262  0.05254705  0.92329140  1
  P  P7  1  0.29441262  0.44745295  0.07670860  1
  P  P8  1  0.29473140  0.61560682  0.58252827  1
  P  P9  1  0.79473140  0.88439318  0.41747173  1
  P  P10  1  0.70526860  0.38439318  0.41747173  1
  P  P11  1  0.20526860  0.11560682  0.58252827  1
  H  H12  1  0.40610283  0.02304352  0.19006430  1
  H  H13  1  0.90610283  0.47695648  0.80993570  1
  H  H14  1  0.59389717  0.97695648  0.80993570  1
  H  H15  1  0.09389717  0.52304352  0.19006430  1
  H  H16  1  0.33623355  0.11048863  0.14065280  1
  H  H17  1  0.83623355  0.38951137  0.85934720  1
  H  H18  1  0.66376645  0.88951137  0.85934720  1
  H  H19  1  0.16376645  0.61048863  0.14065280  1
  H  H20  1  0.22951825  0.08945120  0.23090070  1
  H  H21  1  0.72951825  0.41054880  0.76909930  1
  H  H22  1  0.77048175  0.91054880  0.76909930  1
  H  H23  1  0.27048175  0.58945120  0.23090070  1
  H  H24  1  0.07646811  0.90136378  0.19308683  1
  H  H25  1  0.57646811  0.59863622  0.80691317  1
  H  H26  1  0.92353189  0.09863622  0.80691317  1
  H  H27  1  0.42353189  0.40136378  0.19308683  1
  H  H28  1  0.10060775  0.79318214  0.08035220  1
  H  H29  1  0.60060775  0.70681786  0.91964780  1
  H  H30  1  0.89939225  0.20681786  0.91964780  1
  H  H31  1  0.39939225  0.29318214  0.08035220  1
  H  H32  1  0.25755564  0.83873811  0.16068814  1
  H  H33  1  0.75755564  0.66126189  0.83931186  1
  H  H34  1  0.74244436  0.16126189  0.83931186  1
  H  H35  1  0.24244436  0.33873811  0.16068814  1
  H  H36  1  0.44808495  0.86509946  0.03545293  1
  H  H37  1  0.94808495  0.63490054  0.96454707  1
  H  H38  1  0.55191505  0.13490054  0.96454707  1
  H  H39  1  0.05191505  0.36509946  0.03545293  1
  H  H40  1  0.30924661  0.80328859  0.94443087  1
  H  H41  1  0.80924661  0.69671141  0.05556913  1
  H  H42  1  0.69075339  0.19671141  0.05556913  1
  H  H43  1  0.19075339  0.30328859  0.94443087  1
  H  H44  1  0.39198364  0.92264387  0.95429024  1
  H  H45  1  0.89198364  0.57735613  0.04570976  1
  H  H46  1  0.60801636  0.07735613  0.04570976  1
  H  H47  1  0.10801636  0.42264387  0.95429024  1
  H  H48  1  0.42094509  0.73898950  0.72079674  1
  H  H49  1  0.92094509  0.76101050  0.27920326  1
  H  H50  1  0.57905491  0.26101050  0.27920326  1
  H  H51  1  0.07905491  0.23898950  0.72079674  1
  H  H52  1  0.41449568  0.77998686  0.62428256  1
  H  H53  1  0.91449568  0.72001314  0.37571744  1
  H  H54  1  0.58550432  0.22001314  0.37571744  1
  H  H55  1  0.08550432  0.27998686  0.62428256  1
  H  H56  1  0.24773905  0.79030173  0.69542766  1
  H  H57  1  0.74773905  0.70969827  0.30457234  1
  H  H58  1  0.75226095  0.20969827  0.30457234  1
  H  H59  1  0.25226095  0.29030173  0.69542766  1
  H  H60  1  0.07351661  0.61453288  0.67405469  1
  H  H61  1  0.57351661  0.88546712  0.32594531  1
  H  H62  1  0.92648339  0.38546712  0.32594531  1
  H  H63  1  0.42648339  0.11453288  0.67405469  1
  H  H64  1  0.15137666  0.48730095  0.61284201  1
  H  H65  1  0.65137666  0.01269905  0.38715799  1
  H  H66  1  0.84862334  0.51269905  0.38715799  1
  H  H67  1  0.34862334  0.98730095  0.61284201  1
  H  H68  1  0.23963532  0.57563313  0.71933258  1
  H  H69  1  0.73963532  0.92436687  0.28066742  1
  H  H70  1  0.76036468  0.42436687  0.28066742  1
  H  H71  1  0.26036468  0.07563313  0.71933258  1
  H  H72  1  0.20994174  0.69234958  0.47544088  1
  H  H73  1  0.70994174  0.80765042  0.52455912  1
  H  H74  1  0.79005826  0.30765042  0.52455912  1
  H  H75  1  0.29005826  0.19234958  0.47544088  1
  H  H76  1  0.13934321  0.56388929  0.44173667  1
  H  H77  1  0.63934321  0.93611071  0.55826333  1
  H  H78  1  0.86065679  0.43611071  0.55826333  1
  H  H79  1  0.36065679  0.06388929  0.44173667  1
  H  H80  1  0.05684437  0.66927503  0.54132766  1
  H  H81  1  0.55684437  0.83072497  0.45867234  1
  H  H82  1  0.94315563  0.33072497  0.45867234  1
  H  H83  1  0.44315563  0.16927503  0.54132766  1
  C  C84  1  0.30422193  0.05347454  0.16888487  1
  C  C85  1  0.80422193  0.44652546  0.83111513  1
  C  C86  1  0.69577807  0.94652546  0.83111513  1
  C  C87  1  0.19577807  0.55347454  0.16888487  1
  C  C88  1  0.15435376  0.86184920  0.13381954  1
  C  C89  1  0.65435376  0.63815080  0.86618046  1
  C  C90  1  0.84564624  0.13815080  0.86618046  1
  C  C91  1  0.34564624  0.36184920  0.13381954  1
  C  C92  1  0.35418576  0.87775219  0.99386206  1
  C  C93  1  0.85418576  0.62224781  0.00613794  1
  C  C94  1  0.64581424  0.12224781  0.00613794  1
  C  C95  1  0.14581424  0.37775219  0.99386206  1
  C  C96  1  0.34986616  0.74426645  0.66409086  1
  C  C97  1  0.84986616  0.75573355  0.33590914  1
  C  C98  1  0.65013384  0.25573355  0.33590914  1
  C  C99  1  0.15013384  0.24426645  0.66409086  1
  C  C100  1  0.17822274  0.56840355  0.65459899  1
  C  C101  1  0.67822274  0.93159645  0.34540101  1
  C  C102  1  0.82177726  0.43159645  0.34540101  1
  C  C103  1  0.32177726  0.06840355  0.65459899  1
  C  C104  1  0.16181362  0.63727788  0.50168778  1
  C  C105  1  0.66181362  0.86272212  0.49831222  1
  C  C106  1  0.83818638  0.36272212  0.49831222  1
  C  C107  1  0.33818638  0.13727788  0.50168778  1
  Br  Br108  1  0.81044753  0.93690118  0.07950278  1
  Br  Br109  1  0.31044753  0.56309882  0.92049722  1
  Br  Br110  1  0.18955247  0.06309882  0.92049722  1
  Br  Br111  1  0.68955247  0.43690118  0.07950278  1
  Br  Br112  1  0.01163653  0.82959026  0.86969613  1
  Br  Br113  1  0.51163653  0.67040974  0.13030387  1
  Br  Br114  1  0.98836347  0.17040974  0.13030387  1
  Br  Br115  1  0.48836347  0.32959026  0.86969613  1
  Br  Br116  1  0.30786415  0.37644241  0.40760376  1
  Br  Br117  1  0.80786415  0.12355759  0.59239624  1
  Br  Br118  1  0.69213585  0.62355759  0.59239624  1
  Br  Br119  1  0.19213585  0.87644241  0.40760376  1
  Br  Br120  1  0.50164693  0.57590607  0.38250811  1
  Br  Br121  1  0.00164693  0.92409393  0.61749189  1
  Br  Br122  1  0.49835307  0.42409393  0.61749189  1
  Br  Br123  1  0.99835307  0.07590607  0.38250811  1
