# generated using pymatgen
data_H8S(NO2)2
_symmetry_space_group_name_H-M   'P 1'
_cell_length_a   6.23865654
_cell_length_b   7.79882745
_cell_length_c   10.69807489
_cell_angle_alpha   90.00000000
_cell_angle_beta   90.00000000
_cell_angle_gamma   90.00000000
_symmetry_Int_Tables_number   1
_chemical_formula_structural   H8S(NO2)2
_chemical_formula_sum   'H32 S4 N8 O16'
_cell_volume   520.50633817
_cell_formula_units_Z   4
loop_
 _symmetry_equiv_pos_site_id
 _symmetry_equiv_pos_as_xyz
  1  'x, y, z'
loop_
 _atom_site_type_symbol
 _atom_site_label
 _atom_site_symmetry_multiplicity
 _atom_site_fract_x
 _atom_site_fract_y
 _atom_site_fract_z
 _atom_site_occupancy
  H  H0  1  0.25000000  0.81518007  0.37343256  1
  H  H1  1  0.25000000  0.31518007  0.12656744  1
  H  H2  1  0.75000000  0.18481993  0.62656744  1
  H  H3  1  0.75000000  0.68481993  0.87343256  1
  H  H4  1  0.25000000  0.60344184  0.33177525  1
  H  H5  1  0.25000000  0.10344184  0.16822475  1
  H  H6  1  0.75000000  0.39655816  0.66822475  1
  H  H7  1  0.75000000  0.89655816  0.83177525  1
  H  H8  1  0.38449958  0.67081133  0.46050169  1
  H  H9  1  0.11550042  0.17081133  0.03949831  1
  H  H10  1  0.88449958  0.32918867  0.53949831  1
  H  H11  1  0.61550042  0.82918867  0.96050169  1
  H  H12  1  0.61550042  0.32918867  0.53949831  1
  H  H13  1  0.88449958  0.82918867  0.96050169  1
  H  H14  1  0.11550042  0.67081133  0.46050169  1
  H  H15  1  0.38449958  0.17081133  0.03949831  1
  H  H16  1  0.25000000  0.57048223  0.85515759  1
  H  H17  1  0.25000000  0.07048223  0.64484241  1
  H  H18  1  0.75000000  0.42951777  0.14484241  1
  H  H19  1  0.75000000  0.92951777  0.35515759  1
  H  H20  1  0.25000000  0.48765745  0.70716851  1
  H  H21  1  0.25000000  0.98765745  0.79283149  1
  H  H22  1  0.75000000  0.51234255  0.29283149  1
  H  H23  1  0.75000000  0.01234255  0.20716851  1
  H  H24  1  0.38416549  0.38410682  0.81982389  1
  H  H25  1  0.11583451  0.88410682  0.68017611  1
  H  H26  1  0.88416549  0.61589318  0.18017611  1
  H  H27  1  0.61583451  0.11589318  0.31982389  1
  H  H28  1  0.61583451  0.61589318  0.18017611  1
  H  H29  1  0.88416549  0.11589318  0.31982389  1
  H  H30  1  0.11583451  0.38410682  0.81982389  1
  H  H31  1  0.38416549  0.88410682  0.68017611  1
  S  S32  1  0.25000000  0.73780584  0.07743877  1
  S  S33  1  0.25000000  0.23780584  0.42256123  1
  S  S34  1  0.75000000  0.26219416  0.92256123  1
  S  S35  1  0.75000000  0.76219416  0.57743877  1
  N  N36  1  0.25000000  0.68942594  0.40513673  1
  N  N37  1  0.25000000  0.18942594  0.09486327  1
  N  N38  1  0.75000000  0.31057406  0.59486327  1
  N  N39  1  0.75000000  0.81057406  0.90513673  1
  N  N40  1  0.25000000  0.45740490  0.80011454  1
  N  N41  1  0.25000000  0.95740490  0.69988546  1
  N  N42  1  0.75000000  0.54259510  0.19988546  1
  N  N43  1  0.75000000  0.04259510  0.30011454  1
  O  O44  1  0.05204907  0.82452159  0.12530018  1
  O  O45  1  0.44795093  0.32452159  0.37469982  1
  O  O46  1  0.55204907  0.17547841  0.87469982  1
  O  O47  1  0.94795093  0.67547841  0.62530018  1
  O  O48  1  0.94795093  0.17547841  0.87469982  1
  O  O49  1  0.55204907  0.67547841  0.62530018  1
  O  O50  1  0.44795093  0.82452159  0.12530018  1
  O  O51  1  0.05204907  0.32452159  0.37469982  1
  O  O52  1  0.25000000  0.55592409  0.12059809  1
  O  O53  1  0.25000000  0.05592409  0.37940191  1
  O  O54  1  0.75000000  0.44407591  0.87940191  1
  O  O55  1  0.75000000  0.94407591  0.62059809  1
  O  O56  1  0.25000000  0.74937001  0.93739643  1
  O  O57  1  0.25000000  0.24937001  0.56260357  1
  O  O58  1  0.75000000  0.25062999  0.06260357  1
  O  O59  1  0.75000000  0.75062999  0.43739643  1
