# generated using pymatgen
data_W2Br5
_symmetry_space_group_name_H-M   'P 1'
_cell_length_a   9.53849966
_cell_length_b   11.23835756
_cell_length_c   18.54378562
_cell_angle_alpha   90.00000000
_cell_angle_beta   103.92905381
_cell_angle_gamma   90.00000000
_symmetry_Int_Tables_number   1
_chemical_formula_structural   W2Br5
_chemical_formula_sum   'W16 Br40'
_cell_volume   1929.38614725
_cell_formula_units_Z   8
loop_
 _symmetry_equiv_pos_site_id
 _symmetry_equiv_pos_as_xyz
  1  'x, y, z'
loop_
 _atom_site_type_symbol
 _atom_site_label
 _atom_site_symmetry_multiplicity
 _atom_site_fract_x
 _atom_site_fract_y
 _atom_site_fract_z
 _atom_site_occupancy
  W  W0  1  0.15956549  0.75482589  0.61222233  1
  W  W1  1  0.84043451  0.25482589  0.88777767  1
  W  W2  1  0.84043451  0.24517411  0.38777767  1
  W  W3  1  0.15956549  0.74517411  0.11222233  1
  W  W4  1  0.42571943  0.69860804  0.63527990  1
  W  W5  1  0.57428057  0.19860804  0.86472010  1
  W  W6  1  0.57428057  0.30139196  0.36472010  1
  W  W7  1  0.42571943  0.80139196  0.13527990  1
  W  W8  1  0.65320281  0.39476228  0.80915460  1
  W  W9  1  0.34679719  0.89476228  0.69084540  1
  W  W10  1  0.34679719  0.60523772  0.19084540  1
  W  W11  1  0.65320281  0.10523772  0.30915460  1
  W  W12  1  0.37569384  0.89028526  0.55689556  1
  W  W13  1  0.62430616  0.39028526  0.94310444  1
  W  W14  1  0.62430616  0.10971474  0.44310444  1
  W  W15  1  0.37569384  0.60971474  0.05689556  1
  Br  Br16  1  0.69557096  0.18473294  0.74845316  1
  Br  Br17  1  0.30442904  0.68473294  0.75154684  1
  Br  Br18  1  0.30442904  0.81526706  0.25154684  1
  Br  Br19  1  0.69557096  0.31526706  0.24845316  1
  Br  Br20  1  0.92829629  0.43522540  0.82325896  1
  Br  Br21  1  0.07170371  0.93522540  0.67674104  1
  Br  Br22  1  0.07170371  0.56477460  0.17674104  1
  Br  Br23  1  0.92829629  0.06477460  0.32325896  1
  Br  Br24  1  0.22718780  0.55214503  0.56378966  1
  Br  Br25  1  0.77281220  0.05214503  0.93621034  1
  Br  Br26  1  0.77281220  0.44785497  0.43621034  1
  Br  Br27  1  0.22718780  0.94785497  0.06378966  1
  Br  Br28  1  0.38475903  0.32264327  0.76798710  1
  Br  Br29  1  0.61524097  0.82264327  0.73201290  1
  Br  Br30  1  0.61524097  0.67735673  0.23201290  1
  Br  Br31  1  0.38475903  0.17735673  0.26798710  1
  Br  Br32  1  0.31959358  0.08961004  0.61358052  1
  Br  Br33  1  0.68040642  0.58961004  0.88641948  1
  Br  Br34  1  0.68040642  0.91038996  0.38641948  1
  Br  Br35  1  0.31959358  0.41038996  0.11358052  1
  Br  Br36  1  0.10836745  0.84759845  0.48463393  1
  Br  Br37  1  0.89163255  0.34759845  0.01536607  1
  Br  Br38  1  0.89163255  0.15240155  0.51536607  1
  Br  Br39  1  0.10836745  0.65240155  0.98463393  1
  Br  Br40  1  0.47938624  0.70593738  0.50423269  1
  Br  Br41  1  0.52061376  0.20593738  0.99576731  1
  Br  Br42  1  0.52061376  0.29406262  0.49576731  1
  Br  Br43  1  0.47938624  0.79406262  0.00423269  1
  Br  Br44  1  0.60433033  0.50905168  0.67599856  1
  Br  Br45  1  0.39566967  0.00905168  0.82400144  1
  Br  Br46  1  0.39566967  0.49094832  0.32400144  1
  Br  Br47  1  0.60433033  0.99094832  0.17599856  1
  Br  Br48  1  0.92692788  0.65264434  0.62358539  1
  Br  Br49  1  0.07307212  0.15264434  0.87641461  1
  Br  Br50  1  0.07307212  0.34735566  0.37641461  1
  Br  Br51  1  0.92692788  0.84735566  0.12358539  1
  Br  Br52  1  0.63659119  0.97928685  0.57655888  1
  Br  Br53  1  0.36340881  0.47928685  0.92344112  1
  Br  Br54  1  0.36340881  0.02071315  0.42344112  1
  Br  Br55  1  0.63659119  0.52071315  0.07655888  1
