# generated using pymatgen
data_K2Mg(BH4)4
_symmetry_space_group_name_H-M   'P 1'
_cell_length_a   8.28910209
_cell_length_b   9.87314609
_cell_length_c   13.08598899
_cell_angle_alpha   90.00000000
_cell_angle_beta   99.56402404
_cell_angle_gamma   90.00000000
_symmetry_Int_Tables_number   1
_chemical_formula_structural   K2Mg(BH4)4
_chemical_formula_sum   'K8 Mg4 B16 H64'
_cell_volume   1056.06538071
_cell_formula_units_Z   4
loop_
 _symmetry_equiv_pos_site_id
 _symmetry_equiv_pos_as_xyz
  1  'x, y, z'
loop_
 _atom_site_type_symbol
 _atom_site_label
 _atom_site_symmetry_multiplicity
 _atom_site_fract_x
 _atom_site_fract_y
 _atom_site_fract_z
 _atom_site_occupancy
  K  K0  1  0.26636191  0.34525211  0.04382015  1
  K  K1  1  0.76636191  0.15474789  0.54382015  1
  K  K2  1  0.73363809  0.65474789  0.95617985  1
  K  K3  1  0.23363809  0.84525211  0.45617985  1
  K  K4  1  0.69527995  0.98012791  0.21022932  1
  K  K5  1  0.19527995  0.51987209  0.71022932  1
  K  K6  1  0.30472005  0.01987209  0.78977068  1
  K  K7  1  0.80472005  0.48012791  0.28977068  1
  Mg  Mg8  1  0.72452061  0.71237246  0.58354616  1
  Mg  Mg9  1  0.22452061  0.78762754  0.08354616  1
  Mg  Mg10  1  0.27547939  0.28762754  0.41645384  1
  Mg  Mg11  1  0.77547939  0.21237246  0.91645384  1
  B  B12  1  0.49790783  0.28009907  0.31631191  1
  B  B13  1  0.99790783  0.21990093  0.81631191  1
  B  B14  1  0.50209217  0.71990093  0.68368809  1
  B  B15  1  0.00209217  0.78009907  0.18368809  1
  B  B16  1  0.02312876  0.16621946  0.36062730  1
  B  B17  1  0.52312876  0.33378054  0.86062730  1
  B  B18  1  0.97687124  0.83378054  0.63937270  1
  B  B19  1  0.47687124  0.66621946  0.13937270  1
  B  B20  1  0.69954755  0.97399850  0.92234946  1
  B  B21  1  0.19954755  0.52600150  0.42234946  1
  B  B22  1  0.30045245  0.02600150  0.07765054  1
  B  B23  1  0.80045245  0.47399850  0.57765054  1
  B  B24  1  0.11926697  0.65543853  0.92894988  1
  B  B25  1  0.61926697  0.84456147  0.42894988  1
  B  B26  1  0.88073303  0.34456147  0.07105012  1
  B  B27  1  0.38073303  0.15543853  0.57105012  1
  H  H28  1  0.48882829  0.36184326  0.38619216  1
  H  H29  1  0.98882829  0.13815674  0.88619216  1
  H  H30  1  0.51117171  0.63815674  0.61380784  1
  H  H31  1  0.01117171  0.86184326  0.11380784  1
  H  H32  1  0.49386898  0.34439337  0.23629715  1
  H  H33  1  0.99386898  0.15560663  0.73629715  1
  H  H34  1  0.50613102  0.65560663  0.76370285  1
  H  H35  1  0.00613102  0.84439337  0.26370285  1
  H  H36  1  0.38510595  0.19679801  0.30434451  1
  H  H37  1  0.88510595  0.30320199  0.80434451  1
  H  H38  1  0.61489405  0.80320199  0.69565549  1
  H  H39  1  0.11489405  0.69679801  0.19565549  1
  H  H40  1  0.62588681  0.21756410  0.33941299  1
  H  H41  1  0.12588681  0.28243590  0.83941299  1
  H  H42  1  0.37411319  0.78243590  0.66058701  1
  H  H43  1  0.87411319  0.71756410  0.16058701  1
  H  H44  1  0.06018774  0.04724554  0.35782203  1
  H  H45  1  0.56018774  0.45275446  0.85782203  1
  H  H46  1  0.93981226  0.95275446  0.64217797  1
  H  H47  1  0.43981226  0.54724554  0.14217797  1
  H  H48  1  0.87702857  0.18464204  0.33311084  1
  H  H49  1  0.37702857  0.31535796  0.83311084  1
  H  H50  1  0.12297143  0.81535796  0.66688916  1
  H  H51  1  0.62297143  0.68464204  0.16688916  1
  H  H52  1  0.09300882  0.22939741  0.29970878  1
  H  H53  1  0.59300882  0.27060259  0.79970878  1
  H  H54  1  0.90699118  0.77060259  0.70029122  1
  H  H55  1  0.40699118  0.72939741  0.20029122  1
  H  H56  1  0.05888669  0.21015987  0.45001233  1
  H  H57  1  0.55888669  0.28984013  0.95001233  1
  H  H58  1  0.94111331  0.78984013  0.54998767  1
  H  H59  1  0.44111331  0.71015987  0.04998767  1
  H  H60  1  0.68520348  0.04587588  0.99809948  1
  H  H61  1  0.18520348  0.45412412  0.49809948  1
  H  H62  1  0.31479652  0.95412412  0.00190052  1
  H  H63  1  0.81479652  0.54587588  0.50190052  1
  H  H64  1  0.68995979  0.04334353  0.84312444  1
  H  H65  1  0.18995979  0.45665647  0.34312444  1
  H  H66  1  0.31004021  0.95665647  0.15687556  1
  H  H67  1  0.81004021  0.54334353  0.65687556  1
  H  H68  1  0.58399276  0.89596470  0.90765151  1
  H  H69  1  0.08399276  0.60403530  0.40765151  1
  H  H70  1  0.41600724  0.10403530  0.09234849  1
  H  H71  1  0.91600724  0.39596470  0.59234849  1
  H  H72  1  0.83192764  0.91785147  0.93707655  1
  H  H73  1  0.33192764  0.58214853  0.43707655  1
  H  H74  1  0.16807236  0.08214853  0.06292345  1
  H  H75  1  0.66807236  0.41785147  0.56292345  1
  H  H76  1  0.24643916  0.61487805  0.90463562  1
  H  H77  1  0.74643916  0.88512195  0.40463562  1
  H  H78  1  0.75356084  0.38512195  0.09536438  1
  H  H79  1  0.25356084  0.11487805  0.59536438  1
  H  H80  1  0.99899778  0.62570237  0.86602612  1
  H  H81  1  0.49899778  0.87429763  0.36602612  1
  H  H82  1  0.00100222  0.37429763  0.13397388  1
  H  H83  1  0.50100222  0.12570237  0.63397388  1
  H  H84  1  0.12262432  0.78086665  0.93249701  1
  H  H85  1  0.62262432  0.71913335  0.43249701  1
  H  H86  1  0.87737568  0.21913335  0.06750299  1
  H  H87  1  0.37737568  0.28086665  0.56750299  1
  H  H88  1  0.10610684  0.60793161  0.01453508  1
  H  H89  1  0.60610684  0.89206839  0.51453508  1
  H  H90  1  0.89389316  0.39206839  0.98546492  1
  H  H91  1  0.39389316  0.10793161  0.48546492  1
