# generated using pymatgen
data_Rb2LiFe(MoO4)3
_symmetry_space_group_name_H-M   'P 1'
_cell_length_a   5.95089410
_cell_length_b   8.68238241
_cell_length_c   25.01620023
_cell_angle_alpha   90.00000000
_cell_angle_beta   90.00000000
_cell_angle_gamma   90.00000000
_symmetry_Int_Tables_number   1
_chemical_formula_structural   Rb2LiFe(MoO4)3
_chemical_formula_sum   'Rb8 Li4 Fe4 Mo12 O48'
_cell_volume   1292.53548892
_cell_formula_units_Z   4
loop_
 _symmetry_equiv_pos_site_id
 _symmetry_equiv_pos_as_xyz
  1  'x, y, z'
loop_
 _atom_site_type_symbol
 _atom_site_label
 _atom_site_symmetry_multiplicity
 _atom_site_fract_x
 _atom_site_fract_y
 _atom_site_fract_z
 _atom_site_occupancy
  Rb  Rb0  1  0.75000000  0.87605763  0.21044807  1
  Rb  Rb1  1  0.75000000  0.62394237  0.71044807  1
  Rb  Rb2  1  0.25000000  0.12394237  0.78955193  1
  Rb  Rb3  1  0.25000000  0.37605763  0.28955193  1
  Rb  Rb4  1  0.75000000  0.45137398  0.91884916  1
  Rb  Rb5  1  0.75000000  0.04862602  0.41884916  1
  Rb  Rb6  1  0.25000000  0.54862602  0.08115084  1
  Rb  Rb7  1  0.25000000  0.95137398  0.58115084  1
  Li  Li8  1  0.25000000  0.68600888  0.20775769  1
  Li  Li9  1  0.25000000  0.81399112  0.70775769  1
  Li  Li10  1  0.75000000  0.31399112  0.79224231  1
  Li  Li11  1  0.75000000  0.18600888  0.29224231  1
  Fe  Fe12  1  0.75000000  0.19852411  0.05882453  1
  Fe  Fe13  1  0.75000000  0.30147589  0.55882453  1
  Fe  Fe14  1  0.25000000  0.80147589  0.94117547  1
  Fe  Fe15  1  0.25000000  0.69852411  0.44117547  1
  Mo  Mo16  1  0.25000000  0.20132453  0.97992895  1
  Mo  Mo17  1  0.25000000  0.29867547  0.47992895  1
  Mo  Mo18  1  0.75000000  0.79867547  0.02007105  1
  Mo  Mo19  1  0.75000000  0.70132453  0.52007105  1
  Mo  Mo20  1  0.75000000  0.43865393  0.17776342  1
  Mo  Mo21  1  0.75000000  0.06134607  0.67776342  1
  Mo  Mo22  1  0.25000000  0.56134607  0.82223658  1
  Mo  Mo23  1  0.25000000  0.93865393  0.32223658  1
  Mo  Mo24  1  0.25000000  0.06191669  0.13911178  1
  Mo  Mo25  1  0.25000000  0.43808331  0.63911178  1
  Mo  Mo26  1  0.75000000  0.93808331  0.86088822  1
  Mo  Mo27  1  0.75000000  0.56191669  0.36088822  1
  O  O28  1  0.25000000  0.24809611  0.91190500  1
  O  O29  1  0.25000000  0.25190389  0.41190500  1
  O  O30  1  0.75000000  0.75190389  0.08809500  1
  O  O31  1  0.75000000  0.74809611  0.58809500  1
  O  O32  1  0.25000000  0.99627159  0.98783966  1
  O  O33  1  0.25000000  0.50372841  0.48783966  1
  O  O34  1  0.75000000  0.00372841  0.01216034  1
  O  O35  1  0.75000000  0.49627159  0.51216034  1
  O  O36  1  0.99750590  0.28772098  0.00970608  1
  O  O37  1  0.50249410  0.21227902  0.50970608  1
  O  O38  1  0.49750590  0.71227902  0.99029392  1
  O  O39  1  0.00249410  0.78772098  0.49029392  1
  O  O40  1  0.00249410  0.71227902  0.99029392  1
  O  O41  1  0.49750590  0.78772098  0.49029392  1
  O  O42  1  0.50249410  0.28772098  0.00970608  1
  O  O43  1  0.99750590  0.21227902  0.50970608  1
  O  O44  1  0.75000000  0.27596243  0.22082877  1
  O  O45  1  0.75000000  0.22403757  0.72082877  1
  O  O46  1  0.25000000  0.72403757  0.77917123  1
  O  O47  1  0.25000000  0.77596243  0.27917123  1
  O  O48  1  0.50650735  0.55318487  0.19135457  1
  O  O49  1  0.99349265  0.94681513  0.69135457  1
  O  O50  1  0.00650735  0.44681513  0.80864543  1
  O  O51  1  0.49349265  0.05318487  0.30864543  1
  O  O52  1  0.49349265  0.44681513  0.80864543  1
  O  O53  1  0.00650735  0.05318487  0.30864543  1
  O  O54  1  0.99349265  0.55318487  0.19135457  1
  O  O55  1  0.50650735  0.94681513  0.69135457  1
  O  O56  1  0.75000000  0.38224874  0.10670844  1
  O  O57  1  0.75000000  0.11775126  0.60670844  1
  O  O58  1  0.25000000  0.61775126  0.89329156  1
  O  O59  1  0.25000000  0.88224874  0.39329156  1
  O  O60  1  0.25000000  0.18008755  0.19577253  1
  O  O61  1  0.25000000  0.31991245  0.69577253  1
  O  O62  1  0.75000000  0.81991245  0.80422747  1
  O  O63  1  0.75000000  0.68008755  0.30422747  1
  O  O64  1  0.25000000  0.86532614  0.16111255  1
  O  O65  1  0.25000000  0.63467386  0.66111255  1
  O  O66  1  0.75000000  0.13467386  0.83888745  1
  O  O67  1  0.75000000  0.36532614  0.33888745  1
  O  O68  1  0.50463779  0.10199782  0.10164792  1
  O  O69  1  0.99536221  0.39800218  0.60164792  1
  O  O70  1  0.00463779  0.89800218  0.89835208  1
  O  O71  1  0.49536221  0.60199782  0.39835208  1
  O  O72  1  0.49536221  0.89800218  0.89835208  1
  O  O73  1  0.00463779  0.60199782  0.39835208  1
  O  O74  1  0.99536221  0.10199782  0.10164792  1
  O  O75  1  0.50463779  0.39800218  0.60164792  1
