# generated using pymatgen
data_CaSi(HO2)2
_symmetry_space_group_name_H-M   'P 1'
_cell_length_a   6.05410604
_cell_length_b   6.39945610
_cell_length_c   10.41650043
_cell_angle_alpha   82.09912774
_cell_angle_beta   73.10601599
_cell_angle_gamma   61.76966937
_symmetry_Int_Tables_number   1
_chemical_formula_structural   CaSi(HO2)2
_chemical_formula_sum   'Ca4 Si4 H8 O16'
_cell_volume   340.21873716
_cell_formula_units_Z   4
loop_
 _symmetry_equiv_pos_site_id
 _symmetry_equiv_pos_as_xyz
  1  'x, y, z'
loop_
 _atom_site_type_symbol
 _atom_site_label
 _atom_site_symmetry_multiplicity
 _atom_site_fract_x
 _atom_site_fract_y
 _atom_site_fract_z
 _atom_site_occupancy
  Ca  Ca0  1  0.83845804  0.17538227  0.65443599  1
  Ca  Ca1  1  0.66827630  0.82461773  0.34556401  1
  Ca  Ca2  1  0.24289403  0.67538227  0.84556401  1
  Ca  Ca3  1  0.76384031  0.32461773  0.15443599  1
  Si  Si4  1  0.23049693  0.17906771  0.86791504  1
  Si  Si5  1  0.27747967  0.82093229  0.13208496  1
  Si  Si6  1  0.84841197  0.67906771  0.63208496  1
  Si  Si7  1  0.15956464  0.32093229  0.36791504  1
  H  H8  1  0.69324025  0.90511216  0.05785447  1
  H  H9  1  0.65620688  0.09488784  0.94214553  1
  H  H10  1  0.50109471  0.40511216  0.44214553  1
  H  H11  1  0.34835241  0.59488784  0.55785447  1
  H  H12  1  0.83743080  0.49241781  0.86554395  1
  H  H13  1  0.19539256  0.50758219  0.13445605  1
  H  H14  1  0.45297475  0.99241781  0.63445605  1
  H  H15  1  0.07984861  0.00758219  0.36554395  1
  O  O16  1  0.25930176  -0.00000000  -0.00000000  1
  O  O17  1  0.00930176  0.50000000  0.50000000  1
  O  O18  1  0.46926546  0.24430288  0.82406691  1
  O  O19  1  0.53763525  0.75569712  0.17593309  1
  O  O20  1  0.04333237  0.74430288  0.67593309  1
  O  O21  1  0.46356834  0.25569712  0.32406691  1
  O  O22  1  0.19216647  0.06482245  0.75124040  1
  O  O23  1  0.00822933  0.93517755  0.24875960  1
  O  O24  1  0.69340687  0.56482245  0.74875960  1
  O  O25  1  0.00698893  0.43517755  0.25124040  1
  O  O26  1  0.95797955  0.42803740  0.92895480  1
  O  O27  1  0.31497176  0.57196260  0.07104520  1
  O  O28  1  0.63693435  0.92803740  0.57104520  1
  O  O29  1  0.13601695  0.07196260  0.42895480  1
  O  O30  1  0.77686901  -0.00000000  -0.00000000  1
  O  O31  1  0.52686901  0.50000000  0.50000000  1
