# generated using pymatgen
data_Ba2FeSbS5
_symmetry_space_group_name_H-M   'P 1'
_cell_length_a   8.91328778
_cell_length_b   9.04885672
_cell_length_c   12.21481034
_cell_angle_alpha   90.00000000
_cell_angle_beta   90.00000000
_cell_angle_gamma   90.00000000
_symmetry_Int_Tables_number   1
_chemical_formula_structural   Ba2FeSbS5
_chemical_formula_sum   'Ba8 Fe4 Sb4 S20'
_cell_volume   985.18631003
_cell_formula_units_Z   4
loop_
 _symmetry_equiv_pos_site_id
 _symmetry_equiv_pos_as_xyz
  1  'x, y, z'
loop_
 _atom_site_type_symbol
 _atom_site_label
 _atom_site_symmetry_multiplicity
 _atom_site_fract_x
 _atom_site_fract_y
 _atom_site_fract_z
 _atom_site_occupancy
  Ba  Ba0  1  0.00733598  0.12231900  0.82357648  1
  Ba  Ba1  1  0.49266402  0.37768100  0.32357648  1
  Ba  Ba2  1  0.50733598  0.87768100  0.17642352  1
  Ba  Ba3  1  0.99266402  0.62231900  0.67642352  1
  Ba  Ba4  1  0.99266402  0.87768100  0.17642352  1
  Ba  Ba5  1  0.50733598  0.62231900  0.67642352  1
  Ba  Ba6  1  0.49266402  0.12231900  0.82357648  1
  Ba  Ba7  1  0.00733598  0.37768100  0.32357648  1
  Fe  Fe8  1  0.25000000  0.32729272  0.59491505  1
  Fe  Fe9  1  0.25000000  0.17270728  0.09491505  1
  Fe  Fe10  1  0.75000000  0.67270728  0.40508495  1
  Fe  Fe11  1  0.75000000  0.82729272  0.90508495  1
  Sb  Sb12  1  0.25000000  0.98348060  0.52232101  1
  Sb  Sb13  1  0.25000000  0.51651940  0.02232101  1
  Sb  Sb14  1  0.75000000  0.01651940  0.47767899  1
  Sb  Sb15  1  0.75000000  0.48348060  0.97767899  1
  S  S16  1  0.04990321  0.17923413  0.55447548  1
  S  S17  1  0.45009679  0.32076587  0.05447548  1
  S  S18  1  0.54990321  0.82076587  0.44552452  1
  S  S19  1  0.95009679  0.67923413  0.94552452  1
  S  S20  1  0.95009679  0.82076587  0.44552452  1
  S  S21  1  0.54990321  0.67923413  0.94552452  1
  S  S22  1  0.45009679  0.17923413  0.55447548  1
  S  S23  1  0.04990321  0.32076587  0.05447548  1
  S  S24  1  0.25000000  0.88402568  0.70975728  1
  S  S25  1  0.25000000  0.61597432  0.20975728  1
  S  S26  1  0.75000000  0.11597432  0.29024272  1
  S  S27  1  0.75000000  0.38402568  0.79024272  1
  S  S28  1  0.25000000  0.38527666  0.77238234  1
  S  S29  1  0.25000000  0.11472334  0.27238234  1
  S  S30  1  0.75000000  0.61472334  0.22761766  1
  S  S31  1  0.75000000  0.88527666  0.72761766  1
  S  S32  1  0.25000000  0.96998976  0.99425917  1
  S  S33  1  0.25000000  0.53001024  0.49425917  1
  S  S34  1  0.75000000  0.03001024  0.00574083  1
  S  S35  1  0.75000000  0.46998976  0.50574083  1
