# generated using pymatgen
data_RbPH6C2(NO)4
_symmetry_space_group_name_H-M   'P 1'
_cell_length_a   7.90041973
_cell_length_b   7.90041973
_cell_length_c   8.38984855
_cell_angle_alpha   115.46302685
_cell_angle_beta   115.46302685
_cell_angle_gamma   94.98385080
_symmetry_Int_Tables_number   1
_chemical_formula_structural   RbPH6C2(NO)4
_chemical_formula_sum   'Rb2 P2 H12 C4 N8 O8'
_cell_volume   402.46044165
_cell_formula_units_Z   2
loop_
 _symmetry_equiv_pos_site_id
 _symmetry_equiv_pos_as_xyz
  1  'x, y, z'
loop_
 _atom_site_type_symbol
 _atom_site_label
 _atom_site_symmetry_multiplicity
 _atom_site_fract_x
 _atom_site_fract_y
 _atom_site_fract_z
 _atom_site_occupancy
  Rb  Rb0  1  0.26337626  0.73662374  0.50000000  1
  Rb  Rb1  1  0.01337626  0.98662374  -0.00000000  1
  P  P2  1  0.58629934  0.41370066  0.50000000  1
  P  P3  1  0.33629934  0.66370066  -0.00000000  1
  H  H4  1  0.09363871  0.11165555  0.47378377  1
  H  H5  1  0.88834445  0.90636129  0.52621623  1
  H  H6  1  0.86985494  0.38787178  0.02621623  1
  H  H7  1  0.61212822  0.13014506  0.97378377  1
  H  H8  1  0.17416067  0.37152172  0.60095598  1
  H  H9  1  0.62847828  0.82583933  0.39904402  1
  H  H10  1  0.82320469  0.52056574  0.89904402  1
  H  H11  1  0.47943426  0.17679531  0.10095598  1
  H  H12  1  0.31189493  0.41858368  0.08638474  1
  H  H13  1  0.58141632  0.68810507  0.91361526  1
  H  H14  1  0.47551019  0.08219894  0.41361526  1
  H  H15  1  0.91780106  0.52448981  0.58638474  1
  C  C16  1  0.20305725  0.24882768  0.77970909  1
  C  C17  1  0.75117232  0.79694275  0.22029091  1
  C  C18  1  0.67334816  0.21911859  0.72029091  1
  C  C19  1  0.78088141  0.32665184  0.27970909  1
  N  N20  1  0.17662541  0.24628884  0.60844616  1
  N  N21  1  0.75371116  0.82337459  0.39155384  1
  N  N22  1  0.81817925  0.38784268  0.89155384  1
  N  N23  1  0.61215732  0.18182075  0.10844616  1
  N  N24  1  0.27914438  0.42976322  0.95900673  1
  N  N25  1  0.57023678  0.72085562  0.04099327  1
  N  N26  1  0.57013765  0.22075649  0.54099327  1
  N  N27  1  0.77924351  0.42986235  0.45900673  1
  O  O28  1  0.16250794  0.08839476  0.77702748  1
  O  O29  1  0.91160524  0.83749206  0.22297252  1
  O  O30  1  0.63548046  0.06136728  0.72297252  1
  O  O31  1  0.93863272  0.36451954  0.27702748  1
  O  O32  1  0.65120381  0.60634324  0.69620770  1
  O  O33  1  0.39365676  0.34879619  0.30379230  1
  O  O34  1  0.20499612  0.66013555  0.80379230  1
  O  O35  1  0.33986445  0.79500388  0.19620770  1
