# generated using pymatgen
data_NaP2H5CO6
_symmetry_space_group_name_H-M   'P 1'
_cell_length_a   8.40541851
_cell_length_b   8.21979099
_cell_length_c   9.98152389
_cell_angle_alpha   90.00000000
_cell_angle_beta   96.97636624
_cell_angle_gamma   90.00000000
_symmetry_Int_Tables_number   1
_chemical_formula_structural   NaP2H5CO6
_chemical_formula_sum   'Na4 P8 H20 C4 O24'
_cell_volume   684.52550618
_cell_formula_units_Z   4
loop_
 _symmetry_equiv_pos_site_id
 _symmetry_equiv_pos_as_xyz
  1  'x, y, z'
loop_
 _atom_site_type_symbol
 _atom_site_label
 _atom_site_symmetry_multiplicity
 _atom_site_fract_x
 _atom_site_fract_y
 _atom_site_fract_z
 _atom_site_occupancy
  Na  Na0  1  -0.00000000  0.50000000  -0.00000000  1
  Na  Na1  1  0.50000000  0.00000000  0.50000000  1
  Na  Na2  1  -0.00000000  0.50000000  0.50000000  1
  Na  Na3  1  0.50000000  0.00000000  -0.00000000  1
  P  P4  1  0.30498287  0.63303582  0.32675914  1
  P  P5  1  0.80498287  0.86696418  0.82675914  1
  P  P6  1  0.69501713  0.36696418  0.67324086  1
  P  P7  1  0.19501713  0.13303582  0.17324086  1
  P  P8  1  0.65036291  0.73803319  0.25253821  1
  P  P9  1  0.15036291  0.76196681  0.75253821  1
  P  P10  1  0.34963709  0.26196681  0.74746179  1
  P  P11  1  0.84963709  0.23803319  0.24746179  1
  H  H12  1  0.24005307  0.80983289  0.16242206  1
  H  H13  1  0.74005307  0.69016711  0.66242206  1
  H  H14  1  0.75994693  0.19016711  0.83757794  1
  H  H15  1  0.25994693  0.30983289  0.33757794  1
  H  H16  1  0.22924332  0.76385623  0.50813041  1
  H  H17  1  0.72924332  0.73614377  0.00813041  1
  H  H18  1  0.77075668  0.23614377  0.49186959  1
  H  H19  1  0.27075668  0.26385623  0.99186959  1
  H  H20  1  0.83271285  0.54623342  0.24012143  1
  H  H21  1  0.33271285  0.95376658  0.74012143  1
  H  H22  1  0.16728715  0.45376658  0.75987857  1
  H  H23  1  0.66728715  0.04623342  0.25987857  1
  H  H24  1  0.50629885  0.48827941  0.22633624  1
  H  H25  1  0.00629885  0.01172059  0.72633624  1
  H  H26  1  0.49370115  0.51172059  0.77366376  1
  H  H27  1  0.99370115  0.98827941  0.27366376  1
  H  H28  1  0.56636428  0.53874958  0.39857327  1
  H  H29  1  0.06636428  0.96125042  0.89857327  1
  H  H30  1  0.43363572  0.46125042  0.60142673  1
  H  H31  1  0.93363572  0.03874958  0.10142673  1
  C  C32  1  0.50926653  0.58656903  0.30154620  1
  C  C33  1  0.00926653  0.91343097  0.80154620  1
  C  C34  1  0.49073347  0.41343097  0.69845380  1
  C  C35  1  0.99073347  0.08656903  0.19845380  1
  O  O36  1  0.21226950  0.69207521  0.18871978  1
  O  O37  1  0.71226950  0.80792479  0.68871978  1
  O  O38  1  0.78773050  0.30792479  0.81128022  1
  O  O39  1  0.28773050  0.19207521  0.31128022  1
  O  O40  1  0.31239309  0.77555200  0.43214747  1
  O  O41  1  0.81239309  0.72444800  0.93214747  1
  O  O42  1  0.68760691  0.22444800  0.56785253  1
  O  O43  1  0.18760691  0.27555200  0.06785253  1
  O  O44  1  0.22465179  0.48321259  0.37528739  1
  O  O45  1  0.72465179  0.01678741  0.87528739  1
  O  O46  1  0.77534821  0.51678741  0.62471261  1
  O  O47  1  0.27534821  0.98321259  0.12471261  1
  O  O48  1  0.64057447  0.89252355  0.33463500  1
  O  O49  1  0.14057447  0.60747645  0.83463500  1
  O  O50  1  0.35942553  0.10747645  0.66536500  1
  O  O51  1  0.85942553  0.39252355  0.16536500  1
  O  O52  1  0.62385649  0.76384995  0.09971250  1
  O  O53  1  0.12385649  0.73615005  0.59971250  1
  O  O54  1  0.37614351  0.23615005  0.90028750  1
  O  O55  1  0.87614351  0.26384995  0.40028750  1
  O  O56  1  0.81876958  0.65264583  0.29447774  1
  O  O57  1  0.31876958  0.84735417  0.79447774  1
  O  O58  1  0.18123042  0.34735417  0.70552226  1
  O  O59  1  0.68123042  0.15264583  0.20552226  1
