# generated using pymatgen
data_Ni5P2
_symmetry_space_group_name_H-M   'P 1'
_cell_length_a   6.54745049
_cell_length_b   6.54733627
_cell_length_c   12.23960109
_cell_angle_alpha   90.00000000
_cell_angle_beta   90.00000000
_cell_angle_gamma   120.00057699
_symmetry_Int_Tables_number   1
_chemical_formula_structural   Ni5P2
_chemical_formula_sum   'Ni30 P12'
_cell_volume   454.39363600
_cell_formula_units_Z   6
loop_
 _symmetry_equiv_pos_site_id
 _symmetry_equiv_pos_as_xyz
  1  'x, y, z'
loop_
 _atom_site_type_symbol
 _atom_site_label
 _atom_site_symmetry_multiplicity
 _atom_site_fract_x
 _atom_site_fract_y
 _atom_site_fract_z
 _atom_site_occupancy
  Ni  Ni0  1  0.99999136  -0.00000000  0.57453250  1
  Ni  Ni1  1  0.00000864  0.00000000  0.07453250  1
  Ni  Ni2  1  0.66665089  0.33331471  0.43687072  1
  Ni  Ni3  1  0.33333618  0.66668529  0.43687072  1
  Ni  Ni4  1  0.33334911  0.66668529  0.93687072  1
  Ni  Ni5  1  0.66666382  0.33331471  0.93687072  1
  Ni  Ni6  1  0.76489941  -0.00000000  0.40378282  1
  Ni  Ni7  1  0.23513768  0.23513396  0.40377813  1
  Ni  Ni8  1  0.00000373  0.76486604  0.40377813  1
  Ni  Ni9  1  0.23510059  0.00000000  0.90378282  1
  Ni  Ni10  1  0.76486232  0.76486604  0.90377813  1
  Ni  Ni11  1  0.99999627  0.23513396  0.90377813  1
  Ni  Ni12  1  0.38254678  1.00000000  0.30500864  1
  Ni  Ni13  1  0.61745959  0.61746300  0.30501387  1
  Ni  Ni14  1  -0.00000341  0.38253700  0.30501387  1
  Ni  Ni15  1  0.61745322  0.00000000  0.80500864  1
  Ni  Ni16  1  0.38254041  0.38253700  0.80501387  1
  Ni  Ni17  1  0.00000341  0.61746300  0.80501387  1
  Ni  Ni18  1  0.69388037  0.00000000  0.19603528  1
  Ni  Ni19  1  0.30613031  0.30613033  0.19604025  1
  Ni  Ni20  1  -0.00000001  0.69386967  0.19604025  1
  Ni  Ni21  1  0.30611963  1.00000000  0.69603528  1
  Ni  Ni22  1  0.69386969  0.69386967  0.69604025  1
  Ni  Ni23  1  0.00000001  0.30613033  0.69604025  1
  Ni  Ni24  1  0.38494000  1.00000000  0.08821362  1
  Ni  Ni25  1  0.61511992  0.61503890  0.08822119  1
  Ni  Ni26  1  0.00008102  0.38496110  0.08822119  1
  Ni  Ni27  1  0.61506000  0.00000000  0.58821362  1
  Ni  Ni28  1  0.38488008  0.38496110  0.58822119  1
  Ni  Ni29  1  0.99991898  0.61503890  0.58822119  1
  P  P30  1  0.00000812  -0.00000000  0.26850942  1
  P  P31  1  0.99999188  0.00000000  0.76850942  1
  P  P32  1  0.66667044  0.33333133  0.23204701  1
  P  P33  1  0.33333911  0.66666867  0.23204701  1
  P  P34  1  0.33332956  0.66666867  0.73204701  1
  P  P35  1  0.66666089  0.33333133  0.73204701  1
  P  P36  1  0.32481902  1.00000000  0.50232430  1
  P  P37  1  0.67515877  0.67515681  0.50232555  1
  P  P38  1  0.00000196  0.32484319  0.50232555  1
  P  P39  1  0.67518098  0.00000000  0.00232430  1
  P  P40  1  0.32484123  0.32484319  0.00232555  1
  P  P41  1  0.99999804  0.67515681  0.00232555  1
