# generated using pymatgen
data_Nd6Fe13As
_symmetry_space_group_name_H-M   'P 1'
_cell_length_a   7.99875051
_cell_length_b   7.99875051
_cell_length_c   12.83220257
_cell_angle_alpha   108.15972590
_cell_angle_beta   108.15972590
_cell_angle_gamma   90.00000000
_symmetry_Int_Tables_number   1
_chemical_formula_structural   Nd6Fe13As
_chemical_formula_sum   'Nd12 Fe26 As2'
_cell_volume   736.95256410
_cell_formula_units_Z   2
loop_
 _symmetry_equiv_pos_site_id
 _symmetry_equiv_pos_as_xyz
  1  'x, y, z'
loop_
 _atom_site_type_symbol
 _atom_site_label
 _atom_site_symmetry_multiplicity
 _atom_site_fract_x
 _atom_site_fract_y
 _atom_site_fract_z
 _atom_site_occupancy
  Nd  Nd0  1  0.60713060  0.60713060  0.21426120  1
  Nd  Nd1  1  0.10713060  0.10713060  0.21426120  1
  Nd  Nd2  1  0.39286940  0.39286940  0.78573880  1
  Nd  Nd3  1  0.89286940  0.89286940  0.78573880  1
  Nd  Nd4  1  0.97696386  0.47696386  0.62436377  1
  Nd  Nd5  1  0.64739992  0.14739992  0.62436377  1
  Nd  Nd6  1  0.14739992  0.97696386  0.62436377  1
  Nd  Nd7  1  0.47696386  0.64739992  0.62436377  1
  Nd  Nd8  1  0.02303614  0.52303614  0.37563623  1
  Nd  Nd9  1  0.35260008  0.85260008  0.37563623  1
  Nd  Nd10  1  0.85260008  0.02303614  0.37563623  1
  Nd  Nd11  1  0.52303614  0.35260008  0.37563623  1
  Fe  Fe12  1  0.00000000  0.50000000  -0.00000000  1
  Fe  Fe13  1  0.50000000  0.00000000  0.00000000  1
  Fe  Fe14  1  0.70872399  0.56621745  -0.00000000  1
  Fe  Fe15  1  0.29127601  0.43378255  0.00000000  1
  Fe  Fe16  1  0.79127601  0.06621745  0.00000000  1
  Fe  Fe17  1  0.20872399  0.93378255  -0.00000000  1
  Fe  Fe18  1  0.56621745  0.29127601  -0.00000000  1
  Fe  Fe19  1  0.43378255  0.70872399  -0.00000000  1
  Fe  Fe20  1  0.06621745  0.20872399  0.00000000  1
  Fe  Fe21  1  0.93378255  0.79127601  0.00000000  1
  Fe  Fe22  1  0.11937788  0.61937788  0.88026115  1
  Fe  Fe23  1  0.76088326  0.26088326  0.88026115  1
  Fe  Fe24  1  0.26088326  0.11937788  0.88026115  1
  Fe  Fe25  1  0.61937788  0.76088326  0.88026115  1
  Fe  Fe26  1  0.88062212  0.38062212  0.11973885  1
  Fe  Fe27  1  0.23911674  0.73911674  0.11973885  1
  Fe  Fe28  1  0.73911674  0.88062212  0.11973885  1
  Fe  Fe29  1  0.38062212  0.23911674  0.11973885  1
  Fe  Fe30  1  0.29140389  0.79140389  0.80999046  1
  Fe  Fe31  1  0.51858657  0.01858657  0.80999046  1
  Fe  Fe32  1  0.01858657  0.29140389  0.80999046  1
  Fe  Fe33  1  0.79140389  0.51858657  0.80999046  1
  Fe  Fe34  1  0.70859611  0.20859611  0.19000954  1
  Fe  Fe35  1  0.48141343  0.98141343  0.19000954  1
  Fe  Fe36  1  0.98141343  0.70859611  0.19000954  1
  Fe  Fe37  1  0.20859611  0.48141343  0.19000954  1
  As  As38  1  0.25000000  0.25000000  0.50000000  1
  As  As39  1  0.75000000  0.75000000  0.50000000  1
