# generated using pymatgen
data_B3H12N
_symmetry_space_group_name_H-M   'P 1'
_cell_length_a   5.63811494
_cell_length_b   5.63811494
_cell_length_c   8.68536084
_cell_angle_alpha   90.00000000
_cell_angle_beta   90.00000000
_cell_angle_gamma   94.35579789
_symmetry_Int_Tables_number   1
_chemical_formula_structural   B3H12N
_chemical_formula_sum   'B6 H24 N2'
_cell_volume   275.29574845
_cell_formula_units_Z   2
loop_
 _symmetry_equiv_pos_site_id
 _symmetry_equiv_pos_as_xyz
  1  'x, y, z'
loop_
 _atom_site_type_symbol
 _atom_site_label
 _atom_site_symmetry_multiplicity
 _atom_site_fract_x
 _atom_site_fract_y
 _atom_site_fract_z
 _atom_site_occupancy
  B  B0  1  0.10417617  0.89582383  0.25000000  1
  B  B1  1  0.89582383  0.10417617  0.75000000  1
  B  B2  1  0.28920571  0.71079429  0.14651249  1
  B  B3  1  0.71079429  0.28920571  0.85348751  1
  B  B4  1  0.28920571  0.71079429  0.35348751  1
  B  B5  1  0.71079429  0.28920571  0.64651249  1
  H  H6  1  0.86031562  0.35837928  0.25000000  1
  H  H7  1  0.35837928  0.86031562  0.75000000  1
  H  H8  1  0.13968438  0.64162072  0.75000000  1
  H  H9  1  0.64162072  0.13968438  0.25000000  1
  H  H10  1  0.60629539  0.39370461  0.15310584  1
  H  H11  1  0.39370461  0.60629539  0.84689416  1
  H  H12  1  0.60629539  0.39370461  0.34689416  1
  H  H13  1  0.39370461  0.60629539  0.65310584  1
  H  H14  1  0.21175483  0.51900537  0.09667978  1
  H  H15  1  0.51900537  0.21175483  0.90332022  1
  H  H16  1  0.21175483  0.51900537  0.40332022  1
  H  H17  1  0.51900537  0.21175483  0.59667978  1
  H  H18  1  0.78824517  0.48099463  0.90332022  1
  H  H19  1  0.48099463  0.78824517  0.09667978  1
  H  H20  1  0.78824517  0.48099463  0.59667978  1
  H  H21  1  0.48099463  0.78824517  0.40332022  1
  H  H22  1  0.14885446  0.85114554  0.08799762  1
  H  H23  1  0.85114554  0.14885446  0.91200238  1
  H  H24  1  0.14885446  0.85114554  0.41200238  1
  H  H25  1  0.85114554  0.14885446  0.58799762  1
  H  H26  1  0.89266554  0.84041264  0.25000000  1
  H  H27  1  0.84041264  0.89266554  0.75000000  1
  H  H28  1  0.10733446  0.15958736  0.75000000  1
  H  H29  1  0.15958736  0.10733446  0.25000000  1
  N  N30  1  0.67810621  0.32189379  0.25000000  1
  N  N31  1  0.32189379  0.67810621  0.75000000  1
