# generated using pymatgen
data_Fe3Co5O16
_symmetry_space_group_name_H-M   'P 1'
_cell_length_a   5.73635567
_cell_length_b   5.71377830
_cell_length_c   8.55365818
_cell_angle_alpha   89.99317361
_cell_angle_beta   91.66959956
_cell_angle_gamma   119.81265693
_symmetry_Int_Tables_number   1
_chemical_formula_structural   Fe3Co5O16
_chemical_formula_sum   'Fe3 Co5 O16'
_cell_volume   243.11667162
_cell_formula_units_Z   1
loop_
 _symmetry_equiv_pos_site_id
 _symmetry_equiv_pos_as_xyz
  1  'x, y, z'
loop_
 _atom_site_type_symbol
 _atom_site_label
 _atom_site_symmetry_multiplicity
 _atom_site_fract_x
 _atom_site_fract_y
 _atom_site_fract_z
 _atom_site_occupancy
  Fe  Fe0  1  0.66856724  0.83428780  0.20984473  1
  Fe  Fe1  1  0.83587934  0.66781472  0.70917615  1
  Fe  Fe2  1  0.83586687  0.16808626  0.70911163  1
  Co  Co3  1  0.16699101  0.83208437  0.20678376  1
  Co  Co4  1  0.33634754  0.66810684  0.48618673  1
  Co  Co5  1  0.16714576  0.33499646  0.20675117  1
  Co  Co6  1  0.33825990  0.16905361  0.70404080  1
  Co  Co7  1  0.66106908  0.33057419  0.98752132  1
  O  O8  1  0.18050709  0.83578954  0.59718890  1
  O  O9  1  0.04691011  0.52353521  0.33429131  1
  O  O10  1  0.32758420  0.66371094  0.09793615  1
  O  O11  1  0.00926837  0.00474913  0.31770093  1
  O  O12  1  0.01618546  0.00844801  0.81575668  1
  O  O13  1  0.18035223  0.34468039  0.59716742  1
  O  O14  1  0.46958776  0.95394617  0.34380980  1
  O  O15  1  0.46948939  0.51542147  0.34386130  1
  O  O16  1  0.33165380  0.16591071  0.10840509  1
  O  O17  1  0.65960040  0.82970197  0.59640427  1
  O  O18  1  0.50778529  0.46323223  0.84657555  1
  O  O19  1  0.50760327  0.04395302  0.84652424  1
  O  O20  1  0.65854393  0.32886890  0.59581626  1
  O  O21  1  0.83619336  0.66457520  0.10007917  1
  O  O22  1  0.95250629  0.47644030  0.85477702  1
  O  O23  1  0.83610330  0.17223157  0.10001060  1
