# generated using pymatgen
data_Zr3Si
_symmetry_space_group_name_H-M   'P 1'
_cell_length_a   5.45120923
_cell_length_b   11.04320814
_cell_length_c   11.04320814
_cell_angle_alpha   90.00000000
_cell_angle_beta   90.00000000
_cell_angle_gamma   90.00000000
_symmetry_Int_Tables_number   1
_chemical_formula_structural   Zr3Si
_chemical_formula_sum   'Zr24 Si8'
_cell_volume   664.78829938
_cell_formula_units_Z   8
loop_
 _symmetry_equiv_pos_site_id
 _symmetry_equiv_pos_as_xyz
  1  'x, y, z'
loop_
 _atom_site_type_symbol
 _atom_site_label
 _atom_site_symmetry_multiplicity
 _atom_site_fract_x
 _atom_site_fract_y
 _atom_site_fract_z
 _atom_site_occupancy
  Zr  Zr0  1  0.78512796  0.85804493  0.16742538  1
  Zr  Zr1  1  0.78512796  0.64195507  0.33257462  1
  Zr  Zr2  1  0.28512796  0.66742538  0.14195507  1
  Zr  Zr3  1  0.28512796  0.83257462  0.35804493  1
  Zr  Zr4  1  0.21487204  0.14195507  0.83257462  1
  Zr  Zr5  1  0.21487204  0.35804493  0.66742538  1
  Zr  Zr6  1  0.71487204  0.33257462  0.85804493  1
  Zr  Zr7  1  0.71487204  0.16742538  0.64195507  1
  Zr  Zr8  1  0.97152732  0.22238475  0.11183661  1
  Zr  Zr9  1  0.97152732  0.27761525  0.38816339  1
  Zr  Zr10  1  0.47152732  0.61183661  0.77761525  1
  Zr  Zr11  1  0.47152732  0.88816339  0.72238475  1
  Zr  Zr12  1  0.02847268  0.77761525  0.88816339  1
  Zr  Zr13  1  0.02847268  0.72238475  0.61183661  1
  Zr  Zr14  1  0.52847268  0.38816339  0.22238475  1
  Zr  Zr15  1  0.52847268  0.11183661  0.27761525  1
  Zr  Zr16  1  0.26003569  0.96559559  0.07111320  1
  Zr  Zr17  1  0.26003569  0.53440441  0.42888680  1
  Zr  Zr18  1  0.76003569  0.57111320  0.03440441  1
  Zr  Zr19  1  0.76003569  0.92888680  0.46559559  1
  Zr  Zr20  1  0.73996431  0.03440441  0.92888680  1
  Zr  Zr21  1  0.73996431  0.46559559  0.57111320  1
  Zr  Zr22  1  0.23996431  0.42888680  0.96559559  1
  Zr  Zr23  1  0.23996431  0.07111320  0.53440441  1
  Si  Si24  1  0.46206024  0.20769515  0.04483765  1
  Si  Si25  1  0.46206024  0.29230485  0.45516235  1
  Si  Si26  1  0.96206024  0.54483765  0.79230485  1
  Si  Si27  1  0.96206024  0.95516235  0.70769515  1
  Si  Si28  1  0.53793976  0.79230485  0.95516235  1
  Si  Si29  1  0.53793976  0.70769515  0.54483765  1
  Si  Si30  1  0.03793976  0.45516235  0.20769515  1
  Si  Si31  1  0.03793976  0.04483765  0.29230485  1
