# generated using pymatgen
data_KCa2Cd2Sb3
_symmetry_space_group_name_H-M   'P 1'
_cell_length_a   4.84284809
_cell_length_b   12.48522984
_cell_length_c   16.09790922
_cell_angle_alpha   90.00000000
_cell_angle_beta   90.00000000
_cell_angle_gamma   90.00000000
_symmetry_Int_Tables_number   1
_chemical_formula_structural   KCa2Cd2Sb3
_chemical_formula_sum   'K4 Ca8 Cd8 Sb12'
_cell_volume   973.34513382
_cell_formula_units_Z   4
loop_
 _symmetry_equiv_pos_site_id
 _symmetry_equiv_pos_as_xyz
  1  'x, y, z'
loop_
 _atom_site_type_symbol
 _atom_site_label
 _atom_site_symmetry_multiplicity
 _atom_site_fract_x
 _atom_site_fract_y
 _atom_site_fract_z
 _atom_site_occupancy
  K  K0  1  0.75000000  0.08970637  0.03929722  1
  K  K1  1  0.75000000  0.58970637  0.46070278  1
  K  K2  1  0.25000000  0.91029363  0.96070278  1
  K  K3  1  0.25000000  0.41029363  0.53929722  1
  Ca  Ca4  1  0.75000000  0.39980265  0.92265018  1
  Ca  Ca5  1  0.75000000  0.89980265  0.57734982  1
  Ca  Ca6  1  0.25000000  0.60019735  0.07734982  1
  Ca  Ca7  1  0.25000000  0.10019735  0.42265018  1
  Ca  Ca8  1  0.75000000  0.14347793  0.77727511  1
  Ca  Ca9  1  0.75000000  0.64347793  0.72272489  1
  Ca  Ca10  1  0.25000000  0.85652207  0.22272489  1
  Ca  Ca11  1  0.25000000  0.35652207  0.27727511  1
  Cd  Cd12  1  0.75000000  0.20162385  0.57302878  1
  Cd  Cd13  1  0.75000000  0.70162385  0.92697122  1
  Cd  Cd14  1  0.25000000  0.79837615  0.42697122  1
  Cd  Cd15  1  0.25000000  0.29837615  0.07302878  1
  Cd  Cd16  1  0.75000000  0.12319816  0.27923360  1
  Cd  Cd17  1  0.75000000  0.62319816  0.22076640  1
  Cd  Cd18  1  0.25000000  0.87680184  0.72076640  1
  Cd  Cd19  1  0.25000000  0.37680184  0.77923360  1
  Sb  Sb20  1  0.75000000  0.41843579  0.12456212  1
  Sb  Sb21  1  0.75000000  0.91843579  0.37543788  1
  Sb  Sb22  1  0.25000000  0.58156421  0.87543788  1
  Sb  Sb23  1  0.25000000  0.08156421  0.62456212  1
  Sb  Sb24  1  0.75000000  0.38962834  0.68886067  1
  Sb  Sb25  1  0.75000000  0.88962834  0.81113933  1
  Sb  Sb26  1  0.25000000  0.61037166  0.31113933  1
  Sb  Sb27  1  0.25000000  0.11037166  0.18886067  1
  Sb  Sb28  1  0.75000000  0.79045345  0.09312476  1
  Sb  Sb29  1  0.75000000  0.29045345  0.40687524  1
  Sb  Sb30  1  0.25000000  0.20954655  0.90687524  1
  Sb  Sb31  1  0.25000000  0.70954655  0.59312476  1
