# generated using pymatgen
data_NaH6CN2ClO2
_symmetry_space_group_name_H-M   'P 1'
_cell_length_a   5.25509327
_cell_length_b   6.66838368
_cell_length_c   17.50248211
_cell_angle_alpha   90.00000000
_cell_angle_beta   90.00000000
_cell_angle_gamma   90.00000000
_symmetry_Int_Tables_number   1
_chemical_formula_structural   NaH6CN2ClO2
_chemical_formula_sum   'Na4 H24 C4 N8 Cl4 O8'
_cell_volume   613.33909900
_cell_formula_units_Z   4
loop_
 _symmetry_equiv_pos_site_id
 _symmetry_equiv_pos_as_xyz
  1  'x, y, z'
loop_
 _atom_site_type_symbol
 _atom_site_label
 _atom_site_symmetry_multiplicity
 _atom_site_fract_x
 _atom_site_fract_y
 _atom_site_fract_z
 _atom_site_occupancy
  Na  Na0  1  0.31149205  0.51505493  -0.00000000  1
  Na  Na1  1  0.81149205  0.48494507  0.50000000  1
  Na  Na2  1  0.30794047  0.99062192  -0.00000000  1
  Na  Na3  1  0.80794047  0.00937808  0.50000000  1
  H  H4  1  0.73301978  0.24363758  0.95593936  1
  H  H5  1  0.73301978  0.24363758  0.04406064  1
  H  H6  1  0.23301978  0.75636242  0.54406064  1
  H  H7  1  0.23301978  0.75636242  0.45593936  1
  H  H8  1  0.84533832  0.75862422  0.95687353  1
  H  H9  1  0.84533832  0.75862422  0.04312647  1
  H  H10  1  0.34533832  0.24137578  0.54312647  1
  H  H11  1  0.34533832  0.24137578  0.45687353  1
  H  H12  1  0.76424033  0.03059642  0.67836862  1
  H  H13  1  0.76424033  0.03059642  0.32163138  1
  H  H14  1  0.26424033  0.96940358  0.82163138  1
  H  H15  1  0.26424033  0.96940358  0.17836862  1
  H  H16  1  0.87874300  0.14816934  0.76209829  1
  H  H17  1  0.87874300  0.14816934  0.23790171  1
  H  H18  1  0.37874300  0.85183066  0.73790171  1
  H  H19  1  0.37874300  0.85183066  0.26209829  1
  H  H20  1  0.28832285  0.47742433  0.66421146  1
  H  H21  1  0.28832285  0.47742433  0.33578854  1
  H  H22  1  0.78832285  0.52257567  0.83578854  1
  H  H23  1  0.78832285  0.52257567  0.16421146  1
  H  H24  1  0.19334587  0.38278606  0.75401960  1
  H  H25  1  0.19334587  0.38278606  0.24598040  1
  H  H26  1  0.69334587  0.61721394  0.74598040  1
  H  H27  1  0.69334587  0.61721394  0.25401960  1
  C  C28  1  0.02027443  0.25530648  0.65983773  1
  C  C29  1  0.02027443  0.25530648  0.34016227  1
  C  C30  1  0.52027443  0.74469352  0.84016227  1
  C  C31  1  0.52027443  0.74469352  0.15983773  1
  N  N32  1  0.86675631  0.14116187  0.70390903  1
  N  N33  1  0.86675631  0.14116187  0.29609097  1
  N  N34  1  0.36675631  0.85883813  0.79609097  1
  N  N35  1  0.36675631  0.85883813  0.20390903  1
  N  N36  1  0.17807709  0.38347719  0.69590955  1
  N  N37  1  0.17807709  0.38347719  0.30409045  1
  N  N38  1  0.67807709  0.61652281  0.80409045  1
  N  N39  1  0.67807709  0.61652281  0.19590955  1
  Cl  Cl40  1  0.06722980  0.25732530  0.88058552  1
  Cl  Cl41  1  0.06722980  0.25732530  0.11941448  1
  Cl  Cl42  1  0.56722980  0.74267470  0.61941448  1
  Cl  Cl43  1  0.56722980  0.74267470  0.38058552  1
  O  O44  1  0.61516623  0.24948000  -0.00000000  1
  O  O45  1  0.11516623  0.75052000  0.50000000  1
  O  O46  1  0.96687544  0.75648468  -0.00000000  1
  O  O47  1  0.46687544  0.24351532  0.50000000  1
  O  O48  1  0.01509011  0.24371676  0.58713205  1
  O  O49  1  0.01509011  0.24371676  0.41286795  1
  O  O50  1  0.51509011  0.75628324  0.91286795  1
  O  O51  1  0.51509011  0.75628324  0.08713205  1
