# generated using pymatgen
data_Co2BiB(PO5)2
_symmetry_space_group_name_H-M   'P 1'
_cell_length_a   5.12471082
_cell_length_b   6.47671760
_cell_length_c   11.38237763
_cell_angle_alpha   90.00000000
_cell_angle_beta   90.00000000
_cell_angle_gamma   107.87899623
_symmetry_Int_Tables_number   1
_chemical_formula_structural   Co2BiB(PO5)2
_chemical_formula_sum   'Co4 Bi2 B2 P4 O20'
_cell_volume   359.55106913
_cell_formula_units_Z   2
loop_
 _symmetry_equiv_pos_site_id
 _symmetry_equiv_pos_as_xyz
  1  'x, y, z'
loop_
 _atom_site_type_symbol
 _atom_site_label
 _atom_site_symmetry_multiplicity
 _atom_site_fract_x
 _atom_site_fract_y
 _atom_site_fract_z
 _atom_site_occupancy
  Co  Co0  1  0.64620055  0.66272252  0.60471436  1
  Co  Co1  1  0.35379945  0.33727748  0.10471436  1
  Co  Co2  1  0.35379945  0.33727748  0.39528564  1
  Co  Co3  1  0.64620055  0.66272252  0.89528564  1
  Bi  Bi4  1  0.25246348  0.94168497  0.75000000  1
  Bi  Bi5  1  0.74753652  0.05831503  0.25000000  1
  B  B6  1  0.06268756  0.48719465  0.75000000  1
  B  B7  1  0.93731244  0.51280535  0.25000000  1
  P  P8  1  0.79683476  0.21415872  0.56430771  1
  P  P9  1  0.20316524  0.78584128  0.06430771  1
  P  P10  1  0.20316524  0.78584128  0.43569229  1
  P  P11  1  0.79683476  0.21415872  0.93569229  1
  O  O12  1  0.03822623  0.34467570  0.64466754  1
  O  O13  1  0.96177377  0.65532430  0.14466754  1
  O  O14  1  0.96177377  0.65532430  0.35533246  1
  O  O15  1  0.03822623  0.34467570  0.85533246  1
  O  O16  1  0.64504901  0.99539190  0.62531771  1
  O  O17  1  0.35495099  0.00460810  0.12531771  1
  O  O18  1  0.35495099  0.00460810  0.37468229  1
  O  O19  1  0.64504901  0.99539190  0.87468229  1
  O  O20  1  0.92975516  0.17853138  0.44828476  1
  O  O21  1  0.07024484  0.82146862  0.94828476  1
  O  O22  1  0.07024484  0.82146862  0.55171524  1
  O  O23  1  0.92975516  0.17853138  0.05171524  1
  O  O24  1  0.59279766  0.34636976  0.54741016  1
  O  O25  1  0.40720234  0.65363024  0.04741016  1
  O  O26  1  0.40720234  0.65363024  0.45258984  1
  O  O27  1  0.59279766  0.34636976  0.95258984  1
  O  O28  1  0.87503633  0.61821481  0.75000000  1
  O  O29  1  0.12496367  0.38178519  0.25000000  1
  O  O30  1  0.35046825  0.63899413  0.75000000  1
  O  O31  1  0.64953175  0.36100587  0.25000000  1
