# generated using pymatgen
data_Cu3Ge(PO5)2
_symmetry_space_group_name_H-M   'P 1'
_cell_length_a   4.69281071
_cell_length_b   8.39985537
_cell_length_c   9.66067641
_cell_angle_alpha   90.00000000
_cell_angle_beta   103.89419971
_cell_angle_gamma   90.00000000
_symmetry_Int_Tables_number   1
_chemical_formula_structural   Cu3Ge(PO5)2
_chemical_formula_sum   'Cu6 Ge2 P4 O20'
_cell_volume   369.67123801
_cell_formula_units_Z   2
loop_
 _symmetry_equiv_pos_site_id
 _symmetry_equiv_pos_as_xyz
  1  'x, y, z'
loop_
 _atom_site_type_symbol
 _atom_site_label
 _atom_site_symmetry_multiplicity
 _atom_site_fract_x
 _atom_site_fract_y
 _atom_site_fract_z
 _atom_site_occupancy
  Cu  Cu0  1  0.50000000  0.50000000  -0.00000000  1
  Cu  Cu1  1  0.50000000  0.00000000  -0.00000000  1
  Cu  Cu2  1  0.55323035  0.43539098  0.33445897  1
  Cu  Cu3  1  0.44676965  0.93539098  0.66554103  1
  Cu  Cu4  1  0.44676965  0.56460902  0.66554103  1
  Cu  Cu5  1  0.55323035  0.06460902  0.33445897  1
  Ge  Ge6  1  0.81587833  0.25000000  0.82273401  1
  Ge  Ge7  1  0.18412167  0.75000000  0.17726599  1
  P  P8  1  0.00035169  0.25000000  0.13206416  1
  P  P9  1  0.99964831  0.75000000  0.86793584  1
  P  P10  1  0.90409201  0.75000000  0.45639472  1
  P  P11  1  0.09590799  0.25000000  0.54360528  1
  O  O12  1  0.02517013  0.25000000  0.69473434  1
  O  O13  1  0.97482987  0.75000000  0.30526566  1
  O  O14  1  0.10637748  0.25000000  0.98565657  1
  O  O15  1  0.89362252  0.75000000  0.01434343  1
  O  O16  1  0.61470682  0.42551347  0.82607820  1
  O  O17  1  0.38529318  0.92551347  0.17392180  1
  O  O18  1  0.38529318  0.57448653  0.17392180  1
  O  O19  1  0.61470682  0.07448653  0.82607820  1
  O  O20  1  0.82260044  0.40188560  0.13914251  1
  O  O21  1  0.17739956  0.90188560  0.86085749  1
  O  O22  1  0.17739956  0.59811440  0.86085749  1
  O  O23  1  0.82260044  0.09811440  0.13914251  1
  O  O24  1  0.28948993  0.25000000  0.25007813  1
  O  O25  1  0.71051007  0.75000000  0.74992187  1
  O  O26  1  0.80149578  0.25000000  0.42778881  1
  O  O27  1  0.19850422  0.75000000  0.57221119  1
  O  O28  1  0.72859407  0.59880646  0.46945312  1
  O  O29  1  0.27140593  0.09880646  0.53054688  1
  O  O30  1  0.27140593  0.40119354  0.53054688  1
  O  O31  1  0.72859407  0.90119354  0.46945312  1
