# generated using pymatgen
data_Na3Np(H7O6)2
_symmetry_space_group_name_H-M   'P 1'
_cell_length_a   8.11403581
_cell_length_b   8.11403581
_cell_length_c   10.82105674
_cell_angle_alpha   96.53795355
_cell_angle_beta   110.14936331
_cell_angle_gamma   112.87742944
_symmetry_Int_Tables_number   1
_chemical_formula_structural   Na3Np(H7O6)2
_chemical_formula_sum   'Na6 Np2 H28 O24'
_cell_volume   590.39356264
_cell_formula_units_Z   2
loop_
 _symmetry_equiv_pos_site_id
 _symmetry_equiv_pos_as_xyz
  1  'x, y, z'
loop_
 _atom_site_type_symbol
 _atom_site_label
 _atom_site_symmetry_multiplicity
 _atom_site_fract_x
 _atom_site_fract_y
 _atom_site_fract_z
 _atom_site_occupancy
  Na  Na0  1  0.90049497  0.02893755  0.61391908  1
  Na  Na1  1  0.91501847  0.28657590  0.88608092  1
  Na  Na2  1  0.09950503  0.97106245  0.38608092  1
  Na  Na3  1  0.08498153  0.71342410  0.11391908  1
  Na  Na4  1  0.32911547  0.57911547  0.75000000  1
  Na  Na5  1  0.67088453  0.42088453  0.25000000  1
  Np  Np6  1  0.50000000  0.50000000  0.50000000  1
  Np  Np7  1  0.50000000  -0.00000000  -0.00000000  1
  H  H8  1  0.79432495  0.37194170  0.49309319  1
  H  H9  1  0.37884851  0.30123176  0.00690681  1
  H  H10  1  0.20567505  0.62805830  0.50690681  1
  H  H11  1  0.62115149  0.69876824  0.99309319  1
  H  H12  1  0.81009245  0.13040021  0.34462429  1
  H  H13  1  0.28577592  0.46546816  0.15537571  1
  H  H14  1  0.18990755  0.86959979  0.65537571  1
  H  H15  1  0.71422408  0.53453184  0.84462429  1
  H  H16  1  0.02136011  0.29544211  0.45405298  1
  H  H17  1  0.34138913  0.56730713  0.04594702  1
  H  H18  1  0.97863989  0.70455789  0.54594702  1
  H  H19  1  0.65861087  0.43269287  0.95405298  1
  H  H20  1  0.31094085  0.25108848  0.66058675  1
  H  H21  1  0.09050173  0.65035410  0.83941325  1
  H  H22  1  0.68905915  0.74891152  0.33941325  1
  H  H23  1  0.90949827  0.34964590  0.16058675  1
  H  H24  1  0.33730978  0.25118089  0.81338705  1
  H  H25  1  0.93779384  0.52392274  0.68661295  1
  H  H26  1  0.66269022  0.74881911  0.18661295  1
  H  H27  1  0.06220616  0.47607726  0.31338705  1
  H  H28  1  0.04591672  0.95752408  0.88523329  1
  H  H29  1  0.57229079  0.16068342  0.61476671  1
  H  H30  1  0.95408328  0.04247592  0.11476671  1
  H  H31  1  0.42770921  0.83931658  0.38523329  1
  H  H32  1  0.81842287  0.85742936  0.79241796  1
  H  H33  1  0.56501140  0.02600491  0.70758204  1
  H  H34  1  0.18157713  0.14257064  0.20758204  1
  H  H35  1  0.43498860  0.97399509  0.29241796  1
  O  O36  1  0.61756570  0.62016567  0.69533462  1
  O  O37  1  0.42483105  0.92223108  0.80466538  1
  O  O38  1  0.38243430  0.37983433  0.30466538  1
  O  O39  1  0.57516895  0.07776892  0.19533462  1
  O  O40  1  0.40225198  0.26131560  0.53269773  1
  O  O41  1  0.22861787  0.86955424  0.96730227  1
  O  O42  1  0.59774802  0.73868440  0.46730227  1
  O  O43  1  0.77138213  0.13044576  0.03269773  1
  O  O44  1  0.78923251  0.49000925  0.51348594  1
  O  O45  1  0.47652331  0.27574657  0.98651406  1
  O  O46  1  0.21076749  0.50999075  0.48651406  1
  O  O47  1  0.52347669  0.72425343  0.01348594  1
  O  O48  1  0.92023067  0.16409164  0.43515384  1
  O  O49  1  0.22893779  0.48507683  0.06484616  1
  O  O50  1  0.07976933  0.83590836  0.56484616  1
  O  O51  1  0.77106221  0.51492317  0.93515384  1
  O  O52  1  0.25266582  0.26266385  0.72605629  1
  O  O53  1  0.03660755  0.52660953  0.77394371  1
  O  O54  1  0.74733418  0.73733615  0.27394371  1
  O  O55  1  0.96339245  0.47339047  0.22605629  1
  O  O56  1  0.93681723  0.98151725  0.83033942  1
  O  O57  1  0.65117783  0.10647781  0.66966058  1
  O  O58  1  0.06318277  0.01848275  0.16966058  1
  O  O59  1  0.34882217  0.89352219  0.33033942  1
