# generated using pymatgen
data_Ho2H16S3O20
_symmetry_space_group_name_H-M   'P 1'
_cell_length_a   6.69950918
_cell_length_b   7.67212646
_cell_length_c   18.36402748
_cell_angle_alpha   101.57689658
_cell_angle_beta   90.00000000
_cell_angle_gamma   115.88801292
_symmetry_Int_Tables_number   1
_chemical_formula_structural   Ho2H16S3O20
_chemical_formula_sum   'Ho4 H32 S6 O40'
_cell_volume   827.78328721
_cell_formula_units_Z   2
loop_
 _symmetry_equiv_pos_site_id
 _symmetry_equiv_pos_as_xyz
  1  'x, y, z'
loop_
 _atom_site_type_symbol
 _atom_site_label
 _atom_site_symmetry_multiplicity
 _atom_site_fract_x
 _atom_site_fract_y
 _atom_site_fract_z
 _atom_site_occupancy
  Ho  Ho0  1  0.31548180  0.66713032  0.10810107  1
  Ho  Ho1  1  0.64835147  0.33286968  0.39189893  1
  Ho  Ho2  1  0.68451820  0.33286968  0.89189893  1
  Ho  Ho3  1  0.35164853  0.66713032  0.60810107  1
  H  H4  1  0.04066526  0.25976730  0.01055029  1
  H  H5  1  0.78089795  0.74023270  0.48944971  1
  H  H6  1  0.95933474  0.74023270  0.98944971  1
  H  H7  1  0.21910205  0.25976730  0.51055029  1
  H  H8  1  0.29233397  0.29522256  0.01873186  1
  H  H9  1  0.99711141  0.70477744  0.48126814  1
  H  H10  1  0.70766603  0.70477744  0.98126814  1
  H  H11  1  0.00288859  0.29522256  0.51873186  1
  H  H12  1  0.33452454  0.01058292  0.04435319  1
  H  H13  1  0.32394162  0.98941708  0.45564681  1
  H  H14  1  0.66547546  0.98941708  0.95564681  1
  H  H15  1  0.67605838  0.01058292  0.54435319  1
  H  H16  1  0.16953354  0.98081969  0.10763782  1
  H  H17  1  0.18871385  0.01918031  0.39236218  1
  H  H18  1  0.83046646  0.01918031  0.89236218  1
  H  H19  1  0.81128615  0.98081969  0.60763782  1
  H  H20  1  0.26483036  0.55332440  0.25594460  1
  H  H21  1  0.71150595  0.44667560  0.24405540  1
  H  H22  1  0.73516964  0.44667560  0.74405540  1
  H  H23  1  0.28849405  0.55332440  0.75594460  1
  H  H24  1  0.23342795  0.35660569  0.19697861  1
  H  H25  1  0.87682226  0.64339431  0.30302139  1
  H  H26  1  0.76657205  0.64339431  0.80302139  1
  H  H27  1  0.12317774  0.35660569  0.69697861  1
  H  H28  1  0.79379359  0.98198864  0.15639121  1
  H  H29  1  0.81180495  0.01801136  0.34360879  1
  H  H30  1  0.20620641  0.01801136  0.84360879  1
  H  H31  1  0.18819505  0.98198864  0.65639121  1
  H  H32  1  0.65508041  0.10070121  0.14511623  1
  H  H33  1  0.55437921  0.89929879  0.35488377  1
  H  H34  1  0.34491959  0.89929879  0.85488377  1
  H  H35  1  0.44562079  0.10070121  0.64511623  1
  S  S36  1  0.30568081  0.55959400  0.90978028  1
  S  S37  1  0.74608681  0.44040600  0.59021972  1
  S  S38  1  0.69431919  0.44040600  0.09021972  1
  S  S39  1  0.25391319  0.55959400  0.40978028  1
  S  S40  1  0.18624941  -0.00000000  0.25000000  1
  S  S41  1  0.81375059  -0.00000000  0.75000000  1
  O  O42  1  0.36321301  0.67397276  0.85078636  1
  O  O43  1  0.68924025  0.32602724  0.64921364  1
  O  O44  1  0.63678699  0.32602724  0.14921364  1
  O  O45  1  0.31075975  0.67397276  0.35078636  1
  O  O46  1  0.42712285  0.69963707  0.98371144  1
  O  O47  1  0.72748578  0.30036293  0.51628856  1
  O  O48  1  0.57287715  0.30036293  0.01628856  1
  O  O49  1  0.27251422  0.69963707  0.48371144  1
  O  O50  1  0.37601851  0.39835261  0.89389302  1
  O  O51  1  0.97766590  0.60164739  0.60610698  1
  O  O52  1  0.62398149  0.60164739  0.10610698  1
  O  O53  1  0.02233410  0.39835261  0.39389302  1
  O  O54  1  0.06380092  0.47239475  0.91769179  1
  O  O55  1  0.59140617  0.52760525  0.58230821  1
  O  O56  1  0.93619908  0.52760525  0.08230821  1
  O  O57  1  0.40859383  0.47239475  0.41769179  1
  O  O58  1  0.23105991  0.83189366  0.21267880  1
  O  O59  1  0.39916625  0.16810634  0.28732120  1
  O  O60  1  0.76894009  0.16810634  0.78732120  1
  O  O61  1  0.60083375  0.83189366  0.71267880  1
  O  O62  1  0.02690890  0.93470140  0.30710561  1
  O  O63  1  0.09220750  0.06529860  0.19289439  1
  O  O64  1  0.97309110  0.06529860  0.69289439  1
  O  O65  1  0.90779250  0.93470140  0.80710561  1
  O  O66  1  0.17905714  0.32543869  0.04484934  1
  O  O67  1  0.85361844  0.67456131  0.45515066  1
  O  O68  1  0.82094286  0.67456131  0.95515066  1
  O  O69  1  0.14638156  0.32543869  0.54484934  1
  O  O70  1  0.21663809  0.90843874  0.06488113  1
  O  O71  1  0.30819934  0.09156126  0.43511887  1
  O  O72  1  0.78336191  0.09156126  0.93511887  1
  O  O73  1  0.69180066  0.90843874  0.56488113  1
  O  O74  1  0.26023131  0.49521929  0.20232512  1
  O  O75  1  0.76501202  0.50478071  0.29767488  1
  O  O76  1  0.73976869  0.50478071  0.79767488  1
  O  O77  1  0.23498798  0.49521929  0.70232512  1
  O  O78  1  0.65007757  0.96702757  0.13537069  1
  O  O79  1  0.68305001  0.03297243  0.36462931  1
  O  O80  1  0.34992243  0.03297243  0.86462931  1
  O  O81  1  0.31694999  0.96702757  0.63537069  1
