# generated using pymatgen
data_NaLi2(RuO2)6
_symmetry_space_group_name_H-M   'P 1'
_cell_length_a   5.61862834
_cell_length_b   9.51297419
_cell_length_c   9.86254423
_cell_angle_alpha   118.66992849
_cell_angle_beta   105.88216646
_cell_angle_gamma   90.84136010
_symmetry_Int_Tables_number   1
_chemical_formula_structural   NaLi2(RuO2)6
_chemical_formula_sum   'Na2 Li4 Ru12 O24'
_cell_volume   438.15986020
_cell_formula_units_Z   2
loop_
 _symmetry_equiv_pos_site_id
 _symmetry_equiv_pos_as_xyz
  1  'x, y, z'
loop_
 _atom_site_type_symbol
 _atom_site_label
 _atom_site_symmetry_multiplicity
 _atom_site_fract_x
 _atom_site_fract_y
 _atom_site_fract_z
 _atom_site_occupancy
  Na  Na0  1  0.75200905  0.98382779  0.99773219  1
  Na  Na1  1  0.24799095  0.01617221  0.00226781  1
  Li  Li2  1  0.96948998  0.32819029  0.66563207  1
  Li  Li3  1  0.03051002  0.67180971  0.33436793  1
  Li  Li4  1  0.47518175  0.33900590  0.66811099  1
  Li  Li5  1  0.52481825  0.66099410  0.33188901  1
  Ru  Ru6  1  0.82774109  0.33541062  0.35854987  1
  Ru  Ru7  1  0.17225891  0.66458938  0.64145013  1
  Ru  Ru8  1  0.28155424  0.34410720  0.36099576  1
  Ru  Ru9  1  0.71844576  0.65589280  0.63900424  1
  Ru  Ru10  1  0.85983941  0.36353980  0.01979511  1
  Ru  Ru11  1  0.14016059  0.63646020  0.98020489  1
  Ru  Ru12  1  0.40697950  0.35631703  0.02119100  1
  Ru  Ru13  1  0.59302050  0.64368297  0.97880900  1
  Ru  Ru14  1  0.52339222  0.98491512  0.34008983  1
  Ru  Ru15  1  0.47660778  0.01508488  0.65991017  1
  Ru  Ru16  1  0.06741461  0.97520506  0.33974524  1
  Ru  Ru17  1  0.93258539  0.02479494  0.66025476  1
  O  O18  1  0.18104649  0.12119610  0.59432478  1
  O  O19  1  0.81895351  0.87880390  0.40567522  1
  O  O20  1  0.66724551  0.14332050  0.59453314  1
  O  O21  1  0.33275449  0.85667950  0.40546686  1
  O  O22  1  0.42189847  0.82761848  0.09809658  1
  O  O23  1  0.57810153  0.17238152  0.90190342  1
  O  O24  1  0.92965771  0.79434655  0.09789054  1
  O  O25  1  0.07034229  0.20565345  0.90210946  1
  O  O26  1  0.74343916  0.89748262  0.72217332  1
  O  O27  1  0.25656084  0.10251738  0.27782668  1
  O  O28  1  0.21571910  0.90294546  0.69811103  1
  O  O29  1  0.78428090  0.09705454  0.30188897  1
  O  O30  1  0.47958122  0.29455837  0.20110053  1
  O  O31  1  0.52041878  0.70544163  0.79889947  1
  O  O32  1  0.96003729  0.27277379  0.17260529  1
  O  O33  1  0.03996271  0.72722621  0.82739471  1
  O  O34  1  0.14445761  0.41365199  0.55269429  1
  O  O35  1  0.85554239  0.58634801  0.44730571  1
  O  O36  1  0.63566456  0.40158467  0.52486010  1
  O  O37  1  0.36433544  0.59841533  0.47513990  1
  O  O38  1  0.31434054  0.44840532  0.86275040  1
  O  O39  1  0.68565946  0.55159468  0.13724960  1
  O  O40  1  0.80709961  0.47327938  0.87351621  1
  O  O41  1  0.19290039  0.52672062  0.12648379  1
