# generated using pymatgen
data_Mn4GeP4(H6O11)2
_symmetry_space_group_name_H-M   'P 1'
_cell_length_a   6.64842911
_cell_length_b   7.86216036
_cell_length_c   16.64852908
_cell_angle_alpha   90.00000000
_cell_angle_beta   90.00000000
_cell_angle_gamma   99.60445531
_symmetry_Int_Tables_number   1
_chemical_formula_structural   Mn4GeP4(H6O11)2
_chemical_formula_sum   'Mn8 Ge2 P8 H24 O44'
_cell_volume   858.03749240
_cell_formula_units_Z   2
loop_
 _symmetry_equiv_pos_site_id
 _symmetry_equiv_pos_as_xyz
  1  'x, y, z'
loop_
 _atom_site_type_symbol
 _atom_site_label
 _atom_site_symmetry_multiplicity
 _atom_site_fract_x
 _atom_site_fract_y
 _atom_site_fract_z
 _atom_site_occupancy
  Mn  Mn0  1  0.83298987  0.24048291  0.36172671  1
  Mn  Mn1  1  0.33298987  0.74048291  0.13827329  1
  Mn  Mn2  1  0.16701013  0.75951709  0.63827329  1
  Mn  Mn3  1  0.66701013  0.25951709  0.86172671  1
  Mn  Mn4  1  0.59803914  0.47760508  0.23058498  1
  Mn  Mn5  1  0.09803914  0.97760508  0.26941502  1
  Mn  Mn6  1  0.40196086  0.52239492  0.76941502  1
  Mn  Mn7  1  0.90196086  0.02239492  0.73058498  1
  Ge  Ge8  1  0.50000000  -0.00000000  0.50000000  1
  Ge  Ge9  1  0.00000000  0.50000000  0.00000000  1
  P  P10  1  0.35310482  0.28460774  0.39079274  1
  P  P11  1  0.85310482  0.78460774  0.10920726  1
  P  P12  1  0.64689518  0.71539226  0.60920726  1
  P  P13  1  0.14689518  0.21539226  0.89079274  1
  P  P14  1  0.55854119  0.87229164  0.31296492  1
  P  P15  1  0.05854119  0.37229164  0.18703508  1
  P  P16  1  0.44145881  0.12770836  0.68703508  1
  P  P17  1  0.94145881  0.62770836  0.81296492  1
  H  H18  1  0.59694075  0.15693580  0.16797849  1
  H  H19  1  0.09694075  0.65693580  0.33202151  1
  H  H20  1  0.40305925  0.84306420  0.83202151  1
  H  H21  1  0.90305925  0.34306420  0.66797849  1
  H  H22  1  0.65032223  0.28853148  0.09703892  1
  H  H23  1  0.15032223  0.78853148  0.40296108  1
  H  H24  1  0.34967777  0.71146852  0.90296108  1
  H  H25  1  0.84967777  0.21146852  0.59703892  1
  H  H26  1  0.76440396  0.46816093  0.48945085  1
  H  H27  1  0.26440396  0.96816093  0.01054915  1
  H  H28  1  0.23559604  0.53183907  0.51054915  1
  H  H29  1  0.73559604  0.03183907  0.98945085  1
  H  H30  1  0.86572455  0.57922856  0.41527039  1
  H  H31  1  0.36572455  0.07922856  0.08472961  1
  H  H32  1  0.13427545  0.42077144  0.58472961  1
  H  H33  1  0.63427545  0.92077144  0.91527039  1
  H  H34  1  0.84642130  0.99813167  0.47851238  1
  H  H35  1  0.34642130  0.49813167  0.02148762  1
  H  H36  1  0.15357870  0.00186833  0.52148762  1
  H  H37  1  0.65357870  0.50186833  0.97851238  1
  H  H38  1  0.43266009  0.56760131  0.37763208  1
  H  H39  1  0.93266009  0.06760131  0.12236792  1
  H  H40  1  0.56733991  0.43239869  0.62236792  1
  H  H41  1  0.06733991  0.93239869  0.87763208  1
  O  O42  1  0.54944682  0.25236503  0.13987547  1
  O  O43  1  0.04944682  0.75236503  0.36012453  1
  O  O44  1  0.45055318  0.74763497  0.86012453  1
  O  O45  1  0.95055318  0.24763497  0.63987547  1
  O  O46  1  0.83295179  0.46206663  0.43732287  1
  O  O47  1  0.33295179  0.96206663  0.06267713  1
  O  O48  1  0.16704821  0.53793337  0.56267713  1
  O  O49  1  0.66704821  0.03793337  0.93732287  1
  O  O50  1  0.14620210  0.18272716  0.36329481  1
  O  O51  1  0.64620210  0.68272716  0.13670519  1
  O  O52  1  0.85379790  0.81727284  0.63670519  1
  O  O53  1  0.35379790  0.31727284  0.86329481  1
  O  O54  1  0.51969154  0.28637852  0.32658558  1
  O  O55  1  0.01969154  0.78637852  0.17341442  1
  O  O56  1  0.48030846  0.71362148  0.67341442  1
  O  O57  1  0.98030846  0.21362148  0.82658558  1
  O  O58  1  0.57751556  0.67916134  0.31870891  1
  O  O59  1  0.07751556  0.17916134  0.18129109  1
  O  O60  1  0.42248444  0.32083866  0.68129109  1
  O  O61  1  0.92248444  0.82083866  0.81870891  1
  O  O62  1  0.76824070  0.98876065  0.30068437  1
  O  O63  1  0.26824070  0.48876065  0.19931563  1
  O  O64  1  0.23175930  0.01123935  0.69931563  1
  O  O65  1  0.73175930  0.51123935  0.80068437  1
  O  O66  1  0.90662145  0.40349842  0.25506455  1
  O  O67  1  0.40662145  0.90349842  0.24493545  1
  O  O68  1  0.09337855  0.59650158  0.74493545  1
  O  O69  1  0.59337855  0.09650158  0.75506455  1
  O  O70  1  0.77564181  0.09730739  0.47907561  1
  O  O71  1  0.27564181  0.59730739  0.02092439  1
  O  O72  1  0.22435819  0.90269261  0.52092439  1
  O  O73  1  0.72435819  0.40269261  0.97907561  1
  O  O74  1  0.32609268  0.47893898  0.40839130  1
  O  O75  1  0.82609268  0.97893898  0.09160870  1
  O  O76  1  0.67390732  0.52106102  0.59160870  1
  O  O77  1  0.17390732  0.02106102  0.90839130  1
  O  O78  1  0.41649893  0.21613569  0.47332971  1
  O  O79  1  0.91649893  0.71613569  0.02667029  1
  O  O80  1  0.58350107  0.78386431  0.52667029  1
  O  O81  1  0.08350107  0.28386431  0.97332971  1
  O  O82  1  0.45388697  0.92181889  0.39229538  1
  O  O83  1  0.95388697  0.42181889  0.10770462  1
  O  O84  1  0.54611303  0.07818111  0.60770462  1
  O  O85  1  0.04611303  0.57818111  0.89229538  1
