# generated using pymatgen
data_Rb4Cu5Cl9
_symmetry_space_group_name_H-M   'P 1'
_cell_length_a   8.65565786
_cell_length_b   14.79577646
_cell_length_c   15.83104835
_cell_angle_alpha   106.20914768
_cell_angle_beta   90.00000000
_cell_angle_gamma   90.00000000
_symmetry_Int_Tables_number   1
_chemical_formula_structural   Rb4Cu5Cl9
_chemical_formula_sum   'Rb16 Cu20 Cl36'
_cell_volume   1946.84528820
_cell_formula_units_Z   4
loop_
 _symmetry_equiv_pos_site_id
 _symmetry_equiv_pos_as_xyz
  1  'x, y, z'
loop_
 _atom_site_type_symbol
 _atom_site_label
 _atom_site_symmetry_multiplicity
 _atom_site_fract_x
 _atom_site_fract_y
 _atom_site_fract_z
 _atom_site_occupancy
  Rb  Rb0  1  0.66729041  0.00296556  0.50128589  1
  Rb  Rb1  1  0.33270959  0.00296556  0.00128589  1
  Rb  Rb2  1  0.84057600  0.01569331  0.79517134  1
  Rb  Rb3  1  0.15942400  0.01569331  0.29517134  1
  Rb  Rb4  1  0.51580969  0.52765720  0.97811946  1
  Rb  Rb5  1  0.48419031  0.52765720  0.47811946  1
  Rb  Rb6  1  0.97900961  0.52025225  0.61164868  1
  Rb  Rb7  1  0.02099039  0.52025225  0.11164868  1
  Rb  Rb8  1  0.83391475  0.26844666  0.38124036  1
  Rb  Rb9  1  0.16608525  0.26844666  0.88124036  1
  Rb  Rb10  1  0.65658532  0.25627639  0.08210945  1
  Rb  Rb11  1  0.34341468  0.25627639  0.58210945  1
  Rb  Rb12  1  0.52126808  0.74449804  0.26488646  1
  Rb  Rb13  1  0.47873192  0.74449804  0.76488646  1
  Rb  Rb14  1  0.98369593  0.73719980  0.89931702  1
  Rb  Rb15  1  0.01630407  0.73719980  0.39931702  1
  Cu  Cu16  1  0.39247566  0.44083810  0.21391244  1
  Cu  Cu17  1  0.60752434  0.44083810  0.71391244  1
  Cu  Cu18  1  0.11425544  0.44032640  0.33117712  1
  Cu  Cu19  1  0.88574456  0.44032640  0.83117712  1
  Cu  Cu20  1  0.62489166  0.83378513  0.04849516  1
  Cu  Cu21  1  0.37510834  0.83378513  0.54849516  1
  Cu  Cu22  1  0.89568199  0.82909007  0.16497859  1
  Cu  Cu23  1  0.10431801  0.82909007  0.66497859  1
  Cu  Cu24  1  0.37118219  0.25198693  0.32937085  1
  Cu  Cu25  1  0.62881781  0.25198693  0.82937085  1
  Cu  Cu26  1  0.90152427  0.22487061  0.62267524  1
  Cu  Cu27  1  0.09847573  0.22487061  0.12267524  1
  Cu  Cu28  1  0.62793370  0.02747171  0.25777919  1
  Cu  Cu29  1  0.37206630  0.02747171  0.75777919  1
  Cu  Cu30  1  0.85003614  0.00837335  0.05831179  1
  Cu  Cu31  1  0.14996386  0.00837335  0.55831179  1
  Cu  Cu32  1  0.75394024  0.48269060  0.28705829  1
  Cu  Cu33  1  0.24605976  0.48269060  0.78705829  1
  Cu  Cu34  1  0.25568354  0.78107528  0.08867340  1
  Cu  Cu35  1  0.74431646  0.78107528  0.58867340  1
  Cl  Cl36  1  0.65825602  0.53083515  0.17840184  1
  Cl  Cl37  1  0.34174398  0.53083515  0.67840184  1
  Cl  Cl38  1  0.87441727  0.52144388  0.41546439  1
  Cl  Cl39  1  0.12558273  0.52144388  0.91546439  1
  Cl  Cl40  1  0.81990607  0.90203941  0.30363212  1
  Cl  Cl41  1  0.18009393  0.90203941  0.80363212  1
  Cl  Cl42  1  0.69943952  0.91566862  0.95037415  1
  Cl  Cl43  1  0.30056048  0.91566862  0.45037415  1
  Cl  Cl44  1  0.29021114  0.16610339  0.18825581  1
  Cl  Cl45  1  0.70978886  0.16610339  0.68825581  1
  Cl  Cl46  1  0.79500296  0.10776498  0.19274485  1
  Cl  Cl47  1  0.20499704  0.10776498  0.69274485  1
  Cl  Cl48  1  0.99602765  0.13243877  0.99600961  1
  Cl  Cl49  1  0.00397235  0.13243877  0.49600961  1
  Cl  Cl50  1  0.50553134  0.13335990  0.37675774  1
  Cl  Cl51  1  0.49446866  0.13335990  0.87675774  1
  Cl  Cl52  1  0.97140052  0.35187953  0.20948123  1
  Cl  Cl53  1  0.02859948  0.35187953  0.70948123  1
  Cl  Cl54  1  0.54951127  0.36084162  0.29133429  1
  Cl  Cl55  1  0.45048873  0.36084162  0.79133429  1
  Cl  Cl56  1  0.32484467  0.37462332  0.07192999  1
  Cl  Cl57  1  0.67515533  0.37462332  0.57192999  1
  Cl  Cl58  1  0.20458226  0.35265977  0.42313055  1
  Cl  Cl59  1  0.79541774  0.35265977  0.92313055  1
  Cl  Cl60  1  0.15515282  0.73927254  0.19981358  1
  Cl  Cl61  1  0.84484718  0.73927254  0.69981358  1
  Cl  Cl62  1  0.37679371  0.74464825  0.96200313  1
  Cl  Cl63  1  0.62320629  0.74464825  0.46200313  1
  Cl  Cl64  1  0.47161015  0.91490552  0.16766411  1
  Cl  Cl65  1  0.52838985  0.91490552  0.66766411  1
  Cl  Cl66  1  0.05206332  0.90762757  0.08560912  1
  Cl  Cl67  1  0.94793668  0.90762757  0.58560912  1
  Cl  Cl68  1  0.76399911  0.70876808  0.06810096  1
  Cl  Cl69  1  0.23600089  0.70876808  0.56810096  1
  Cl  Cl70  1  0.26308607  0.56062231  0.31058178  1
  Cl  Cl71  1  0.73691393  0.56062231  0.81058178  1
