# generated using pymatgen
data_Ca2CuAs2(H2O5)2
_symmetry_space_group_name_H-M   'P 1'
_cell_length_a   5.90610255
_cell_length_b   6.01458695
_cell_length_c   12.88742925
_cell_angle_alpha   90.00000000
_cell_angle_beta   90.00000000
_cell_angle_gamma   111.40564685
_symmetry_Int_Tables_number   1
_chemical_formula_structural   Ca2CuAs2(H2O5)2
_chemical_formula_sum   'Ca4 Cu2 As4 H8 O20'
_cell_volume   426.21823464
_cell_formula_units_Z   2
loop_
 _symmetry_equiv_pos_site_id
 _symmetry_equiv_pos_as_xyz
  1  'x, y, z'
loop_
 _atom_site_type_symbol
 _atom_site_label
 _atom_site_symmetry_multiplicity
 _atom_site_fract_x
 _atom_site_fract_y
 _atom_site_fract_z
 _atom_site_occupancy
  Ca  Ca0  1  0.71629336  0.56605346  0.37681427  1
  Ca  Ca1  1  0.78370664  0.43394654  0.87681427  1
  Ca  Ca2  1  0.28370664  0.43394654  0.62318573  1
  Ca  Ca3  1  0.21629336  0.56605346  0.12318573  1
  Cu  Cu4  1  0.50000000  -0.00000000  0.50000000  1
  Cu  Cu5  1  -0.00000000  -0.00000000  -0.00000000  1
  As  As6  1  0.04337025  0.22976918  0.37737893  1
  As  As7  1  0.45662975  0.77023082  0.87737893  1
  As  As8  1  0.95662975  0.77023082  0.62262107  1
  As  As9  1  0.54337025  0.22976918  0.12262107  1
  H  H10  1  0.29681129  0.69913756  0.35723499  1
  H  H11  1  0.20318871  0.30086244  0.85723499  1
  H  H12  1  0.70318871  0.30086244  0.64276501  1
  H  H13  1  0.79681129  0.69913756  0.14276501  1
  H  H14  1  0.49252375  0.91003813  0.29557180  1
  H  H15  1  0.00747625  0.08996187  0.79557180  1
  H  H16  1  0.50747625  0.08996187  0.70442820  1
  H  H17  1  0.99252375  0.91003813  0.20442820  1
  O  O18  1  0.81128779  0.24215673  0.45939185  1
  O  O19  1  0.68871221  0.75784327  0.95939185  1
  O  O20  1  0.18871221  0.75784327  0.54060815  1
  O  O21  1  0.31128779  0.24215673  0.04060815  1
  O  O22  1  0.30748999  0.31048433  0.44797176  1
  O  O23  1  0.19251001  0.68951567  0.94797176  1
  O  O24  1  0.69251001  0.68951567  0.55202824  1
  O  O25  1  0.80748999  0.31048433  0.05202824  1
  O  O26  1  0.98040215  0.95786464  0.32072446  1
  O  O27  1  0.51959785  0.04213536  0.82072446  1
  O  O28  1  0.01959785  0.04213536  0.67927554  1
  O  O29  1  0.48040215  0.95786464  0.17927554  1
  O  O30  1  0.05742057  0.45840327  0.29282814  1
  O  O31  1  0.44257943  0.54159673  0.79282814  1
  O  O32  1  0.94257943  0.54159673  0.70717186  1
  O  O33  1  0.55742057  0.45840327  0.20717186  1
  O  O34  1  0.46398101  0.81991016  0.36555672  1
  O  O35  1  0.03601899  0.18008984  0.86555672  1
  O  O36  1  0.53601899  0.18008984  0.63444328  1
  O  O37  1  0.96398101  0.81991016  0.13444328  1
