# generated using pymatgen
data_NaZn(BH4)3
_symmetry_space_group_name_H-M   'P 1'
_cell_length_a   4.47795237
_cell_length_b   8.66787496
_cell_length_c   18.83422060
_cell_angle_alpha   96.97470143
_cell_angle_beta   90.00000000
_cell_angle_gamma   90.00000000
_symmetry_Int_Tables_number   1
_chemical_formula_structural   NaZn(BH4)3
_chemical_formula_sum   'Na4 Zn4 B12 H48'
_cell_volume   725.62789941
_cell_formula_units_Z   4
loop_
 _symmetry_equiv_pos_site_id
 _symmetry_equiv_pos_as_xyz
  1  'x, y, z'
loop_
 _atom_site_type_symbol
 _atom_site_label
 _atom_site_symmetry_multiplicity
 _atom_site_fract_x
 _atom_site_fract_y
 _atom_site_fract_z
 _atom_site_occupancy
  Na  Na0  1  0.15499779  0.31451478  0.13791061  1
  Na  Na1  1  0.65499779  0.68548522  0.36208939  1
  Na  Na2  1  0.84500221  0.68548522  0.86208939  1
  Na  Na3  1  0.34500221  0.31451478  0.63791061  1
  Zn  Zn4  1  0.45625885  0.77464340  0.10641478  1
  Zn  Zn5  1  0.95625885  0.22535660  0.39358522  1
  Zn  Zn6  1  0.54374115  0.22535660  0.89358522  1
  Zn  Zn7  1  0.04374115  0.77464340  0.60641478  1
  B  B8  1  0.96558493  0.27784679  0.51188425  1
  B  B9  1  0.46558493  0.72215321  0.98811575  1
  B  B10  1  0.03441507  0.72215321  0.48811575  1
  B  B11  1  0.53441507  0.27784679  0.01188425  1
  B  B12  1  0.88454163  0.59465715  0.67706371  1
  B  B13  1  0.38454163  0.40534285  0.82293629  1
  B  B14  1  0.11545837  0.40534285  0.32293629  1
  B  B15  1  0.61545837  0.59465715  0.17706371  1
  B  B16  1  0.25716337  0.99814773  0.14874681  1
  B  B17  1  0.75716337  0.00185227  0.35125319  1
  B  B18  1  0.74283663  0.00185227  0.85125319  1
  B  B19  1  0.24283663  0.99814773  0.64874681  1
  H  H20  1  0.13276534  0.17793378  0.47912652  1
  H  H21  1  0.63276534  0.82206622  0.02087348  1
  H  H22  1  0.86723466  0.82206622  0.52087348  1
  H  H23  1  0.36723466  0.17793378  0.97912652  1
  H  H24  1  0.77814671  0.33660141  0.47339673  1
  H  H25  1  0.27814671  0.66339859  0.02660327  1
  H  H26  1  0.22185329  0.66339859  0.52660327  1
  H  H27  1  0.72185329  0.33660141  0.97339673  1
  H  H28  1  0.82256235  0.21073032  0.55340799  1
  H  H29  1  0.32256235  0.78926968  0.94659201  1
  H  H30  1  0.17743765  0.78926968  0.44659201  1
  H  H31  1  0.67743765  0.21073032  0.05340799  1
  H  H32  1  0.12152482  0.38488467  0.53722707  1
  H  H33  1  0.62152482  0.61511533  0.96277293  1
  H  H34  1  0.87847518  0.61511533  0.46277293  1
  H  H35  1  0.37847518  0.38488467  0.03722707  1
  H  H36  1  0.81358896  0.64612951  0.73708857  1
  H  H37  1  0.31358896  0.35387049  0.76291143  1
  H  H38  1  0.18641104  0.35387049  0.26291143  1
  H  H39  1  0.68641104  0.64612951  0.23708857  1
  H  H40  1  0.72529479  0.66242473  0.63529938  1
  H  H41  1  0.22529479  0.33757527  0.86470062  1
  H  H42  1  0.27470521  0.33757527  0.36470062  1
  H  H43  1  0.77470521  0.66242473  0.13529938  1
  H  H44  1  0.15707340  0.61387391  0.66885536  1
  H  H45  1  0.65707340  0.38612609  0.83114464  1
  H  H46  1  0.84292660  0.38612609  0.33114464  1
  H  H47  1  0.34292660  0.61387391  0.16885536  1
  H  H48  1  0.83110632  0.45683768  0.66156451  1
  H  H49  1  0.33110632  0.54316232  0.83843549  1
  H  H50  1  0.16889368  0.54316232  0.33843549  1
  H  H51  1  0.66889368  0.45683768  0.16156451  1
  H  H52  1  0.17211897  0.05803226  0.09725873  1
  H  H53  1  0.67211897  0.94196774  0.40274127  1
  H  H54  1  0.82788103  0.94196774  0.90274127  1
  H  H55  1  0.32788103  0.05803226  0.59725873  1
  H  H56  1  0.21795197  0.06888384  0.20714525  1
  H  H57  1  0.71795197  0.93111616  0.29285475  1
  H  H58  1  0.78204803  0.93111616  0.79285475  1
  H  H59  1  0.28204803  0.06888384  0.70714525  1
  H  H60  1  0.11338667  0.87459517  0.14946984  1
  H  H61  1  0.61338667  0.12540483  0.35053016  1
  H  H62  1  0.88661333  0.12540483  0.85053016  1
  H  H63  1  0.38661333  0.87459517  0.64946984  1
  H  H64  1  0.53537035  0.97840777  0.14419556  1
  H  H65  1  0.03537035  0.02159223  0.35580444  1
  H  H66  1  0.46462965  0.02159223  0.85580444  1
  H  H67  1  0.96462965  0.97840777  0.64419556  1
