# generated using pymatgen
data_Yb4Ga21Ni10
_symmetry_space_group_name_H-M   'P 1'
_cell_length_a   4.07346203
_cell_length_b   10.59335973
_cell_length_c   13.08986175
_cell_angle_alpha   80.76160986
_cell_angle_beta   81.04863213
_cell_angle_gamma   78.91501050
_symmetry_Int_Tables_number   1
_chemical_formula_structural   Yb4Ga21Ni10
_chemical_formula_sum   'Yb4 Ga21 Ni10'
_cell_volume   542.56562227
_cell_formula_units_Z   1
loop_
 _symmetry_equiv_pos_site_id
 _symmetry_equiv_pos_as_xyz
  1  'x, y, z'
loop_
 _atom_site_type_symbol
 _atom_site_label
 _atom_site_symmetry_multiplicity
 _atom_site_fract_x
 _atom_site_fract_y
 _atom_site_fract_z
 _atom_site_occupancy
  Yb  Yb0  1  0.87956167  0.90799462  0.33288203  1
  Yb  Yb1  1  0.12043833  0.09200538  0.66711797  1
  Yb  Yb2  1  0.23013256  0.36484889  0.17488599  1
  Yb  Yb3  1  0.76986744  0.63515111  0.82511401  1
  Ga  Ga4  1  0.45939105  0.71290845  0.36830946  1
  Ga  Ga5  1  0.54060895  0.28709155  0.63169054  1
  Ga  Ga6  1  0.79855536  0.40041320  0.00247607  1
  Ga  Ga7  1  0.20144464  0.59958680  0.99752393  1
  Ga  Ga8  1  0.70299428  0.09753942  0.49647203  1
  Ga  Ga9  1  0.29700572  0.90246058  0.50352797  1
  Ga  Ga10  1  0.88313380  0.68213540  0.55159700  1
  Ga  Ga11  1  0.11686620  0.31786460  0.44840300  1
  Ga  Ga12  1  0.61656829  0.47064078  0.29622264  1
  Ga  Ga13  1  0.38343171  0.52935922  0.70377736  1
  Ga  Ga14  1  0.75253656  0.20148685  0.29344004  1
  Ga  Ga15  1  0.24746344  0.79851315  0.70655996  1
  Ga  Ga16  1  0.60314971  0.79227924  0.00142134  1
  Ga  Ga17  1  0.39685029  0.20772076  0.99857866  1
  Ga  Ga18  1  0.99255256  0.92211780  0.09277707  1
  Ga  Ga19  1  0.00744744  0.07788220  0.90722293  1
  Ga  Ga20  1  0.93486374  0.33651534  0.79375719  1
  Ga  Ga21  1  0.06513626  0.66348466  0.20624281  1
  Ga  Ga22  1  0.50000000  0.50000000  0.50000000  1
  Ga  Ga23  1  0.37179066  0.05922669  0.19719199  1
  Ga  Ga24  1  0.62820934  0.94077331  0.80280801  1
  Ni  Ni25  1  0.49838412  0.81802734  0.18520443  1
  Ni  Ni26  1  0.50161588  0.18197266  0.81479557  1
  Ni  Ni27  1  0.86719036  0.16235187  0.10326741  1
  Ni  Ni28  1  0.13280964  0.83764813  0.89673259  1
  Ni  Ni29  1  0.74933650  0.88635009  0.61497691  1
  Ni  Ni30  1  0.25066350  0.11364991  0.38502309  1
  Ni  Ni31  1  0.65212084  0.58190938  0.11384894  1
  Ni  Ni32  1  0.34787916  0.41809062  0.88615106  1
  Ni  Ni33  1  0.97597403  0.44216029  0.60589165  1
  Ni  Ni34  1  0.02402597  0.55783971  0.39410835  1
