# generated using pymatgen
data_GdSbMo2O9
_symmetry_space_group_name_H-M   'P 1'
_cell_length_a   9.77419719
_cell_length_b   9.77419719
_cell_length_c   10.92572547
_cell_angle_alpha   111.87790521
_cell_angle_beta   111.87790521
_cell_angle_gamma   95.37477945
_symmetry_Int_Tables_number   1
_chemical_formula_structural   GdSbMo2O9
_chemical_formula_sum   'Gd4 Sb4 Mo8 O36'
_cell_volume   865.46804107
_cell_formula_units_Z   4
loop_
 _symmetry_equiv_pos_site_id
 _symmetry_equiv_pos_as_xyz
  1  'x, y, z'
loop_
 _atom_site_type_symbol
 _atom_site_label
 _atom_site_symmetry_multiplicity
 _atom_site_fract_x
 _atom_site_fract_y
 _atom_site_fract_z
 _atom_site_occupancy
  Gd  Gd0  1  0.67270950  0.32729050  0.25000000  1
  Gd  Gd1  1  0.32729050  0.67270950  0.75000000  1
  Gd  Gd2  1  0.12533293  0.87466707  0.25000000  1
  Gd  Gd3  1  0.87466707  0.12533293  0.75000000  1
  Sb  Sb4  1  0.65015535  0.61872405  0.03584010  1
  Sb  Sb5  1  0.38127595  0.34984465  0.46415990  1
  Sb  Sb6  1  0.34984465  0.38127595  0.96415990  1
  Sb  Sb7  1  0.61872405  0.65015535  0.53584010  1
  Mo  Mo8  1  0.04727818  0.25966021  0.52676806  1
  Mo  Mo9  1  0.74033979  0.95272182  0.97323194  1
  Mo  Mo10  1  0.95272182  0.74033979  0.47323194  1
  Mo  Mo11  1  0.25966021  0.04727818  0.02676806  1
  Mo  Mo12  1  0.06009138  0.43404410  0.19518515  1
  Mo  Mo13  1  0.56595590  0.93990862  0.30481485  1
  Mo  Mo14  1  0.93990862  0.56595590  0.80481485  1
  Mo  Mo15  1  0.43404410  0.06009138  0.69518515  1
  O  O16  1  0.06430632  0.09499071  0.39895095  1
  O  O17  1  0.90500929  0.93569368  0.10104905  1
  O  O18  1  0.93569368  0.90500929  0.60104905  1
  O  O19  1  0.09499071  0.06430632  0.89895095  1
  O  O20  1  0.87109538  0.29790458  0.43595600  1
  O  O21  1  0.70209542  0.12890462  0.06404400  1
  O  O22  1  0.12890462  0.70209542  0.56404400  1
  O  O23  1  0.29790458  0.87109538  0.93595600  1
  O  O24  1  0.04740498  0.22380458  0.67686156  1
  O  O25  1  0.77619542  0.95259502  0.82313844  1
  O  O26  1  0.95259502  0.77619542  0.32313844  1
  O  O27  1  0.22380458  0.04740498  0.17686156  1
  O  O28  1  0.77938929  0.59583148  0.42250996  1
  O  O29  1  0.40416852  0.22061071  0.07749004  1
  O  O30  1  0.22061071  0.40416852  0.57749004  1
  O  O31  1  0.59583148  0.77938929  0.92250996  1
  O  O32  1  0.98073014  0.30534852  0.00549323  1
  O  O33  1  0.69465148  0.01926986  0.49450677  1
  O  O34  1  0.01926986  0.69465148  0.99450677  1
  O  O35  1  0.30534852  0.98073014  0.50549323  1
  O  O36  1  0.14463084  0.61909320  0.22585403  1
  O  O37  1  0.38090680  0.85536916  0.27414597  1
  O  O38  1  0.85536916  0.38090680  0.77414597  1
  O  O39  1  0.61909320  0.14463084  0.72585403  1
  O  O40  1  0.91053400  0.44441119  0.25184991  1
  O  O41  1  0.55558881  0.08946600  0.24815009  1
  O  O42  1  0.08946600  0.55558881  0.74815009  1
  O  O43  1  0.44441119  0.91053400  0.75184991  1
  O  O44  1  0.21138873  0.36667459  0.30006657  1
  O  O45  1  0.63332541  0.78861127  0.19993343  1
  O  O46  1  0.78861127  0.63332541  0.69993343  1
  O  O47  1  0.36667459  0.21138873  0.80006657  1
  O  O48  1  0.57587618  0.45966992  0.10058495  1
  O  O49  1  0.54033008  0.42412382  0.39941505  1
  O  O50  1  0.42412382  0.54033008  0.89941505  1
  O  O51  1  0.45966992  0.57587618  0.60058495  1
