# generated using pymatgen
data_Na2LiV5H18O23
_symmetry_space_group_name_H-M   'P 1'
_cell_length_a   8.76204381
_cell_length_b   10.64238194
_cell_length_c   12.15967571
_cell_angle_alpha   105.47635973
_cell_angle_beta   102.09276474
_cell_angle_gamma   99.35800274
_symmetry_Int_Tables_number   1
_chemical_formula_structural   Na2LiV5H18O23
_chemical_formula_sum   'Na4 Li2 V10 H36 O46'
_cell_volume   1039.39466294
_cell_formula_units_Z   2
loop_
 _symmetry_equiv_pos_site_id
 _symmetry_equiv_pos_as_xyz
  1  'x, y, z'
loop_
 _atom_site_type_symbol
 _atom_site_label
 _atom_site_symmetry_multiplicity
 _atom_site_fract_x
 _atom_site_fract_y
 _atom_site_fract_z
 _atom_site_occupancy
  Na  Na0  1  0.77634019  0.15174825  0.48517895  1
  Na  Na1  1  0.22365981  0.84825175  0.51482105  1
  Na  Na2  1  0.00347277  0.24998418  0.30526405  1
  Na  Na3  1  0.99652723  0.75001582  0.69473595  1
  Li  Li4  1  0.99393105  0.21284621  0.06651836  1
  Li  Li5  1  0.00606895  0.78715379  0.93348164  1
  V  V6  1  0.21404296  0.34366016  0.72779494  1
  V  V7  1  0.78595704  0.65633984  0.27220506  1
  V  V8  1  0.39792090  0.22544056  0.91759451  1
  V  V9  1  0.60207910  0.77455944  0.08240549  1
  V  V10  1  0.68512278  0.48730155  0.00435150  1
  V  V11  1  0.31487722  0.51269845  0.99564850  1
  V  V12  1  0.49814832  0.60447094  0.81596814  1
  V  V13  1  0.50185168  0.39552906  0.18403186  1
  V  V14  1  0.57064641  0.31702091  0.73841384  1
  V  V15  1  0.42935359  0.68297909  0.26158616  1
  H  H16  1  0.70476552  0.87512599  0.47544521  1
  H  H17  1  0.29523448  0.12487401  0.52455479  1
  H  H18  1  0.65984387  0.95017457  0.58986636  1
  H  H19  1  0.34015613  0.04982543  0.41013364  1
  H  H20  1  0.50354773  0.98472132  0.28267850  1
  H  H21  1  0.49645227  0.01527868  0.71732150  1
  H  H22  1  0.49987814  0.13581646  0.29631527  1
  H  H23  1  0.50012186  0.86418354  0.70368473  1
  H  H24  1  0.88091753  0.96627349  0.29925455  1
  H  H25  1  0.11908247  0.03372651  0.70074545  1
  H  H26  1  0.04718788  0.04318048  0.39044934  1
  H  H27  1  0.95281212  0.95681952  0.60955066  1
  H  H28  1  0.89187175  0.41618589  0.50431512  1
  H  H29  1  0.10812825  0.58381411  0.49568488  1
  H  H30  1  0.78403810  0.40046818  0.37965556  1
  H  H31  1  0.21596190  0.59953182  0.62034444  1
  H  H32  1  0.32833055  0.42233598  0.38921517  1
  H  H33  1  0.67166945  0.57766402  0.61078483  1
  H  H34  1  0.32119549  0.36146274  0.49361259  1
  H  H35  1  0.67880451  0.63853726  0.50638741  1
  H  H36  1  0.73030413  0.07766249  0.08817355  1
  H  H37  1  0.26969587  0.92233751  0.91182645  1
  H  H38  1  0.71896511  0.22598803  0.09335299  1
  H  H39  1  0.28103489  0.77401197  0.90664701  1
  H  H40  1  0.16879433  0.44295091  0.20625877  1
  H  H41  1  0.83120567  0.55704909  0.79374123  1
  H  H42  1  0.98970588  0.45649909  0.16977897  1
  H  H43  1  0.01029412  0.54350091  0.83022103  1
  H  H44  1  0.11502570  0.02402178  0.14066642  1
  H  H45  1  0.88497430  0.97597822  0.85933358  1
  H  H46  1  0.24728985  0.15640629  0.16681686  1
  H  H47  1  0.75271015  0.84359371  0.83318314  1
  H  H48  1  0.03556042  0.19215318  0.86115294  1
  H  H49  1  0.96443958  0.80784682  0.13884706  1
  H  H50  1  0.86576667  0.21951146  0.86780100  1
  H  H51  1  0.13423333  0.78048854  0.13219900  1
  O  O52  1  0.04258786  0.29174882  0.62724013  1
  O  O53  1  0.95741214  0.70825118  0.37275987  1
  O  O54  1  0.20892918  0.20931408  0.80319839  1
  O  O55  1  0.79107082  0.79068592  0.19680161  1
  O  O56  1  0.35824562  0.08838186  0.95381997  1
  O  O57  1  0.64175438  0.91161814  0.04618003  1
  O  O58  1  0.59539692  0.32946791  0.04715205  1
  O  O59  1  0.40460308  0.67053209  0.95284795  1
  O  O60  1  0.84682481  0.55010536  0.13086656  1
  O  O61  1  0.15317519  0.44989464  0.86913344  1
  O  O62  1  0.68505084  0.64656099  0.96301514  1
  O  O63  1  0.31494916  0.35343901  0.03698486  1
  O  O64  1  0.54170966  0.74413421  0.78142857  1
  O  O65  1  0.45829034  0.25586579  0.21857143  1
  O  O66  1  0.29943768  0.51829231  0.72003269  1
  O  O67  1  0.70056232  0.48170769  0.27996731  1
  O  O68  1  0.45587030  0.42877450  0.88710136  1
  O  O69  1  0.54412970  0.57122550  0.11289864  1
  O  O70  1  0.35876405  0.27775243  0.64770278  1
  O  O71  1  0.64123595  0.72224757  0.35229722  1
  O  O72  1  0.51334578  0.18348125  0.80997793  1
  O  O73  1  0.48665422  0.81651875  0.19002207  1
  O  O74  1  0.75033124  0.39511926  0.89034400  1
  O  O75  1  0.24966876  0.60488074  0.10965600  1
  O  O76  1  0.60591064  0.49495715  0.73141070  1
  O  O77  1  0.39408936  0.50504285  0.26858930  1
  O  O78  1  0.66487075  0.24499576  0.64646109  1
  O  O79  1  0.33512925  0.75500424  0.35353891  1
  O  O80  1  0.74332185  0.95567983  0.54628907  1
  O  O81  1  0.25667815  0.04432017  0.45371093  1
  O  O82  1  0.51271146  0.07216558  0.34174140  1
  O  O83  1  0.48728854  0.92783442  0.65825860  1
  O  O84  1  0.93782706  0.05376170  0.35825930  1
  O  O85  1  0.06217294  0.94623830  0.64174070  1
  O  O86  1  0.84572885  0.35198836  0.42537052  1
  O  O87  1  0.15427115  0.64801164  0.57462948  1
  O  O88  1  0.25558882  0.38164163  0.42805432  1
  O  O89  1  0.74441118  0.61835837  0.57194568  1
  O  O90  1  0.79463180  0.17121374  0.11481719  1
  O  O91  1  0.20536820  0.82878626  0.88518281  1
  O  O92  1  0.05625442  0.39353539  0.18586881  1
  O  O93  1  0.94374558  0.60646461  0.81413119  1
  O  O94  1  0.13083572  0.12042665  0.15050546  1
  O  O95  1  0.86916428  0.87957335  0.84949454  1
  O  O96  1  0.94268069  0.16877393  0.89288356  1
  O  O97  1  0.05731931  0.83122607  0.10711644  1
