# generated using pymatgen
data_CaAl2Si3H6O13
_symmetry_space_group_name_H-M   'P 1'
_cell_length_a   6.64467771
_cell_length_b   10.08998522
_cell_length_c   10.19603460
_cell_angle_alpha   83.58847717
_cell_angle_beta   70.98314911
_cell_angle_gamma   69.95830055
_symmetry_Int_Tables_number   1
_chemical_formula_structural   CaAl2Si3H6O13
_chemical_formula_sum   'Ca2 Al4 Si6 H12 O26'
_cell_volume   607.14505218
_cell_formula_units_Z   2
loop_
 _symmetry_equiv_pos_site_id
 _symmetry_equiv_pos_as_xyz
  1  'x, y, z'
loop_
 _atom_site_type_symbol
 _atom_site_label
 _atom_site_symmetry_multiplicity
 _atom_site_fract_x
 _atom_site_fract_y
 _atom_site_fract_z
 _atom_site_occupancy
  Ca  Ca0  1  0.17045211  0.44609857  0.95537214  1
  Ca  Ca1  1  0.87582425  0.94609857  0.54462786  1
  Al  Al2  1  0.99416938  0.57410576  0.67981390  1
  Al  Al3  1  0.42398329  0.07410576  0.82018610  1
  Al  Al4  1  0.24723785  0.40228497  0.32453745  1
  Al  Al5  1  0.32177531  0.90228497  0.17546255  1
  Si  Si6  1  0.73224329  0.49578555  0.50168661  1
  Si  Si7  1  0.98392990  0.99578555  0.99831339  1
  Si  Si8  1  0.75197054  0.80672723  0.90912258  1
  Si  Si9  1  0.41109312  0.30672723  0.59087742  1
  Si  Si10  1  0.47090040  0.17390933  0.08835796  1
  Si  Si11  1  0.30925836  0.67390933  0.41164204  1
  H  H12  1  0.56317863  0.55332550  0.77302994  1
  H  H13  1  0.08620858  0.05332550  0.72697006  1
  H  H14  1  0.42922512  0.62754415  0.91982462  1
  H  H15  1  0.09904974  0.12754415  0.58017538  1
  H  H16  1  0.81952703  0.28810295  0.07782610  1
  H  H17  1  0.64735313  0.78810295  0.42217390  1
  H  H18  1  0.75035401  0.42532265  0.16214649  1
  H  H19  1  0.66250050  0.92532265  0.33785351  1
  H  H20  1  0.02228017  0.73005438  0.08412695  1
  H  H21  1  0.85640712  0.23005438  0.41587305  1
  H  H22  1  0.13814432  0.63000169  0.18696264  1
  H  H23  1  0.07510695  0.13000169  0.31303736  1
  O  O24  1  0.77920385  0.54363067  0.63372249  1
  O  O25  1  0.16292635  0.04363067  0.86627751  1
  O  O26  1  0.95639031  0.43861505  0.37311854  1
  O  O27  1  0.07950885  0.93861505  0.12688146  1
  O  O28  1  0.89557047  0.64866408  0.84566661  1
  O  O29  1  0.49123708  0.14866408  0.65433339  1
  O  O30  1  0.35863192  0.33056848  0.15605798  1
  O  O31  1  0.26468990  0.83056848  0.34394202  1
  O  O32  1  0.09874456  0.69215521  0.55703872  1
  O  O33  1  0.40578327  0.19215521  0.94296128  1
  O  O34  1  0.34731585  0.29855595  0.45336509  1
  O  O35  1  0.55068094  0.79855595  0.04663491  1
  O  O36  1  0.20056460  0.41520583  0.70800783  1
  O  O37  1  0.65857243  0.91520583  0.79199217  1
  O  O38  1  0.31750497  0.55933453  0.30781974  1
  O  O39  1  0.37532472  0.05933453  0.19218026  1
  O  O40  1  0.62661958  0.36627471  0.54990239  1
  O  O41  1  0.92652197  0.86627471  0.95009761  1
  O  O42  1  0.54794273  0.63141031  0.45102800  1
  O  O43  1  0.74897073  0.13141031  0.04897200  1
  O  O44  1  0.43335828  0.55811010  0.85905186  1
  O  O45  1  0.04241014  0.05811010  0.64094814  1
  O  O46  1  0.87016896  0.36689256  0.08743123  1
  O  O47  1  0.70760019  0.86689256  0.41256877  1
  O  O48  1  0.06661671  0.63171977  0.11575082  1
  O  O49  1  0.93236753  0.13171977  0.38424918  1
