# generated using pymatgen
data_SrHg8
_symmetry_space_group_name_H-M   'P 1'
_cell_length_a   5.47097254
_cell_length_b   13.49580173
_cell_length_c   27.35031391
_cell_angle_alpha   90.00000000
_cell_angle_beta   90.00000000
_cell_angle_gamma   90.00000000
_symmetry_Int_Tables_number   1
_chemical_formula_structural   SrHg8
_chemical_formula_sum   'Sr8 Hg64'
_cell_volume   2019.41482192
_cell_formula_units_Z   8
loop_
 _symmetry_equiv_pos_site_id
 _symmetry_equiv_pos_as_xyz
  1  'x, y, z'
loop_
 _atom_site_type_symbol
 _atom_site_label
 _atom_site_symmetry_multiplicity
 _atom_site_fract_x
 _atom_site_fract_y
 _atom_site_fract_z
 _atom_site_occupancy
  Sr  Sr0  1  0.75000000  0.45561377  0.20123335  1
  Sr  Sr1  1  0.75000000  0.95561377  0.29876665  1
  Sr  Sr2  1  0.25000000  0.54438623  0.79876665  1
  Sr  Sr3  1  0.25000000  0.04438623  0.70123335  1
  Sr  Sr4  1  0.75000000  0.42186525  0.59498881  1
  Sr  Sr5  1  0.75000000  0.92186525  0.90501119  1
  Sr  Sr6  1  0.25000000  0.57813475  0.40501119  1
  Sr  Sr7  1  0.25000000  0.07813475  0.09498881  1
  Hg  Hg8  1  0.75000000  0.49198664  0.05127979  1
  Hg  Hg9  1  0.75000000  0.99198664  0.44872021  1
  Hg  Hg10  1  0.25000000  0.50801336  0.94872021  1
  Hg  Hg11  1  0.25000000  0.00801336  0.55127979  1
  Hg  Hg12  1  0.75000000  0.42739912  0.34237260  1
  Hg  Hg13  1  0.75000000  0.92739912  0.15762740  1
  Hg  Hg14  1  0.25000000  0.57260088  0.65762740  1
  Hg  Hg15  1  0.25000000  0.07260088  0.84237260  1
  Hg  Hg16  1  0.75000000  0.42875244  0.72669908  1
  Hg  Hg17  1  0.75000000  0.92875244  0.77330092  1
  Hg  Hg18  1  0.25000000  0.57124756  0.27330092  1
  Hg  Hg19  1  0.25000000  0.07124756  0.22669908  1
  Hg  Hg20  1  0.75000000  0.37363163  0.83243805  1
  Hg  Hg21  1  0.75000000  0.87363163  0.66756195  1
  Hg  Hg22  1  0.25000000  0.62636837  0.16756195  1
  Hg  Hg23  1  0.25000000  0.12636837  0.33243805  1
  Hg  Hg24  1  0.75000000  0.36440188  0.96020650  1
  Hg  Hg25  1  0.75000000  0.86440188  0.53979350  1
  Hg  Hg26  1  0.25000000  0.63559812  0.03979350  1
  Hg  Hg27  1  0.25000000  0.13559812  0.46020650  1
  Hg  Hg28  1  0.75000000  0.27945652  0.09216022  1
  Hg  Hg29  1  0.75000000  0.77945652  0.40783978  1
  Hg  Hg30  1  0.25000000  0.72054348  0.90783978  1
  Hg  Hg31  1  0.25000000  0.22054348  0.59216022  1
  Hg  Hg32  1  0.75000000  0.22803100  0.28150139  1
  Hg  Hg33  1  0.75000000  0.72803100  0.21849861  1
  Hg  Hg34  1  0.25000000  0.77196900  0.71849861  1
  Hg  Hg35  1  0.25000000  0.27196900  0.78150139  1
  Hg  Hg36  1  0.75000000  0.22220115  0.68437073  1
  Hg  Hg37  1  0.75000000  0.72220115  0.81562927  1
  Hg  Hg38  1  0.25000000  0.77779885  0.31562927  1
  Hg  Hg39  1  0.25000000  0.27779885  0.18437073  1
  Hg  Hg40  1  0.75000000  0.21432506  0.51356775  1
  Hg  Hg41  1  0.75000000  0.71432506  0.98643225  1
  Hg  Hg42  1  0.25000000  0.78567494  0.48643225  1
  Hg  Hg43  1  0.25000000  0.28567494  0.01356775  1
  Hg  Hg44  1  0.75000000  0.18960645  0.39333105  1
  Hg  Hg45  1  0.75000000  0.68960645  0.10666895  1
  Hg  Hg46  1  0.25000000  0.81039355  0.60666895  1
  Hg  Hg47  1  0.25000000  0.31039355  0.89333105  1
  Hg  Hg48  1  0.75000000  0.17443933  0.89586129  1
  Hg  Hg49  1  0.75000000  0.67443933  0.60413871  1
  Hg  Hg50  1  0.25000000  0.82556067  0.10413871  1
  Hg  Hg51  1  0.25000000  0.32556067  0.39586129  1
  Hg  Hg52  1  0.75000000  0.14496124  0.17928259  1
  Hg  Hg53  1  0.75000000  0.64496124  0.32071741  1
  Hg  Hg54  1  0.25000000  0.85503876  0.82071741  1
  Hg  Hg55  1  0.25000000  0.35503876  0.67928259  1
  Hg  Hg56  1  0.75000000  0.14592303  0.78588912  1
  Hg  Hg57  1  0.75000000  0.64592303  0.71411088  1
  Hg  Hg58  1  0.25000000  0.85407697  0.21411088  1
  Hg  Hg59  1  0.25000000  0.35407697  0.28588912  1
  Hg  Hg60  1  0.75000000  0.12746282  0.00968739  1
  Hg  Hg61  1  0.75000000  0.62746282  0.49031261  1
  Hg  Hg62  1  0.25000000  0.87253718  0.99031261  1
  Hg  Hg63  1  0.25000000  0.37253718  0.50968739  1
  Hg  Hg64  1  0.75000000  0.06996368  0.60562797  1
  Hg  Hg65  1  0.75000000  0.56996368  0.89437203  1
  Hg  Hg66  1  0.25000000  0.93003632  0.39437203  1
  Hg  Hg67  1  0.25000000  0.43003632  0.10562797  1
  Hg  Hg68  1  0.75000000  0.91551012  0.04697350  1
  Hg  Hg69  1  0.75000000  0.41551012  0.45302650  1
  Hg  Hg70  1  0.25000000  0.08448988  0.95302650  1
  Hg  Hg71  1  0.25000000  0.58448988  0.54697350  1
