# generated using pymatgen
data_CdPHO3
_symmetry_space_group_name_H-M   'P 1'
_cell_length_a   8.43179398
_cell_length_b   8.43179398
_cell_length_c   8.43179403
_cell_angle_alpha   109.12579304
_cell_angle_beta   109.12579304
_cell_angle_gamma   109.12579245
_symmetry_Int_Tables_number   1
_chemical_formula_structural   CdPHO3
_chemical_formula_sum   'Cd6 P6 H6 O18'
_cell_volume   467.27279514
_cell_formula_units_Z   6
loop_
 _symmetry_equiv_pos_site_id
 _symmetry_equiv_pos_as_xyz
  1  'x, y, z'
loop_
 _atom_site_type_symbol
 _atom_site_label
 _atom_site_symmetry_multiplicity
 _atom_site_fract_x
 _atom_site_fract_y
 _atom_site_fract_z
 _atom_site_occupancy
  Cd  Cd0  1  0.14242979  0.82219422  0.31606695  1
  Cd  Cd1  1  0.82219422  0.31606695  0.14242979  1
  Cd  Cd2  1  0.31606695  0.14242979  0.82219422  1
  Cd  Cd3  1  0.85757021  0.17780578  0.68393305  1
  Cd  Cd4  1  0.17780578  0.68393305  0.85757021  1
  Cd  Cd5  1  0.68393305  0.85757021  0.17780578  1
  P  P6  1  0.47319907  0.11904008  0.26347337  1
  P  P7  1  0.11904008  0.26347337  0.47319907  1
  P  P8  1  0.26347337  0.47319907  0.11904008  1
  P  P9  1  0.52680093  0.88095992  0.73652663  1
  P  P10  1  0.88095992  0.73652663  0.52680093  1
  P  P11  1  0.73652663  0.52680093  0.88095992  1
  H  H12  1  0.46767242  0.26645946  0.39854025  1
  H  H13  1  0.26645946  0.39854025  0.46767242  1
  H  H14  1  0.39854025  0.46767242  0.26645946  1
  H  H15  1  0.53232758  0.73354054  0.60145975  1
  H  H16  1  0.73354054  0.60145975  0.53232758  1
  H  H17  1  0.60145975  0.53232758  0.73354054  1
  O  O18  1  0.27040710  0.94161330  0.15408219  1
  O  O19  1  0.94161330  0.15408219  0.27040710  1
  O  O20  1  0.15408219  0.27040710  0.94161330  1
  O  O21  1  0.72959290  0.05838670  0.84591781  1
  O  O22  1  0.05838670  0.84591781  0.72959290  1
  O  O23  1  0.84591781  0.72959290  0.05838670  1
  O  O24  1  0.62977698  0.08323490  0.37616708  1
  O  O25  1  0.08323490  0.37616708  0.62977698  1
  O  O26  1  0.37616708  0.62977698  0.08323490  1
  O  O27  1  0.37022302  0.91676510  0.62383292  1
  O  O28  1  0.91676510  0.62383292  0.37022302  1
  O  O29  1  0.62383292  0.37022302  0.91676510  1
  O  O30  1  0.51944498  0.18934018  0.12821420  1
  O  O31  1  0.18934018  0.12821420  0.51944498  1
  O  O32  1  0.12821420  0.51944498  0.18934018  1
  O  O33  1  0.48055502  0.81065982  0.87178580  1
  O  O34  1  0.81065982  0.87178580  0.48055502  1
  O  O35  1  0.87178580  0.48055502  0.81065982  1
