# generated using pymatgen
data_Yb3Cu3Te4(ClO2)6
_symmetry_space_group_name_H-M   'P 1'
_cell_length_a   5.63392777
_cell_length_b   13.91213733
_cell_length_c   14.19133626
_cell_angle_alpha   107.85751713
_cell_angle_beta   90.00000000
_cell_angle_gamma   90.00000000
_symmetry_Int_Tables_number   1
_chemical_formula_structural   Yb3Cu3Te4(ClO2)6
_chemical_formula_sum   'Yb6 Cu6 Te8 Cl12 O24'
_cell_volume   1058.72745925
_cell_formula_units_Z   2
loop_
 _symmetry_equiv_pos_site_id
 _symmetry_equiv_pos_as_xyz
  1  'x, y, z'
loop_
 _atom_site_type_symbol
 _atom_site_label
 _atom_site_symmetry_multiplicity
 _atom_site_fract_x
 _atom_site_fract_y
 _atom_site_fract_z
 _atom_site_occupancy
  Yb  Yb0  1  0.84071359  0.75000000  0.25000000  1
  Yb  Yb1  1  0.15928641  0.25000000  0.75000000  1
  Yb  Yb2  1  0.31356159  0.92078237  0.40685644  1
  Yb  Yb3  1  0.31356159  0.57921763  0.09314356  1
  Yb  Yb4  1  0.68643841  0.07921763  0.59314356  1
  Yb  Yb5  1  0.68643841  0.42078237  0.90685644  1
  Cu  Cu6  1  0.31302684  0.25000000  0.25000000  1
  Cu  Cu7  1  0.68697316  0.75000000  0.75000000  1
  Cu  Cu8  1  0.86519105  0.73721625  0.99373568  1
  Cu  Cu9  1  0.86519105  0.76278375  0.50626432  1
  Cu  Cu10  1  0.13480895  0.26278375  0.00626432  1
  Cu  Cu11  1  0.13480895  0.23721625  0.49373568  1
  Te  Te12  1  0.38170691  0.66518989  0.37243013  1
  Te  Te13  1  0.38170691  0.83481011  0.12756987  1
  Te  Te14  1  0.61829309  0.33481011  0.62756987  1
  Te  Te15  1  0.61829309  0.16518989  0.87243013  1
  Te  Te16  1  0.84612492  0.04321358  0.33590554  1
  Te  Te17  1  0.84612492  0.45678642  0.16409446  1
  Te  Te18  1  0.15387508  0.95678642  0.66409446  1
  Te  Te19  1  0.15387508  0.54321358  0.83590554  1
  Cl  Cl20  1  0.32866274  0.40589025  0.27652194  1
  Cl  Cl21  1  0.32866274  0.09410975  0.22347806  1
  Cl  Cl22  1  0.67133726  0.59410975  0.72347806  1
  Cl  Cl23  1  0.67133726  0.90589025  0.77652194  1
  Cl  Cl24  1  0.80564081  0.90162544  0.04326483  1
  Cl  Cl25  1  0.80564081  0.59837456  0.45673517  1
  Cl  Cl26  1  0.19435919  0.09837456  0.95673517  1
  Cl  Cl27  1  0.19435919  0.40162544  0.54326483  1
  Cl  Cl28  1  0.14856320  0.76676934  0.89737868  1
  Cl  Cl29  1  0.14856320  0.73323066  0.60262132  1
  Cl  Cl30  1  0.85143680  0.23323066  0.10262132  1
  Cl  Cl31  1  0.85143680  0.26676934  0.39737868  1
  O  O32  1  0.13997724  0.75929618  0.37102488  1
  O  O33  1  0.13997724  0.74070382  0.12897512  1
  O  O34  1  0.86002276  0.24070382  0.62897512  1
  O  O35  1  0.86002276  0.25929618  0.87102488  1
  O  O36  1  0.60842957  0.72189263  0.07509887  1
  O  O37  1  0.60842957  0.77810737  0.42490113  1
  O  O38  1  0.39157043  0.27810737  0.92490113  1
  O  O39  1  0.39157043  0.22189263  0.57509887  1
  O  O40  1  0.50969513  0.86268097  0.25469113  1
  O  O41  1  0.50969513  0.63731903  0.24530887  1
  O  O42  1  0.49030487  0.13731903  0.74530887  1
  O  O43  1  0.49030487  0.36268097  0.75469113  1
  O  O44  1  0.99382672  0.91633588  0.30635403  1
  O  O45  1  0.99382672  0.58366412  0.19364597  1
  O  O46  1  0.00617328  0.08366412  0.69364597  1
  O  O47  1  0.00617328  0.41633588  0.80635403  1
  O  O48  1  0.91746359  0.59639366  0.94201345  1
  O  O49  1  0.91746359  0.90360634  0.55798655  1
  O  O50  1  0.08253641  0.40360634  0.05798655  1
  O  O51  1  0.08253641  0.09639366  0.44201345  1
  O  O52  1  0.61607572  0.03303437  0.42650710  1
  O  O53  1  0.61607572  0.46696563  0.07349290  1
  O  O54  1  0.38392428  0.96696563  0.57349290  1
  O  O55  1  0.38392428  0.53303437  0.92650710  1
