# generated using pymatgen
data_Cu3P8(Se2I)3
_symmetry_space_group_name_H-M   'P 1'
_cell_length_a   7.96365949
_cell_length_b   10.07041763
_cell_length_c   27.51103806
_cell_angle_alpha   90.00000000
_cell_angle_beta   90.00000000
_cell_angle_gamma   90.00000000
_symmetry_Int_Tables_number   1
_chemical_formula_structural   Cu3P8(Se2I)3
_chemical_formula_sum   'Cu12 P32 Se24 I12'
_cell_volume   2206.31308896
_cell_formula_units_Z   4
loop_
 _symmetry_equiv_pos_site_id
 _symmetry_equiv_pos_as_xyz
  1  'x, y, z'
loop_
 _atom_site_type_symbol
 _atom_site_label
 _atom_site_symmetry_multiplicity
 _atom_site_fract_x
 _atom_site_fract_y
 _atom_site_fract_z
 _atom_site_occupancy
  Cu  Cu0  1  0.70400595  0.00079430  0.00193891  1
  Cu  Cu1  1  0.20400595  0.49920570  0.49806109  1
  Cu  Cu2  1  0.29599405  0.99920570  0.50193891  1
  Cu  Cu3  1  0.79599405  0.50079430  0.99806109  1
  Cu  Cu4  1  0.29599405  0.99920570  0.99806109  1
  Cu  Cu5  1  0.79599405  0.50079430  0.50193891  1
  Cu  Cu6  1  0.70400595  0.00079430  0.49806109  1
  Cu  Cu7  1  0.20400595  0.49920570  0.00193891  1
  Cu  Cu8  1  0.93464984  0.11920907  0.75000000  1
  Cu  Cu9  1  0.43464984  0.38079093  0.75000000  1
  Cu  Cu10  1  0.06535016  0.88079093  0.25000000  1
  Cu  Cu11  1  0.56535016  0.61920907  0.25000000  1
  P  P12  1  0.97817284  0.00472293  0.81941415  1
  P  P13  1  0.47817284  0.49527707  0.68058585  1
  P  P14  1  0.02182716  0.99527707  0.31941415  1
  P  P15  1  0.52182716  0.50472293  0.18058585  1
  P  P16  1  0.02182716  0.99527707  0.18058585  1
  P  P17  1  0.52182716  0.50472293  0.31941415  1
  P  P18  1  0.97817284  0.00472293  0.68058585  1
  P  P19  1  0.47817284  0.49527707  0.81941415  1
  P  P20  1  0.85967523  0.94438348  0.93574839  1
  P  P21  1  0.35967523  0.55561652  0.56425161  1
  P  P22  1  0.14032477  0.05561652  0.43574839  1
  P  P23  1  0.64032477  0.44438348  0.06425161  1
  P  P24  1  0.14032477  0.05561652  0.06425161  1
  P  P25  1  0.64032477  0.44438348  0.43574839  1
  P  P26  1  0.85967523  0.94438348  0.56425161  1
  P  P27  1  0.35967523  0.55561652  0.93574839  1
  P  P28  1  0.14050366  0.94472868  0.93184528  1
  P  P29  1  0.64050366  0.55527132  0.56815472  1
  P  P30  1  0.85949634  0.05527132  0.43184528  1
  P  P31  1  0.35949634  0.44472868  0.06815472  1
  P  P32  1  0.85949634  0.05527132  0.06815472  1
  P  P33  1  0.35949634  0.44472868  0.43184528  1
  P  P34  1  0.14050366  0.94472868  0.56815472  1
  P  P35  1  0.64050366  0.55527132  0.93184528  1
  P  P36  1  0.99545592  0.76076758  0.90758230  1
  P  P37  1  0.49545592  0.73923242  0.59241770  1
  P  P38  1  0.00454408  0.23923242  0.40758230  1
  P  P39  1  0.50454408  0.26076758  0.09241770  1
  P  P40  1  0.00454408  0.23923242  0.09241770  1
  P  P41  1  0.50454408  0.26076758  0.40758230  1
  P  P42  1  0.99545592  0.76076758  0.59241770  1
  P  P43  1  0.49545592  0.73923242  0.90758230  1
  Se  Se44  1  0.20733984  0.06047528  0.86436935  1
  Se  Se45  1  0.70733984  0.43952472  0.63563065  1
  Se  Se46  1  0.79266016  0.93952472  0.36436935  1
  Se  Se47  1  0.29266016  0.56047528  0.13563065  1
  Se  Se48  1  0.79266016  0.93952472  0.13563065  1
  Se  Se49  1  0.29266016  0.56047528  0.36436935  1
  Se  Se50  1  0.20733984  0.06047528  0.63563065  1
  Se  Se51  1  0.70733984  0.43952472  0.86436935  1
  Se  Se52  1  0.98307219  0.77896384  0.82559386  1
  Se  Se53  1  0.48307219  0.72103616  0.67440614  1
  Se  Se54  1  0.01692781  0.22103616  0.32559386  1
  Se  Se55  1  0.51692781  0.27896384  0.17440614  1
  Se  Se56  1  0.01692781  0.22103616  0.17440614  1
  Se  Se57  1  0.51692781  0.27896384  0.32559386  1
  Se  Se58  1  0.98307219  0.77896384  0.67440614  1
  Se  Se59  1  0.48307219  0.72103616  0.82559386  1
  Se  Se60  1  0.76558409  0.05744717  0.87065742  1
  Se  Se61  1  0.26558409  0.44255283  0.62934258  1
  Se  Se62  1  0.23441591  0.94255283  0.37065742  1
  Se  Se63  1  0.73441591  0.55744717  0.12934258  1
  Se  Se64  1  0.23441591  0.94255283  0.12934258  1
  Se  Se65  1  0.73441591  0.55744717  0.37065742  1
  Se  Se66  1  0.76558409  0.05744717  0.62934258  1
  Se  Se67  1  0.26558409  0.44255283  0.87065742  1
  I  I68  1  0.49912426  0.81133377  0.03079282  1
  I  I69  1  0.99912426  0.68866623  0.46920718  1
  I  I70  1  0.50087574  0.18866623  0.53079282  1
  I  I71  1  0.00087574  0.31133377  0.96920718  1
  I  I72  1  0.50087574  0.18866623  0.96920718  1
  I  I73  1  0.00087574  0.31133377  0.53079282  1
  I  I74  1  0.49912426  0.81133377  0.46920718  1
  I  I75  1  0.99912426  0.68866623  0.03079282  1
  I  I76  1  0.09284482  0.34916550  0.75000000  1
  I  I77  1  0.59284482  0.15083450  0.75000000  1
  I  I78  1  0.90715518  0.65083450  0.25000000  1
  I  I79  1  0.40715518  0.84916550  0.25000000  1
