# generated using pymatgen
data_Yb2Zn17
_symmetry_space_group_name_H-M   'P 1'
_cell_length_a   8.70485575
_cell_length_b   9.02417658
_cell_length_c   9.02417658
_cell_angle_alpha   119.79851710
_cell_angle_beta   90.00000000
_cell_angle_gamma   90.00000000
_symmetry_Int_Tables_number   1
_chemical_formula_structural   Yb2Zn17
_chemical_formula_sum   'Yb4 Zn34'
_cell_volume   615.15639290
_cell_formula_units_Z   2
loop_
 _symmetry_equiv_pos_site_id
 _symmetry_equiv_pos_as_xyz
  1  'x, y, z'
loop_
 _atom_site_type_symbol
 _atom_site_label
 _atom_site_symmetry_multiplicity
 _atom_site_fract_x
 _atom_site_fract_y
 _atom_site_fract_z
 _atom_site_occupancy
  Yb  Yb0  1  0.75000000  0.00018802  0.99981198  1
  Yb  Yb1  1  0.25000000  0.99981198  0.00018802  1
  Yb  Yb2  1  0.25000000  0.66675923  0.33324077  1
  Yb  Yb3  1  0.75000000  0.33324077  0.66675923  1
  Zn  Zn4  1  0.59213339  0.66663686  0.33336314  1
  Zn  Zn5  1  0.40786661  0.33336314  0.66663686  1
  Zn  Zn6  1  0.09213339  0.33336314  0.66663686  1
  Zn  Zn7  1  0.90786661  0.66663686  0.33336314  1
  Zn  Zn8  1  0.50000000  0.50000000  -0.00000000  1
  Zn  Zn9  1  0.50000000  0.50000000  0.50000000  1
  Zn  Zn10  1  0.50000000  0.00000000  0.50000000  1
  Zn  Zn11  1  0.00000000  0.50000000  -0.00000000  1
  Zn  Zn12  1  0.00000000  0.50000000  0.50000000  1
  Zn  Zn13  1  0.00000000  0.00000000  0.50000000  1
  Zn  Zn14  1  0.75000000  0.67014248  0.02890296  1
  Zn  Zn15  1  0.75000000  0.35894146  0.33004929  1
  Zn  Zn16  1  0.75000000  0.97146555  0.64176364  1
  Zn  Zn17  1  0.75000000  0.35823636  0.02853445  1
  Zn  Zn18  1  0.75000000  0.97109704  0.32985752  1
  Zn  Zn19  1  0.75000000  0.66995071  0.64105854  1
  Zn  Zn20  1  0.25000000  0.32985752  0.97109704  1
  Zn  Zn21  1  0.25000000  0.64105854  0.66995071  1
  Zn  Zn22  1  0.25000000  0.02853445  0.35823636  1
  Zn  Zn23  1  0.25000000  0.64176364  0.97146555  1
  Zn  Zn24  1  0.25000000  0.02890296  0.67014248  1
  Zn  Zn25  1  0.25000000  0.33004929  0.35894146  1
  Zn  Zn26  1  0.48207261  0.83585728  0.67169986  1
  Zn  Zn27  1  0.48185751  0.83612740  0.16387260  1
  Zn  Zn28  1  0.48207261  0.32830014  0.16414272  1
  Zn  Zn29  1  0.51792739  0.16414272  0.32830014  1
  Zn  Zn30  1  0.51814249  0.16387260  0.83612740  1
  Zn  Zn31  1  0.51792739  0.67169986  0.83585728  1
  Zn  Zn32  1  0.98207261  0.16414272  0.32830014  1
  Zn  Zn33  1  0.98185751  0.16387260  0.83612740  1
  Zn  Zn34  1  0.98207261  0.67169986  0.83585728  1
  Zn  Zn35  1  0.01792739  0.83585728  0.67169986  1
  Zn  Zn36  1  0.01814249  0.83612740  0.16387260  1
  Zn  Zn37  1  0.01792739  0.32830014  0.16414272  1
