# generated using pymatgen
data_Sr2NiTeO6
_symmetry_space_group_name_H-M   'P 1'
_cell_length_a   5.66307385
_cell_length_b   5.65969269
_cell_length_c   5.65969269
_cell_angle_alpha   60.14583436
_cell_angle_beta   59.90099795
_cell_angle_gamma   59.90099795
_symmetry_Int_Tables_number   1
_chemical_formula_structural   Sr2NiTeO6
_chemical_formula_sum   'Sr2 Ni1 Te1 O6'
_cell_volume   128.21721709
_cell_formula_units_Z   1
loop_
 _symmetry_equiv_pos_site_id
 _symmetry_equiv_pos_as_xyz
  1  'x, y, z'
loop_
 _atom_site_type_symbol
 _atom_site_label
 _atom_site_symmetry_multiplicity
 _atom_site_fract_x
 _atom_site_fract_y
 _atom_site_fract_z
 _atom_site_occupancy
  Sr  Sr0  1  0.25020212  0.25006246  0.25006246  1
  Sr  Sr1  1  0.74979788  0.74993754  0.74993754  1
  Ni  Ni2  1  0.50000000  0.50000000  0.50000000  1
  Te  Te3  1  -0.00000000  -0.00000000  0.00000000  1
  O  O4  1  0.24324929  0.23960497  0.75692089  1
  O  O5  1  0.24324929  0.75692089  0.23960497  1
  O  O6  1  0.75675071  0.76039503  0.24307911  1
  O  O7  1  0.75675071  0.24307911  0.76039503  1
  O  O8  1  0.75863779  0.24240675  0.24240675  1
  O  O9  1  0.24136221  0.75759325  0.75759325  1
