# generated using pymatgen
data_Ga2HgO4
_symmetry_space_group_name_H-M   'P 1'
_cell_length_a   9.32092921
_cell_length_b   3.02591459
_cell_length_c   10.96201446
_cell_angle_alpha   90.00000000
_cell_angle_beta   90.00000000
_cell_angle_gamma   90.00000000
_symmetry_Int_Tables_number   1
_chemical_formula_structural   Ga2HgO4
_chemical_formula_sum   'Ga8 Hg4 O16'
_cell_volume   309.17633566
_cell_formula_units_Z   4
loop_
 _symmetry_equiv_pos_site_id
 _symmetry_equiv_pos_as_xyz
  1  'x, y, z'
loop_
 _atom_site_type_symbol
 _atom_site_label
 _atom_site_symmetry_multiplicity
 _atom_site_fract_x
 _atom_site_fract_y
 _atom_site_fract_z
 _atom_site_occupancy
  Ga  Ga0  1  0.08069483  0.75000000  0.60565757  1
  Ga  Ga1  1  0.06824823  0.75000000  0.11176478  1
  Ga  Ga2  1  0.43175177  0.25000000  0.61176478  1
  Ga  Ga3  1  0.41930517  0.25000000  0.10565757  1
  Ga  Ga4  1  0.58069483  0.75000000  0.89434243  1
  Ga  Ga5  1  0.56824823  0.75000000  0.38823522  1
  Ga  Ga6  1  0.93175177  0.25000000  0.88823522  1
  Ga  Ga7  1  0.91930517  0.25000000  0.39434243  1
  Hg  Hg8  1  0.24300421  0.75000000  0.34682956  1
  Hg  Hg9  1  0.25699579  0.25000000  0.84682956  1
  Hg  Hg10  1  0.74300421  0.75000000  0.15317044  1
  Hg  Hg11  1  0.75699579  0.25000000  0.65317044  1
  O  O12  1  0.02299942  0.25000000  0.71545163  1
  O  O13  1  0.07506356  0.75000000  0.92899370  1
  O  O14  1  0.11247693  0.25000000  0.48165972  1
  O  O15  1  0.20625871  0.25000000  0.14971364  1
  O  O16  1  0.29374129  0.75000000  0.64971364  1
  O  O17  1  0.38752307  0.75000000  0.98165972  1
  O  O18  1  0.42493644  0.25000000  0.42899370  1
  O  O19  1  0.47700058  0.75000000  0.21545163  1
  O  O20  1  0.52299942  0.25000000  0.78454837  1
  O  O21  1  0.57506356  0.75000000  0.57100630  1
  O  O22  1  0.61247693  0.25000000  0.01834028  1
  O  O23  1  0.70625871  0.25000000  0.35028636  1
  O  O24  1  0.79374129  0.75000000  0.85028636  1
  O  O25  1  0.88752307  0.75000000  0.51834028  1
  O  O26  1  0.92493644  0.25000000  0.07100630  1
  O  O27  1  0.97700058  0.75000000  0.28454837  1
