# generated using pymatgen
data_KNa2AlH6
_symmetry_space_group_name_H-M   'P 1'
_cell_length_a   5.58445022
_cell_length_b   5.66337531
_cell_length_c   7.98758360
_cell_angle_alpha   90.00000000
_cell_angle_beta   89.93889984
_cell_angle_gamma   90.00000000
_symmetry_Int_Tables_number   1
_chemical_formula_structural   KNa2AlH6
_chemical_formula_sum   'K2 Na4 Al2 H12'
_cell_volume   252.62186484
_cell_formula_units_Z   2
loop_
 _symmetry_equiv_pos_site_id
 _symmetry_equiv_pos_as_xyz
  1  'x, y, z'
loop_
 _atom_site_type_symbol
 _atom_site_label
 _atom_site_symmetry_multiplicity
 _atom_site_fract_x
 _atom_site_fract_y
 _atom_site_fract_z
 _atom_site_occupancy
  K  K0  1  0.75895112  0.98105096  0.50048816  1
  K  K1  1  0.24104888  0.48105096  0.49951184  1
  Na  Na2  1  0.75011206  0.03895260  0.00015695  1
  Na  Na3  1  0.24988794  0.53895260  0.99984305  1
  Na  Na4  1  0.74712878  0.50231534  0.24096132  1
  Na  Na5  1  0.25287122  0.00231534  0.75903868  1
  Al  Al6  1  0.76045752  0.49947134  0.76669905  1
  Al  Al7  1  0.23954248  0.99947134  0.23330095  1
  H  H8  1  0.70994625  0.50977879  0.54301846  1
  H  H9  1  0.29005375  0.00977879  0.45698154  1
  H  H10  1  0.82967365  0.47135588  0.97859644  1
  H  H11  1  0.17032635  0.97135588  0.02140356  1
  H  H12  1  0.49761572  0.81837107  0.20159154  1
  H  H13  1  0.50238428  0.31837107  0.79840846  1
  H  H14  1  0.99078081  0.18712834  0.26020452  1
  H  H15  1  0.00921919  0.68712834  0.73979548  1
  H  H16  1  0.57811162  0.75268517  0.80043740  1
  H  H17  1  0.42188838  0.25268517  0.19956260  1
  H  H18  1  0.94050762  0.24889051  0.73076352  1
  H  H19  1  0.05949238  0.74889051  0.26923648  1
