# generated using pymatgen
data_Ca3Ge4
_symmetry_space_group_name_H-M   'P 1'
_cell_length_a   8.78911588
_cell_length_b   8.78910245
_cell_length_c   15.28419724
_cell_angle_alpha   90.00000000
_cell_angle_beta   90.00000000
_cell_angle_gamma   119.99999531
_symmetry_Int_Tables_number   1
_chemical_formula_structural   Ca3Ge4
_chemical_formula_sum   'Ca18 Ge24'
_cell_volume   1022.49926206
_cell_formula_units_Z   6
loop_
 _symmetry_equiv_pos_site_id
 _symmetry_equiv_pos_as_xyz
  1  'x, y, z'
loop_
 _atom_site_type_symbol
 _atom_site_label
 _atom_site_symmetry_multiplicity
 _atom_site_fract_x
 _atom_site_fract_y
 _atom_site_fract_z
 _atom_site_occupancy
  Ca  Ca0  1  0.09086929  0.66516673  0.60001118  1
  Ca  Ca1  1  0.33483292  0.42570242  0.60000998  1
  Ca  Ca2  1  0.57430491  0.90913671  0.60001151  1
  Ca  Ca3  1  0.90913071  0.33483327  0.10001118  1
  Ca  Ca4  1  0.66516708  0.57429758  0.10000998  1
  Ca  Ca5  1  0.42569509  0.09086329  0.10001151  1
  Ca  Ca6  1  0.90913071  0.33483327  0.39998882  1
  Ca  Ca7  1  0.66516708  0.57429758  0.39999002  1
  Ca  Ca8  1  0.42569509  0.09086329  0.39998849  1
  Ca  Ca9  1  0.09086929  0.66516673  0.89998882  1
  Ca  Ca10  1  0.33483292  0.42570242  0.89999002  1
  Ca  Ca11  1  0.57430491  0.90913671  0.89998849  1
  Ca  Ca12  1  0.66661182  0.33330648  0.75000000  1
  Ca  Ca13  1  0.33338818  0.66669352  0.25000000  1
  Ca  Ca14  1  0.00000000  0.00000000  0.50000000  1
  Ca  Ca15  1  0.00000000  0.00000000  0.00000000  1
  Ca  Ca16  1  0.99999890  0.00000005  0.75000000  1
  Ca  Ca17  1  0.00000110  -0.00000005  0.25000000  1
  Ge  Ge18  1  0.74428854  0.65545276  0.60373310  1
  Ge  Ge19  1  0.34453754  0.08882859  0.60373368  1
  Ge  Ge20  1  0.91116295  0.25571391  0.60373387  1
  Ge  Ge21  1  0.25571146  0.34454724  0.10373310  1
  Ge  Ge22  1  0.65546246  0.91117141  0.10373368  1
  Ge  Ge23  1  0.08883705  0.74428609  0.10373387  1
  Ge  Ge24  1  0.25571146  0.34454724  0.39626690  1
  Ge  Ge25  1  0.65546246  0.91117141  0.39626632  1
  Ge  Ge26  1  0.08883705  0.74428609  0.39626613  1
  Ge  Ge27  1  0.74428854  0.65545276  0.89626690  1
  Ge  Ge28  1  0.34453754  0.08882859  0.89626632  1
  Ge  Ge29  1  0.91116295  0.25571391  0.89626613  1
  Ge  Ge30  1  0.31222683  0.94372584  0.75000000  1
  Ge  Ge31  1  0.05627720  0.36850893  0.75000000  1
  Ge  Ge32  1  0.63151223  0.68777035  0.75000000  1
  Ge  Ge33  1  0.68777317  0.05627416  0.25000000  1
  Ge  Ge34  1  0.94372280  0.63149107  0.25000000  1
  Ge  Ge35  1  0.36848777  0.31222965  0.25000000  1
  Ge  Ge36  1  0.66661960  0.33330998  0.55100505  1
  Ge  Ge37  1  0.33338040  0.66669002  0.05100505  1
  Ge  Ge38  1  0.33338040  0.66669002  0.44899495  1
  Ge  Ge39  1  0.66661960  0.33330998  0.94899495  1
  Ge  Ge40  1  0.33336469  0.66668255  0.75000000  1
  Ge  Ge41  1  0.66663531  0.33331745  0.25000000  1
