# generated using pymatgen
data_VIr
_symmetry_space_group_name_H-M   'P 1'
_cell_length_a   6.63669224
_cell_length_b   6.63669224
_cell_length_c   11.10078503
_cell_angle_alpha   90.00000000
_cell_angle_beta   90.00000000
_cell_angle_gamma   114.33697756
_symmetry_Int_Tables_number   1
_chemical_formula_structural   VIr
_chemical_formula_sum   'V16 Ir16'
_cell_volume   445.49309119
_cell_formula_units_Z   16
loop_
 _symmetry_equiv_pos_site_id
 _symmetry_equiv_pos_as_xyz
  1  'x, y, z'
loop_
 _atom_site_type_symbol
 _atom_site_label
 _atom_site_symmetry_multiplicity
 _atom_site_fract_x
 _atom_site_fract_y
 _atom_site_fract_z
 _atom_site_occupancy
  V  V0  1  0.64190865  0.35809135  0.63374086  1
  V  V1  1  0.35809135  0.64190865  0.36625914  1
  V  V2  1  0.64190865  0.35809135  0.86625914  1
  V  V3  1  0.35809135  0.64190865  0.13374086  1
  V  V4  1  0.36824875  0.63175125  0.61688187  1
  V  V5  1  0.63175125  0.36824875  0.38311813  1
  V  V6  1  0.36824875  0.63175125  0.88311813  1
  V  V7  1  0.63175125  0.36824875  0.11688187  1
  V  V8  1  0.87689636  0.12310364  0.63185796  1
  V  V9  1  0.12310364  0.87689636  0.36814204  1
  V  V10  1  0.87689636  0.12310364  0.86814204  1
  V  V11  1  0.12310364  0.87689636  0.13185796  1
  V  V12  1  0.10515503  0.89484497  0.61670770  1
  V  V13  1  0.89484497  0.10515503  0.38329230  1
  V  V14  1  0.10515503  0.89484497  0.88329230  1
  V  V15  1  0.89484497  0.10515503  0.11670770  1
  Ir  Ir16  1  -0.00000000  0.50000000  0.50000000  1
  Ir  Ir17  1  0.50000000  -0.00000000  0.50000000  1
  Ir  Ir18  1  -0.00000000  0.50000000  0.00000000  1
  Ir  Ir19  1  0.50000000  -0.00000000  0.00000000  1
  Ir  Ir20  1  0.26909061  0.26909061  0.50000000  1
  Ir  Ir21  1  0.26909061  0.26909061  0.00000000  1
  Ir  Ir22  1  0.73090939  0.73090939  0.50000000  1
  Ir  Ir23  1  0.73090939  0.73090939  0.00000000  1
  Ir  Ir24  1  0.01884662  0.52692227  0.75000000  1
  Ir  Ir25  1  0.52692227  0.01884662  0.25000000  1
  Ir  Ir26  1  0.98115338  0.47307773  0.25000000  1
  Ir  Ir27  1  0.47307773  0.98115338  0.75000000  1
  Ir  Ir28  1  0.26577516  0.27019112  0.75000000  1
  Ir  Ir29  1  0.27019112  0.26577516  0.25000000  1
  Ir  Ir30  1  0.73422484  0.72980888  0.25000000  1
  Ir  Ir31  1  0.72980888  0.73422484  0.75000000  1
