# generated using pymatgen
data_BeH12C4(SBr)2
_symmetry_space_group_name_H-M   'P 1'
_cell_length_a   10.89294748
_cell_length_b   10.56502185
_cell_length_c   11.51477871
_cell_angle_alpha   90.00000000
_cell_angle_beta   90.00000000
_cell_angle_gamma   90.00000000
_symmetry_Int_Tables_number   1
_chemical_formula_structural   BeH12C4(SBr)2
_chemical_formula_sum   'Be4 H48 C16 S8 Br8'
_cell_volume   1325.16942001
_cell_formula_units_Z   4
loop_
 _symmetry_equiv_pos_site_id
 _symmetry_equiv_pos_as_xyz
  1  'x, y, z'
loop_
 _atom_site_type_symbol
 _atom_site_label
 _atom_site_symmetry_multiplicity
 _atom_site_fract_x
 _atom_site_fract_y
 _atom_site_fract_z
 _atom_site_occupancy
  Be  Be0  1  0.69468535  0.00000000  0.25000000  1
  Be  Be1  1  0.80531465  0.50000000  0.75000000  1
  Be  Be2  1  0.30531465  0.00000000  0.75000000  1
  Be  Be3  1  0.19468535  0.50000000  0.25000000  1
  H  H4  1  0.45714944  0.73679905  0.09235402  1
  H  H5  1  0.04285056  0.76320095  0.59235402  1
  H  H6  1  0.04285056  0.23679905  0.90764598  1
  H  H7  1  0.45714944  0.26320095  0.40764598  1
  H  H8  1  0.54285056  0.26320095  0.90764598  1
  H  H9  1  0.95714944  0.23679905  0.40764598  1
  H  H10  1  0.95714944  0.76320095  0.09235402  1
  H  H11  1  0.54285056  0.73679905  0.59235402  1
  H  H12  1  0.58743716  0.82142456  0.03520417  1
  H  H13  1  0.91256284  0.67857544  0.53520417  1
  H  H14  1  0.91256284  0.32142456  0.96479583  1
  H  H15  1  0.58743716  0.17857544  0.46479583  1
  H  H16  1  0.41256284  0.17857544  0.96479583  1
  H  H17  1  0.08743716  0.32142456  0.46479583  1
  H  H18  1  0.08743716  0.67857544  0.03520417  1
  H  H19  1  0.41256284  0.82142456  0.53520417  1
  H  H20  1  0.44990438  0.90510340  0.07394847  1
  H  H21  1  0.05009562  0.59489660  0.57394847  1
  H  H22  1  0.05009562  0.40510340  0.92605153  1
  H  H23  1  0.44990438  0.09489660  0.42605153  1
  H  H24  1  0.55009562  0.09489660  0.92605153  1
  H  H25  1  0.94990438  0.40510340  0.42605153  1
  H  H26  1  0.94990438  0.59489660  0.07394847  1
  H  H27  1  0.55009562  0.90510340  0.57394847  1
  H  H28  1  0.71695244  0.69016954  0.19257101  1
  H  H29  1  0.78304756  0.80983046  0.69257101  1
  H  H30  1  0.78304756  0.19016954  0.80742899  1
  H  H31  1  0.71695244  0.30983046  0.30742899  1
  H  H32  1  0.28304756  0.30983046  0.80742899  1
  H  H33  1  0.21695244  0.19016954  0.30742899  1
  H  H34  1  0.21695244  0.80983046  0.19257101  1
  H  H35  1  0.28304756  0.69016954  0.69257101  1
  H  H36  1  0.69761854  0.70910420  0.34604232  1
  H  H37  1  0.80238146  0.79089580  0.84604232  1
  H  H38  1  0.80238146  0.20910420  0.65395768  1
  H  H39  1  0.69761854  0.29089580  0.15395768  1
  H  H40  1  0.30238146  0.29089580  0.65395768  1
  H  H41  1  0.19761854  0.20910420  0.15395768  1
  H  H42  1  0.19761854  0.79089580  0.34604232  1
  H  H43  1  0.30238146  0.70910420  0.84604232  1
  H  H44  1  0.58451679  0.62358688  0.26427903  1
  H  H45  1  0.91548321  0.87641312  0.76427903  1
  H  H46  1  0.91548321  0.12358688  0.73572097  1
  H  H47  1  0.58451679  0.37641312  0.23572097  1
  H  H48  1  0.41548321  0.37641312  0.73572097  1
  H  H49  1  0.08451679  0.12358688  0.23572097  1
  H  H50  1  0.08451679  0.87641312  0.26427903  1
  H  H51  1  0.41548321  0.62358688  0.76427903  1
  C  C52  1  0.50989559  0.82491937  0.09592997  1
  C  C53  1  0.99010441  0.67508063  0.59592997  1
  C  C54  1  0.99010441  0.32491937  0.90407003  1
  C  C55  1  0.50989559  0.17508063  0.40407003  1
  C  C56  1  0.49010441  0.17508063  0.90407003  1
  C  C57  1  0.00989559  0.32491937  0.40407003  1
  C  C58  1  0.00989559  0.67508063  0.09592997  1
  C  C59  1  0.49010441  0.82491937  0.59592997  1
  C  C60  1  0.64989810  0.70228552  0.26253740  1
  C  C61  1  0.85010190  0.79771448  0.76253740  1
  C  C62  1  0.85010190  0.20228552  0.73746260  1
  C  C63  1  0.64989810  0.29771448  0.23746260  1
  C  C64  1  0.35010190  0.29771448  0.73746260  1
  C  C65  1  0.14989810  0.20228552  0.23746260  1
  C  C66  1  0.14989810  0.79771448  0.26253740  1
  C  C67  1  0.35010190  0.70228552  0.76253740  1
  S  S68  1  0.56297878  0.84593565  0.24327223  1
  S  S69  1  0.93702122  0.65406435  0.74327223  1
  S  S70  1  0.93702122  0.34593565  0.75672777  1
  S  S71  1  0.56297878  0.15406435  0.25672777  1
  S  S72  1  0.43702122  0.15406435  0.75672777  1
  S  S73  1  0.06297878  0.34593565  0.25672777  1
  S  S74  1  0.06297878  0.65406435  0.24327223  1
  S  S75  1  0.43702122  0.84593565  0.74327223  1
  Br  Br76  1  0.79246536  0.98122551  0.40877802  1
  Br  Br77  1  0.70753464  0.51877449  0.90877802  1
  Br  Br78  1  0.70753464  0.48122551  0.59122198  1
  Br  Br79  1  0.79246536  0.01877449  0.09122198  1
  Br  Br80  1  0.20753464  0.01877449  0.59122198  1
  Br  Br81  1  0.29246536  0.48122551  0.09122198  1
  Br  Br82  1  0.29246536  0.51877449  0.40877802  1
  Br  Br83  1  0.20753464  0.98122551  0.90877802  1
