# generated using pymatgen
data_KMgV5(H8O11)2
_symmetry_space_group_name_H-M   'P 1'
_cell_length_a   8.97803713
_cell_length_b   10.83612597
_cell_length_c   11.21788061
_cell_angle_alpha   66.22247120
_cell_angle_beta   73.28693065
_cell_angle_gamma   73.75504395
_symmetry_Int_Tables_number   1
_chemical_formula_structural   KMgV5(H8O11)2
_chemical_formula_sum   'K2 Mg2 V10 H32 O44'
_cell_volume   939.67780738
_cell_formula_units_Z   2
loop_
 _symmetry_equiv_pos_site_id
 _symmetry_equiv_pos_as_xyz
  1  'x, y, z'
loop_
 _atom_site_type_symbol
 _atom_site_label
 _atom_site_symmetry_multiplicity
 _atom_site_fract_x
 _atom_site_fract_y
 _atom_site_fract_z
 _atom_site_occupancy
  K  K0  1  0.66322433  0.10524883  0.20291593  1
  K  K1  1  0.33677567  0.89475117  0.79708407  1
  Mg  Mg2  1  0.21891548  0.26927217  0.21162234  1
  Mg  Mg3  1  0.78108452  0.73072783  0.78837766  1
  V  V4  1  0.32943954  0.48831569  0.48404425  1
  V  V5  1  0.67056046  0.51168431  0.51595575  1
  V  V6  1  0.60772336  0.22121440  0.54812169  1
  V  V7  1  0.39227664  0.77878560  0.45187831  1
  V  V8  1  0.65152907  0.45019384  0.26876938  1
  V  V9  1  0.34847093  0.54980616  0.73123062  1
  V  V10  1  0.29823788  0.25848661  0.76166716  1
  V  V11  1  0.70176212  0.74151339  0.23833284  1
  V  V12  1  0.37536384  0.71610703  0.20267068  1
  V  V13  1  0.62463616  0.28389297  0.79732932  1
  H  H14  1  0.13757733  0.49203627  0.30261777  1
  H  H15  1  0.86242267  0.50796373  0.69738223  1
  H  H16  1  0.98615303  0.47552348  0.26880783  1
  H  H17  1  0.01384697  0.52447652  0.73119217  1
  H  H18  1  0.32972097  0.01974128  0.18330685  1
  H  H19  1  0.67027903  0.98025872  0.81669315  1
  H  H20  1  0.38777701  0.13022304  0.04160087  1
  H  H21  1  0.61222299  0.86977696  0.95839913  1
  H  H22  1  0.07628357  0.83475310  0.37244366  1
  H  H23  1  0.92371643  0.16524690  0.62755634  1
  H  H24  1  0.92964957  0.76217558  0.42808307  1
  H  H25  1  0.07035043  0.23782442  0.57191693  1
  H  H26  1  0.04416069  0.11098034  0.03716167  1
  H  H27  1  0.95583931  0.88901966  0.96283833  1
  H  H28  1  0.01546077  0.97067033  0.14486509  1
  H  H29  1  0.98453923  0.02932967  0.85513491  1
  H  H30  1  0.12025800  0.38186030  0.96768375  1
  H  H31  1  0.87974200  0.61813970  0.03231625  1
  H  H32  1  0.97148238  0.34321322  0.08740663  1
  H  H33  1  0.02851762  0.65678678  0.91259337  1
  H  H34  1  0.39223219  0.24276935  0.39173986  1
  H  H35  1  0.60776781  0.75723065  0.60826014  1
  H  H36  1  0.32536137  0.10308209  0.43902123  1
  H  H37  1  0.67463863  0.89691791  0.56097877  1
  H  H38  1  0.42152940  0.44717183  0.12502326  1
  H  H39  1  0.57847060  0.55282817  0.87497674  1
  H  H40  1  0.42952758  0.40547006  0.00108734  1
  H  H41  1  0.57047242  0.59452994  0.99891266  1
  H  H42  1  0.98771898  0.11400535  0.31945249  1
  H  H43  1  0.01228102  0.88599465  0.68054751  1
  H  H44  1  0.03511165  0.14365938  0.43373952  1
  H  H45  1  0.96488835  0.85634062  0.56626048  1
  O  O46  1  0.69490030  0.10457156  0.47905766  1
  O  O47  1  0.30509970  0.89542844  0.52094234  1
  O  O48  1  0.70782457  0.17581273  0.68828646  1
  O  O49  1  0.29217543  0.82418727  0.31171354  1
  O  O50  1  0.47915887  0.35255752  0.40947200  1
  O  O51  1  0.52084113  0.64744248  0.59052800  1
  O  O52  1  0.24495779  0.58116862  0.34285903  1
  O  O53  1  0.75504221  0.41883138  0.65714097  1
  O  O54  1  0.20716991  0.37547574  0.59489528  1
  O  O55  1  0.79283009  0.62452426  0.40510472  1
  O  O56  1  0.48037000  0.40463085  0.61918583  1
  O  O57  1  0.51963000  0.59536915  0.38081417  1
  O  O58  1  0.74754481  0.33568074  0.19829364  1
  O  O59  1  0.25245519  0.66431926  0.80170636  1
  O  O60  1  0.78370811  0.57608200  0.19678877  1
  O  O61  1  0.21629189  0.42391800  0.80321123  1
  O  O62  1  0.50215682  0.55475922  0.16375132  1
  O  O63  1  0.49784318  0.44524078  0.83624868  1
  O  O64  1  0.42894959  0.15684756  0.65684797  1
  O  O65  1  0.57105041  0.84315244  0.34315203  1
  O  O66  1  0.55500047  0.79716018  0.13038884  1
  O  O67  1  0.44499953  0.20283982  0.86961116  1
  O  O68  1  0.16301539  0.16512424  0.85426154  1
  O  O69  1  0.83698461  0.83487576  0.14573846  1
  O  O70  1  0.26564365  0.62754368  0.56141137  1
  O  O71  1  0.73435635  0.37245632  0.43858863  1
  O  O72  1  0.27249256  0.79005473  0.08560274  1
  O  O73  1  0.72750744  0.20994527  0.91439726  1
  O  O74  1  0.09356080  0.42942450  0.28369017  1
  O  O75  1  0.90643920  0.57057550  0.71630983  1
  O  O76  1  0.36065773  0.11016848  0.13919292  1
  O  O77  1  0.63934227  0.88983152  0.86080708  1
  O  O78  1  0.96260556  0.84647041  0.41433231  1
  O  O79  1  0.03739444  0.15352959  0.58566769  1
  O  O80  1  0.98838445  0.06896281  0.12857791  1
  O  O81  1  0.01161555  0.93103719  0.87142209  1
  O  O82  1  0.08395399  0.34816776  0.06587674  1
  O  O83  1  0.91604601  0.65183224  0.93412326  1
  O  O84  1  0.35468700  0.18320500  0.36218388  1
  O  O85  1  0.64531300  0.81679500  0.63781612  1
  O  O86  1  0.39763872  0.37803249  0.09974348  1
  O  O87  1  0.60236128  0.62196751  0.90025652  1
  O  O88  1  0.06666260  0.14334485  0.34098653  1
  O  O89  1  0.93333740  0.85665515  0.65901347  1
