# generated using pymatgen
data_Tm2MnC4
_symmetry_space_group_name_H-M   'P 1'
_cell_length_a   4.98752301
_cell_length_b   6.50726377
_cell_length_c   6.50726377
_cell_angle_alpha   70.73944519
_cell_angle_beta   67.46626355
_cell_angle_gamma   67.46626355
_symmetry_Int_Tables_number   1
_chemical_formula_structural   Tm2MnC4
_chemical_formula_sum   'Tm4 Mn2 C8'
_cell_volume   175.98346304
_cell_formula_units_Z   2
loop_
 _symmetry_equiv_pos_site_id
 _symmetry_equiv_pos_as_xyz
  1  'x, y, z'
loop_
 _atom_site_type_symbol
 _atom_site_label
 _atom_site_symmetry_multiplicity
 _atom_site_fract_x
 _atom_site_fract_y
 _atom_site_fract_z
 _atom_site_occupancy
  Tm  Tm0  1  0.64568522  0.20075836  0.50787120  1
  Tm  Tm1  1  0.35431478  0.79924164  0.49212880  1
  Tm  Tm2  1  0.14568522  0.50787120  0.20075836  1
  Tm  Tm3  1  0.85431478  0.49212880  0.79924164  1
  Mn  Mn4  1  0.75000000  0.00000000  -0.00000000  1
  Mn  Mn5  1  0.25000000  0.00000000  -0.00000000  1
  C  C6  1  0.92055267  0.90670484  0.25218981  1
  C  C7  1  0.07944733  0.09329516  0.74781019  1
  C  C8  1  0.42055267  0.25218981  0.90670484  1
  C  C9  1  0.57944733  0.74781019  0.09329516  1
  C  C10  1  0.87023544  0.78570164  0.47382749  1
  C  C11  1  0.12976456  0.21429836  0.52617251  1
  C  C12  1  0.37023544  0.47382749  0.78570164  1
  C  C13  1  0.62976456  0.52617251  0.21429836  1
