# generated using pymatgen
data_Zn10Co(B4Rh9)2
_symmetry_space_group_name_H-M   'P 1'
_cell_length_a   2.87869528
_cell_length_b   17.91421980
_cell_length_c   17.91421980
_cell_angle_alpha   90.00000000
_cell_angle_beta   90.00000000
_cell_angle_gamma   90.00000000
_symmetry_Int_Tables_number   1
_chemical_formula_structural   Zn10Co(B4Rh9)2
_chemical_formula_sum   'Zn20 Co2 B16 Rh36'
_cell_volume   923.82879081
_cell_formula_units_Z   2
loop_
 _symmetry_equiv_pos_site_id
 _symmetry_equiv_pos_as_xyz
  1  'x, y, z'
loop_
 _atom_site_type_symbol
 _atom_site_label
 _atom_site_symmetry_multiplicity
 _atom_site_fract_x
 _atom_site_fract_y
 _atom_site_fract_z
 _atom_site_occupancy
  Zn  Zn0  1  -0.00000000  0.05005560  0.55005560  1
  Zn  Zn1  1  0.00000000  0.94994440  0.44994440  1
  Zn  Zn2  1  -0.00000000  0.44994440  0.05005560  1
  Zn  Zn3  1  0.00000000  0.55005560  0.94994440  1
  Zn  Zn4  1  0.00000000  0.18752922  0.03177882  1
  Zn  Zn5  1  -0.00000000  0.81247078  0.96822118  1
  Zn  Zn6  1  -0.00000000  0.96822118  0.18752922  1
  Zn  Zn7  1  -0.00000000  0.31247078  0.53177882  1
  Zn  Zn8  1  0.00000000  0.03177882  0.81247078  1
  Zn  Zn9  1  0.00000000  0.68752922  0.46822118  1
  Zn  Zn10  1  -0.00000000  0.53177882  0.68752922  1
  Zn  Zn11  1  0.00000000  0.46822118  0.31247078  1
  Zn  Zn12  1  0.00000000  0.70941789  0.20941789  1
  Zn  Zn13  1  -0.00000000  0.29058211  0.79058211  1
  Zn  Zn14  1  0.00000000  0.79058211  0.70941789  1
  Zn  Zn15  1  -0.00000000  0.20941789  0.29058211  1
  Zn  Zn16  1  -0.00000000  0.16891918  0.66891918  1
  Zn  Zn17  1  0.00000000  0.83108082  0.33108082  1
  Zn  Zn18  1  -0.00000000  0.33108082  0.16891918  1
  Zn  Zn19  1  0.00000000  0.66891918  0.83108082  1
  Co  Co20  1  0.00000000  -0.00000000  0.00000000  1
  Co  Co21  1  0.00000000  0.50000000  0.50000000  1
  B  B22  1  0.00000000  0.03883027  0.33409855  1
  B  B23  1  -0.00000000  0.96116973  0.66590145  1
  B  B24  1  0.00000000  0.66590145  0.03883027  1
  B  B25  1  0.00000000  0.46116973  0.83409855  1
  B  B26  1  -0.00000000  0.33409855  0.96116973  1
  B  B27  1  -0.00000000  0.53883027  0.16590145  1
  B  B28  1  -0.00000000  0.83409855  0.53883027  1
  B  B29  1  0.00000000  0.16590145  0.46116973  1
  B  B30  1  0.00000000  0.12413550  0.16661887  1
  B  B31  1  -0.00000000  0.87586450  0.83338113  1
  B  B32  1  -0.00000000  0.83338113  0.12413550  1
  B  B33  1  -0.00000000  0.37586450  0.66661887  1
  B  B34  1  0.00000000  0.16661887  0.87586450  1
  B  B35  1  0.00000000  0.62413550  0.33338113  1
  B  B36  1  -0.00000000  0.66661887  0.62413550  1
  B  B37  1  0.00000000  0.33338113  0.37586450  1
  Rh  Rh38  1  0.50000000  0.08760137  0.25519027  1
  Rh  Rh39  1  0.50000000  0.91239863  0.74480973  1
  Rh  Rh40  1  0.50000000  0.74480973  0.08760137  1
  Rh  Rh41  1  0.50000000  0.41239863  0.75519027  1
  Rh  Rh42  1  0.50000000  0.25519027  0.91239863  1
  Rh  Rh43  1  0.50000000  0.58760137  0.24480973  1
  Rh  Rh44  1  0.50000000  0.75519027  0.58760137  1
  Rh  Rh45  1  0.50000000  0.24480973  0.41239863  1
  Rh  Rh46  1  0.50000000  0.32608971  0.04776760  1
  Rh  Rh47  1  0.50000000  0.67391029  0.95223240  1
  Rh  Rh48  1  0.50000000  0.95223240  0.32608971  1
  Rh  Rh49  1  0.50000000  0.17391029  0.54776760  1
  Rh  Rh50  1  0.50000000  0.04776760  0.67391029  1
  Rh  Rh51  1  0.50000000  0.82608971  0.45223240  1
  Rh  Rh52  1  0.50000000  0.54776760  0.82608971  1
  Rh  Rh53  1  0.50000000  0.45223240  0.17391029  1
  Rh  Rh54  1  0.50000000  0.21091051  0.15972332  1
  Rh  Rh55  1  0.50000000  0.78908949  0.84027668  1
  Rh  Rh56  1  0.50000000  0.84027668  0.21091051  1
  Rh  Rh57  1  0.50000000  0.28908949  0.65972332  1
  Rh  Rh58  1  0.50000000  0.15972332  0.78908949  1
  Rh  Rh59  1  0.50000000  0.71091051  0.34027668  1
  Rh  Rh60  1  0.50000000  0.65972332  0.71091051  1
  Rh  Rh61  1  0.50000000  0.34027668  0.28908949  1
  Rh  Rh62  1  0.50000000  0.06675485  0.09878316  1
  Rh  Rh63  1  0.50000000  0.93324515  0.90121684  1
  Rh  Rh64  1  0.50000000  0.90121684  0.06675485  1
  Rh  Rh65  1  0.50000000  0.43324515  0.59878316  1
  Rh  Rh66  1  0.50000000  0.09878316  0.93324515  1
  Rh  Rh67  1  0.50000000  0.56675485  0.40121684  1
  Rh  Rh68  1  0.50000000  0.59878316  0.56675485  1
  Rh  Rh69  1  0.50000000  0.40121684  0.43324515  1
  Rh  Rh70  1  0.50000000  0.58247771  0.08247771  1
  Rh  Rh71  1  0.50000000  0.41752229  0.91752229  1
  Rh  Rh72  1  0.50000000  0.91752229  0.58247771  1
  Rh  Rh73  1  0.50000000  0.08247771  0.41752229  1
