# generated using pymatgen
data_Sm2V2O7
_symmetry_space_group_name_H-M   'P 1'
_cell_length_a   7.01158177
_cell_length_b   6.93485270
_cell_length_c   12.61928805
_cell_angle_alpha   100.55612304
_cell_angle_beta   99.70061242
_cell_angle_gamma   92.11619160
_symmetry_Int_Tables_number   1
_chemical_formula_structural   Sm2V2O7
_chemical_formula_sum   'Sm8 V8 O28'
_cell_volume   593.13719676
_cell_formula_units_Z   4
loop_
 _symmetry_equiv_pos_site_id
 _symmetry_equiv_pos_as_xyz
  1  'x, y, z'
loop_
 _atom_site_type_symbol
 _atom_site_label
 _atom_site_symmetry_multiplicity
 _atom_site_fract_x
 _atom_site_fract_y
 _atom_site_fract_z
 _atom_site_occupancy
  Sm  Sm0  1  0.02561162  0.82646344  0.86057163  1
  Sm  Sm1  1  0.28298770  0.21933568  0.63897092  1
  Sm  Sm2  1  0.28099472  0.73949328  0.12701373  1
  Sm  Sm3  1  0.38275654  0.33565886  0.36862744  1
  Sm  Sm4  1  0.61724346  0.66434114  0.63137256  1
  Sm  Sm5  1  0.71900528  0.26050672  0.87298627  1
  Sm  Sm6  1  0.71701230  0.78066432  0.36102908  1
  Sm  Sm7  1  0.97438838  0.17353656  0.13942837  1
  V  V8  1  0.17858197  0.31340298  0.89557466  1
  V  V9  1  0.16579633  0.68171052  0.60542555  1
  V  V10  1  0.19310588  0.84779276  0.38078264  1
  V  V11  1  0.49003089  0.26444248  0.12195798  1
  V  V12  1  0.50996911  0.73555752  0.87804202  1
  V  V13  1  0.80689412  0.15220724  0.61921736  1
  V  V14  1  0.83420367  0.31828948  0.39457445  1
  V  V15  1  0.82141803  0.68659702  0.10442534  1
  O  O16  1  0.01108828  0.49556275  0.87770790  1
  O  O17  1  0.03652790  0.32299439  0.32529783  1
  O  O18  1  0.98010032  0.84819342  0.04674496  1
  O  O19  1  0.03722758  0.74387931  0.46410350  1
  O  O20  1  0.00476890  0.86368268  0.26168013  1
  O  O21  1  0.37663435  0.22006988  0.83155888  1
  O  O22  1  0.34156377  0.88527225  0.63323424  1
  O  O23  1  0.32127263  0.48727329  0.54166336  1
  O  O24  1  0.33544303  0.82931912  0.96080269  1
  O  O25  1  0.29791706  0.08356531  0.45241460  1
  O  O26  1  0.31309619  0.13091580  0.18118841  1
  O  O27  1  0.33803202  0.42084052  0.04271068  1
  O  O28  1  0.36422476  0.68969128  0.31763406  1
  O  O29  1  0.35786513  0.59755446  0.75287735  1
  O  O30  1  0.64213487  0.40244554  0.24712265  1
  O  O31  1  0.63577524  0.31030872  0.68236594  1
  O  O32  1  0.66196798  0.57915948  0.95728932  1
  O  O33  1  0.68690381  0.86908420  0.81881159  1
  O  O34  1  0.70208294  0.91643469  0.54758540  1
  O  O35  1  0.66455697  0.17068088  0.03919731  1
  O  O36  1  0.67872737  0.51272671  0.45833664  1
  O  O37  1  0.65843623  0.11472775  0.36676576  1
  O  O38  1  0.62336465  0.77993012  0.16844112  1
  O  O39  1  0.99523110  0.13631732  0.73831987  1
  O  O40  1  0.96277242  0.25612069  0.53589650  1
  O  O41  1  0.01989968  0.15180658  0.95325504  1
  O  O42  1  0.96347210  0.67700561  0.67470217  1
  O  O43  1  0.98891172  0.50443725  0.12229210  1
