# generated using pymatgen
data_La4RuI5
_symmetry_space_group_name_H-M   'P 1'
_cell_length_a   4.41595398
_cell_length_b   9.47320261
_cell_length_c   10.19146975
_cell_angle_alpha   102.95593836
_cell_angle_beta   102.51231880
_cell_angle_gamma   90.00000000
_symmetry_Int_Tables_number   1
_chemical_formula_structural   La4RuI5
_chemical_formula_sum   'La4 Ru1 I5'
_cell_volume   405.09150935
_cell_formula_units_Z   1
loop_
 _symmetry_equiv_pos_site_id
 _symmetry_equiv_pos_as_xyz
  1  'x, y, z'
loop_
 _atom_site_type_symbol
 _atom_site_label
 _atom_site_symmetry_multiplicity
 _atom_site_fract_x
 _atom_site_fract_y
 _atom_site_fract_z
 _atom_site_occupancy
  La  La0  1  0.13610224  0.07048091  0.27220448  1
  La  La1  1  0.86389776  0.92951909  0.72779552  1
  La  La2  1  0.49926382  0.21489949  0.99852765  1
  La  La3  1  0.50073618  0.78510051  0.00147235  1
  Ru  Ru4  1  -0.00000000  0.00000000  -0.00000000  1
  I  I5  1  0.32746281  0.16715232  0.65492562  1
  I  I6  1  0.67253719  0.83284768  0.34507438  1
  I  I7  1  0.33305334  0.66349292  0.66610668  1
  I  I8  1  0.66694666  0.33650708  0.33389332  1
  I  I9  1  -0.00000000  0.50000000  -0.00000000  1
