# generated using pymatgen
data_Ta20Te5S3
_symmetry_space_group_name_H-M   'P 1'
_cell_length_a   10.55009750
_cell_length_b   10.64165828
_cell_length_c   10.64165828
_cell_angle_alpha   85.12367159
_cell_angle_beta   76.52216000
_cell_angle_gamma   76.52216000
_symmetry_Int_Tables_number   1
_chemical_formula_structural   Ta20Te5S3
_chemical_formula_sum   'Ta40 Te10 S6'
_cell_volume   1129.24968389
_cell_formula_units_Z   2
loop_
 _symmetry_equiv_pos_site_id
 _symmetry_equiv_pos_as_xyz
  1  'x, y, z'
loop_
 _atom_site_type_symbol
 _atom_site_label
 _atom_site_symmetry_multiplicity
 _atom_site_fract_x
 _atom_site_fract_y
 _atom_site_fract_z
 _atom_site_occupancy
  Ta  Ta0  1  0.27292941  0.97533779  0.18662912  1
  Ta  Ta1  1  0.72707059  0.02466221  0.81337088  1
  Ta  Ta2  1  0.22707059  0.81337088  0.02466221  1
  Ta  Ta3  1  0.77292941  0.18662912  0.97533779  1
  Ta  Ta4  1  0.32984448  0.13510269  0.34931002  1
  Ta  Ta5  1  0.67015552  0.86489731  0.65068998  1
  Ta  Ta6  1  0.17015552  0.65068998  0.86489731  1
  Ta  Ta7  1  0.82984448  0.34931002  0.13510269  1
  Ta  Ta8  1  0.47262867  0.09711182  0.74819254  1
  Ta  Ta9  1  0.52737133  0.90288818  0.25180746  1
  Ta  Ta10  1  0.02737133  0.25180746  0.90288818  1
  Ta  Ta11  1  0.97262867  0.74819254  0.09711182  1
  Ta  Ta12  1  0.09403795  0.81023069  0.30125630  1
  Ta  Ta13  1  0.90596205  0.18976931  0.69874370  1
  Ta  Ta14  1  0.40596205  0.69874370  0.18976931  1
  Ta  Ta15  1  0.59403795  0.30125630  0.81023069  1
  Ta  Ta16  1  0.04631258  0.07071636  0.39328784  1
  Ta  Ta17  1  0.95368742  0.92928364  0.60671216  1
  Ta  Ta18  1  0.45368742  0.60671216  0.92928364  1
  Ta  Ta19  1  0.54631258  0.39328784  0.07071636  1
  Ta  Ta20  1  0.35624565  0.85528926  0.75339537  1
  Ta  Ta21  1  0.64375435  0.14471074  0.24660463  1
  Ta  Ta22  1  0.14375435  0.24660463  0.14471074  1
  Ta  Ta23  1  0.85624565  0.75339537  0.85528926  1
  Ta  Ta24  1  0.00897034  0.96100580  0.87240584  1
  Ta  Ta25  1  0.99102966  0.03899420  0.12759416  1
  Ta  Ta26  1  0.49102966  0.12759416  0.03899420  1
  Ta  Ta27  1  0.50897034  0.87240584  0.96100580  1
  Ta  Ta28  1  0.27917313  0.87142140  0.44527438  1
  Ta  Ta29  1  0.72082687  0.12857860  0.55472562  1
  Ta  Ta30  1  0.22082687  0.55472562  0.12857860  1
  Ta  Ta31  1  0.77917313  0.44527438  0.87142140  1
  Ta  Ta32  1  0.25000000  0.06388352  0.93611648  1
  Ta  Ta33  1  0.75000000  0.93611648  0.06388352  1
  Ta  Ta34  1  0.19804005  0.06852475  0.64582356  1
  Ta  Ta35  1  0.80195995  0.93147525  0.35417644  1
  Ta  Ta36  1  0.30195995  0.35417644  0.93147525  1
  Ta  Ta37  1  0.69804005  0.64582356  0.06852475  1
  Ta  Ta38  1  0.50000000  -0.00000000  0.50000000  1
  Ta  Ta39  1  0.00000000  0.50000000  -0.00000000  1
  Te  Te40  1  0.47548745  0.26721034  0.48656110  1
  Te  Te41  1  0.52451255  0.73278966  0.51343890  1
  Te  Te42  1  0.02451255  0.51343890  0.73278966  1
  Te  Te43  1  0.97548745  0.48656110  0.26721034  1
  Te  Te44  1  0.25000000  0.59552022  0.40447978  1
  Te  Te45  1  0.75000000  0.40447978  0.59552022  1
  Te  Te46  1  0.09841793  0.28743543  0.49473272  1
  Te  Te47  1  0.90158207  0.71256457  0.50526728  1
  Te  Te48  1  0.40158207  0.50526728  0.71256457  1
  Te  Te49  1  0.59841793  0.49473272  0.28743543  1
  S  S50  1  0.15980123  0.81992399  0.68044364  1
  S  S51  1  0.84019877  0.18007601  0.31955636  1
  S  S52  1  0.34019877  0.31955636  0.18007601  1
  S  S53  1  0.65980123  0.68044364  0.81992399  1
  S  S54  1  0.25000000  0.24138529  0.75861471  1
  S  S55  1  0.75000000  0.75861471  0.24138529  1
