# generated using pymatgen
data_SmGe3Rh5
_symmetry_space_group_name_H-M   'P 1'
_cell_length_a   3.96874615
_cell_length_b   16.03690736
_cell_length_c   16.03690736
_cell_angle_alpha   119.99999916
_cell_angle_beta   90.00000000
_cell_angle_gamma   90.00000000
_symmetry_Int_Tables_number   1
_chemical_formula_structural   SmGe3Rh5
_chemical_formula_sum   'Sm6 Ge18 Rh30'
_cell_volume   883.94490595
_cell_formula_units_Z   6
loop_
 _symmetry_equiv_pos_site_id
 _symmetry_equiv_pos_as_xyz
  1  'x, y, z'
loop_
 _atom_site_type_symbol
 _atom_site_label
 _atom_site_symmetry_multiplicity
 _atom_site_fract_x
 _atom_site_fract_y
 _atom_site_fract_z
 _atom_site_occupancy
  Sm  Sm0  1  0.75000000  0.70579337  0.10067152  1
  Sm  Sm1  1  0.25000000  0.29420663  0.89932848  1
  Sm  Sm2  1  0.75000000  0.39487815  0.29420663  1
  Sm  Sm3  1  0.25000000  0.60512185  0.70579337  1
  Sm  Sm4  1  0.75000000  0.89932848  0.60512185  1
  Sm  Sm5  1  0.25000000  0.10067152  0.39487815  1
  Ge  Ge6  1  0.75000000  0.44410322  0.68206929  1
  Ge  Ge7  1  0.25000000  0.55589678  0.31793071  1
  Ge  Ge8  1  0.75000000  0.23796607  0.55589678  1
  Ge  Ge9  1  0.25000000  0.76203393  0.44410322  1
  Ge  Ge10  1  0.75000000  0.31793071  0.76203393  1
  Ge  Ge11  1  0.25000000  0.68206929  0.23796607  1
  Ge  Ge12  1  0.75000000  0.75049548  0.86868307  1
  Ge  Ge13  1  0.25000000  0.24950452  0.13131693  1
  Ge  Ge14  1  0.75000000  0.11818759  0.24950452  1
  Ge  Ge15  1  0.25000000  0.88181241  0.75049548  1
  Ge  Ge16  1  0.75000000  0.13131693  0.88181241  1
  Ge  Ge17  1  0.25000000  0.86868307  0.11818759  1
  Ge  Ge18  1  0.75000000  0.94062043  0.37053365  1
  Ge  Ge19  1  0.25000000  0.05937957  0.62946635  1
  Ge  Ge20  1  0.75000000  0.42991322  0.05937957  1
  Ge  Ge21  1  0.25000000  0.57008678  0.94062043  1
  Ge  Ge22  1  0.75000000  0.62946635  0.57008678  1
  Ge  Ge23  1  0.25000000  0.37053365  0.42991322  1
  Rh  Rh24  1  0.75000000  0.58729117  0.84935374  1
  Rh  Rh25  1  0.25000000  0.41270883  0.15064626  1
  Rh  Rh26  1  0.75000000  0.26206256  0.41270883  1
  Rh  Rh27  1  0.25000000  0.73793744  0.58729117  1
  Rh  Rh28  1  0.75000000  0.15064626  0.73793744  1
  Rh  Rh29  1  0.25000000  0.84935374  0.26206256  1
  Rh  Rh30  1  0.75000000  0.46164360  0.53694573  1
  Rh  Rh31  1  0.25000000  0.53835640  0.46305427  1
  Rh  Rh32  1  0.75000000  0.07530214  0.53835640  1
  Rh  Rh33  1  0.25000000  0.92469786  0.46164360  1
  Rh  Rh34  1  0.75000000  0.46305427  0.92469786  1
  Rh  Rh35  1  0.25000000  0.53694573  0.07530214  1
  Rh  Rh36  1  0.75000000  0.89477188  0.02700057  1
  Rh  Rh37  1  0.25000000  0.10522812  0.97299943  1
  Rh  Rh38  1  0.75000000  0.13222870  0.10522812  1
  Rh  Rh39  1  0.25000000  0.86777130  0.89477188  1
  Rh  Rh40  1  0.75000000  0.97299943  0.86777130  1
  Rh  Rh41  1  0.25000000  0.02700057  0.13222870  1
  Rh  Rh42  1  0.75000000  0.77667043  0.34674856  1
  Rh  Rh43  1  0.25000000  0.22332957  0.65325144  1
  Rh  Rh44  1  0.75000000  0.57007813  0.22332957  1
  Rh  Rh45  1  0.25000000  0.42992187  0.77667043  1
  Rh  Rh46  1  0.75000000  0.65325144  0.42992187  1
  Rh  Rh47  1  0.25000000  0.34674856  0.57007813  1
  Rh  Rh48  1  0.75000000  0.95457966  0.22251154  1
  Rh  Rh49  1  0.25000000  0.04542034  0.77748846  1
  Rh  Rh50  1  0.75000000  0.26793188  0.04542034  1
  Rh  Rh51  1  0.25000000  0.73206812  0.95457966  1
  Rh  Rh52  1  0.75000000  0.77748846  0.73206812  1
  Rh  Rh53  1  0.25000000  0.22251154  0.26793188  1
