# generated using pymatgen
data_TaMnO4
_symmetry_space_group_name_H-M   'P 1'
_cell_length_a   4.71886483
_cell_length_b   5.03726342
_cell_length_c   5.76168440
_cell_angle_alpha   90.00000000
_cell_angle_beta   90.00000000
_cell_angle_gamma   92.17467906
_symmetry_Int_Tables_number   1
_chemical_formula_structural   TaMnO4
_chemical_formula_sum   'Ta2 Mn2 O8'
_cell_volume   136.85755183
_cell_formula_units_Z   2
loop_
 _symmetry_equiv_pos_site_id
 _symmetry_equiv_pos_as_xyz
  1  'x, y, z'
loop_
 _atom_site_type_symbol
 _atom_site_label
 _atom_site_symmetry_multiplicity
 _atom_site_fract_x
 _atom_site_fract_y
 _atom_site_fract_z
 _atom_site_occupancy
  Ta  Ta0  1  0.50000000  0.75000000  0.33168518  1
  Ta  Ta1  1  0.50000000  0.25000000  0.66831482  1
  Mn  Mn2  1  0.00000000  0.75000000  0.84010983  1
  Mn  Mn3  1  0.00000000  0.25000000  0.15989017  1
  O  O4  1  0.77109619  0.42687675  0.87583910  1
  O  O5  1  0.22890381  0.57312325  0.12416090  1
  O  O6  1  0.22890381  0.07312325  0.87583910  1
  O  O7  1  0.77109619  0.92687675  0.12416090  1
  O  O8  1  0.72063096  0.92865901  0.61243064  1
  O  O9  1  0.27936904  0.07134099  0.38756936  1
  O  O10  1  0.27936904  0.57134099  0.61243064  1
  O  O11  1  0.72063096  0.42865901  0.38756936  1
