# generated using pymatgen
data_RbSc3F10
_symmetry_space_group_name_H-M   'P 1'
_cell_length_a   6.83196672
_cell_length_b   7.66649387
_cell_length_c   8.16632634
_cell_angle_alpha   90.00000000
_cell_angle_beta   90.00000000
_cell_angle_gamma   90.00000000
_symmetry_Int_Tables_number   1
_chemical_formula_structural   RbSc3F10
_chemical_formula_sum   'Rb2 Sc6 F20'
_cell_volume   427.72956096
_cell_formula_units_Z   2
loop_
 _symmetry_equiv_pos_site_id
 _symmetry_equiv_pos_as_xyz
  1  'x, y, z'
loop_
 _atom_site_type_symbol
 _atom_site_label
 _atom_site_symmetry_multiplicity
 _atom_site_fract_x
 _atom_site_fract_y
 _atom_site_fract_z
 _atom_site_occupancy
  Rb  Rb0  1  0.99115282  0.50000000  -0.00000000  1
  Rb  Rb1  1  0.00884718  0.50000000  0.50000000  1
  Sc  Sc2  1  0.00000000  0.00463765  0.25000000  1
  Sc  Sc3  1  0.00000000  0.99536235  0.75000000  1
  Sc  Sc4  1  0.50000000  0.73534200  0.25000000  1
  Sc  Sc5  1  0.50000000  0.26465800  0.75000000  1
  Sc  Sc6  1  0.50000000  0.27522208  0.25000000  1
  Sc  Sc7  1  0.50000000  0.72477792  0.75000000  1
  F  F8  1  0.32470365  0.50534398  0.24208298  1
  F  F9  1  0.67529635  0.49465602  0.74208298  1
  F  F10  1  0.67529635  0.50534398  0.25791702  1
  F  F11  1  0.32470365  0.49465602  0.75791702  1
  F  F12  1  0.50000000  0.00497767  0.25000000  1
  F  F13  1  0.50000000  0.99502233  0.75000000  1
  F  F14  1  0.19940122  0.19023162  0.73443350  1
  F  F15  1  0.80059878  0.80976838  0.23443350  1
  F  F16  1  0.80059878  0.19023162  0.76556650  1
  F  F17  1  0.19940122  0.80976838  0.26556650  1
  F  F18  1  0.49947212  0.27634616  0.00002012  1
  F  F19  1  0.50052788  0.72365384  0.50002012  1
  F  F20  1  0.50052788  0.27634616  0.49997988  1
  F  F21  1  0.49947212  0.72365384  -0.00002012  1
  F  F22  1  0.01924937  0.00000000  -0.00000000  1
  F  F23  1  0.98075063  0.00000000  0.50000000  1
  F  F24  1  0.19810059  0.20155118  0.25440461  1
  F  F25  1  0.80189941  0.79844882  0.75440461  1
  F  F26  1  0.80189941  0.20155118  0.24559539  1
  F  F27  1  0.19810059  0.79844882  0.74559539  1
