# generated using pymatgen
data_Re(RhO3)2
_symmetry_space_group_name_H-M   'P 1'
_cell_length_a   4.61641221
_cell_length_b   4.61641221
_cell_length_c   9.35829338
_cell_angle_alpha   90.00000000
_cell_angle_beta   90.00000000
_cell_angle_gamma   90.00000000
_symmetry_Int_Tables_number   1
_chemical_formula_structural   Re(RhO3)2
_chemical_formula_sum   'Re2 Rh4 O12'
_cell_volume   199.43703922
_cell_formula_units_Z   2
loop_
 _symmetry_equiv_pos_site_id
 _symmetry_equiv_pos_as_xyz
  1  'x, y, z'
loop_
 _atom_site_type_symbol
 _atom_site_label
 _atom_site_symmetry_multiplicity
 _atom_site_fract_x
 _atom_site_fract_y
 _atom_site_fract_z
 _atom_site_occupancy
  Re  Re0  1  0.00000000  -0.00000000  -0.00000000  1
  Re  Re1  1  0.50000000  0.50000000  0.50000000  1
  Rh  Rh2  1  0.00000000  -0.00000000  0.33310701  1
  Rh  Rh3  1  0.00000000  0.00000000  0.66689299  1
  Rh  Rh4  1  0.50000000  0.50000000  0.83310701  1
  Rh  Rh5  1  0.50000000  0.50000000  0.16689299  1
  O  O6  1  0.29806733  0.29806733  0.00000000  1
  O  O7  1  0.70193267  0.70193267  0.00000000  1
  O  O8  1  0.20193267  0.79806733  0.50000000  1
  O  O9  1  0.79806733  0.20193267  0.50000000  1
  O  O10  1  0.30926453  0.30926453  0.34107921  1
  O  O11  1  0.69073547  0.69073547  0.65892079  1
  O  O12  1  0.69073547  0.69073547  0.34107921  1
  O  O13  1  0.19073547  0.80926453  0.84107921  1
  O  O14  1  0.19073547  0.80926453  0.15892079  1
  O  O15  1  0.30926453  0.30926453  0.65892079  1
  O  O16  1  0.80926453  0.19073547  0.15892079  1
  O  O17  1  0.80926453  0.19073547  0.84107921  1
