# generated using pymatgen
data_Li2NiSn(PO4)2
_symmetry_space_group_name_H-M   'P 1'
_cell_length_a   10.85358063
_cell_length_b   6.37191175
_cell_length_c   4.83134602
_cell_angle_alpha   90.00000000
_cell_angle_beta   89.11933185
_cell_angle_gamma   90.00000000
_symmetry_Int_Tables_number   1
_chemical_formula_structural   Li2NiSn(PO4)2
_chemical_formula_sum   'Li4 Ni2 Sn2 P4 O16'
_cell_volume   334.08703944
_cell_formula_units_Z   2
loop_
 _symmetry_equiv_pos_site_id
 _symmetry_equiv_pos_as_xyz
  1  'x, y, z'
loop_
 _atom_site_type_symbol
 _atom_site_label
 _atom_site_symmetry_multiplicity
 _atom_site_fract_x
 _atom_site_fract_y
 _atom_site_fract_z
 _atom_site_occupancy
  Li  Li0  1  0.00000000  0.00000000  0.00000000  1
  Li  Li1  1  0.00000000  0.50000000  0.00000000  1
  Li  Li2  1  0.50000000  0.00000000  0.50000000  1
  Li  Li3  1  0.50000000  0.50000000  0.50000000  1
  Ni  Ni4  1  0.21445898  0.75000000  0.46905874  1
  Ni  Ni5  1  0.78554102  0.25000000  0.53094126  1
  Sn  Sn6  1  0.27492630  0.25000000  0.98403666  1
  Sn  Sn7  1  0.72507370  0.75000000  0.01596334  1
  P  P8  1  0.07310568  0.25000000  0.42779701  1
  P  P9  1  0.39286519  0.75000000  0.86721243  1
  P  P10  1  0.60713481  0.25000000  0.13278757  1
  P  P11  1  0.92689432  0.75000000  0.57220299  1
  O  O12  1  0.05685128  0.75000000  0.70694567  1
  O  O13  1  0.06957609  0.25000000  0.74642260  1
  O  O14  1  0.14351353  0.05249198  0.30563893  1
  O  O15  1  0.14351353  0.44750802  0.30563893  1
  O  O16  1  0.32908253  0.55860873  0.72102040  1
  O  O17  1  0.32908253  0.94139127  0.72102040  1
  O  O18  1  0.37953425  0.75000000  0.18389766  1
  O  O19  1  0.47148396  0.25000000  0.24187101  1
  O  O20  1  0.52851604  0.75000000  0.75812899  1
  O  O21  1  0.62046575  0.25000000  0.81610234  1
  O  O22  1  0.67091747  0.05860873  0.27897960  1
  O  O23  1  0.67091747  0.44139127  0.27897960  1
  O  O24  1  0.85648647  0.55249198  0.69436107  1
  O  O25  1  0.85648647  0.94750802  0.69436107  1
  O  O26  1  0.93042391  0.75000000  0.25357740  1
  O  O27  1  0.94314872  0.25000000  0.29305433  1
