# generated using pymatgen
data_Na4Ca4Be4AlSi7(O6F)4
_symmetry_space_group_name_H-M   'P 1'
_cell_length_a   9.03632318
_cell_length_b   9.03632318
_cell_length_c   9.03632318
_cell_angle_alpha   107.92510114
_cell_angle_beta   107.92510114
_cell_angle_gamma   112.60978859
_symmetry_Int_Tables_number   1
_chemical_formula_structural   Na4Ca4Be4AlSi7(O6F)4
_chemical_formula_sum   'Na4 Ca4 Be4 Al1 Si7 O24 F4'
_cell_volume   566.72072025
_cell_formula_units_Z   1
loop_
 _symmetry_equiv_pos_site_id
 _symmetry_equiv_pos_as_xyz
  1  'x, y, z'
loop_
 _atom_site_type_symbol
 _atom_site_label
 _atom_site_symmetry_multiplicity
 _atom_site_fract_x
 _atom_site_fract_y
 _atom_site_fract_z
 _atom_site_occupancy
  Na  Na0  1  0.50988533  0.66227164  0.67406941  1
  Na  Na1  1  0.98820223  0.83581592  0.32593059  1
  Na  Na2  1  0.16418408  0.49011467  0.15238630  1
  Na  Na3  1  0.33772836  0.01179777  0.84761370  1
  Ca  Ca4  1  0.49979431  0.33522501  0.34625998  1
  Ca  Ca5  1  0.98896503  0.15353434  0.65374002  1
  Ca  Ca6  1  0.84646566  0.50020569  0.83543070  1
  Ca  Ca7  1  0.66477499  0.01103497  0.16456930  1
  Be  Be8  1  0.86460270  0.72255184  0.64402513  1
  Be  Be9  1  0.07852671  0.22057757  0.35597487  1
  Be  Be10  1  0.77942243  0.13539730  0.85794914  1
  Be  Be11  1  0.27744816  0.92147329  0.14205086  1
  Al  Al12  1  0.50000000  0.50000000  -0.00000000  1
  Si  Si13  1  0.99422729  0.49422729  0.50000000  1
  Si  Si14  1  0.50577271  0.00577271  0.50000000  1
  Si  Si15  1  0.58679967  0.72793365  0.36656718  1
  Si  Si16  1  0.36136647  0.22023249  0.63343282  1
  Si  Si17  1  0.77976751  0.41320033  0.14113397  1
  Si  Si18  1  0.27206635  0.63863353  0.85886603  1
  Si  Si19  1  0.00000000  -0.00000000  -0.00000000  1
  O  O20  1  0.53146986  0.38022787  0.64156286  1
  O  O21  1  0.73866502  0.88990701  0.35843714  1
  O  O22  1  0.11009299  0.46853014  0.84875801  1
  O  O23  1  0.61977213  0.26133498  0.15124199  1
  O  O24  1  0.44966010  0.53159097  0.17767168  1
  O  O25  1  0.35391930  0.27198842  0.82232832  1
  O  O26  1  0.72801158  0.55033990  0.08193088  1
  O  O27  1  0.46840903  0.64608070  0.91806912  1
  O  O28  1  0.86562607  0.52964005  0.58297729  1
  O  O29  1  0.94666276  0.28264878  0.41702271  1
  O  O30  1  0.71735122  0.13437393  0.66401399  1
  O  O31  1  0.47035995  0.05333724  0.33598601  1
  O  O32  1  0.87897326  0.78428485  0.84290001  1
  O  O33  1  0.94138484  0.03607325  0.15709999  1
  O  O34  1  0.96392675  0.12102674  0.90531159  1
  O  O35  1  0.21571515  0.05861516  0.09468841  1
  O  O36  1  0.66579059  0.66708869  0.50927454  1
  O  O37  1  0.15781416  0.15651605  0.49072546  1
  O  O38  1  0.84348395  0.33420941  0.00129810  1
  O  O39  1  0.33291131  0.84218584  0.99870190  1
  O  O40  1  0.44733037  0.78785897  0.41744201  1
  O  O41  1  0.37041695  0.02988836  0.58255799  1
  O  O42  1  0.97011164  0.55266963  0.34052860  1
  O  O43  1  0.21214103  0.62958305  0.65947140  1
  F  F44  1  0.23817236  0.37694131  0.35518966  1
  F  F45  1  0.02175165  0.88298270  0.64481034  1
  F  F46  1  0.11701730  0.76182764  0.13876895  1
  F  F47  1  0.62305869  0.97824835  0.86123105  1
