# generated using pymatgen
data_Pr4Bi2S9
_symmetry_space_group_name_H-M   'P 1'
_cell_length_a   4.00645143
_cell_length_b   28.56123109
_cell_length_c   12.91342763
_cell_angle_alpha   90.00000000
_cell_angle_beta   90.00000000
_cell_angle_gamma   90.00000000
_symmetry_Int_Tables_number   1
_chemical_formula_structural   Pr4Bi2S9
_chemical_formula_sum   'Pr16 Bi8 S36'
_cell_volume   1477.67300111
_cell_formula_units_Z   4
loop_
 _symmetry_equiv_pos_site_id
 _symmetry_equiv_pos_as_xyz
  1  'x, y, z'
loop_
 _atom_site_type_symbol
 _atom_site_label
 _atom_site_symmetry_multiplicity
 _atom_site_fract_x
 _atom_site_fract_y
 _atom_site_fract_z
 _atom_site_occupancy
  Pr  Pr0  1  0.75000000  0.55406041  0.24197140  1
  Pr  Pr1  1  0.25000000  0.44593959  0.75802860  1
  Pr  Pr2  1  0.25000000  0.94593959  0.74197140  1
  Pr  Pr3  1  0.75000000  0.05406041  0.25802860  1
  Pr  Pr4  1  0.75000000  0.68745262  0.10469394  1
  Pr  Pr5  1  0.25000000  0.31254738  0.89530606  1
  Pr  Pr6  1  0.25000000  0.81254738  0.60469394  1
  Pr  Pr7  1  0.75000000  0.18745262  0.39530606  1
  Pr  Pr8  1  0.75000000  0.82106790  0.25832502  1
  Pr  Pr9  1  0.25000000  0.17893210  0.74167498  1
  Pr  Pr10  1  0.25000000  0.67893210  0.75832502  1
  Pr  Pr11  1  0.75000000  0.32106790  0.24167498  1
  Pr  Pr12  1  0.75000000  0.80566948  0.92439699  1
  Pr  Pr13  1  0.25000000  0.19433052  0.07560301  1
  Pr  Pr14  1  0.25000000  0.69433052  0.42439699  1
  Pr  Pr15  1  0.75000000  0.30566948  0.57560301  1
  Bi  Bi16  1  0.75000000  0.55912289  0.57203201  1
  Bi  Bi17  1  0.25000000  0.44087711  0.42796799  1
  Bi  Bi18  1  0.25000000  0.94087711  0.07203201  1
  Bi  Bi19  1  0.75000000  0.05912289  0.92796799  1
  Bi  Bi20  1  0.75000000  0.93461804  0.43972226  1
  Bi  Bi21  1  0.25000000  0.06538196  0.56027774  1
  Bi  Bi22  1  0.25000000  0.56538196  0.93972226  1
  Bi  Bi23  1  0.75000000  0.43461804  0.06027774  1
  S  S24  1  0.75000000  0.64870538  0.31404826  1
  S  S25  1  0.25000000  0.35129462  0.68595174  1
  S  S26  1  0.25000000  0.85129462  0.81404826  1
  S  S27  1  0.75000000  0.14870538  0.18595174  1
  S  S28  1  0.75000000  0.99604134  0.61308998  1
  S  S29  1  0.25000000  0.00395866  0.38691002  1
  S  S30  1  0.25000000  0.50395866  0.11308998  1
  S  S31  1  0.75000000  0.49604134  0.88691002  1
  S  S32  1  0.75000000  0.88653932  0.62439030  1
  S  S33  1  0.25000000  0.11346068  0.37560970  1
  S  S34  1  0.25000000  0.61346068  0.12439030  1
  S  S35  1  0.75000000  0.38653932  0.87560970  1
  S  S36  1  0.75000000  0.65658414  0.59046644  1
  S  S37  1  0.25000000  0.34341586  0.40953356  1
  S  S38  1  0.25000000  0.84341586  0.09046644  1
  S  S39  1  0.75000000  0.15658414  0.90953356  1
  S  S40  1  0.75000000  0.63465896  0.89562306  1
  S  S41  1  0.25000000  0.36534104  0.10437694  1
  S  S42  1  0.25000000  0.86534104  0.39562306  1
  S  S43  1  0.75000000  0.13465896  0.60437694  1
  S  S44  1  0.75000000  0.94230134  0.21091042  1
  S  S45  1  0.25000000  0.05769866  0.78908958  1
  S  S46  1  0.25000000  0.55769866  0.71091042  1
  S  S47  1  0.75000000  0.44230134  0.28908958  1
  S  S48  1  0.75000000  0.76982765  0.46019542  1
  S  S49  1  0.25000000  0.23017235  0.53980458  1
  S  S50  1  0.25000000  0.73017235  0.96019542  1
  S  S51  1  0.75000000  0.26982765  0.03980458  1
  S  S52  1  0.75000000  0.95739298  0.90196143  1
  S  S53  1  0.25000000  0.04260702  0.09803857  1
  S  S54  1  0.25000000  0.54260702  0.40196143  1
  S  S55  1  0.75000000  0.45739298  0.59803857  1
  S  S56  1  0.75000000  0.75420136  0.72734782  1
  S  S57  1  0.25000000  0.24579864  0.27265218  1
  S  S58  1  0.25000000  0.74579864  0.22734782  1
  S  S59  1  0.75000000  0.25420136  0.77265218  1
