# generated using pymatgen
data_Rb2MnI4
_symmetry_space_group_name_H-M   'P 1'
_cell_length_a   8.54166532
_cell_length_b   10.55719627
_cell_length_c   14.98162658
_cell_angle_alpha   90.00000000
_cell_angle_beta   90.00000000
_cell_angle_gamma   90.00000000
_symmetry_Int_Tables_number   1
_chemical_formula_structural   Rb2MnI4
_chemical_formula_sum   'Rb8 Mn4 I16'
_cell_volume   1350.98371663
_cell_formula_units_Z   4
loop_
 _symmetry_equiv_pos_site_id
 _symmetry_equiv_pos_as_xyz
  1  'x, y, z'
loop_
 _atom_site_type_symbol
 _atom_site_label
 _atom_site_symmetry_multiplicity
 _atom_site_fract_x
 _atom_site_fract_y
 _atom_site_fract_z
 _atom_site_occupancy
  Rb  Rb0  1  0.75000000  0.52079054  0.33676681  1
  Rb  Rb1  1  0.25000000  0.47920946  0.66323319  1
  Rb  Rb2  1  0.25000000  0.97920946  0.83676681  1
  Rb  Rb3  1  0.75000000  0.02079054  0.16323319  1
  Rb  Rb4  1  0.75000000  0.88084944  0.57538924  1
  Rb  Rb5  1  0.25000000  0.11915056  0.42461076  1
  Rb  Rb6  1  0.25000000  0.61915056  0.07538924  1
  Rb  Rb7  1  0.75000000  0.38084944  0.92461076  1
  Mn  Mn8  1  0.75000000  0.76895193  0.92603710  1
  Mn  Mn9  1  0.25000000  0.23104807  0.07396290  1
  Mn  Mn10  1  0.25000000  0.73104807  0.42603710  1
  Mn  Mn11  1  0.75000000  0.26895193  0.57396290  1
  I  I12  1  0.00440201  0.67416528  0.84538615  1
  I  I13  1  0.99559799  0.32583472  0.15461385  1
  I  I14  1  0.99559799  0.82583472  0.34538615  1
  I  I15  1  0.50440201  0.32583472  0.15461385  1
  I  I16  1  0.00440201  0.17416528  0.65461385  1
  I  I17  1  0.49559799  0.67416528  0.84538615  1
  I  I18  1  0.49559799  0.17416528  0.65461385  1
  I  I19  1  0.50440201  0.82583472  0.34538615  1
  I  I20  1  0.75000000  0.02214735  0.91433504  1
  I  I21  1  0.25000000  0.97785265  0.08566496  1
  I  I22  1  0.25000000  0.47785265  0.41433504  1
  I  I23  1  0.75000000  0.52214735  0.58566496  1
  I  I24  1  0.75000000  0.17968159  0.40592212  1
  I  I25  1  0.25000000  0.82031841  0.59407788  1
  I  I26  1  0.25000000  0.32031841  0.90592212  1
  I  I27  1  0.75000000  0.67968159  0.09407788  1
