# generated using pymatgen
data_Rb3Li2Ga(MoO4)4
_symmetry_space_group_name_H-M   'P 1'
_cell_length_a   10.70381438
_cell_length_b   10.70381438
_cell_length_c   10.70381438
_cell_angle_alpha   109.44414862
_cell_angle_beta   109.52537825
_cell_angle_gamma   109.44414862
_symmetry_Int_Tables_number   1
_chemical_formula_structural   Rb3Li2Ga(MoO4)4
_chemical_formula_sum   'Rb6 Li4 Ga2 Mo8 O32'
_cell_volume   944.04680270
_cell_formula_units_Z   2
loop_
 _symmetry_equiv_pos_site_id
 _symmetry_equiv_pos_as_xyz
  1  'x, y, z'
loop_
 _atom_site_type_symbol
 _atom_site_label
 _atom_site_symmetry_multiplicity
 _atom_site_fract_x
 _atom_site_fract_y
 _atom_site_fract_z
 _atom_site_occupancy
  Rb  Rb0  1  0.76254151  0.88754151  0.37500000  1
  Rb  Rb1  1  0.48745849  0.11245849  0.87500000  1
  Rb  Rb2  1  0.12500000  0.61245849  0.23745849  1
  Rb  Rb3  1  0.62500000  0.38754151  0.51254151  1
  Rb  Rb4  1  -0.00000000  -0.00000000  -0.00000000  1
  Rb  Rb5  1  0.25000000  0.50000000  0.75000000  1
  Li  Li6  1  0.24925618  0.37425618  0.37500000  1
  Li  Li7  1  0.00074382  0.62574382  0.87500000  1
  Li  Li8  1  0.12500000  0.12574382  0.75074382  1
  Li  Li9  1  0.62500000  0.87425618  0.99925618  1
  Ga  Ga10  1  0.50000000  0.00000000  0.50000000  1
  Ga  Ga11  1  0.75000000  0.50000000  0.25000000  1
  Mo  Mo12  1  0.37799925  0.44660603  0.12561746  1
  Mo  Mo13  1  0.67901143  0.55339397  0.93139323  1
  Mo  Mo14  1  0.06860677  0.74761820  0.62200075  1
  Mo  Mo15  1  0.87200075  0.24761820  0.81860677  1
  Mo  Mo16  1  0.87438254  0.25238180  0.32098857  1
  Mo  Mo17  1  0.57098857  0.75238180  0.62438254  1
  Mo  Mo18  1  0.18139323  0.05339397  0.42901143  1
  Mo  Mo19  1  0.37561746  0.94660603  0.12799925  1
  O  O20  1  0.24827089  0.19209102  0.37566034  1
  O  O21  1  0.18356932  0.80790898  0.05617987  1
  O  O22  1  0.94382013  0.12738944  0.75172911  1
  O  O23  1  0.00172911  0.62738944  0.69382013  1
  O  O24  1  0.62433966  0.87261056  0.81643068  1
  O  O25  1  0.06643068  0.37261056  0.37433966  1
  O  O26  1  0.30617987  0.30790898  0.93356932  1
  O  O27  1  0.62566034  0.69209102  0.99827089  1
  O  O28  1  0.25789032  0.37732733  0.19681049  1
  O  O29  1  0.81948316  0.62267267  0.88056300  1
  O  O30  1  0.11943700  0.93892016  0.74210968  1
  O  O31  1  0.99210968  0.43892016  0.86943700  1
  O  O32  1  0.80318951  0.06107984  0.18051684  1
  O  O33  1  0.43051684  0.56107984  0.55318951  1
  O  O34  1  0.13056300  0.12267267  0.56948316  1
  O  O35  1  0.44681049  0.87732733  0.00789032  1
  O  O36  1  0.51671135  0.39071945  0.76489368  1
  O  O37  1  0.37417423  0.60928055  0.12599190  1
  O  O38  1  0.87400810  0.24818233  0.48328865  1
  O  O39  1  0.73328865  0.74818233  0.62400810  1
  O  O40  1  0.23510632  0.75181767  0.62582577  1
  O  O41  1  0.87582577  0.25181767  0.98510632  1
  O  O42  1  0.37599190  0.10928055  0.12417423  1
  O  O43  1  0.01489368  0.89071945  0.26671135  1
  O  O44  1  0.58188700  0.50580976  0.25452129  1
  O  O45  1  0.74871153  0.49419024  0.07607724  1
  O  O46  1  0.92392276  0.67263429  0.41811300  1
  O  O47  1  0.66811300  0.17263429  0.67392276  1
  O  O48  1  0.74547871  0.32736571  0.25128847  1
  O  O49  1  0.50128847  0.82736571  0.49547871  1
  O  O50  1  0.32607724  0.99419024  0.49871153  1
  O  O51  1  0.50452129  0.00580976  0.33188700  1
