# generated using pymatgen
data_Rb3Li2Al(MoO4)4
_symmetry_space_group_name_H-M   'P 1'
_cell_length_a   10.65993062
_cell_length_b   10.65993062
_cell_length_c   10.65993062
_cell_angle_alpha   109.15178985
_cell_angle_beta   110.11198865
_cell_angle_gamma   109.15178985
_symmetry_Int_Tables_number   1
_chemical_formula_structural   Rb3Li2Al(MoO4)4
_chemical_formula_sum   'Rb6 Li4 Al2 Mo8 O32'
_cell_volume   932.39610453
_cell_formula_units_Z   2
loop_
 _symmetry_equiv_pos_site_id
 _symmetry_equiv_pos_as_xyz
  1  'x, y, z'
loop_
 _atom_site_type_symbol
 _atom_site_label
 _atom_site_symmetry_multiplicity
 _atom_site_fract_x
 _atom_site_fract_y
 _atom_site_fract_z
 _atom_site_occupancy
  Rb  Rb0  1  0.76139168  0.88639168  0.37500000  1
  Rb  Rb1  1  0.48860832  0.11360832  0.87500000  1
  Rb  Rb2  1  0.12500000  0.61360832  0.23860832  1
  Rb  Rb3  1  0.62500000  0.38639168  0.51139168  1
  Rb  Rb4  1  -0.00000000  0.00000000  -0.00000000  1
  Rb  Rb5  1  0.25000000  0.50000000  0.75000000  1
  Li  Li6  1  0.24916908  0.37416908  0.37500000  1
  Li  Li7  1  0.00083092  0.62583092  0.87500000  1
  Li  Li8  1  0.12500000  0.12583092  0.75083092  1
  Li  Li9  1  0.62500000  0.87416908  0.99916908  1
  Al  Al10  1  0.50000000  -0.00000000  0.50000000  1
  Al  Al11  1  0.75000000  0.50000000  0.25000000  1
  Mo  Mo12  1  0.38039142  0.44689587  0.12694081  1
  Mo  Mo13  1  0.68004494  0.55310413  0.93349556  1
  Mo  Mo14  1  0.06650444  0.74654939  0.61960858  1
  Mo  Mo15  1  0.86960858  0.24654939  0.81650444  1
  Mo  Mo16  1  0.87305919  0.25345061  0.31995506  1
  Mo  Mo17  1  0.56995506  0.75345061  0.62305919  1
  Mo  Mo18  1  0.18349556  0.05310413  0.43004494  1
  Mo  Mo19  1  0.37694081  0.94689587  0.13039142  1
  O  O20  1  0.24767942  0.19145205  0.37573210  1
  O  O21  1  0.18428005  0.80854795  0.05622736  1
  O  O22  1  0.94377264  0.12805268  0.75232058  1
  O  O23  1  0.00232058  0.62805268  0.69377264  1
  O  O24  1  0.62426790  0.87194732  0.81571995  1
  O  O25  1  0.06571995  0.37194732  0.37426790  1
  O  O26  1  0.30622736  0.30854795  0.93428005  1
  O  O27  1  0.62573210  0.69145205  0.99767942  1
  O  O28  1  0.25912547  0.37797231  0.19709761  1
  O  O29  1  0.81912530  0.62202769  0.88115316  1
  O  O30  1  0.11884684  0.93797214  0.74087453  1
  O  O31  1  0.99087453  0.43797214  0.86884684  1
  O  O32  1  0.80290239  0.06202786  0.18087470  1
  O  O33  1  0.43087470  0.56202786  0.55290239  1
  O  O34  1  0.13115316  0.12202769  0.56912530  1
  O  O35  1  0.44709761  0.87797231  0.00912547  1
  O  O36  1  0.51688935  0.39109895  0.76539417  1
  O  O37  1  0.37429522  0.60890105  0.12579040  1
  O  O38  1  0.87420960  0.24850481  0.48311065  1
  O  O39  1  0.73311065  0.74850481  0.62420960  1
  O  O40  1  0.23460583  0.75149519  0.62570478  1
  O  O41  1  0.87570478  0.25149519  0.98460583  1
  O  O42  1  0.37579040  0.10890105  0.12429522  1
  O  O43  1  0.01539417  0.89109895  0.26688935  1
  O  O44  1  0.58656862  0.50422250  0.25179726  1
  O  O45  1  0.74757476  0.49577750  0.08234612  1
  O  O46  1  0.91765388  0.66522864  0.41343138  1
  O  O47  1  0.66343138  0.16522864  0.66765388  1
  O  O48  1  0.74820274  0.33477136  0.25242524  1
  O  O49  1  0.50242524  0.83477136  0.49820274  1
  O  O50  1  0.33234612  0.99577750  0.49757476  1
  O  O51  1  0.50179726  0.00422250  0.33656862  1
