# generated using pymatgen
data_Nb3Ga2Cl9
_symmetry_space_group_name_H-M   'P 1'
_cell_length_a   9.62568833
_cell_length_b   9.62568833
_cell_length_c   9.55053640
_cell_angle_alpha   103.01864841
_cell_angle_beta   103.01864841
_cell_angle_gamma   115.77914093
_symmetry_Int_Tables_number   1
_chemical_formula_structural   Nb3Ga2Cl9
_chemical_formula_sum   'Nb6 Ga4 Cl18'
_cell_volume   721.73342666
_cell_formula_units_Z   2
loop_
 _symmetry_equiv_pos_site_id
 _symmetry_equiv_pos_as_xyz
  1  'x, y, z'
loop_
 _atom_site_type_symbol
 _atom_site_label
 _atom_site_symmetry_multiplicity
 _atom_site_fract_x
 _atom_site_fract_y
 _atom_site_fract_z
 _atom_site_occupancy
  Nb  Nb0  1  0.62030984  0.62030984  0.86979693  1
  Nb  Nb1  1  0.37969016  0.37969016  0.13020307  1
  Nb  Nb2  1  0.45585035  0.27608740  0.85661027  1
  Nb  Nb3  1  0.54414965  0.72391260  0.14338973  1
  Nb  Nb4  1  0.72391260  0.54414965  0.14338973  1
  Nb  Nb5  1  0.27608740  0.45585035  0.85661027  1
  Ga  Ga6  1  0.72067883  0.04496062  0.66370252  1
  Ga  Ga7  1  0.27932117  0.95503938  0.33629748  1
  Ga  Ga8  1  0.95503938  0.27932117  0.33629748  1
  Ga  Ga9  1  0.04496062  0.72067883  0.66370252  1
  Cl  Cl10  1  0.71289292  0.28710708  -0.00000000  1
  Cl  Cl11  1  0.28710708  0.71289292  0.00000000  1
  Cl  Cl12  1  0.39739576  0.98915404  0.66438187  1
  Cl  Cl13  1  0.60260424  0.01084596  0.33561813  1
  Cl  Cl14  1  0.01084596  0.60260424  0.33561813  1
  Cl  Cl15  1  0.98915404  0.39739576  0.66438187  1
  Cl  Cl16  1  0.30722638  0.09387102  0.98338737  1
  Cl  Cl17  1  0.69277362  0.90612898  0.01661263  1
  Cl  Cl18  1  0.90612898  0.69277362  0.01661263  1
  Cl  Cl19  1  0.09387102  0.30722638  0.98338737  1
  Cl  Cl20  1  0.77356641  0.77356641  0.70784802  1
  Cl  Cl21  1  0.22643359  0.22643359  0.29215198  1
  Cl  Cl22  1  0.82020488  0.82020488  0.33478929  1
  Cl  Cl23  1  0.17979512  0.17979512  0.66521071  1
  Cl  Cl24  1  0.58862080  0.37615946  0.67886279  1
  Cl  Cl25  1  0.41137920  0.62384054  0.32113721  1
  Cl  Cl26  1  0.62384054  0.41137920  0.32113721  1
  Cl  Cl27  1  0.37615946  0.58862080  0.67886279  1
