# generated using pymatgen
data_Nd3Ta(Cl3O2)2
_symmetry_space_group_name_H-M   'P 1'
_cell_length_a   3.95654736
_cell_length_b   12.92628131
_cell_length_c   12.92628131
_cell_angle_alpha   119.99999821
_cell_angle_beta   90.00000000
_cell_angle_gamma   90.00000000
_symmetry_Int_Tables_number   1
_chemical_formula_structural   Nd3Ta(Cl3O2)2
_chemical_formula_sum   'Nd6 Ta2 Cl12 O8'
_cell_volume   572.52468216
_cell_formula_units_Z   2
loop_
 _symmetry_equiv_pos_site_id
 _symmetry_equiv_pos_as_xyz
  1  'x, y, z'
loop_
 _atom_site_type_symbol
 _atom_site_label
 _atom_site_symmetry_multiplicity
 _atom_site_fract_x
 _atom_site_fract_y
 _atom_site_fract_z
 _atom_site_occupancy
  Nd  Nd0  1  0.75000000  0.71891142  0.11510826  1
  Nd  Nd1  1  0.25000000  0.28108858  0.88489174  1
  Nd  Nd2  1  0.75000000  0.39619684  0.28108858  1
  Nd  Nd3  1  0.25000000  0.60380316  0.71891142  1
  Nd  Nd4  1  0.75000000  0.88489174  0.60380316  1
  Nd  Nd5  1  0.25000000  0.11510826  0.39619684  1
  Ta  Ta6  1  0.75000000  0.33333300  0.66666700  1
  Ta  Ta7  1  0.25000000  0.66666700  0.33333300  1
  Cl  Cl8  1  0.75000000  0.93016091  0.37267372  1
  Cl  Cl9  1  0.25000000  0.06983909  0.62732628  1
  Cl  Cl10  1  0.75000000  0.44251281  0.06983909  1
  Cl  Cl11  1  0.25000000  0.55748719  0.93016091  1
  Cl  Cl12  1  0.75000000  0.62732628  0.55748719  1
  Cl  Cl13  1  0.25000000  0.37267372  0.44251281  1
  Cl  Cl14  1  0.75000000  0.75083481  0.89402057  1
  Cl  Cl15  1  0.25000000  0.24916519  0.10597943  1
  Cl  Cl16  1  0.75000000  0.14318576  0.24916519  1
  Cl  Cl17  1  0.25000000  0.85681424  0.75083481  1
  Cl  Cl18  1  0.75000000  0.10597943  0.85681424  1
  Cl  Cl19  1  0.25000000  0.89402057  0.14318576  1
  O  O20  1  0.75000000  0.49220165  0.69244213  1
  O  O21  1  0.25000000  0.50779835  0.30755787  1
  O  O22  1  0.75000000  0.20024048  0.50779835  1
  O  O23  1  0.25000000  0.79975952  0.49220165  1
  O  O24  1  0.75000000  0.30755787  0.79975952  1
  O  O25  1  0.25000000  0.69244213  0.20024048  1
  O  O26  1  0.75000000  0.66666700  0.33333300  1
  O  O27  1  0.25000000  0.33333300  0.66666700  1
