# generated using pymatgen
data_Mn3V3(TeO8)2
_symmetry_space_group_name_H-M   'P 1'
_cell_length_a   5.94413578
_cell_length_b   5.93304207
_cell_length_c   10.53962669
_cell_angle_alpha   89.67990442
_cell_angle_beta   90.58912623
_cell_angle_gamma   119.10448366
_symmetry_Int_Tables_number   1
_chemical_formula_structural   Mn3V3(TeO8)2
_chemical_formula_sum   'Mn3 V3 Te2 O16'
_cell_volume   324.74886301
_cell_formula_units_Z   1
loop_
 _symmetry_equiv_pos_site_id
 _symmetry_equiv_pos_as_xyz
  1  'x, y, z'
loop_
 _atom_site_type_symbol
 _atom_site_label
 _atom_site_symmetry_multiplicity
 _atom_site_fract_x
 _atom_site_fract_y
 _atom_site_fract_z
 _atom_site_occupancy
  Mn  Mn0  1  0.66207143  0.81811123  0.20244266  1
  Mn  Mn1  1  0.83724352  0.66917423  0.71161927  1
  Mn  Mn2  1  0.83598684  0.17228611  0.71073067  1
  V  V3  1  0.20753650  0.87979392  0.20173351  1
  V  V4  1  0.15248211  0.34992442  0.23721515  1
  V  V5  1  0.35354706  0.18095961  0.73596630  1
  Te  Te6  1  0.32811355  0.66679374  0.51939751  1
  Te  Te7  1  0.72989631  0.36316419  0.99387557  1
  O  O8  1  0.17315717  0.83827761  0.60997205  1
  O  O9  1  0.01354694  0.48715361  0.32353841  1
  O  O10  1  0.32203551  0.65686330  0.12163555  1
  O  O11  1  0.99346439  0.98964041  0.29273888  1
  O  O12  1  0.00224437  0.00175100  0.79324588  1
  O  O13  1  0.16988967  0.33954215  0.60986399  1
  O  O14  1  0.47154166  0.96909153  0.30340188  1
  O  O15  1  0.44561756  0.47226314  0.31459592  1
  O  O16  1  0.31033328  0.14187739  0.10798257  1
  O  O17  1  0.65506117  0.82980774  0.60576349  1
  O  O18  1  0.48224436  0.46408825  0.81942624  1
  O  O19  1  0.49169808  0.02742023  0.81993063  1
  O  O20  1  0.66408533  0.33712112  0.62773450  1
  O  O21  1  0.86190050  0.66947700  0.10460945  1
  O  O22  1  0.96442093  0.48504067  0.85089720  1
  O  O23  1  0.87188077  0.19057640  0.09740272  1
