# generated using pymatgen
data_Rb2LaNb5O15
_symmetry_space_group_name_H-M   'P 1'
_cell_length_a   3.98517498
_cell_length_b   12.87967412
_cell_length_c   12.87967412
_cell_angle_alpha   90.00000000
_cell_angle_beta   90.00000000
_cell_angle_gamma   90.00000000
_symmetry_Int_Tables_number   1
_chemical_formula_structural   Rb2LaNb5O15
_chemical_formula_sum   'Rb4 La2 Nb10 O30'
_cell_volume   661.08475840
_cell_formula_units_Z   2
loop_
 _symmetry_equiv_pos_site_id
 _symmetry_equiv_pos_as_xyz
  1  'x, y, z'
loop_
 _atom_site_type_symbol
 _atom_site_label
 _atom_site_symmetry_multiplicity
 _atom_site_fract_x
 _atom_site_fract_y
 _atom_site_fract_z
 _atom_site_occupancy
  Rb  Rb0  1  0.50000000  0.16950145  0.66950145  1
  Rb  Rb1  1  0.50000000  0.83049855  0.33049855  1
  Rb  Rb2  1  0.50000000  0.33049855  0.16950145  1
  Rb  Rb3  1  0.50000000  0.66950145  0.83049855  1
  La  La4  1  0.50000000  0.00000000  -0.00000000  1
  La  La5  1  0.50000000  0.50000000  0.50000000  1
  Nb  Nb6  1  0.00000000  0.00000000  0.50000000  1
  Nb  Nb7  1  0.00000000  0.50000000  -0.00000000  1
  Nb  Nb8  1  0.00000000  0.07569942  0.21393751  1
  Nb  Nb9  1  -0.00000000  0.92430058  0.78606249  1
  Nb  Nb10  1  -0.00000000  0.78606249  0.07569942  1
  Nb  Nb11  1  0.00000000  0.42430058  0.71393751  1
  Nb  Nb12  1  0.00000000  0.21393751  0.92430058  1
  Nb  Nb13  1  -0.00000000  0.57569942  0.28606249  1
  Nb  Nb14  1  -0.00000000  0.71393751  0.57569942  1
  Nb  Nb15  1  0.00000000  0.28606249  0.42430058  1
  O  O16  1  0.50000000  0.07804085  0.19187843  1
  O  O17  1  0.50000000  0.92195915  0.80812157  1
  O  O18  1  0.50000000  0.80812157  0.07804085  1
  O  O19  1  0.50000000  0.42195915  0.69187843  1
  O  O20  1  0.50000000  0.19187843  0.92195915  1
  O  O21  1  0.50000000  0.57804085  0.30812157  1
  O  O22  1  0.50000000  0.69187843  0.57804085  1
  O  O23  1  0.50000000  0.30812157  0.42195915  1
  O  O24  1  -0.00000000  0.71371104  0.21371104  1
  O  O25  1  0.00000000  0.28628896  0.78628896  1
  O  O26  1  -0.00000000  0.78628896  0.71371104  1
  O  O27  1  0.00000000  0.21371104  0.28628896  1
  O  O28  1  0.50000000  -0.00000000  0.50000000  1
  O  O29  1  0.50000000  0.50000000  -0.00000000  1
  O  O30  1  0.00000000  0.13298640  0.05923626  1
  O  O31  1  -0.00000000  0.86701360  0.94076374  1
  O  O32  1  0.00000000  0.94076374  0.13298640  1
  O  O33  1  0.00000000  0.36701360  0.55923626  1
  O  O34  1  -0.00000000  0.05923626  0.86701360  1
  O  O35  1  -0.00000000  0.63298640  0.44076374  1
  O  O36  1  0.00000000  0.55923626  0.63298640  1
  O  O37  1  -0.00000000  0.44076374  0.36701360  1
  O  O38  1  -0.00000000  0.00140420  0.34353527  1
  O  O39  1  0.00000000  0.99859580  0.65646473  1
  O  O40  1  0.00000000  0.65646473  0.00140420  1
  O  O41  1  -0.00000000  0.49859580  0.84353527  1
  O  O42  1  -0.00000000  0.34353527  0.99859580  1
  O  O43  1  0.00000000  0.50140420  0.15646473  1
  O  O44  1  0.00000000  0.84353527  0.50140420  1
  O  O45  1  -0.00000000  0.15646473  0.49859580  1
