# generated using pymatgen
data_RbLu(WO4)2
_symmetry_space_group_name_H-M   'P 1'
_cell_length_a   8.00839283
_cell_length_b   9.03665264
_cell_length_c   10.31571460
_cell_angle_alpha   90.00000000
_cell_angle_beta   90.00000000
_cell_angle_gamma   99.21495986
_symmetry_Int_Tables_number   1
_chemical_formula_structural   RbLu(WO4)2
_chemical_formula_sum   'Rb4 Lu4 W8 O32'
_cell_volume   736.90414810
_cell_formula_units_Z   4
loop_
 _symmetry_equiv_pos_site_id
 _symmetry_equiv_pos_as_xyz
  1  'x, y, z'
loop_
 _atom_site_type_symbol
 _atom_site_label
 _atom_site_symmetry_multiplicity
 _atom_site_fract_x
 _atom_site_fract_y
 _atom_site_fract_z
 _atom_site_occupancy
  Rb  Rb0  1  0.07320083  0.51198391  0.21311744  1
  Rb  Rb1  1  0.92679917  0.48801609  0.78688256  1
  Rb  Rb2  1  0.42679917  0.48801609  0.71311744  1
  Rb  Rb3  1  0.57320083  0.51198391  0.28688256  1
  Lu  Lu4  1  0.02152990  0.06045142  0.77694541  1
  Lu  Lu5  1  0.97847010  0.93954858  0.22305459  1
  Lu  Lu6  1  0.47847010  0.93954858  0.27694541  1
  Lu  Lu7  1  0.52152990  0.06045142  0.72305459  1
  W  W8  1  0.28605342  0.21895966  0.00974788  1
  W  W9  1  0.71394658  0.78104034  0.99025212  1
  W  W10  1  0.21394658  0.78104034  0.50974788  1
  W  W11  1  0.78605342  0.21895966  0.49025212  1
  W  W12  1  0.17937313  0.16196573  0.48924964  1
  W  W13  1  0.82062687  0.83803427  0.51075036  1
  W  W14  1  0.32062687  0.83803427  0.98924964  1
  W  W15  1  0.67937313  0.16196573  0.01075036  1
  O  O16  1  0.25761841  0.00837573  0.38905579  1
  O  O17  1  0.74238159  0.99162427  0.61094421  1
  O  O18  1  0.24238159  0.99162427  0.88905579  1
  O  O19  1  0.75761841  0.00837573  0.11094421  1
  O  O20  1  0.34952046  0.39454691  0.08651685  1
  O  O21  1  0.65047954  0.60545309  0.91348315  1
  O  O22  1  0.15047954  0.60545309  0.58651685  1
  O  O23  1  0.84952046  0.39454691  0.41348315  1
  O  O24  1  0.11238190  0.13186924  0.11587306  1
  O  O25  1  0.88761810  0.86813076  0.88412694  1
  O  O26  1  0.38761810  0.86813076  0.61587306  1
  O  O27  1  0.61238190  0.13186924  0.38412694  1
  O  O28  1  0.33702059  0.73310249  0.36883028  1
  O  O29  1  0.66297941  0.26689751  0.63116972  1
  O  O30  1  0.16297941  0.26689751  0.86883028  1
  O  O31  1  0.83702059  0.73310249  0.13116972  1
  O  O32  1  0.26825608  0.33016740  0.41223990  1
  O  O33  1  0.73174392  0.66983260  0.58776010  1
  O  O34  1  0.23174392  0.66983260  0.91223990  1
  O  O35  1  0.76825608  0.33016740  0.08776010  1
  O  O36  1  0.00311652  0.22422307  0.60462721  1
  O  O37  1  0.99688348  0.77577693  0.39537279  1
  O  O38  1  0.49688348  0.77577693  0.10462721  1
  O  O39  1  0.50311652  0.22422307  0.89537279  1
  O  O40  1  0.30655020  0.15280719  0.63785252  1
  O  O41  1  0.69344980  0.84719281  0.36214748  1
  O  O42  1  0.19344980  0.84719281  0.13785252  1
  O  O43  1  0.80655020  0.15280719  0.86214748  1
  O  O44  1  0.45163527  0.08931071  0.10337031  1
  O  O45  1  0.54836473  0.91068929  0.89662969  1
  O  O46  1  0.04836473  0.91068929  0.60337031  1
  O  O47  1  0.95163527  0.08931071  0.39662969  1
