# generated using pymatgen
data_Na3MoO4
_symmetry_space_group_name_H-M   'P 1'
_cell_length_a   5.66420967
_cell_length_b   6.21681093
_cell_length_c   7.46587976
_cell_angle_alpha   90.00000000
_cell_angle_beta   90.00000000
_cell_angle_gamma   90.00000000
_symmetry_Int_Tables_number   1
_chemical_formula_structural   Na3MoO4
_chemical_formula_sum   'Na6 Mo2 O8'
_cell_volume   262.89841745
_cell_formula_units_Z   2
loop_
 _symmetry_equiv_pos_site_id
 _symmetry_equiv_pos_as_xyz
  1  'x, y, z'
loop_
 _atom_site_type_symbol
 _atom_site_label
 _atom_site_symmetry_multiplicity
 _atom_site_fract_x
 _atom_site_fract_y
 _atom_site_fract_z
 _atom_site_occupancy
  Na  Na0  1  0.50416580  0.82817125  0.74419598  1
  Na  Na1  1  0.00416580  0.17182875  0.75580402  1
  Na  Na2  1  0.00416580  0.17182875  0.24419598  1
  Na  Na3  1  0.50416580  0.82817125  0.25580402  1
  Na  Na4  1  0.49974298  0.34081598  0.00000000  1
  Na  Na5  1  -0.00025702  0.65918402  0.50000000  1
  Mo  Mo6  1  0.01450334  0.67521154  0.00000000  1
  Mo  Mo7  1  0.51450334  0.32478846  0.50000000  1
  O  O8  1  0.92016764  0.80464782  0.78464223  1
  O  O9  1  0.42016764  0.19535218  0.71535777  1
  O  O10  1  0.42016764  0.19535218  0.28464223  1
  O  O11  1  0.92016764  0.80464782  0.21535777  1
  O  O12  1  0.34442679  0.69202628  0.00000000  1
  O  O13  1  0.84442679  0.30797372  0.50000000  1
  O  O14  1  0.90556000  0.39008450  0.00000000  1
  O  O15  1  0.40556000  0.60991550  0.50000000  1
