# generated using pymatgen
data_NaNp(HO2)2
_symmetry_space_group_name_H-M   'P 1'
_cell_length_a   6.00606590
_cell_length_b   7.59669814
_cell_length_c   8.26545672
_cell_angle_alpha   90.00000000
_cell_angle_beta   90.00000000
_cell_angle_gamma   90.00000000
_symmetry_Int_Tables_number   1
_chemical_formula_structural   NaNp(HO2)2
_chemical_formula_sum   'Na4 Np4 H8 O16'
_cell_volume   377.12195710
_cell_formula_units_Z   4
loop_
 _symmetry_equiv_pos_site_id
 _symmetry_equiv_pos_as_xyz
  1  'x, y, z'
loop_
 _atom_site_type_symbol
 _atom_site_label
 _atom_site_symmetry_multiplicity
 _atom_site_fract_x
 _atom_site_fract_y
 _atom_site_fract_z
 _atom_site_occupancy
  Na  Na0  1  0.49501389  0.02304659  0.16173058  1
  Na  Na1  1  0.00498611  0.97695341  0.66173058  1
  Na  Na2  1  0.50498611  0.52304659  0.33826942  1
  Na  Na3  1  0.99501389  0.47695341  0.83826942  1
  Np  Np4  1  0.03948673  0.76479769  0.18444351  1
  Np  Np5  1  0.46051327  0.23520231  0.68444351  1
  Np  Np6  1  0.96051327  0.26479769  0.31555649  1
  Np  Np7  1  0.53948673  0.73520231  0.81555649  1
  H  H8  1  0.26696522  0.42770636  0.07096046  1
  H  H9  1  0.23303478  0.57229364  0.57096046  1
  H  H10  1  0.73303478  0.92770636  0.42903954  1
  H  H11  1  0.76696522  0.07229364  0.92903954  1
  H  H12  1  0.12611927  0.11708238  0.00342547  1
  H  H13  1  0.37388073  0.88291762  0.50342547  1
  H  H14  1  0.87388073  0.61708238  0.49657453  1
  H  H15  1  0.62611927  0.38291762  0.99657453  1
  O  O16  1  0.68816037  0.28569830  0.19874443  1
  O  O17  1  0.81183963  0.71430170  0.69874443  1
  O  O18  1  0.31183963  0.78569830  0.30125557  1
  O  O19  1  0.18816037  0.21430170  0.80125557  1
  O  O20  1  0.10463421  0.07151237  0.11398608  1
  O  O21  1  0.39536579  0.92848763  0.61398608  1
  O  O22  1  0.89536579  0.57151237  0.38601392  1
  O  O23  1  0.60463421  0.42848763  0.88601392  1
  O  O24  1  0.23382889  0.24595211  0.43377631  1
  O  O25  1  0.26617111  0.75404789  0.93377631  1
  O  O26  1  0.76617111  0.74595211  0.06622369  1
  O  O27  1  0.73382889  0.25404789  0.56622369  1
  O  O28  1  0.12741865  0.46166669  0.12222917  1
  O  O29  1  0.37258135  0.53833331  0.62222917  1
  O  O30  1  0.87258135  0.96166669  0.37777083  1
  O  O31  1  0.62741865  0.03833331  0.87777083  1
