# generated using pymatgen
data_Nb14AgO36
_symmetry_space_group_name_H-M   'P 1'
_cell_length_a   3.78603921
_cell_length_b   14.81831091
_cell_length_c   15.32558478
_cell_angle_alpha   118.91097546
_cell_angle_beta   97.09530837
_cell_angle_gamma   90.00000000
_symmetry_Int_Tables_number   1
_chemical_formula_structural   Nb14AgO36
_chemical_formula_sum   'Nb14 Ag1 O36'
_cell_volume   745.12007300
_cell_formula_units_Z   1
loop_
 _symmetry_equiv_pos_site_id
 _symmetry_equiv_pos_as_xyz
  1  'x, y, z'
loop_
 _atom_site_type_symbol
 _atom_site_label
 _atom_site_symmetry_multiplicity
 _atom_site_fract_x
 _atom_site_fract_y
 _atom_site_fract_z
 _atom_site_occupancy
  Nb  Nb0  1  1.00000000  0.18191144  1.00000000  1
  Nb  Nb1  1  0.00000000  0.81808856  0.00000000  1
  Nb  Nb2  1  0.10267908  0.47768071  0.20535817  1
  Nb  Nb3  1  0.89732092  0.52231929  0.79464183  1
  Nb  Nb4  1  0.10267908  0.72767746  0.20535817  1
  Nb  Nb5  1  0.89732092  0.27232254  0.79464183  1
  Nb  Nb6  1  0.31059088  0.31059088  0.62118176  1
  Nb  Nb7  1  0.68940912  0.68940912  0.37881824  1
  Nb  Nb8  1  0.20643775  0.39705013  0.41287550  1
  Nb  Nb9  1  0.79356225  0.60294987  0.58712450  1
  Nb  Nb10  1  0.20643775  0.01582538  0.41287550  1
  Nb  Nb11  1  0.79356225  0.98417462  0.58712450  1
  Nb  Nb12  1  0.10359831  0.10359831  0.20719661  1
  Nb  Nb13  1  0.89640169  0.89640169  0.79280339  1
  Ag  Ag14  1  0.50000000  0.50000000  -0.00000000  1
  O  O15  1  0.83586848  0.33586848  0.67173696  1
  O  O16  1  0.16413152  0.66413152  0.32826304  1
  O  O17  1  0.26829694  0.36518497  0.53659389  1
  O  O18  1  0.73170306  0.63481503  0.46340611  1
  O  O19  1  0.26829694  0.17140891  0.53659389  1
  O  O20  1  0.73170306  0.82859109  0.46340611  1
  O  O21  1  0.05184138  0.34779250  0.10368275  1
  O  O22  1  0.94815862  0.65220750  0.89631725  1
  O  O23  1  0.05184138  0.75589025  0.10368275  1
  O  O24  1  0.94815862  0.24410975  0.89631725  1
  O  O25  1  0.15946869  0.45199876  0.31893738  1
  O  O26  1  0.84053131  0.54800124  0.68106262  1
  O  O27  1  0.15946869  0.86693862  0.31893738  1
  O  O28  1  0.84053131  0.13306138  0.68106262  1
  O  O29  1  0.94683808  0.44683808  0.89367615  1
  O  O30  1  0.05316192  0.55316192  0.10632385  1
  O  O31  1  0.16114260  0.26071972  0.32228520  1
  O  O32  1  0.83885740  0.73928028  0.67771480  1
  O  O33  1  0.16114260  0.06156548  0.32228520  1
  O  O34  1  0.83885740  0.93843452  0.67771480  1
  O  O35  1  0.27342424  0.56690797  0.54684847  1
  O  O36  1  0.72657576  0.43309203  0.45315153  1
  O  O37  1  0.27342424  0.97994050  0.54684847  1
  O  O38  1  0.72657576  0.02005950  0.45315153  1
  O  O39  1  0.38491991  0.47654239  0.76983981  1
  O  O40  1  0.61508009  0.52345761  0.23016019  1
  O  O41  1  0.38491991  0.29329742  0.76983981  1
  O  O42  1  0.61508009  0.70670258  0.23016019  1
  O  O43  1  0.50000000  0.78793589  1.00000000  1
  O  O44  1  0.50000000  0.21206411  0.00000000  1
  O  O45  1  0.05453060  0.15176463  0.10906119  1
  O  O46  1  0.94546940  0.84823537  0.89093881  1
  O  O47  1  0.05453060  0.95729657  0.10906119  1
  O  O48  1  0.94546940  0.04270343  0.89093881  1
  O  O49  1  0.62029573  0.12029573  0.24059146  1
  O  O50  1  0.37970427  0.87970427  0.75940854  1
