# generated using pymatgen
data_KHg5Br11
_symmetry_space_group_name_H-M   'P 1'
_cell_length_a   6.99065287
_cell_length_b   10.15055106
_cell_length_c   10.15055106
_cell_angle_alpha   101.12555527
_cell_angle_beta   107.77684865
_cell_angle_gamma   107.77684865
_symmetry_Int_Tables_number   1
_chemical_formula_structural   KHg5Br11
_chemical_formula_sum   'K1 Hg5 Br11'
_cell_volume   619.75450239
_cell_formula_units_Z   1
loop_
 _symmetry_equiv_pos_site_id
 _symmetry_equiv_pos_as_xyz
  1  'x, y, z'
loop_
 _atom_site_type_symbol
 _atom_site_label
 _atom_site_symmetry_multiplicity
 _atom_site_fract_x
 _atom_site_fract_y
 _atom_site_fract_z
 _atom_site_occupancy
  K  K0  1  -0.00000000  -0.00000000  -0.00000000  1
  Hg  Hg1  1  0.68378669  0.34655676  0.01546512  1
  Hg  Hg2  1  0.31621331  0.65344324  0.98453488  1
  Hg  Hg3  1  0.31621331  0.98453488  0.65344324  1
  Hg  Hg4  1  0.68378669  0.01546512  0.34655676  1
  Hg  Hg5  1  -0.00000000  0.50000000  0.50000000  1
  Br  Br6  1  0.39023356  0.64780536  0.64780536  1
  Br  Br7  1  0.60976644  0.35219464  0.35219464  1
  Br  Br8  1  0.69860595  0.70391173  0.13983249  1
  Br  Br9  1  0.30139405  0.29608827  0.86016751  1
  Br  Br10  1  0.30139405  0.86016751  0.29608827  1
  Br  Br11  1  0.69860595  0.13983249  0.70391173  1
  Br  Br12  1  0.50000000  -0.00000000  -0.00000000  1
  Br  Br13  1  0.92703681  0.58167317  0.83091025  1
  Br  Br14  1  0.07296319  0.41832683  0.16908975  1
  Br  Br15  1  0.07296319  0.16908975  0.41832683  1
  Br  Br16  1  0.92703681  0.83091025  0.58167317  1
