# generated using pymatgen
data_Na6TeP6(H3O5)6
_symmetry_space_group_name_H-M   'P 1'
_cell_length_a   11.87873744
_cell_length_b   11.87873744
_cell_length_c   12.13050545
_cell_angle_alpha   90.00000000
_cell_angle_beta   90.00000000
_cell_angle_gamma   120.00000295
_symmetry_Int_Tables_number   1
_chemical_formula_structural   Na6TeP6(H3O5)6
_chemical_formula_sum   'Na12 Te2 P12 H36 O60'
_cell_volume   1482.34769422
_cell_formula_units_Z   2
loop_
 _symmetry_equiv_pos_site_id
 _symmetry_equiv_pos_as_xyz
  1  'x, y, z'
loop_
 _atom_site_type_symbol
 _atom_site_label
 _atom_site_symmetry_multiplicity
 _atom_site_fract_x
 _atom_site_fract_y
 _atom_site_fract_z
 _atom_site_occupancy
  Na  Na0  1  0.71343204  0.84468885  0.75000000  1
  Na  Na1  1  0.28656796  0.15531115  0.25000000  1
  Na  Na2  1  0.13125681  0.28656796  0.75000000  1
  Na  Na3  1  0.86874319  0.71343204  0.25000000  1
  Na  Na4  1  0.15531115  0.86874319  0.75000000  1
  Na  Na5  1  0.84468885  0.13125681  0.25000000  1
  Na  Na6  1  0.42910771  0.55892094  0.75000000  1
  Na  Na7  1  0.57089229  0.44107906  0.25000000  1
  Na  Na8  1  0.12981324  0.57089229  0.75000000  1
  Na  Na9  1  0.87018676  0.42910771  0.25000000  1
  Na  Na10  1  0.44107906  0.87018676  0.75000000  1
  Na  Na11  1  0.55892094  0.12981324  0.25000000  1
  Te  Te12  1  0.00000000  -0.00000000  0.00000000  1
  Te  Te13  1  0.00000000  -0.00000000  0.50000000  1
  P  P14  1  0.49630875  0.74737890  0.99306312  1
  P  P15  1  0.50369125  0.25262110  0.00693688  1
  P  P16  1  0.25107016  0.50369125  0.99306312  1
  P  P17  1  0.50369125  0.25262110  0.49306312  1
  P  P18  1  0.74892984  0.49630875  0.00693688  1
  P  P19  1  0.49630875  0.74737890  0.50693688  1
  P  P20  1  0.25262110  0.74892984  0.99306312  1
  P  P21  1  0.74892984  0.49630875  0.49306312  1
  P  P22  1  0.74737890  0.25107016  0.00693688  1
  P  P23  1  0.25107016  0.50369125  0.50693688  1
  P  P24  1  0.74737890  0.25107016  0.49306312  1
  P  P25  1  0.25262110  0.74892984  0.50693688  1
  H  H26  1  0.92907267  0.14868735  0.92970323  1
  H  H27  1  0.07092733  0.85131265  0.07029677  1
  H  H28  1  0.21961469  0.07092733  0.92970323  1
  H  H29  1  0.07092733  0.85131265  0.42970323  1
  H  H30  1  0.78038531  0.92907267  0.07029677  1
  H  H31  1  0.92907267  0.14868735  0.57029677  1
  H  H32  1  0.85131265  0.78038531  0.92970323  1
  H  H33  1  0.78038531  0.92907267  0.42970323  1
  H  H34  1  0.14868735  0.21961469  0.07029677  1
  H  H35  1  0.21961469  0.07092733  0.57029677  1
  H  H36  1  0.14868735  0.21961469  0.42970323  1
  H  H37  1  0.85131265  0.78038531  0.57029677  1
  H  H38  1  0.71127988  0.08316884  0.81451509  1
  H  H39  1  0.28872012  0.91683116  0.18548491  1
  H  H40  1  0.37188896  0.28872012  0.81451509  1
  H  H41  1  0.28872012  0.91683116  0.31451509  1
  H  H42  1  0.62811104  0.71127988  0.18548491  1
  H  H43  1  0.71127988  0.08316884  0.68548491  1
  H  H44  1  0.91683116  0.62811104  0.81451509  1
  H  H45  1  0.62811104  0.71127988  0.31451509  1
  H  H46  1  0.08316884  0.37188896  0.18548491  1
  H  H47  1  0.37188896  0.28872012  0.68548491  1
  H  H48  1  0.08316884  0.37188896  0.31451509  1
  H  H49  1  0.91683116  0.62811104  0.68548491  1
  H  H50  1  0.90609564  0.30503922  0.81438572  1
  H  H51  1  0.09390436  0.69496078  0.18561428  1
  H  H52  1  0.39894359  0.09390436  0.81438572  1
  H  H53  1  0.09390436  0.69496078  0.31438572  1
  H  H54  1  0.60105641  0.90609564  0.18561428  1
  H  H55  1  0.90609564  0.30503922  0.68561428  1
  H  H56  1  0.69496078  0.60105641  0.81438572  1
  H  H57  1  0.60105641  0.90609564  0.31438572  1
  H  H58  1  0.30503922  0.39894359  0.18561428  1
  H  H59  1  0.39894359  0.09390436  0.68561428  1
  H  H60  1  0.30503922  0.39894359  0.31438572  1
  H  H61  1  0.69496078  0.60105641  0.68561428  1
  O  O62  1  0.80377385  0.19616329  0.92667897  1
  O  O63  1  0.19622615  0.80383671  0.07332103  1
  O  O64  1  0.39238944  0.19622615  0.92667897  1
  O  O65  1  0.19622615  0.80383671  0.42667897  1
  O  O66  1  0.60761056  0.80377385  0.07332103  1
  O  O67  1  0.80377385  0.19616329  0.57332103  1
  O  O68  1  0.80383671  0.60761056  0.92667897  1
  O  O69  1  0.60761056  0.80377385  0.42667897  1
  O  O70  1  0.19616329  0.39238944  0.07332103  1
  O  O71  1  0.39238944  0.19622615  0.57332103  1
  O  O72  1  0.19616329  0.39238944  0.42667897  1
  O  O73  1  0.80383671  0.60761056  0.57332103  1
  O  O74  1  0.67605378  0.02503006  0.75000000  1
  O  O75  1  0.32394622  0.97496994  0.25000000  1
  O  O76  1  0.34897628  0.32394622  0.75000000  1
  O  O77  1  0.65102372  0.67605378  0.25000000  1
  O  O78  1  0.97496994  0.65102372  0.75000000  1
  O  O79  1  0.02503006  0.34897628  0.25000000  1
  O  O80  1  0.80840399  0.40368673  0.97359790  1
  O  O81  1  0.19159601  0.59631327  0.02640210  1
  O  O82  1  0.59528274  0.19159601  0.97359790  1
  O  O83  1  0.19159601  0.59631327  0.47359790  1
  O  O84  1  0.40471726  0.80840399  0.02640210  1
  O  O85  1  0.80840399  0.40368673  0.52640210  1
  O  O86  1  0.59631327  0.40471726  0.97359790  1
  O  O87  1  0.40471726  0.80840399  0.47359790  1
  O  O88  1  0.40368673  0.59528274  0.02640210  1
  O  O89  1  0.59528274  0.19159601  0.52640210  1
  O  O90  1  0.40368673  0.59528274  0.47359790  1
  O  O91  1  0.59631327  0.40471726  0.52640210  1
  O  O92  1  0.00045634  0.13347319  0.90568232  1
  O  O93  1  0.99954366  0.86652681  0.09431768  1
  O  O94  1  0.13301685  0.99954366  0.90568232  1
  O  O95  1  0.99954366  0.86652681  0.40568232  1
  O  O96  1  0.86698315  0.00045634  0.09431768  1
  O  O97  1  0.00045634  0.13347319  0.59431768  1
  O  O98  1  0.86652681  0.86698315  0.90568232  1
  O  O99  1  0.86698315  0.00045634  0.40568232  1
  O  O100  1  0.13347319  0.13301685  0.09431768  1
  O  O101  1  0.13301685  0.99954366  0.59431768  1
  O  O102  1  0.13347319  0.13301685  0.40568232  1
  O  O103  1  0.86652681  0.86698315  0.59431768  1
  O  O104  1  0.96343925  0.34448136  0.75000000  1
  O  O105  1  0.03656075  0.65551864  0.25000000  1
  O  O106  1  0.38104211  0.03656075  0.75000000  1
  O  O107  1  0.61895789  0.96343925  0.25000000  1
  O  O108  1  0.65551864  0.61895789  0.75000000  1
  O  O109  1  0.34448136  0.38104211  0.25000000  1
  O  O110  1  0.52005503  0.75834645  0.87099495  1
  O  O111  1  0.47994497  0.24165355  0.12900505  1
  O  O112  1  0.23829142  0.47994497  0.87099495  1
  O  O113  1  0.47994497  0.24165355  0.37099495  1
  O  O114  1  0.76170858  0.52005503  0.12900505  1
  O  O115  1  0.52005503  0.75834645  0.62900505  1
  O  O116  1  0.24165355  0.76170858  0.87099495  1
  O  O117  1  0.76170858  0.52005503  0.37099495  1
  O  O118  1  0.75834645  0.23829142  0.12900505  1
  O  O119  1  0.23829142  0.47994497  0.62900505  1
  O  O120  1  0.75834645  0.23829142  0.37099495  1
  O  O121  1  0.24165355  0.76170858  0.62900505  1
