# generated using pymatgen
data_Na2GeH14S3O7
_symmetry_space_group_name_H-M   'P 1'
_cell_length_a   7.19029915
_cell_length_b   9.55943703
_cell_length_c   10.17383416
_cell_angle_alpha   92.41835854
_cell_angle_beta   92.84728371
_cell_angle_gamma   107.40349533
_symmetry_Int_Tables_number   1
_chemical_formula_structural   Na2GeH14S3O7
_chemical_formula_sum   'Na4 Ge2 H28 S6 O14'
_cell_volume   665.26905893
_cell_formula_units_Z   2
loop_
 _symmetry_equiv_pos_site_id
 _symmetry_equiv_pos_as_xyz
  1  'x, y, z'
loop_
 _atom_site_type_symbol
 _atom_site_label
 _atom_site_symmetry_multiplicity
 _atom_site_fract_x
 _atom_site_fract_y
 _atom_site_fract_z
 _atom_site_occupancy
  Na  Na0  1  0.19548962  0.14243957  0.55309090  1
  Na  Na1  1  0.80451038  0.85756043  0.44690910  1
  Na  Na2  1  0.40609340  0.02973854  0.84486375  1
  Na  Na3  1  0.59390660  0.97026146  0.15513625  1
  Ge  Ge4  1  0.06782971  0.41440439  0.11327734  1
  Ge  Ge5  1  0.93217029  0.58559561  0.88672266  1
  H  H6  1  0.05834644  0.07519331  0.28171896  1
  H  H7  1  0.94165356  0.92480669  0.71828104  1
  H  H8  1  0.23667702  0.74641198  0.22838507  1
  H  H9  1  0.76332298  0.25358802  0.77161493  1
  H  H10  1  0.07138637  0.66150247  0.43119015  1
  H  H11  1  0.92861363  0.33849753  0.56880985  1
  H  H12  1  0.45863372  0.32260142  0.75427926  1
  H  H13  1  0.54136628  0.67739858  0.24572074  1
  H  H14  1  0.56831933  0.35652147  0.49994847  1
  H  H15  1  0.43168067  0.64347853  0.50005153  1
  H  H16  1  0.32970238  0.16418900  0.08022253  1
  H  H17  1  0.67029762  0.83581100  0.91977747  1
  H  H18  1  0.44262462  0.33843558  0.36817716  1
  H  H19  1  0.55737538  0.66156442  0.63182284  1
  H  H20  1  0.55386610  0.09876054  0.39586051  1
  H  H21  1  0.44613390  0.90123946  0.60413949  1
  H  H22  1  0.03700503  0.35948117  0.43707962  1
  H  H23  1  0.96299497  0.64051883  0.56292038  1
  H  H24  1  0.25911960  0.30189705  0.81483859  1
  H  H25  1  0.74088040  0.69810295  0.18516141  1
  H  H26  1  0.77644541  0.13992019  0.41076523  1
  H  H27  1  0.22355459  0.86007981  0.58923477  1
  H  H28  1  0.55200658  0.24424172  0.06228877  1
  H  H29  1  0.44799342  0.75575828  0.93771123  1
  H  H30  1  0.14587963  0.94772531  0.30534295  1
  H  H31  1  0.85412037  0.05227469  0.69465705  1
  H  H32  1  0.16891414  0.83408125  0.11731326  1
  H  H33  1  0.83108586  0.16591875  0.88268674  1
  S  S34  1  0.78842626  0.47930950  0.07128607  1
  S  S35  1  0.21157374  0.52069050  0.92871393  1
  S  S36  1  0.01205042  0.17821027  0.08849955  1
  S  S37  1  0.98794958  0.82178973  0.91150045  1
  S  S38  1  0.22650540  0.52672884  0.29882733  1
  S  S39  1  0.77349460  0.47327116  0.70117267  1
  O  O40  1  0.47091799  0.28371716  0.44163388  1
  O  O41  1  0.52908201  0.71628284  0.55836612  1
  O  O42  1  0.25141573  0.84752255  0.20075449  1
  O  O43  1  0.74858427  0.15247745  0.79924551  1
  O  O44  1  0.45598198  0.14642403  0.06378234  1
  O  O45  1  0.54401802  0.85357597  0.93621766  1
  O  O46  1  0.66009328  0.05818270  0.37722115  1
  O  O47  1  0.33990672  0.94181730  0.62277885  1
  O  O48  1  0.02700881  0.71576499  0.50216678  1
  O  O49  1  0.97299119  0.28423501  0.49783322  1
  O  O50  1  0.08094144  0.01241515  0.35174044  1
  O  O51  1  0.91905856  0.98758485  0.64825956  1
  O  O52  1  0.33096175  0.24874448  0.76260608  1
  O  O53  1  0.66903825  0.75125552  0.23739392  1
