# generated using pymatgen
data_KGd(MoO4)2
_symmetry_space_group_name_H-M   'P 1'
_cell_length_a   7.55595142
_cell_length_b   7.55595142
_cell_length_c   7.89847075
_cell_angle_alpha   116.16784442
_cell_angle_beta   119.09140402
_cell_angle_gamma   91.76282422
_symmetry_Int_Tables_number   1
_chemical_formula_structural   KGd(MoO4)2
_chemical_formula_sum   'K2 Gd2 Mo4 O16'
_cell_volume   335.93994288
_cell_formula_units_Z   2
loop_
 _symmetry_equiv_pos_site_id
 _symmetry_equiv_pos_as_xyz
  1  'x, y, z'
loop_
 _atom_site_type_symbol
 _atom_site_label
 _atom_site_symmetry_multiplicity
 _atom_site_fract_x
 _atom_site_fract_y
 _atom_site_fract_z
 _atom_site_occupancy
  K  K0  1  0.45019647  0.20019647  0.25000000  1
  K  K1  1  0.54980353  0.79980353  0.75000000  1
  Gd  Gd2  1  0.02062153  0.77062153  0.25000000  1
  Gd  Gd3  1  0.97937847  0.22937847  0.75000000  1
  Mo  Mo4  1  0.95500617  0.30281096  0.26075262  1
  Mo  Mo5  1  0.04499383  0.69718904  0.73924738  1
  Mo  Mo6  1  0.54205835  0.69425355  0.23924738  1
  Mo  Mo7  1  0.45794165  0.30574645  0.76075262  1
  O  O8  1  0.67559173  0.23224985  0.06188532  1
  O  O9  1  0.32440827  0.76775015  0.93811468  1
  O  O10  1  0.67036453  0.61370641  0.43811468  1
  O  O11  1  0.32963547  0.38629359  0.56188532  1
  O  O12  1  0.75663905  0.93077638  0.37322570  1
  O  O13  1  0.24336095  0.06922362  0.62677430  1
  O  O14  1  0.05755067  0.38341335  0.12677430  1
  O  O15  1  0.94244933  0.61658665  0.87322570  1
  O  O16  1  0.05613534  0.63208765  0.47196375  1
  O  O17  1  0.94386466  0.36791235  0.52803625  1
  O  O18  1  0.66012389  0.58417158  0.02803625  1
  O  O19  1  0.33987611  0.41582842  0.97196375  1
  O  O20  1  0.98437462  0.04866153  0.19065043  1
  O  O21  1  0.01562538  0.95133847  0.80934957  1
  O  O22  1  0.35801109  0.79372419  0.30934957  1
  O  O23  1  0.64198891  0.20627581  0.69065043  1
