# generated using pymatgen
data_Na2CoNiF7
_symmetry_space_group_name_H-M   'P 1'
_cell_length_a   7.36546367
_cell_length_b   7.35737757
_cell_length_c   7.35737757
_cell_angle_alpha   60.15514203
_cell_angle_beta   59.96363303
_cell_angle_gamma   59.96363303
_symmetry_Int_Tables_number   1
_chemical_formula_structural   Na2CoNiF7
_chemical_formula_sum   'Na4 Co2 Ni2 F14'
_cell_volume   282.09688659
_cell_formula_units_Z   2
loop_
 _symmetry_equiv_pos_site_id
 _symmetry_equiv_pos_as_xyz
  1  'x, y, z'
loop_
 _atom_site_type_symbol
 _atom_site_label
 _atom_site_symmetry_multiplicity
 _atom_site_fract_x
 _atom_site_fract_y
 _atom_site_fract_z
 _atom_site_occupancy
  Na  Na0  1  0.24832770  0.61469809  0.88864650  1
  Na  Na1  1  0.75167230  0.11135350  0.38530191  1
  Na  Na2  1  0.25024134  0.61218494  0.38781506  1
  Na  Na3  1  0.74975866  0.61218494  0.38781506  1
  Co  Co4  1  0.25010119  0.11252742  0.88747258  1
  Co  Co5  1  0.74989881  0.11252742  0.88747258  1
  Ni  Ni6  1  0.25040491  0.11162151  0.38756866  1
  Ni  Ni7  1  0.74959509  0.61243134  0.88837849  1
  F  F8  1  0.34925932  0.78051530  0.52096605  1
  F  F9  1  0.65074068  0.47903395  0.21948470  1
  F  F10  1  0.57986011  0.06560441  0.19498583  1
  F  F11  1  0.42013989  0.80501417  0.93439559  1
  F  F12  1  0.84045034  0.80501417  0.93439559  1
  F  F13  1  0.15954966  0.06560441  0.19498583  1
  F  F14  1  0.34143069  0.15817618  0.57980131  1
  F  F15  1  0.65856931  0.42019869  0.84182382  1
  F  F16  1  0.07940817  0.42019869  0.84182382  1
  F  F17  1  0.92059183  0.15817618  0.57980131  1
  F  F18  1  -0.00000000  0.02257020  0.97742980  1
  F  F19  1  0.15088974  0.44266647  0.25555405  1
  F  F20  1  0.84911026  0.74444595  0.55733353  1
  F  F21  1  0.50000000  0.20275205  0.79724795  1
