# generated using pymatgen
data_KDy(MoO4)2
_symmetry_space_group_name_H-M   'P 1'
_cell_length_a   5.31937616
_cell_length_b   6.98189764
_cell_length_c   10.77215836
_cell_angle_alpha   94.37055003
_cell_angle_beta   103.24555586
_cell_angle_gamma   112.04214996
_symmetry_Int_Tables_number   1
_chemical_formula_structural   KDy(MoO4)2
_chemical_formula_sum   'K2 Dy2 Mo4 O16'
_cell_volume   355.08336549
_cell_formula_units_Z   2
loop_
 _symmetry_equiv_pos_site_id
 _symmetry_equiv_pos_as_xyz
  1  'x, y, z'
loop_
 _atom_site_type_symbol
 _atom_site_label
 _atom_site_symmetry_multiplicity
 _atom_site_fract_x
 _atom_site_fract_y
 _atom_site_fract_z
 _atom_site_occupancy
  K  K0  1  0.18486896  0.30501025  0.05170182  1
  K  K1  1  0.81513104  0.69498975  0.94829818  1
  Dy  Dy2  1  0.69501154  0.81618875  0.56253491  1
  Dy  Dy3  1  0.30498846  0.18381125  0.43746509  1
  Mo  Mo4  1  0.57478519  0.94038434  0.21840358  1
  Mo  Mo5  1  0.42521481  0.05961566  0.78159642  1
  Mo  Mo6  1  0.96064833  0.57087329  0.33147201  1
  Mo  Mo7  1  0.03935167  0.42912671  0.66852799  1
  O  O8  1  0.82894585  0.94495002  0.37436075  1
  O  O9  1  0.17105415  0.05504998  0.62563925  1
  O  O10  1  0.28659998  0.48525156  0.56713521  1
  O  O11  1  0.71340002  0.51474844  0.43286479  1
  O  O12  1  0.74755071  0.00136485  0.09695801  1
  O  O13  1  0.25244929  0.99863515  0.90304199  1
  O  O14  1  0.58140024  0.87462618  0.74919856  1
  O  O15  1  0.41859976  0.12537382  0.25080144  1
  O  O16  1  0.06388838  0.35659363  0.30732731  1
  O  O17  1  0.93611162  0.64340637  0.69267269  1
  O  O18  1  0.29021230  0.69513860  0.15232636  1
  O  O19  1  0.70978770  0.30486140  0.84767364  1
  O  O20  1  0.27917454  0.81383983  0.41689127  1
  O  O21  1  0.72082546  0.18616017  0.58310873  1
  O  O22  1  0.76638334  0.58773523  0.18133329  1
  O  O23  1  0.23361666  0.41226477  0.81866671  1
