# generated using pymatgen
data_Ho2MgTiO6
_symmetry_space_group_name_H-M   'P 1'
_cell_length_a   5.31865685
_cell_length_b   5.63116553
_cell_length_c   7.71234700
_cell_angle_alpha   90.00000000
_cell_angle_beta   89.41484501
_cell_angle_gamma   90.00000000
_symmetry_Int_Tables_number   1
_chemical_formula_structural   Ho2MgTiO6
_chemical_formula_sum   'Ho4 Mg2 Ti2 O12'
_cell_volume   230.97457522
_cell_formula_units_Z   2
loop_
 _symmetry_equiv_pos_site_id
 _symmetry_equiv_pos_as_xyz
  1  'x, y, z'
loop_
 _atom_site_type_symbol
 _atom_site_label
 _atom_site_symmetry_multiplicity
 _atom_site_fract_x
 _atom_site_fract_y
 _atom_site_fract_z
 _atom_site_occupancy
  Ho  Ho0  1  0.01896061  0.43479496  0.25467076  1
  Ho  Ho1  1  0.98103939  0.56520504  0.74532924  1
  Ho  Ho2  1  0.48103939  0.93479496  0.24532924  1
  Ho  Ho3  1  0.51896061  0.06520504  0.75467076  1
  Mg  Mg4  1  0.00000000  -0.00000000  0.50000000  1
  Mg  Mg5  1  0.50000000  0.50000000  0.00000000  1
  Ti  Ti6  1  0.00000000  -0.00000000  0.00000000  1
  Ti  Ti7  1  0.50000000  0.50000000  0.50000000  1
  O  O8  1  0.88185201  0.04925509  0.24228141  1
  O  O9  1  0.11814799  0.95074491  0.75771859  1
  O  O10  1  0.61814799  0.54925509  0.25771859  1
  O  O11  1  0.38185201  0.45074491  0.74228141  1
  O  O12  1  0.18564158  0.70559312  0.06670317  1
  O  O13  1  0.81435842  0.29440688  0.93329683  1
  O  O14  1  0.31435842  0.20559312  0.43329683  1
  O  O15  1  0.68564158  0.79440688  0.56670317  1
  O  O16  1  0.30105731  0.18808230  0.05410236  1
  O  O17  1  0.69894269  0.81191770  0.94589764  1
  O  O18  1  0.19894269  0.68808230  0.44589764  1
  O  O19  1  0.80105731  0.31191770  0.55410236  1
