# generated using pymatgen
data_Ho3Co6Sn5
_symmetry_space_group_name_H-M   'P 1'
_cell_length_a   4.31946404
_cell_length_b   8.08400687
_cell_length_c   8.08400687
_cell_angle_alpha   72.65796859
_cell_angle_beta   74.50459934
_cell_angle_gamma   74.50459934
_symmetry_Int_Tables_number   1
_chemical_formula_structural   Ho3Co6Sn5
_chemical_formula_sum   'Ho3 Co6 Sn5'
_cell_volume   254.20297207
_cell_formula_units_Z   1
loop_
 _symmetry_equiv_pos_site_id
 _symmetry_equiv_pos_as_xyz
  1  'x, y, z'
loop_
 _atom_site_type_symbol
 _atom_site_label
 _atom_site_symmetry_multiplicity
 _atom_site_fract_x
 _atom_site_fract_y
 _atom_site_fract_z
 _atom_site_occupancy
  Ho  Ho0  1  -0.00000000  0.00000000  0.00000000  1
  Ho  Ho1  1  0.68223070  0.31776930  0.31776930  1
  Ho  Ho2  1  0.31776930  0.68223070  0.68223070  1
  Co  Co3  1  0.50000000  0.30479512  0.69520488  1
  Co  Co4  1  0.50000000  0.69520488  0.30479512  1
  Co  Co5  1  0.89227500  0.83433698  0.38111302  1
  Co  Co6  1  0.10772500  0.16566302  0.61888698  1
  Co  Co7  1  0.89227500  0.38111302  0.83433698  1
  Co  Co8  1  0.10772500  0.61888698  0.16566302  1
  Sn  Sn9  1  0.67667048  0.98233485  0.66432419  1
  Sn  Sn10  1  0.32332952  0.01766515  0.33567581  1
  Sn  Sn11  1  0.67667048  0.66432419  0.98233485  1
  Sn  Sn12  1  0.32332952  0.33567581  0.01766515  1
  Sn  Sn13  1  -0.00000000  0.50000000  0.50000000  1
