# generated using pymatgen
data_Cu2Pd3Se4
_symmetry_space_group_name_H-M   'P 1'
_cell_length_a   5.72182919
_cell_length_b   6.30158291
_cell_length_c   9.99319860
_cell_angle_alpha   90.00000000
_cell_angle_beta   90.00000000
_cell_angle_gamma   115.48370694
_symmetry_Int_Tables_number   1
_chemical_formula_structural   Cu2Pd3Se4
_chemical_formula_sum   'Cu4 Pd6 Se8'
_cell_volume   325.26414743
_cell_formula_units_Z   2
loop_
 _symmetry_equiv_pos_site_id
 _symmetry_equiv_pos_as_xyz
  1  'x, y, z'
loop_
 _atom_site_type_symbol
 _atom_site_label
 _atom_site_symmetry_multiplicity
 _atom_site_fract_x
 _atom_site_fract_y
 _atom_site_fract_z
 _atom_site_occupancy
  Cu  Cu0  1  0.38233867  0.51642283  0.69292509  1
  Cu  Cu1  1  0.61766133  0.48357717  0.30707491  1
  Cu  Cu2  1  0.61766133  0.98357717  0.19292509  1
  Cu  Cu3  1  0.38233867  0.01642283  0.80707491  1
  Pd  Pd4  1  0.73971085  0.99905051  0.62843135  1
  Pd  Pd5  1  0.26028915  0.00094949  0.37156865  1
  Pd  Pd6  1  0.26028915  0.50094949  0.12843135  1
  Pd  Pd7  1  0.73971085  0.49905051  0.87156865  1
  Pd  Pd8  1  -0.00000000  0.00000000  0.00000000  1
  Pd  Pd9  1  -0.00000000  0.50000000  0.50000000  1
  Se  Se10  1  0.98665613  0.76561119  0.68714236  1
  Se  Se11  1  0.01334387  0.23438881  0.31285764  1
  Se  Se12  1  0.01334387  0.73438881  0.18714236  1
  Se  Se13  1  0.98665613  0.26561119  0.81285764  1
  Se  Se14  1  0.52975042  0.76015254  0.94484002  1
  Se  Se15  1  0.47024958  0.23984746  0.05515998  1
  Se  Se16  1  0.47024958  0.73984746  0.44484002  1
  Se  Se17  1  0.52975042  0.26015254  0.55515998  1
