# generated using pymatgen
data_LaNb8O14
_symmetry_space_group_name_H-M   'P 1'
_cell_length_a   6.04589712
_cell_length_b   9.28774200
_cell_length_c   10.41132404
_cell_angle_alpha   90.00000000
_cell_angle_beta   90.00000000
_cell_angle_gamma   90.00000000
_symmetry_Int_Tables_number   1
_chemical_formula_structural   LaNb8O14
_chemical_formula_sum   'La2 Nb16 O28'
_cell_volume   584.62429492
_cell_formula_units_Z   2
loop_
 _symmetry_equiv_pos_site_id
 _symmetry_equiv_pos_as_xyz
  1  'x, y, z'
loop_
 _atom_site_type_symbol
 _atom_site_label
 _atom_site_symmetry_multiplicity
 _atom_site_fract_x
 _atom_site_fract_y
 _atom_site_fract_z
 _atom_site_occupancy
  La  La0  1  0.50000000  0.00000000  0.00000000  1
  La  La1  1  0.50000000  0.50000000  0.50000000  1
  Nb  Nb2  1  0.26905224  0.12575603  0.42320515  1
  Nb  Nb3  1  0.73094776  0.87424397  0.57679485  1
  Nb  Nb4  1  0.26905224  0.87424397  0.57679485  1
  Nb  Nb5  1  0.73094776  0.37424397  0.92320515  1
  Nb  Nb6  1  0.73094776  0.12575603  0.42320515  1
  Nb  Nb7  1  0.26905224  0.62575603  0.07679485  1
  Nb  Nb8  1  0.73094776  0.62575603  0.07679485  1
  Nb  Nb9  1  0.26905224  0.37424397  0.92320515  1
  Nb  Nb10  1  0.50000000  0.38028901  0.16411606  1
  Nb  Nb11  1  0.50000000  0.61971099  0.83588394  1
  Nb  Nb12  1  0.50000000  0.11971099  0.66411606  1
  Nb  Nb13  1  0.50000000  0.88028901  0.33588394  1
  Nb  Nb14  1  0.00000000  0.11502575  0.16469635  1
  Nb  Nb15  1  0.00000000  0.88497425  0.83530365  1
  Nb  Nb16  1  0.00000000  0.38497425  0.66469635  1
  Nb  Nb17  1  0.00000000  0.61502575  0.33530365  1
  O  O18  1  0.00000000  0.23498198  0.32071617  1
  O  O19  1  0.00000000  0.76501802  0.67928383  1
  O  O20  1  0.00000000  0.26501802  0.82071617  1
  O  O21  1  0.00000000  0.73498198  0.17928383  1
  O  O22  1  0.26054370  0.23394794  0.08307890  1
  O  O23  1  0.73945630  0.76605206  0.91692110  1
  O  O24  1  0.26054370  0.76605206  0.91692110  1
  O  O25  1  0.73945630  0.26605206  0.58307890  1
  O  O26  1  0.73945630  0.23394794  0.08307890  1
  O  O27  1  0.26054370  0.73394794  0.41692110  1
  O  O28  1  0.73945630  0.73394794  0.41692110  1
  O  O29  1  0.26054370  0.26605206  0.58307890  1
  O  O30  1  0.00000000  0.00000000  0.50000000  1
  O  O31  1  0.00000000  0.50000000  -0.00000000  1
  O  O32  1  0.50000000  0.27153130  0.35343450  1
  O  O33  1  0.50000000  0.72846870  0.64656550  1
  O  O34  1  0.50000000  0.22846870  0.85343450  1
  O  O35  1  0.50000000  0.77153130  0.14656550  1
  O  O36  1  0.25654568  0.00411616  0.24577980  1
  O  O37  1  0.74345432  0.99588384  0.75422020  1
  O  O38  1  0.25654568  0.99588384  0.75422020  1
  O  O39  1  0.74345432  0.49588384  0.74577980  1
  O  O40  1  0.74345432  0.00411616  0.24577980  1
  O  O41  1  0.25654568  0.50411616  0.25422020  1
  O  O42  1  0.74345432  0.50411616  0.25422020  1
  O  O43  1  0.25654568  0.49588384  0.74577980  1
  O  O44  1  0.00000000  0.00000000  -0.00000000  1
  O  O45  1  0.00000000  0.50000000  0.50000000  1
