# generated using pymatgen
data_Li4Nb3Fe3(NiO8)2
_symmetry_space_group_name_H-M   'P 1'
_cell_length_a   6.10045675
_cell_length_b   6.10427506
_cell_length_c   9.81582876
_cell_angle_alpha   90.00520289
_cell_angle_beta   89.69036972
_cell_angle_gamma   120.02500982
_symmetry_Int_Tables_number   1
_chemical_formula_structural   Li4Nb3Fe3(NiO8)2
_chemical_formula_sum   'Li4 Nb3 Fe3 Ni2 O16'
_cell_volume   316.47268262
_cell_formula_units_Z   1
loop_
 _symmetry_equiv_pos_site_id
 _symmetry_equiv_pos_as_xyz
  1  'x, y, z'
loop_
 _atom_site_type_symbol
 _atom_site_label
 _atom_site_symmetry_multiplicity
 _atom_site_fract_x
 _atom_site_fract_y
 _atom_site_fract_z
 _atom_site_occupancy
  Li  Li0  1  0.33741232  0.66872078  0.90035589  1
  Li  Li1  1  0.01292810  0.00648091  0.00641019  1
  Li  Li2  1  0.02448313  0.01223148  0.49117874  1
  Li  Li3  1  0.67273912  0.33640628  0.37508096  1
  Nb  Nb4  1  0.65860569  0.82931540  0.21454533  1
  Nb  Nb5  1  0.82847685  0.66137335  0.71396827  1
  Nb  Nb6  1  0.82839989  0.16705994  0.71390484  1
  Fe  Fe7  1  0.16821956  0.82979322  0.21572416  1
  Fe  Fe8  1  0.16820598  0.33845155  0.21573157  1
  Fe  Fe9  1  0.33451126  0.16728444  0.71702986  1
  Ni  Ni10  1  0.31942761  0.65967793  0.47544721  1
  Ni  Ni11  1  0.65231705  0.32612722  0.01187933  1
  O  O12  1  0.15338920  0.83988475  0.60737342  1
  O  O13  1  0.03721789  0.51863466  0.33398559  1
  O  O14  1  0.34016639  0.67006834  0.10020918  1
  O  O15  1  0.99413786  0.99709429  0.31248481  1
  O  O16  1  0.99164208  0.99587567  0.82032937  1
  O  O17  1  0.15340489  0.31356910  0.60738828  1
  O  O18  1  0.48760211  0.96450121  0.33836051  1
  O  O19  1  0.48756658  0.52311510  0.33836330  1
  O  O20  1  0.31608926  0.15803039  0.10608702  1
  O  O21  1  0.68508098  0.84253122  0.60375044  1
  O  O22  1  0.52091094  0.48551585  0.82891244  1
  O  O23  1  0.52092506  0.03544423  0.82891924  1
  O  O24  1  0.67775021  0.33886702  0.59981367  1
  O  O25  1  0.82856575  0.67579121  0.10170652  1
  O  O26  1  0.97122754  0.48567349  0.82718948  1
  O  O27  1  0.82859770  0.15277897  0.10170838  1
