# generated using pymatgen
data_Er2MgTiO6
_symmetry_space_group_name_H-M   'P 1'
_cell_length_a   5.30308513
_cell_length_b   5.61004154
_cell_length_c   7.69535050
_cell_angle_alpha   90.00000000
_cell_angle_beta   89.46893290
_cell_angle_gamma   90.00000000
_symmetry_Int_Tables_number   1
_chemical_formula_structural   Er2MgTiO6
_chemical_formula_sum   'Er4 Mg2 Ti2 O12'
_cell_volume   228.93090527
_cell_formula_units_Z   2
loop_
 _symmetry_equiv_pos_site_id
 _symmetry_equiv_pos_as_xyz
  1  'x, y, z'
loop_
 _atom_site_type_symbol
 _atom_site_label
 _atom_site_symmetry_multiplicity
 _atom_site_fract_x
 _atom_site_fract_y
 _atom_site_fract_z
 _atom_site_occupancy
  Er  Er0  1  0.01804429  0.43592522  0.25482150  1
  Er  Er1  1  0.98195571  0.56407478  0.74517850  1
  Er  Er2  1  0.48195571  0.93592522  0.24517850  1
  Er  Er3  1  0.51804429  0.06407478  0.75482150  1
  Mg  Mg4  1  -0.00000000  0.00000000  0.50000000  1
  Mg  Mg5  1  0.50000000  0.50000000  0.00000000  1
  Ti  Ti6  1  -0.00000000  0.00000000  0.00000000  1
  Ti  Ti7  1  0.50000000  0.50000000  0.50000000  1
  O  O8  1  0.87974546  0.05241780  0.24210972  1
  O  O9  1  0.12025454  0.94758220  0.75789028  1
  O  O10  1  0.62025454  0.55241780  0.25789028  1
  O  O11  1  0.37974546  0.44758220  0.74210972  1
  O  O12  1  0.18369259  0.70466901  0.06880873  1
  O  O13  1  0.81630741  0.29533099  0.93119127  1
  O  O14  1  0.31630741  0.20466901  0.43119127  1
  O  O15  1  0.68369259  0.79533099  0.56880873  1
  O  O16  1  0.30246299  0.18700413  0.05464190  1
  O  O17  1  0.69753701  0.81299587  0.94535810  1
  O  O18  1  0.19753701  0.68700413  0.44535810  1
  O  O19  1  0.80246299  0.31299587  0.55464190  1
