# generated using pymatgen
data_Ho2Mg3Ge4
_symmetry_space_group_name_H-M   'P 1'
_cell_length_a   6.98748703
_cell_length_b   7.64074979
_cell_length_c   14.28211858
_cell_angle_alpha   90.00000000
_cell_angle_beta   90.00000000
_cell_angle_gamma   90.00000000
_symmetry_Int_Tables_number   1
_chemical_formula_structural   Ho2Mg3Ge4
_chemical_formula_sum   'Ho8 Mg12 Ge16'
_cell_volume   762.51717024
_cell_formula_units_Z   4
loop_
 _symmetry_equiv_pos_site_id
 _symmetry_equiv_pos_as_xyz
  1  'x, y, z'
loop_
 _atom_site_type_symbol
 _atom_site_label
 _atom_site_symmetry_multiplicity
 _atom_site_fract_x
 _atom_site_fract_y
 _atom_site_fract_z
 _atom_site_occupancy
  Ho  Ho0  1  0.99572550  0.81594396  0.40538987  1
  Ho  Ho1  1  0.00427450  0.18405604  0.59461013  1
  Ho  Ho2  1  0.50427450  0.31594396  0.59461013  1
  Ho  Ho3  1  0.00427450  0.18405604  0.90538987  1
  Ho  Ho4  1  0.49572550  0.68405604  0.40538987  1
  Ho  Ho5  1  0.99572550  0.81594396  0.09461013  1
  Ho  Ho6  1  0.49572550  0.68405604  0.09461013  1
  Ho  Ho7  1  0.50427450  0.31594396  0.90538987  1
  Mg  Mg8  1  0.84143602  0.49377578  0.75000000  1
  Mg  Mg9  1  0.15856398  0.50622422  0.25000000  1
  Mg  Mg10  1  0.65856398  0.99377578  0.25000000  1
  Mg  Mg11  1  0.34143602  0.00622422  0.75000000  1
  Mg  Mg12  1  0.67134261  0.82489672  0.87663349  1
  Mg  Mg13  1  0.32865739  0.17510328  0.12336651  1
  Mg  Mg14  1  0.82865739  0.32489672  0.12336651  1
  Mg  Mg15  1  0.32865739  0.17510328  0.37663349  1
  Mg  Mg16  1  0.17134261  0.67510328  0.87663349  1
  Mg  Mg17  1  0.67134261  0.82489672  0.62336651  1
  Mg  Mg18  1  0.17134261  0.67510328  0.62336651  1
  Mg  Mg19  1  0.82865739  0.32489672  0.37663349  1
  Ge  Ge20  1  0.71250089  0.13679431  0.75000000  1
  Ge  Ge21  1  0.28749911  0.86320569  0.25000000  1
  Ge  Ge22  1  0.78749911  0.63679431  0.25000000  1
  Ge  Ge23  1  0.21250089  0.36320569  0.75000000  1
  Ge  Ge24  1  0.96999391  0.89319812  0.75000000  1
  Ge  Ge25  1  0.03000609  0.10680188  0.25000000  1
  Ge  Ge26  1  0.53000609  0.39319812  0.25000000  1
  Ge  Ge27  1  0.46999391  0.60680188  0.75000000  1
  Ge  Ge28  1  0.83035938  0.53578566  0.96266870  1
  Ge  Ge29  1  0.16964062  0.46421434  0.03733130  1
  Ge  Ge30  1  0.66964062  0.03578566  0.03733130  1
  Ge  Ge31  1  0.16964062  0.46421434  0.46266870  1
  Ge  Ge32  1  0.33035938  0.96421434  0.96266870  1
  Ge  Ge33  1  0.83035938  0.53578566  0.53733130  1
  Ge  Ge34  1  0.33035938  0.96421434  0.53733130  1
  Ge  Ge35  1  0.66964062  0.03578566  0.46266870  1
