# generated using pymatgen
data_Ho3(Co2Sn)4
_symmetry_space_group_name_H-M   'P 1'
_cell_length_a   7.56829984
_cell_length_b   8.80951283
_cell_length_c   8.80951283
_cell_angle_alpha   120.00000113
_cell_angle_beta   90.00000000
_cell_angle_gamma   90.00000000
_symmetry_Int_Tables_number   1
_chemical_formula_structural   Ho3(Co2Sn)4
_chemical_formula_sum   'Ho6 Co16 Sn8'
_cell_volume   508.66603686
_cell_formula_units_Z   2
loop_
 _symmetry_equiv_pos_site_id
 _symmetry_equiv_pos_as_xyz
  1  'x, y, z'
loop_
 _atom_site_type_symbol
 _atom_site_label
 _atom_site_symmetry_multiplicity
 _atom_site_fract_x
 _atom_site_fract_y
 _atom_site_fract_z
 _atom_site_occupancy
  Ho  Ho0  1  0.78488406  0.47528676  0.95057351  1
  Ho  Ho1  1  0.78488406  0.47528676  0.52471324  1
  Ho  Ho2  1  0.28488406  0.52471324  0.04942649  1
  Ho  Ho3  1  0.78488406  0.04942649  0.52471324  1
  Ho  Ho4  1  0.28488406  0.52471324  0.47528676  1
  Ho  Ho5  1  0.28488406  0.95057351  0.47528676  1
  Co  Co6  1  0.62842889  0.66666700  0.33333300  1
  Co  Co7  1  0.12842889  0.33333300  0.66666700  1
  Co  Co8  1  0.75496233  0.09900678  0.19801356  1
  Co  Co9  1  0.75496233  0.09900678  0.90099322  1
  Co  Co10  1  0.25496233  0.90099322  0.80198644  1
  Co  Co11  1  0.75496233  0.80198644  0.90099322  1
  Co  Co12  1  0.25496233  0.90099322  0.09900678  1
  Co  Co13  1  0.25496233  0.19801356  0.09900678  1
  Co  Co14  1  0.94130406  0.83960283  0.67920566  1
  Co  Co15  1  0.94130406  0.83960283  0.16039717  1
  Co  Co16  1  0.44130406  0.16039717  0.32079434  1
  Co  Co17  1  0.94130406  0.32079434  0.16039717  1
  Co  Co18  1  0.44130406  0.16039717  0.83960283  1
  Co  Co19  1  0.44130406  0.67920566  0.83960283  1
  Co  Co20  1  0.99657208  0.00000000  0.00000000  1
  Co  Co21  1  0.49657208  0.00000000  0.00000000  1
  Sn  Sn22  1  0.97868560  0.66666700  0.33333300  1
  Sn  Sn23  1  0.47868560  0.33333300  0.66666700  1
  Sn  Sn24  1  0.57265403  0.82905296  0.65810593  1
  Sn  Sn25  1  0.57265403  0.82905296  0.17094704  1
  Sn  Sn26  1  0.07265403  0.17094704  0.34189407  1
  Sn  Sn27  1  0.57265403  0.34189407  0.17094704  1
  Sn  Sn28  1  0.07265403  0.17094704  0.82905296  1
  Sn  Sn29  1  0.07265403  0.65810593  0.82905296  1
