# generated using pymatgen
data_KH2CN5
_symmetry_space_group_name_H-M   'P 1'
_cell_length_a   7.01158155
_cell_length_b   7.47071956
_cell_length_c   9.94997309
_cell_angle_alpha   90.00000000
_cell_angle_beta   90.00000000
_cell_angle_gamma   119.37115057
_symmetry_Int_Tables_number   1
_chemical_formula_structural   KH2CN5
_chemical_formula_sum   'K4 H8 C4 N20'
_cell_volume   454.20114598
_cell_formula_units_Z   4
loop_
 _symmetry_equiv_pos_site_id
 _symmetry_equiv_pos_as_xyz
  1  'x, y, z'
loop_
 _atom_site_type_symbol
 _atom_site_label
 _atom_site_symmetry_multiplicity
 _atom_site_fract_x
 _atom_site_fract_y
 _atom_site_fract_z
 _atom_site_occupancy
  K  K0  1  0.01038788  0.22374076  0.62146362  1
  K  K1  1  0.98961212  0.77625924  0.37853638  1
  K  K2  1  0.48961212  0.77625924  0.12146362  1
  K  K3  1  0.51038788  0.22374076  0.87853638  1
  H  H4  1  0.12420834  0.35833612  0.29289894  1
  H  H5  1  0.87579166  0.64166388  0.70710106  1
  H  H6  1  0.37579166  0.64166388  0.79289894  1
  H  H7  1  0.62420834  0.35833612  0.20710106  1
  H  H8  1  0.35681671  0.18781013  0.21818331  1
  H  H9  1  0.64318329  0.81218987  0.78181669  1
  H  H10  1  0.14318329  0.81218987  0.71818331  1
  H  H11  1  0.85681671  0.18781013  0.28181669  1
  C  C12  1  0.01893886  0.25031789  0.10515882  1
  C  C13  1  0.98106114  0.74968211  0.89484118  1
  C  C14  1  0.48106114  0.74968211  0.60515882  1
  C  C15  1  0.51893886  0.25031789  0.39484118  1
  N  N16  1  0.34659492  0.15110575  0.47831270  1
  N  N17  1  0.65340508  0.84889425  0.52168730  1
  N  N18  1  0.15340508  0.84889425  0.97831270  1
  N  N19  1  0.84659492  0.15110575  0.02168730  1
  N  N20  1  0.35505319  0.66229369  0.40616358  1
  N  N21  1  0.64494681  0.33770631  0.59383642  1
  N  N22  1  0.14494681  0.33770631  0.90616358  1
  N  N23  1  0.85505319  0.66229369  0.09383642  1
  N  N24  1  0.20652414  0.36540702  0.03719900  1
  N  N25  1  0.79347586  0.63459298  0.96280100  1
  N  N26  1  0.29347586  0.63459298  0.53719900  1
  N  N27  1  0.70652414  0.36540702  0.46280100  1
  N  N28  1  0.00837624  0.23041621  0.24384365  1
  N  N29  1  0.99162376  0.76958379  0.75615635  1
  N  N30  1  0.49162376  0.76958379  0.74384365  1
  N  N31  1  0.50837624  0.23041621  0.25615635  1
  N  N32  1  0.43303500  0.21073914  0.60269647  1
  N  N33  1  0.56696500  0.78926086  0.39730353  1
  N  N34  1  0.06696500  0.78926086  0.10269647  1
  N  N35  1  0.93303500  0.21073914  0.89730353  1
