# generated using pymatgen
data_GdNiPb
_symmetry_space_group_name_H-M   'P 1'
_cell_length_a   4.54018653
_cell_length_b   7.37289322
_cell_length_c   8.03890218
_cell_angle_alpha   90.00000000
_cell_angle_beta   90.00000000
_cell_angle_gamma   90.00000000
_symmetry_Int_Tables_number   1
_chemical_formula_structural   GdNiPb
_chemical_formula_sum   'Gd4 Ni4 Pb4'
_cell_volume   269.09670753
_cell_formula_units_Z   4
loop_
 _symmetry_equiv_pos_site_id
 _symmetry_equiv_pos_as_xyz
  1  'x, y, z'
loop_
 _atom_site_type_symbol
 _atom_site_label
 _atom_site_symmetry_multiplicity
 _atom_site_fract_x
 _atom_site_fract_y
 _atom_site_fract_z
 _atom_site_occupancy
  Gd  Gd0  1  0.75000000  0.98709481  0.30465072  1
  Gd  Gd1  1  0.25000000  0.01290519  0.69534928  1
  Gd  Gd2  1  0.25000000  0.51290519  0.80465072  1
  Gd  Gd3  1  0.75000000  0.48709481  0.19534928  1
  Ni  Ni4  1  0.75000000  0.72776599  0.60272032  1
  Ni  Ni5  1  0.25000000  0.27223401  0.39727968  1
  Ni  Ni6  1  0.25000000  0.77223401  0.10272032  1
  Ni  Ni7  1  0.75000000  0.22776599  0.89727968  1
  Pb  Pb8  1  0.75000000  0.82597461  0.92578686  1
  Pb  Pb9  1  0.25000000  0.17402539  0.07421314  1
  Pb  Pb10  1  0.25000000  0.67402539  0.42578686  1
  Pb  Pb11  1  0.75000000  0.32597461  0.57421314  1
