# generated using pymatgen
data_H6CS(NO)3
_symmetry_space_group_name_H-M   'P 1'
_cell_length_a   7.65286017
_cell_length_b   7.65286017
_cell_length_c   12.96926947
_cell_angle_alpha   90.00000000
_cell_angle_beta   90.00000000
_cell_angle_gamma   120.00000357
_symmetry_Int_Tables_number   1
_chemical_formula_structural   H6CS(NO)3
_chemical_formula_sum   'H24 C4 S4 N12 O12'
_cell_volume   657.79972350
_cell_formula_units_Z   4
loop_
 _symmetry_equiv_pos_site_id
 _symmetry_equiv_pos_as_xyz
  1  'x, y, z'
loop_
 _atom_site_type_symbol
 _atom_site_label
 _atom_site_symmetry_multiplicity
 _atom_site_fract_x
 _atom_site_fract_y
 _atom_site_fract_z
 _atom_site_occupancy
  H  H0  1  0.61257215  0.69103260  0.74574577  1
  H  H1  1  0.07846045  0.38742785  0.74574577  1
  H  H2  1  0.38742785  0.30896740  0.24574577  1
  H  H3  1  0.07846045  0.69103260  0.74574577  1
  H  H4  1  0.30896740  0.92153955  0.74574577  1
  H  H5  1  0.92153955  0.61257215  0.24574577  1
  H  H6  1  0.30896740  0.38742785  0.74574577  1
  H  H7  1  0.92153955  0.30896740  0.24574577  1
  H  H8  1  0.69103260  0.07846045  0.24574577  1
  H  H9  1  0.69103260  0.61257215  0.24574577  1
  H  H10  1  0.61257215  0.92153955  0.74574577  1
  H  H11  1  0.38742785  0.07846045  0.24574577  1
  H  H12  1  0.72055159  0.74522925  0.99611891  1
  H  H13  1  0.02467766  0.27944841  0.99611891  1
  H  H14  1  0.27944841  0.25477075  0.49611891  1
  H  H15  1  0.02467766  0.74522925  0.99611891  1
  H  H16  1  0.25477075  0.97532234  0.99611891  1
  H  H17  1  0.97532234  0.72055159  0.49611891  1
  H  H18  1  0.25477075  0.27944841  0.99611891  1
  H  H19  1  0.97532234  0.25477075  0.49611891  1
  H  H20  1  0.74522925  0.02467766  0.49611891  1
  H  H21  1  0.74522925  0.72055159  0.49611891  1
  H  H22  1  0.72055159  0.97532234  0.99611891  1
  H  H23  1  0.27944841  0.02467766  0.49611891  1
  C  C24  1  0.00000000  0.00000000  0.99876315  1
  C  C25  1  0.00000000  0.00000000  0.49876315  1
  C  C26  1  0.66666700  0.33333300  0.24617847  1
  C  C27  1  0.33333300  0.66666700  0.74617847  1
  S  S28  1  0.66666700  0.33333300  0.77535328  1
  S  S29  1  0.33333300  0.66666700  0.27535328  1
  S  S30  1  0.66666700  0.33333300  0.94460488  1
  S  S31  1  0.33333300  0.66666700  0.44460488  1
  N  N32  1  0.23252941  0.46505882  0.74638120  1
  N  N33  1  0.23252941  0.76747059  0.74638120  1
  N  N34  1  0.76747059  0.53494118  0.24638120  1
  N  N35  1  0.53494118  0.76747059  0.74638120  1
  N  N36  1  0.76747059  0.23252941  0.24638120  1
  N  N37  1  0.46505882  0.23252941  0.24638120  1
  N  N38  1  0.10081664  0.20163328  0.99907171  1
  N  N39  1  0.10081664  0.89918336  0.99907171  1
  N  N40  1  0.89918336  0.79836672  0.49907171  1
  N  N41  1  0.79836672  0.89918336  0.99907171  1
  N  N42  1  0.89918336  0.10081664  0.49907171  1
  N  N43  1  0.20163328  0.10081664  0.49907171  1
  O  O44  1  0.77429086  0.54858171  0.74662391  1
  O  O45  1  0.77429086  0.22570914  0.74662391  1
  O  O46  1  0.22570914  0.45141829  0.24662391  1
  O  O47  1  0.45141829  0.22570914  0.74662391  1
  O  O48  1  0.22570914  0.77429086  0.24662391  1
  O  O49  1  0.54858171  0.77429086  0.24662391  1
  O  O50  1  0.55899704  0.11799408  0.97319389  1
  O  O51  1  0.55899704  0.44100296  0.97319389  1
  O  O52  1  0.44100296  0.88200592  0.47319389  1
  O  O53  1  0.88200592  0.44100296  0.97319389  1
  O  O54  1  0.44100296  0.55899704  0.47319389  1
  O  O55  1  0.11799408  0.55899704  0.47319389  1
