# generated using pymatgen
data_Cu3SeO8
_symmetry_space_group_name_H-M   'P 1'
_cell_length_a   5.91726486
_cell_length_b   8.10206046
_cell_length_c   13.47261404
_cell_angle_alpha   90.00000000
_cell_angle_beta   90.00000000
_cell_angle_gamma   90.00000000
_symmetry_Int_Tables_number   1
_chemical_formula_structural   Cu3SeO8
_chemical_formula_sum   'Cu12 Se4 O32'
_cell_volume   645.90456960
_cell_formula_units_Z   4
loop_
 _symmetry_equiv_pos_site_id
 _symmetry_equiv_pos_as_xyz
  1  'x, y, z'
loop_
 _atom_site_type_symbol
 _atom_site_label
 _atom_site_symmetry_multiplicity
 _atom_site_fract_x
 _atom_site_fract_y
 _atom_site_fract_z
 _atom_site_occupancy
  Cu  Cu0  1  0.99832722  0.72629456  0.88193239  1
  Cu  Cu1  1  0.00167278  0.27370544  0.11806761  1
  Cu  Cu2  1  0.00167278  0.77370544  0.38193239  1
  Cu  Cu3  1  0.49832722  0.27370544  0.11806761  1
  Cu  Cu4  1  0.99832722  0.22629456  0.61806761  1
  Cu  Cu5  1  0.50167278  0.72629456  0.88193239  1
  Cu  Cu6  1  0.50167278  0.22629456  0.61806761  1
  Cu  Cu7  1  0.49832722  0.77370544  0.38193239  1
  Cu  Cu8  1  0.75000000  0.00072913  0.99820493  1
  Cu  Cu9  1  0.25000000  0.99927087  0.00179507  1
  Cu  Cu10  1  0.25000000  0.49927087  0.49820493  1
  Cu  Cu11  1  0.75000000  0.50072913  0.50179507  1
  Se  Se12  1  0.75000000  0.88655643  0.64066276  1
  Se  Se13  1  0.25000000  0.11344357  0.35933724  1
  Se  Se14  1  0.25000000  0.61344357  0.14066276  1
  Se  Se15  1  0.75000000  0.38655643  0.85933724  1
  O  O16  1  0.99222523  0.00152732  0.65450967  1
  O  O17  1  0.00777477  0.99847268  0.34549033  1
  O  O18  1  0.00777477  0.49847268  0.15450967  1
  O  O19  1  0.49222523  0.99847268  0.34549033  1
  O  O20  1  0.99222523  0.50152732  0.84549033  1
  O  O21  1  0.50777477  0.00152732  0.65450967  1
  O  O22  1  0.50777477  0.50152732  0.84549033  1
  O  O23  1  0.49222523  0.49847268  0.15450967  1
  O  O24  1  0.75000000  0.79199091  0.53025556  1
  O  O25  1  0.25000000  0.20800909  0.46974444  1
  O  O26  1  0.25000000  0.70800909  0.03025556  1
  O  O27  1  0.75000000  0.29199091  0.96974444  1
  O  O28  1  0.75000000  0.75052356  0.73147627  1
  O  O29  1  0.25000000  0.24947644  0.26852373  1
  O  O30  1  0.25000000  0.74947644  0.23147627  1
  O  O31  1  0.75000000  0.25052356  0.76852373  1
  O  O32  1  0.75000000  0.74856964  0.30839700  1
  O  O33  1  0.25000000  0.25143036  0.69160300  1
  O  O34  1  0.25000000  0.75143036  0.80839700  1
  O  O35  1  0.75000000  0.24856964  0.19160300  1
  O  O36  1  0.75000000  0.71009345  0.95868094  1
  O  O37  1  0.25000000  0.28990655  0.04131906  1
  O  O38  1  0.25000000  0.78990655  0.45868094  1
  O  O39  1  0.75000000  0.21009345  0.54131906  1
  O  O40  1  0.49447303  0.95150839  0.91567516  1
  O  O41  1  0.50552697  0.04849161  0.08432484  1
  O  O42  1  0.50552697  0.54849161  0.41567516  1
  O  O43  1  0.99447303  0.04849161  0.08432484  1
  O  O44  1  0.49447303  0.45150839  0.58432484  1
  O  O45  1  0.00552697  0.95150839  0.91567516  1
  O  O46  1  0.00552697  0.45150839  0.58432484  1
  O  O47  1  0.99447303  0.54849161  0.41567516  1
