# generated using pymatgen
data_CsLa(MoO4)2
_symmetry_space_group_name_H-M   'P 1'
_cell_length_a   7.83106871
_cell_length_b   7.83106871
_cell_length_c   7.99516951
_cell_angle_alpha   61.89594710
_cell_angle_beta   61.89594710
_cell_angle_gamma   89.14374291
_symmetry_Int_Tables_number   1
_chemical_formula_structural   CsLa(MoO4)2
_chemical_formula_sum   'Cs2 La2 Mo4 O16'
_cell_volume   367.76014338
_cell_formula_units_Z   2
loop_
 _symmetry_equiv_pos_site_id
 _symmetry_equiv_pos_as_xyz
  1  'x, y, z'
loop_
 _atom_site_type_symbol
 _atom_site_label
 _atom_site_symmetry_multiplicity
 _atom_site_fract_x
 _atom_site_fract_y
 _atom_site_fract_z
 _atom_site_occupancy
  Cs  Cs0  1  0.80192886  0.19807114  0.75000000  1
  Cs  Cs1  1  0.19807114  0.80192886  0.25000000  1
  La  La2  1  0.22967644  0.77032356  0.75000000  1
  La  La3  1  0.77032356  0.22967644  0.25000000  1
  Mo  Mo4  1  0.30936928  0.30802071  0.73438564  1
  Mo  Mo5  1  0.69063072  0.69197929  0.26561436  1
  Mo  Mo6  1  0.69197929  0.69063072  0.76561436  1
  Mo  Mo7  1  0.30802071  0.30936928  0.23438564  1
  O  O8  1  0.38159114  0.24264791  0.93151670  1
  O  O9  1  0.61840886  0.75735209  0.06848330  1
  O  O10  1  0.75735209  0.61840886  0.56848330  1
  O  O11  1  0.24264791  0.38159114  0.43151670  1
  O  O12  1  0.61588285  0.92041534  0.63514830  1
  O  O13  1  0.38411715  0.07958466  0.36485170  1
  O  O14  1  0.07958466  0.38411715  0.86485170  1
  O  O15  1  0.92041534  0.61588285  0.13514830  1
  O  O16  1  0.42095515  0.62886410  0.52612691  1
  O  O17  1  0.57904485  0.37113590  0.47387309  1
  O  O18  1  0.37113590  0.57904485  0.97387309  1
  O  O19  1  0.62886410  0.42095515  0.02612691  1
  O  O20  1  0.21131286  0.06149530  0.80294221  1
  O  O21  1  0.78868714  0.93850470  0.19705779  1
  O  O22  1  0.93850470  0.78868714  0.69705779  1
  O  O23  1  0.06149530  0.21131286  0.30294221  1
