# generated using pymatgen
data_CuHg3As2Cl3
_symmetry_space_group_name_H-M   'P 1'
_cell_length_a   9.25114310
_cell_length_b   13.47838800
_cell_length_c   13.99824497
_cell_angle_alpha   66.99730501
_cell_angle_beta   70.70455306
_cell_angle_gamma   69.92900017
_symmetry_Int_Tables_number   1
_chemical_formula_structural   CuHg3As2Cl3
_chemical_formula_sum   'Cu6 Hg18 As12 Cl18'
_cell_volume   1469.66169057
_cell_formula_units_Z   6
loop_
 _symmetry_equiv_pos_site_id
 _symmetry_equiv_pos_as_xyz
  1  'x, y, z'
loop_
 _atom_site_type_symbol
 _atom_site_label
 _atom_site_symmetry_multiplicity
 _atom_site_fract_x
 _atom_site_fract_y
 _atom_site_fract_z
 _atom_site_occupancy
  Cu  Cu0  1  0.38970833  0.43325578  0.22704361  1
  Cu  Cu1  1  0.61029167  0.56674422  0.77295639  1
  Cu  Cu2  1  0.05000772  0.06674422  0.27295639  1
  Cu  Cu3  1  0.94999228  0.93325578  0.72704361  1
  Cu  Cu4  1  0.66974091  0.75000000  0.25000000  1
  Cu  Cu5  1  0.33025909  0.25000000  0.75000000  1
  Hg  Hg6  1  0.66748012  0.16730267  0.50323164  1
  Hg  Hg7  1  0.33251988  0.83269733  0.49676836  1
  Hg  Hg8  1  0.33801443  0.33269733  0.99676836  1
  Hg  Hg9  1  0.66198557  0.66730267  0.00323164  1
  Hg  Hg10  1  0.00000000  -0.00000000  0.00000000  1
  Hg  Hg11  1  0.00000000  0.50000000  0.50000000  1
  Hg  Hg12  1  0.20324761  0.75000000  0.25000000  1
  Hg  Hg13  1  0.79675239  0.25000000  0.75000000  1
  Hg  Hg14  1  0.82667183  0.33681628  0.00252180  1
  Hg  Hg15  1  0.17332817  0.66318372  0.99747820  1
  Hg  Hg16  1  0.16600991  0.16318372  0.49747820  1
  Hg  Hg17  1  0.83399009  0.83681628  0.50252180  1
  Hg  Hg18  1  0.54118423  0.08746059  0.24938940  1
  Hg  Hg19  1  0.45881577  0.91253941  0.75061060  1
  Hg  Hg20  1  0.87803422  0.41253941  0.25061060  1
  Hg  Hg21  1  0.12196578  0.58746059  0.74938940  1
  Hg  Hg22  1  0.50000000  -0.00000000  0.00000000  1
  Hg  Hg23  1  0.50000000  0.50000000  0.50000000  1
  As  As24  1  0.54310536  0.14840411  0.05243912  1
  As  As25  1  0.45689464  0.85159589  0.94756088  1
  As  As26  1  0.74394858  0.35159589  0.44756088  1
  As  As27  1  0.25605142  0.64840411  0.55243912  1
  As  As28  1  0.41046960  0.01515186  0.44586014  1
  As  As29  1  0.58953040  0.98484814  0.55413986  1
  As  As30  1  0.87148160  0.48484814  0.05413986  1
  As  As31  1  0.12851840  0.51515186  0.94586014  1
  As  As32  1  0.19989708  0.81456055  0.05253270  1
  As  As33  1  0.80010292  0.18543945  0.94746730  1
  As  As34  1  0.06699033  0.68543945  0.44746730  1
  As  As35  1  0.93300967  0.31456055  0.55253270  1
  Cl  Cl36  1  0.59279448  0.28981812  0.25477941  1
  Cl  Cl37  1  0.40720552  0.71018188  0.74522059  1
  Cl  Cl38  1  0.13739201  0.21018188  0.24522059  1
  Cl  Cl39  1  0.86260799  0.78981812  0.75477941  1
  Cl  Cl40  1  0.49827025  0.59501810  0.25042117  1
  Cl  Cl41  1  0.50172975  0.40498190  0.74957883  1
  Cl  Cl42  1  0.34370951  0.90498190  0.24957883  1
  Cl  Cl43  1  0.65629049  0.09501810  0.75042117  1
  Cl  Cl44  1  0.50000000  0.50000000  0.00000000  1
  Cl  Cl45  1  0.00000000  -0.00000000  0.50000000  1
  Cl  Cl46  1  0.67669891  0.69312087  0.41513957  1
  Cl  Cl47  1  0.32330109  0.30687913  0.58486043  1
  Cl  Cl48  1  0.78495936  0.80687913  0.08486043  1
  Cl  Cl49  1  0.21504064  0.19312087  0.91513957  1
  Cl  Cl50  1  0.89504167  0.98817196  0.25417425  1
  Cl  Cl51  1  0.10495833  0.01182804  0.74582575  1
  Cl  Cl52  1  0.13738789  0.51182804  0.24582575  1
  Cl  Cl53  1  0.86261211  0.48817196  0.75417425  1
