# generated using pymatgen
data_Dy3(Co2Sn)4
_symmetry_space_group_name_H-M   'P 1'
_cell_length_a   7.54230885
_cell_length_b   8.81710232
_cell_length_c   8.81710232
_cell_angle_alpha   119.99999973
_cell_angle_beta   90.00000000
_cell_angle_gamma   90.00000000
_symmetry_Int_Tables_number   1
_chemical_formula_structural   Dy3(Co2Sn)4
_chemical_formula_sum   'Dy6 Co16 Sn8'
_cell_volume   507.79299677
_cell_formula_units_Z   2
loop_
 _symmetry_equiv_pos_site_id
 _symmetry_equiv_pos_as_xyz
  1  'x, y, z'
loop_
 _atom_site_type_symbol
 _atom_site_label
 _atom_site_symmetry_multiplicity
 _atom_site_fract_x
 _atom_site_fract_y
 _atom_site_fract_z
 _atom_site_occupancy
  Dy  Dy0  1  0.78547910  0.47506445  0.95012890  1
  Dy  Dy1  1  0.78547910  0.47506445  0.52493555  1
  Dy  Dy2  1  0.28547910  0.52493555  0.04987110  1
  Dy  Dy3  1  0.78547910  0.04987110  0.52493555  1
  Dy  Dy4  1  0.28547910  0.52493555  0.47506445  1
  Dy  Dy5  1  0.28547910  0.95012890  0.47506445  1
  Co  Co6  1  0.62562198  0.66666700  0.33333300  1
  Co  Co7  1  0.12562198  0.33333300  0.66666700  1
  Co  Co8  1  0.75605601  0.09840040  0.19680079  1
  Co  Co9  1  0.75605601  0.09840040  0.90159960  1
  Co  Co10  1  0.25605601  0.90159960  0.80319921  1
  Co  Co11  1  0.75605601  0.80319921  0.90159960  1
  Co  Co12  1  0.25605601  0.90159960  0.09840040  1
  Co  Co13  1  0.25605601  0.19680079  0.09840040  1
  Co  Co14  1  0.94012740  0.83959657  0.67919314  1
  Co  Co15  1  0.94012740  0.83959657  0.16040343  1
  Co  Co16  1  0.44012740  0.16040343  0.32080686  1
  Co  Co17  1  0.94012740  0.32080686  0.16040343  1
  Co  Co18  1  0.44012740  0.16040343  0.83959657  1
  Co  Co19  1  0.44012740  0.67919314  0.83959657  1
  Co  Co20  1  0.99948817  0.00000000  0.00000000  1
  Co  Co21  1  0.49948817  0.00000000  0.00000000  1
  Sn  Sn22  1  0.97609088  0.66666700  0.33333300  1
  Sn  Sn23  1  0.47609088  0.33333300  0.66666700  1
  Sn  Sn24  1  0.57297048  0.82948743  0.65897485  1
  Sn  Sn25  1  0.57297048  0.82948743  0.17051257  1
  Sn  Sn26  1  0.07297048  0.17051257  0.34102515  1
  Sn  Sn27  1  0.57297048  0.34102515  0.17051257  1
  Sn  Sn28  1  0.07297048  0.17051257  0.82948743  1
  Sn  Sn29  1  0.07297048  0.65897485  0.82948743  1
