# generated using pymatgen
data_CsCoPO4
_symmetry_space_group_name_H-M   'P 1'
_cell_length_a   5.51902447
_cell_length_b   9.34741504
_cell_length_c   9.63819181
_cell_angle_alpha   90.00000000
_cell_angle_beta   90.00000000
_cell_angle_gamma   90.00000000
_symmetry_Int_Tables_number   1
_chemical_formula_structural   CsCoPO4
_chemical_formula_sum   'Cs4 Co4 P4 O16'
_cell_volume   497.22094092
_cell_formula_units_Z   4
loop_
 _symmetry_equiv_pos_site_id
 _symmetry_equiv_pos_as_xyz
  1  'x, y, z'
loop_
 _atom_site_type_symbol
 _atom_site_label
 _atom_site_symmetry_multiplicity
 _atom_site_fract_x
 _atom_site_fract_y
 _atom_site_fract_z
 _atom_site_occupancy
  Cs  Cs0  1  0.50023114  0.00313228  0.30002144  1
  Cs  Cs1  1  0.00023114  0.99686772  0.69997856  1
  Cs  Cs2  1  0.50023114  0.50313228  0.19997856  1
  Cs  Cs3  1  0.00023114  0.49686772  0.80002144  1
  Co  Co4  1  0.99401097  0.32615513  0.41840704  1
  Co  Co5  1  0.49401097  0.67384487  0.58159296  1
  Co  Co6  1  0.99401097  0.82615513  0.08159296  1
  Co  Co7  1  0.49401097  0.17384487  0.91840704  1
  P  P8  1  0.99479933  0.19797082  0.08880085  1
  P  P9  1  0.49479933  0.80202918  0.91119915  1
  P  P10  1  0.99479933  0.69797082  0.41119915  1
  P  P11  1  0.49479933  0.30202918  0.58880085  1
  O  O12  1  0.31345800  0.25327473  0.47368859  1
  O  O13  1  0.81345800  0.74672527  0.52631141  1
  O  O14  1  0.31345800  0.75327473  0.02631141  1
  O  O15  1  0.81345800  0.24672527  0.97368859  1
  O  O16  1  0.25261919  0.25349396  0.04860718  1
  O  O17  1  0.75261919  0.74650604  0.95139282  1
  O  O18  1  0.25261919  0.75349396  0.45139282  1
  O  O19  1  0.75261919  0.24650604  0.54860718  1
  O  O20  1  0.99672625  0.03418777  0.10322661  1
  O  O21  1  0.49672625  0.96581223  0.89677339  1
  O  O22  1  0.99672625  0.53418777  0.39677339  1
  O  O23  1  0.49672625  0.46581223  0.60322661  1
  O  O24  1  0.41515512  0.23295808  0.72744579  1
  O  O25  1  0.91515512  0.76704192  0.27255421  1
  O  O26  1  0.41515512  0.73295808  0.77255421  1
  O  O27  1  0.91515512  0.26704192  0.22744579  1
