# generated using pymatgen
data_CsMn2(PO3)6
_symmetry_space_group_name_H-M   'P 1'
_cell_length_a   5.22997057
_cell_length_b   9.22763219
_cell_length_c   9.22763219
_cell_angle_alpha   87.97900601
_cell_angle_beta   74.37922842
_cell_angle_gamma   74.37922842
_symmetry_Int_Tables_number   1
_chemical_formula_structural   CsMn2(PO3)6
_chemical_formula_sum   'Cs1 Mn2 P6 O18'
_cell_volume   412.70587828
_cell_formula_units_Z   1
loop_
 _symmetry_equiv_pos_site_id
 _symmetry_equiv_pos_as_xyz
  1  'x, y, z'
loop_
 _atom_site_type_symbol
 _atom_site_label
 _atom_site_symmetry_multiplicity
 _atom_site_fract_x
 _atom_site_fract_y
 _atom_site_fract_z
 _atom_site_occupancy
  Cs  Cs0  1  -0.00000000  0.00000000  -0.00000000  1
  Mn  Mn1  1  0.50000000  0.00000000  0.50000000  1
  Mn  Mn2  1  0.50000000  0.50000000  -0.00000000  1
  P  P3  1  0.07091935  0.78352655  0.54695426  1
  P  P4  1  0.92908065  0.21647345  0.45304574  1
  P  P5  1  0.92908065  0.45304574  0.21647345  1
  P  P6  1  0.07091935  0.54695426  0.78352655  1
  P  P7  1  0.50000000  0.24991146  0.75008854  1
  P  P8  1  0.50000000  0.75008854  0.24991146  1
  O  O9  1  0.17229777  0.90336440  0.60134388  1
  O  O10  1  0.82770223  0.09663560  0.39865612  1
  O  O11  1  0.82770223  0.39865612  0.09663560  1
  O  O12  1  0.17229777  0.60134388  0.90336440  1
  O  O13  1  0.15949318  0.63101795  0.63101795  1
  O  O14  1  0.84050682  0.36898205  0.36898205  1
  O  O15  1  0.24311853  0.72335573  0.37879772  1
  O  O16  1  0.75688147  0.27664427  0.62120228  1
  O  O17  1  0.75688147  0.62120228  0.27664427  1
  O  O18  1  0.24311853  0.37879772  0.72335573  1
  O  O19  1  0.23004619  0.18457444  0.44609745  1
  O  O20  1  0.76995381  0.81542556  0.55390255  1
  O  O21  1  0.76995381  0.55390255  0.81542556  1
  O  O22  1  0.23004619  0.44609745  0.18457444  1
  O  O23  1  0.44980683  0.10191519  0.72200907  1
  O  O24  1  0.55019317  0.89808481  0.27799093  1
  O  O25  1  0.55019317  0.27799093  0.89808481  1
  O  O26  1  0.44980683  0.72200907  0.10191519  1
