# generated using pymatgen
data_Fe5(GeO4)3
_symmetry_space_group_name_H-M   'P 1'
_cell_length_a   6.94579554
_cell_length_b   6.94579554
_cell_length_c   10.80075097
_cell_angle_alpha   108.75621651
_cell_angle_beta   108.75621651
_cell_angle_gamma   90.00000000
_symmetry_Int_Tables_number   1
_chemical_formula_structural   Fe5(GeO4)3
_chemical_formula_sum   'Fe10 Ge6 O24'
_cell_volume   464.08240736
_cell_formula_units_Z   2
loop_
 _symmetry_equiv_pos_site_id
 _symmetry_equiv_pos_as_xyz
  1  'x, y, z'
loop_
 _atom_site_type_symbol
 _atom_site_label
 _atom_site_symmetry_multiplicity
 _atom_site_fract_x
 _atom_site_fract_y
 _atom_site_fract_z
 _atom_site_occupancy
  Fe  Fe0  1  0.36657063  0.37500000  0.25000000  1
  Fe  Fe1  1  0.88342937  0.87500000  0.25000000  1
  Fe  Fe2  1  0.12500000  0.63342937  0.75000000  1
  Fe  Fe3  1  0.62500000  0.11657063  0.75000000  1
  Fe  Fe4  1  0.22845994  0.22845994  0.45691988  1
  Fe  Fe5  1  0.77154006  0.77154006  0.54308012  1
  Fe  Fe6  1  0.02154006  0.52154006  0.04308012  1
  Fe  Fe7  1  0.47845994  0.97845994  0.95691988  1
  Fe  Fe8  1  0.50000000  0.50000000  0.00000000  1
  Fe  Fe9  1  0.75000000  0.25000000  0.50000000  1
  Ge  Ge10  1  0.78356508  0.37500000  0.25000000  1
  Ge  Ge11  1  0.46643492  0.87500000  0.25000000  1
  Ge  Ge12  1  0.12500000  0.21643492  0.75000000  1
  Ge  Ge13  1  0.62500000  0.53356508  0.75000000  1
  Ge  Ge14  1  0.00000000  0.00000000  0.00000000  1
  Ge  Ge15  1  0.25000000  0.75000000  0.50000000  1
  O  O16  1  0.42977582  0.66651548  0.79864060  1
  O  O17  1  0.36886478  0.13212512  0.79864060  1
  O  O18  1  0.86787488  0.57022418  0.20135940  1
  O  O19  1  0.82022418  0.61787488  0.70135940  1
  O  O20  1  0.33348452  0.63113522  0.20135940  1
  O  O21  1  0.88113522  0.08348452  0.70135940  1
  O  O22  1  0.38212512  0.11886478  0.29864060  1
  O  O23  1  0.91651548  0.17977582  0.29864060  1
  O  O24  1  0.10632751  0.25958067  0.09427305  1
  O  O25  1  0.98794555  0.83469238  0.09427305  1
  O  O26  1  0.16530762  0.89367249  0.90572695  1
  O  O27  1  0.14367249  0.91530762  0.40572695  1
  O  O28  1  0.74041933  0.01205445  0.90572695  1
  O  O29  1  0.26205445  0.49041933  0.40572695  1
  O  O30  1  0.08469238  0.73794555  0.59427305  1
  O  O31  1  0.50958067  0.85632751  0.59427305  1
  O  O32  1  0.53964357  0.28153424  0.11029798  1
  O  O33  1  0.57065441  0.82876374  0.11029798  1
  O  O34  1  0.17123626  0.46035643  0.88970202  1
  O  O35  1  0.71035643  0.92123626  0.38970202  1
  O  O36  1  0.71846576  0.42934559  0.88970202  1
  O  O37  1  0.67934559  0.46846576  0.38970202  1
  O  O38  1  0.07876374  0.32065441  0.61029798  1
  O  O39  1  0.53153424  0.28964357  0.61029798  1
