# generated using pymatgen
data_Dy2MgTiO6
_symmetry_space_group_name_H-M   'P 1'
_cell_length_a   5.33143381
_cell_length_b   5.63432738
_cell_length_c   7.71269651
_cell_angle_alpha   90.00000000
_cell_angle_beta   89.54620955
_cell_angle_gamma   90.00000000
_symmetry_Int_Tables_number   1
_chemical_formula_structural   Dy2MgTiO6
_chemical_formula_sum   'Dy4 Mg2 Ti2 O12'
_cell_volume   231.67475926
_cell_formula_units_Z   2
loop_
 _symmetry_equiv_pos_site_id
 _symmetry_equiv_pos_as_xyz
  1  'x, y, z'
loop_
 _atom_site_type_symbol
 _atom_site_label
 _atom_site_symmetry_multiplicity
 _atom_site_fract_x
 _atom_site_fract_y
 _atom_site_fract_z
 _atom_site_occupancy
  Dy  Dy0  1  0.01907963  0.43401131  0.25335085  1
  Dy  Dy1  1  0.98092037  0.56598869  0.74664915  1
  Dy  Dy2  1  0.48092037  0.93401131  0.24664915  1
  Dy  Dy3  1  0.51907963  0.06598869  0.75335085  1
  Mg  Mg4  1  -0.00000000  -0.00000000  0.50000000  1
  Mg  Mg5  1  0.50000000  0.50000000  -0.00000000  1
  Ti  Ti6  1  -0.00000000  -0.00000000  -0.00000000  1
  Ti  Ti7  1  0.50000000  0.50000000  0.50000000  1
  O  O8  1  0.88472627  0.04402163  0.24269536  1
  O  O9  1  0.11527373  0.95597837  0.75730464  1
  O  O10  1  0.61527373  0.54402163  0.25730464  1
  O  O11  1  0.38472627  0.45597837  0.74269536  1
  O  O12  1  0.18685527  0.70557468  0.06441886  1
  O  O13  1  0.81314473  0.29442532  0.93558114  1
  O  O14  1  0.31314473  0.20557468  0.43558114  1
  O  O15  1  0.68685527  0.79442532  0.56441886  1
  O  O16  1  0.29897291  0.18905253  0.05476706  1
  O  O17  1  0.70102709  0.81094747  0.94523294  1
  O  O18  1  0.20102709  0.68905253  0.44523294  1
  O  O19  1  0.79897291  0.31094747  0.55476706  1
