# generated using pymatgen
data_Li3Co2SbO6
_symmetry_space_group_name_H-M   'P 1'
_cell_length_a   15.70105671
_cell_length_b   10.18430437
_cell_length_c   10.18430412
_cell_angle_alpha   17.36110898
_cell_angle_beta   16.50593801
_cell_angle_gamma   16.50594054
_symmetry_Int_Tables_number   1
_chemical_formula_structural   Li3Co2SbO6
_chemical_formula_sum   'Li3 Co2 Sb1 O6'
_cell_volume   118.32682324
_cell_formula_units_Z   1
loop_
 _symmetry_equiv_pos_site_id
 _symmetry_equiv_pos_as_xyz
  1  'x, y, z'
loop_
 _atom_site_type_symbol
 _atom_site_label
 _atom_site_symmetry_multiplicity
 _atom_site_fract_x
 _atom_site_fract_y
 _atom_site_fract_z
 _atom_site_occupancy
  Li  Li0  1  0.16666700  0.50000000  0.50000000  1
  Li  Li1  1  0.49906460  0.49192476  0.49192476  1
  Li  Li2  1  0.83426840  0.50807424  0.50807424  1
  Co  Co3  1  0.92965858  0.05472857  0.05472857  1
  Co  Co4  1  0.40367442  0.94527143  0.94527143  1
  Sb  Sb5  1  0.66666700  0.00000000  0.00000000  1
  O  O6  1  0.25320972  0.25582345  0.25582345  1
  O  O7  1  0.56964330  0.25696610  0.25696610  1
  O  O8  1  0.08012328  0.74417655  0.74417655  1
  O  O9  1  0.88725423  0.27864291  0.27864291  1
  O  O10  1  0.44607877  0.72135709  0.72135709  1
  O  O11  1  0.76369070  0.74303390  0.74303390  1
