# generated using pymatgen
data_Fe5O3F7
_symmetry_space_group_name_H-M   'P 1'
_cell_length_a   4.79612617
_cell_length_b   4.79232525
_cell_length_c   15.63097536
_cell_angle_alpha   90.02067502
_cell_angle_beta   90.49647502
_cell_angle_gamma   88.54820685
_symmetry_Int_Tables_number   1
_chemical_formula_structural   Fe5O3F7
_chemical_formula_sum   'Fe10 O6 F14'
_cell_volume   359.14284767
_cell_formula_units_Z   2
loop_
 _symmetry_equiv_pos_site_id
 _symmetry_equiv_pos_as_xyz
  1  'x, y, z'
loop_
 _atom_site_type_symbol
 _atom_site_label
 _atom_site_symmetry_multiplicity
 _atom_site_fract_x
 _atom_site_fract_y
 _atom_site_fract_z
 _atom_site_occupancy
  Fe  Fe0  1  0.00283102  0.99893754  0.00121902  1
  Fe  Fe1  1  0.00374612  0.00165711  0.19761941  1
  Fe  Fe2  1  0.96659029  0.95043276  0.39446157  1
  Fe  Fe3  1  0.03837659  0.03124598  0.60510691  1
  Fe  Fe4  1  0.02084072  0.97470516  0.80081826  1
  Fe  Fe5  1  0.53044410  0.46739860  0.09987447  1
  Fe  Fe6  1  0.50314857  0.49370230  0.50023776  1
  Fe  Fe7  1  0.47493077  0.53928422  0.30570300  1
  Fe  Fe8  1  0.46811437  0.51958034  0.69415853  1
  Fe  Fe9  1  0.48250428  0.52028950  0.89973977  1
  O  O10  1  0.18125315  0.80566647  0.30401773  1
  O  O11  1  0.20428012  0.80908930  0.70487192  1
  O  O12  1  0.17766033  0.81923294  0.90035881  1
  O  O13  1  0.32661360  0.32240895  0.59553733  1
  O  O14  1  0.67901307  0.68699994  0.40487505  1
  O  O15  1  0.82477710  0.17564635  0.09482058  1
  F  F16  1  0.22112603  0.77788125  0.09355742  1
  F  F17  1  0.19459547  0.79894401  0.49410694  1
  F  F18  1  0.30806728  0.28473381  0.99961182  1
  F  F19  1  0.32140660  0.30844663  0.21030867  1
  F  F20  1  0.29101328  0.30048590  0.40437705  1
  F  F21  1  0.29736888  0.30822033  0.79486018  1
  F  F22  1  0.71067894  0.69243131  0.99712764  1
  F  F23  1  0.69104877  0.68276552  0.20777630  1
  F  F24  1  0.70469576  0.70826381  0.59568052  1
  F  F25  1  0.69714240  0.70598207  0.79031653  1
  F  F26  1  0.80614522  0.19020647  0.49478668  1
  F  F27  1  0.77908321  0.20602208  0.31105575  1
  F  F28  1  0.79910833  0.19997394  0.89529556  1
  F  F29  1  0.79339761  0.21936241  0.70771782  1
