# generated using pymatgen
data_Ca4(CuO2)5
_symmetry_space_group_name_H-M   'P 1'
_cell_length_a   6.51244775
_cell_length_b   10.67719075
_cell_length_c   13.94972771
_cell_angle_alpha   90.00000000
_cell_angle_beta   90.00000000
_cell_angle_gamma   90.00000000
_symmetry_Int_Tables_number   1
_chemical_formula_structural   Ca4(CuO2)5
_chemical_formula_sum   'Ca16 Cu20 O40'
_cell_volume   969.98939033
_cell_formula_units_Z   4
loop_
 _symmetry_equiv_pos_site_id
 _symmetry_equiv_pos_as_xyz
  1  'x, y, z'
loop_
 _atom_site_type_symbol
 _atom_site_label
 _atom_site_symmetry_multiplicity
 _atom_site_fract_x
 _atom_site_fract_y
 _atom_site_fract_z
 _atom_site_occupancy
  Ca  Ca0  1  0.25018707  0.99849411  0.18478652  1
  Ca  Ca1  1  0.74981293  0.00150589  0.81521348  1
  Ca  Ca2  1  0.24981293  0.50150589  0.68478652  1
  Ca  Ca3  1  0.74981293  0.99849411  0.31521348  1
  Ca  Ca4  1  0.75018707  0.49849411  0.31521348  1
  Ca  Ca5  1  0.25018707  0.00150589  0.68478652  1
  Ca  Ca6  1  0.75018707  0.50150589  0.81521348  1
  Ca  Ca7  1  0.24981293  0.49849411  0.18478652  1
  Ca  Ca8  1  0.25077974  0.99950367  0.43909294  1
  Ca  Ca9  1  0.74922026  0.00049633  0.56090706  1
  Ca  Ca10  1  0.24922026  0.50049633  0.93909294  1
  Ca  Ca11  1  0.74922026  0.99950367  0.06090706  1
  Ca  Ca12  1  0.75077974  0.49950367  0.06090706  1
  Ca  Ca13  1  0.25077974  0.00049633  0.93909294  1
  Ca  Ca14  1  0.75077974  0.50049633  0.56090706  1
  Ca  Ca15  1  0.24922026  0.49950367  0.43909294  1
  Cu  Cu16  1  -0.00000000  0.74900885  0.25000000  1
  Cu  Cu17  1  -0.00000000  0.25099115  0.75000000  1
  Cu  Cu18  1  0.50000000  0.75099115  0.75000000  1
  Cu  Cu19  1  0.50000000  0.24900885  0.25000000  1
  Cu  Cu20  1  0.01979406  0.24874293  0.14754805  1
  Cu  Cu21  1  0.98020594  0.75125707  0.85245195  1
  Cu  Cu22  1  0.48020594  0.25125707  0.64754805  1
  Cu  Cu23  1  0.98020594  0.24874293  0.35245195  1
  Cu  Cu24  1  0.51979406  0.74874293  0.35245195  1
  Cu  Cu25  1  0.01979406  0.75125707  0.64754805  1
  Cu  Cu26  1  0.51979406  0.25125707  0.85245195  1
  Cu  Cu27  1  0.48020594  0.74874293  0.14754805  1
  Cu  Cu28  1  0.53431184  0.25002009  0.04767054  1
  Cu  Cu29  1  0.46568816  0.74997991  0.95232946  1
  Cu  Cu30  1  0.96568816  0.24997991  0.54767054  1
  Cu  Cu31  1  0.46568816  0.25002009  0.45232946  1
  Cu  Cu32  1  0.03431184  0.75002009  0.45232946  1
  Cu  Cu33  1  0.53431184  0.74997991  0.54767054  1
  Cu  Cu34  1  0.03431184  0.24997991  0.95232946  1
  Cu  Cu35  1  0.96568816  0.75002009  0.04767054  1
  O  O36  1  -0.00000000  0.36482514  0.25000000  1
  O  O37  1  -0.00000000  0.63517486  0.75000000  1
  O  O38  1  0.50000000  0.13517486  0.75000000  1
  O  O39  1  0.50000000  0.86482514  0.25000000  1
  O  O40  1  0.05602172  0.37635803  0.05304367  1
  O  O41  1  0.94397828  0.62364197  0.94695633  1
  O  O42  1  0.44397828  0.12364197  0.55304367  1
  O  O43  1  0.94397828  0.37635803  0.44695633  1
  O  O44  1  0.55602172  0.87635803  0.44695633  1
  O  O45  1  0.05602172  0.62364197  0.55304367  1
  O  O46  1  0.55602172  0.12364197  0.94695633  1
  O  O47  1  0.44397828  0.87635803  0.05304367  1
  O  O48  1  -0.00000000  0.13237005  0.25000000  1
  O  O49  1  -0.00000000  0.86762995  0.75000000  1
  O  O50  1  0.50000000  0.36762995  0.75000000  1
  O  O51  1  0.50000000  0.63237005  0.25000000  1
  O  O52  1  0.53148635  0.12938020  0.15277915  1
  O  O53  1  0.46851365  0.87061980  0.84722085  1
  O  O54  1  0.96851365  0.37061980  0.65277915  1
  O  O55  1  0.46851365  0.12938020  0.34722085  1
  O  O56  1  0.03148635  0.62938020  0.34722085  1
  O  O57  1  0.53148635  0.87061980  0.65277915  1
  O  O58  1  0.03148635  0.37061980  0.84722085  1
  O  O59  1  0.96851365  0.62938020  0.15277915  1
  O  O60  1  0.05456224  0.12233285  0.05249312  1
  O  O61  1  0.94543776  0.87766715  0.94750688  1
  O  O62  1  0.44543776  0.37766715  0.55249312  1
  O  O63  1  0.94543776  0.12233285  0.44750688  1
  O  O64  1  0.55456224  0.62233285  0.44750688  1
  O  O65  1  0.05456224  0.87766715  0.55249312  1
  O  O66  1  0.55456224  0.37766715  0.94750688  1
  O  O67  1  0.44543776  0.62233285  0.05249312  1
  O  O68  1  0.46618598  0.36907982  0.34679069  1
  O  O69  1  0.53381402  0.63092018  0.65320931  1
  O  O70  1  0.03381402  0.13092018  0.84679069  1
  O  O71  1  0.53381402  0.36907982  0.15320931  1
  O  O72  1  0.96618598  0.86907982  0.15320931  1
  O  O73  1  0.46618598  0.63092018  0.84679069  1
  O  O74  1  0.96618598  0.13092018  0.65320931  1
  O  O75  1  0.03381402  0.86907982  0.34679069  1
