# generated using pymatgen
data_Ba2LiUO6
_symmetry_space_group_name_H-M   'P 1'
_cell_length_a   5.98753845
_cell_length_b   6.03814642
_cell_length_c   8.47879736
_cell_angle_alpha   90.00000000
_cell_angle_beta   90.00000000
_cell_angle_gamma   90.00000000
_symmetry_Int_Tables_number   1
_chemical_formula_structural   Ba2LiUO6
_chemical_formula_sum   'Ba4 Li2 U2 O12'
_cell_volume   306.53933530
_cell_formula_units_Z   2
loop_
 _symmetry_equiv_pos_site_id
 _symmetry_equiv_pos_as_xyz
  1  'x, y, z'
loop_
 _atom_site_type_symbol
 _atom_site_label
 _atom_site_symmetry_multiplicity
 _atom_site_fract_x
 _atom_site_fract_y
 _atom_site_fract_z
 _atom_site_occupancy
  Ba  Ba0  1  0.00038386  0.49653954  0.25288201  1
  Ba  Ba1  1  0.00038386  0.50346046  0.74711799  1
  Ba  Ba2  1  0.50038386  0.99653954  0.24711799  1
  Ba  Ba3  1  0.50038386  0.00346046  0.75288201  1
  Li  Li4  1  0.00095332  0.00000000  0.00000000  1
  Li  Li5  1  0.50095332  0.50000000  0.50000000  1
  U  U6  1  0.00403295  -0.00000000  0.50000000  1
  U  U7  1  0.50403295  0.50000000  0.00000000  1
  O  O8  1  0.50557971  0.51427146  0.24260876  1
  O  O9  1  0.50557971  0.48572854  0.75739124  1
  O  O10  1  0.00557971  0.01427146  0.25739124  1
  O  O11  1  0.00557971  0.98572854  0.74260876  1
  O  O12  1  0.24526177  0.24267203  0.50364976  1
  O  O13  1  0.24526177  0.75732797  0.49635024  1
  O  O14  1  0.74526177  0.74267203  0.99635024  1
  O  O15  1  0.74526177  0.25732797  0.00364976  1
  O  O16  1  0.26238153  0.25694110  0.00181216  1
  O  O17  1  0.26238153  0.74305890  0.99818784  1
  O  O18  1  0.76238153  0.75694110  0.49818784  1
  O  O19  1  0.76238153  0.24305890  0.50181216  1
