# generated using pymatgen
data_CeCrSb3
_symmetry_space_group_name_H-M   'P 1'
_cell_length_a   6.14434524
_cell_length_b   6.27985839
_cell_length_c   12.93642729
_cell_angle_alpha   90.00000000
_cell_angle_beta   90.00000000
_cell_angle_gamma   90.00000000
_symmetry_Int_Tables_number   1
_chemical_formula_structural   CeCrSb3
_chemical_formula_sum   'Ce4 Cr4 Sb12'
_cell_volume   499.16004178
_cell_formula_units_Z   4
loop_
 _symmetry_equiv_pos_site_id
 _symmetry_equiv_pos_as_xyz
  1  'x, y, z'
loop_
 _atom_site_type_symbol
 _atom_site_label
 _atom_site_symmetry_multiplicity
 _atom_site_fract_x
 _atom_site_fract_y
 _atom_site_fract_z
 _atom_site_occupancy
  Ce  Ce0  1  0.75000000  0.99658427  0.69225478  1
  Ce  Ce1  1  0.25000000  0.00341573  0.30774522  1
  Ce  Ce2  1  0.75000000  0.49658427  0.30774522  1
  Ce  Ce3  1  0.25000000  0.50341573  0.69225478  1
  Cr  Cr4  1  0.00000000  0.75000000  0.09417699  1
  Cr  Cr5  1  -0.00000000  0.25000000  0.90582301  1
  Cr  Cr6  1  0.50000000  0.25000000  0.90582301  1
  Cr  Cr7  1  0.50000000  0.75000000  0.09417699  1
  Sb  Sb8  1  0.00000000  0.75000000  0.49886213  1
  Sb  Sb9  1  -0.00000000  0.25000000  0.50113787  1
  Sb  Sb10  1  0.50000000  0.25000000  0.50113787  1
  Sb  Sb11  1  0.50000000  0.75000000  0.49886213  1
  Sb  Sb12  1  0.75000000  0.90055420  0.93728100  1
  Sb  Sb13  1  0.25000000  0.09944580  0.06271900  1
  Sb  Sb14  1  0.75000000  0.40055420  0.06271900  1
  Sb  Sb15  1  0.25000000  0.59944580  0.93728100  1
  Sb  Sb16  1  0.75000000  0.49794359  0.77370625  1
  Sb  Sb17  1  0.25000000  0.50205641  0.22629375  1
  Sb  Sb18  1  0.75000000  0.99794359  0.22629375  1
  Sb  Sb19  1  0.25000000  0.00205641  0.77370625  1
