# generated using pymatgen
data_Cd5H18C8Br4(N10O)2
_symmetry_space_group_name_H-M   'P 1'
_cell_length_a   9.43910160
_cell_length_b   10.59321347
_cell_length_c   14.67032439
_cell_angle_alpha   90.00000000
_cell_angle_beta   97.91522490
_cell_angle_gamma   90.00000000
_symmetry_Int_Tables_number   1
_chemical_formula_structural   Cd5H18C8Br4(N10O)2
_chemical_formula_sum   'Cd10 H36 C16 Br8 N40 O4'
_cell_volume   1452.91665349
_cell_formula_units_Z   2
loop_
 _symmetry_equiv_pos_site_id
 _symmetry_equiv_pos_as_xyz
  1  'x, y, z'
loop_
 _atom_site_type_symbol
 _atom_site_label
 _atom_site_symmetry_multiplicity
 _atom_site_fract_x
 _atom_site_fract_y
 _atom_site_fract_z
 _atom_site_occupancy
  Cd  Cd0  1  0.68867103  0.31920210  0.02054216  1
  Cd  Cd1  1  0.31132897  0.68079790  0.97945784  1
  Cd  Cd2  1  0.31132897  0.81920210  0.47945784  1
  Cd  Cd3  1  0.68867103  0.18079790  0.52054216  1
  Cd  Cd4  1  0.04288355  0.46591611  0.11463953  1
  Cd  Cd5  1  0.95711645  0.53408389  0.88536047  1
  Cd  Cd6  1  0.95711645  0.96591611  0.38536047  1
  Cd  Cd7  1  0.04288355  0.03408389  0.61463953  1
  Cd  Cd8  1  0.50000000  0.00000000  -0.00000000  1
  Cd  Cd9  1  0.50000000  0.50000000  0.50000000  1
  H  H10  1  0.23517904  0.29970857  0.25613036  1
  H  H11  1  0.76482096  0.70029143  0.74386964  1
  H  H12  1  0.76482096  0.79970857  0.24386964  1
  H  H13  1  0.23517904  0.20029143  0.75613036  1
  H  H14  1  0.11838134  0.83659946  0.26536720  1
  H  H15  1  0.88161866  0.16340054  0.73463280  1
  H  H16  1  0.88161866  0.33659946  0.23463280  1
  H  H17  1  0.11838134  0.66340054  0.76536720  1
  H  H18  1  0.99663961  0.73811466  0.20451552  1
  H  H19  1  0.00336039  0.26188534  0.79548448  1
  H  H20  1  0.00336039  0.23811466  0.29548448  1
  H  H21  1  0.99663961  0.76188534  0.70451552  1
  H  H22  1  0.03806197  0.70701485  0.03013025  1
  H  H23  1  0.96193803  0.29298515  0.96986975  1
  H  H24  1  0.96193803  0.20701485  0.46986975  1
  H  H25  1  0.03806197  0.79298515  0.53013025  1
  H  H26  1  0.35001555  0.55061350  0.15672332  1
  H  H27  1  0.64998445  0.44938650  0.84327668  1
  H  H28  1  0.64998445  0.05061350  0.34327668  1
  H  H29  1  0.35001555  0.94938650  0.65672332  1
  H  H30  1  0.16805151  0.04413466  0.03844309  1
  H  H31  1  0.83194849  0.95586534  0.96155691  1
  H  H32  1  0.83194849  0.54413466  0.46155691  1
  H  H33  1  0.16805151  0.45586534  0.53844309  1
  H  H34  1  0.33313306  0.30370393  0.36187812  1
  H  H35  1  0.66686694  0.69629607  0.63812188  1
  H  H36  1  0.66686694  0.80370393  0.13812188  1
  H  H37  1  0.33313306  0.19629607  0.86187812  1
  H  H38  1  0.49105557  0.02941704  0.37881431  1
  H  H39  1  0.50894443  0.97058296  0.62118569  1
  H  H40  1  0.50894443  0.52941704  0.12118569  1
  H  H41  1  0.49105557  0.47058296  0.87881431  1
  H  H42  1  0.06544052  0.14495611  0.09065752  1
  H  H43  1  0.93455948  0.85504389  0.90934248  1
  H  H44  1  0.93455948  0.64495611  0.40934248  1
  H  H45  1  0.06544052  0.35504389  0.59065752  1
  C  C46  1  0.23114649  0.46702604  0.32386469  1
  C  C47  1  0.76885351  0.53297396  0.67613531  1
  C  C48  1  0.76885351  0.96702604  0.17613531  1
  C  C49  1  0.23114649  0.03297396  0.82386469  1
  C  C50  1  0.24877496  0.21865610  0.05843444  1
  C  C51  1  0.75122504  0.78134390  0.94156556  1
  C  C52  1  0.75122504  0.71865610  0.44156556  1
  C  C53  1  0.24877496  0.28134390  0.55843444  1
  C  C54  1  0.36849354  0.38761686  0.08693970  1
  C  C55  1  0.63150646  0.61238314  0.91306030  1
  C  C56  1  0.63150646  0.88761686  0.41306030  1
  C  C57  1  0.36849354  0.11238314  0.58693970  1
  C  C58  1  0.14422759  0.65218858  0.29915271  1
  C  C59  1  0.85577241  0.34781142  0.70084729  1
  C  C60  1  0.85577241  0.15218858  0.20084729  1
  C  C61  1  0.14422759  0.84781142  0.79915271  1
  Br  Br62  1  0.63815337  0.34871670  0.37642474  1
  Br  Br63  1  0.36184663  0.65128330  0.62357526  1
  Br  Br64  1  0.36184663  0.84871670  0.12357526  1
  Br  Br65  1  0.63815337  0.15128330  0.87642474  1
  Br  Br66  1  0.22994039  0.02125629  0.34974262  1
  Br  Br67  1  0.77005961  0.97874371  0.65025738  1
  Br  Br68  1  0.77005961  0.52125629  0.15025738  1
  Br  Br69  1  0.22994039  0.47874371  0.84974262  1
  N  N70  1  0.76606841  0.15874274  0.12283114  1
  N  N71  1  0.23393159  0.84125726  0.87716886  1
  N  N72  1  0.23393159  0.65874274  0.37716886  1
  N  N73  1  0.76606841  0.34125726  0.62283114  1
  N  N74  1  0.24690864  0.33834851  0.32004900  1
  N  N75  1  0.75309136  0.66165149  0.67995100  1
  N  N76  1  0.75309136  0.83834851  0.17995100  1
  N  N77  1  0.24690864  0.16165149  0.82004900  1
  N  N78  1  0.23632158  0.33855936  0.09075251  1
  N  N79  1  0.76367842  0.66144064  0.90924749  1
  N  N80  1  0.76367842  0.83855936  0.40924749  1
  N  N81  1  0.23632158  0.16144064  0.59075251  1
  N  N82  1  0.13795933  0.53362820  0.26166528  1
  N  N83  1  0.86204067  0.46637180  0.73833472  1
  N  N84  1  0.86204067  0.03362820  0.23833472  1
  N  N85  1  0.13795933  0.96637180  0.76166528  1
  N  N86  1  0.06153473  0.75388573  0.26470427  1
  N  N87  1  0.93846527  0.24611427  0.73529573  1
  N  N88  1  0.93846527  0.25388573  0.23529573  1
  N  N89  1  0.06153473  0.74611427  0.76470427  1
  N  N90  1  0.40085533  0.51448149  0.10519552  1
  N  N91  1  0.59914467  0.48551851  0.89480448  1
  N  N92  1  0.59914467  0.01448149  0.39480448  1
  N  N93  1  0.40085533  0.98551851  0.60519552  1
  N  N94  1  0.45721156  0.30566407  0.05620629  1
  N  N95  1  0.54278844  0.69433593  0.94379371  1
  N  N96  1  0.54278844  0.80566407  0.44379371  1
  N  N97  1  0.45721156  0.19433593  0.55620629  1
  N  N98  1  0.70616717  0.03900738  0.10771295  1
  N  N99  1  0.29383283  0.96099262  0.89228705  1
  N  N100  1  0.29383283  0.53900738  0.39228705  1
  N  N101  1  0.70616717  0.46099262  0.60771295  1
  N  N102  1  0.37948498  0.19429925  0.03777571  1
  N  N103  1  0.62051502  0.80570075  0.96222429  1
  N  N104  1  0.62051502  0.69429925  0.46222429  1
  N  N105  1  0.37948498  0.30570075  0.53777571  1
  N  N106  1  0.13510424  0.13536752  0.04401401  1
  N  N107  1  0.86489576  0.86463248  0.95598599  1
  N  N108  1  0.86489576  0.63536752  0.45598599  1
  N  N109  1  0.13510424  0.36463248  0.54401401  1
  O  O110  1  0.08401586  0.62776619  0.01646763  1
  O  O111  1  0.91598414  0.37223381  0.98353237  1
  O  O112  1  0.91598414  0.12776619  0.48353237  1
  O  O113  1  0.08401586  0.87223381  0.51646763  1
