# generated using pymatgen
data_Ca2YNbO6
_symmetry_space_group_name_H-M   'P 1'
_cell_length_a   5.65497007
_cell_length_b   5.87017521
_cell_length_c   8.15756386
_cell_angle_alpha   90.00000000
_cell_angle_beta   89.60378201
_cell_angle_gamma   90.00000000
_symmetry_Int_Tables_number   1
_chemical_formula_structural   Ca2YNbO6
_chemical_formula_sum   'Ca4 Y2 Nb2 O12'
_cell_volume   270.78928340
_cell_formula_units_Z   2
loop_
 _symmetry_equiv_pos_site_id
 _symmetry_equiv_pos_as_xyz
  1  'x, y, z'
loop_
 _atom_site_type_symbol
 _atom_site_label
 _atom_site_symmetry_multiplicity
 _atom_site_fract_x
 _atom_site_fract_y
 _atom_site_fract_z
 _atom_site_occupancy
  Ca  Ca0  1  0.01444677  0.44566746  0.25071367  1
  Ca  Ca1  1  0.98555323  0.55433254  0.74928633  1
  Ca  Ca2  1  0.48555323  0.94566746  0.24928633  1
  Ca  Ca3  1  0.51444677  0.05433254  0.75071367  1
  Y  Y4  1  -0.00000000  -0.00000000  0.00000000  1
  Y  Y5  1  0.50000000  0.50000000  0.50000000  1
  Nb  Nb6  1  -0.00000000  -0.00000000  0.50000000  1
  Nb  Nb7  1  0.50000000  0.50000000  0.00000000  1
  O  O8  1  0.88554922  0.04607043  0.26578283  1
  O  O9  1  0.11445078  0.95392957  0.73421717  1
  O  O10  1  0.61445078  0.54607043  0.23421717  1
  O  O11  1  0.38554922  0.45392957  0.76578283  1
  O  O12  1  0.21017753  0.68384893  0.05934602  1
  O  O13  1  0.78982247  0.31615107  0.94065398  1
  O  O14  1  0.28982247  0.18384893  0.44065398  1
  O  O15  1  0.71017753  0.81615107  0.55934602  1
  O  O16  1  0.32284791  0.21044478  0.06290668  1
  O  O17  1  0.67715209  0.78955522  0.93709332  1
  O  O18  1  0.17715209  0.71044478  0.43709332  1
  O  O19  1  0.82284791  0.28955522  0.56290668  1
