# generated using pymatgen
data_Cr5Te8
_symmetry_space_group_name_H-M   'P 1'
_cell_length_a   5.98590401
_cell_length_b   7.95611073
_cell_length_c   7.95611017
_cell_angle_alpha   120.00000230
_cell_angle_beta   90.00000000
_cell_angle_gamma   90.00000000
_symmetry_Int_Tables_number   1
_chemical_formula_structural   Cr5Te8
_chemical_formula_sum   'Cr5 Te8'
_cell_volume   328.14211787
_cell_formula_units_Z   1
loop_
 _symmetry_equiv_pos_site_id
 _symmetry_equiv_pos_as_xyz
  1  'x, y, z'
loop_
 _atom_site_type_symbol
 _atom_site_label
 _atom_site_symmetry_multiplicity
 _atom_site_fract_x
 _atom_site_fract_y
 _atom_site_fract_z
 _atom_site_occupancy
  Cr  Cr0  1  -0.00000000  0.50000000  -0.00000000  1
  Cr  Cr1  1  -0.00000000  -0.00000000  0.50000000  1
  Cr  Cr2  1  -0.00000000  0.50000000  0.50000000  1
  Cr  Cr3  1  0.50000000  -0.00000000  -0.00000000  1
  Cr  Cr4  1  0.00000000  -0.00000000  -0.00000000  1
  Te  Te5  1  0.24377977  0.33333300  0.66666700  1
  Te  Te6  1  0.75622023  0.66666700  0.33333300  1
  Te  Te7  1  0.24897681  0.33467926  0.16733963  1
  Te  Te8  1  0.75102319  0.66532074  0.83266037  1
  Te  Te9  1  0.24897681  0.83266037  0.16733963  1
  Te  Te10  1  0.75102319  0.16733963  0.33467926  1
  Te  Te11  1  0.75102319  0.16733963  0.83266037  1
  Te  Te12  1  0.24897681  0.83266037  0.66532074  1
