# generated using pymatgen
data_CrCuAsPb2O9
_symmetry_space_group_name_H-M   'P 1'
_cell_length_a   5.96731541
_cell_length_b   8.48548393
_cell_length_c   16.38445590
_cell_angle_alpha   99.45805628
_cell_angle_beta   90.00000000
_cell_angle_gamma   90.00000000
_symmetry_Int_Tables_number   1
_chemical_formula_structural   CrCuAsPb2O9
_chemical_formula_sum   'Cr4 Cu4 As4 Pb8 O36'
_cell_volume   818.35814479
_cell_formula_units_Z   4
loop_
 _symmetry_equiv_pos_site_id
 _symmetry_equiv_pos_as_xyz
  1  'x, y, z'
loop_
 _atom_site_type_symbol
 _atom_site_label
 _atom_site_symmetry_multiplicity
 _atom_site_fract_x
 _atom_site_fract_y
 _atom_site_fract_z
 _atom_site_occupancy
  Cr  Cr0  1  0.25705079  0.89221869  0.84305032  1
  Cr  Cr1  1  0.74294921  0.10778131  0.15694968  1
  Cr  Cr2  1  0.75705079  0.60778131  0.65694968  1
  Cr  Cr3  1  0.24294921  0.39221869  0.34305032  1
  Cu  Cu4  1  0.00824032  0.26413235  0.74908133  1
  Cu  Cu5  1  0.99175968  0.73586765  0.25091867  1
  Cu  Cu6  1  0.50824032  0.23586765  0.75091867  1
  Cu  Cu7  1  0.49175968  0.76413235  0.24908133  1
  As  As8  1  0.25671021  0.40640000  0.91567124  1
  As  As9  1  0.74328979  0.59360000  0.08432876  1
  As  As10  1  0.75671021  0.09360000  0.58432876  1
  As  As11  1  0.24328979  0.90640000  0.41567124  1
  Pb  Pb12  1  0.21207708  0.82912762  0.62853351  1
  Pb  Pb13  1  0.78792292  0.17087238  0.37146649  1
  Pb  Pb14  1  0.71207708  0.67087238  0.87146649  1
  Pb  Pb15  1  0.28792292  0.32912762  0.12853351  1
  Pb  Pb16  1  0.77898140  0.15751203  0.93364824  1
  Pb  Pb17  1  0.22101860  0.84248797  0.06635176  1
  Pb  Pb18  1  0.27898140  0.34248797  0.56635176  1
  Pb  Pb19  1  0.72101860  0.65751203  0.43364824  1
  O  O20  1  0.24545634  0.03554236  0.78617461  1
  O  O21  1  0.75454366  0.96445764  0.21382539  1
  O  O22  1  0.74545634  0.46445764  0.71382539  1
  O  O23  1  0.25454366  0.53554236  0.28617461  1
  O  O24  1  0.51921405  0.60825429  0.60031325  1
  O  O25  1  0.48078595  0.39174571  0.39968675  1
  O  O26  1  0.01921405  0.89174571  0.89968675  1
  O  O27  1  0.98078595  0.10825429  0.10031325  1
  O  O28  1  0.48560297  0.91659210  0.90622027  1
  O  O29  1  0.51439703  0.08340790  0.09377973  1
  O  O30  1  0.98560297  0.58340790  0.59377973  1
  O  O31  1  0.01439703  0.41659210  0.40622027  1
  O  O32  1  0.50065897  0.33890601  0.86116006  1
  O  O33  1  0.49934103  0.66109399  0.13883994  1
  O  O34  1  0.00065897  0.16109399  0.63883994  1
  O  O35  1  -0.00065897  0.83890601  0.36116006  1
  O  O36  1  0.32110744  0.59853434  0.95499972  1
  O  O37  1  0.67889256  0.40146566  0.04500028  1
  O  O38  1  0.82110744  0.90146566  0.54500028  1
  O  O39  1  0.17889256  0.09853434  0.45499972  1
  O  O40  1  0.27115190  0.35336764  0.72030533  1
  O  O41  1  0.72884810  0.64663236  0.27969467  1
  O  O42  1  0.77115190  0.14663236  0.77969467  1
  O  O43  1  0.22884810  0.85336764  0.22030533  1
  O  O44  1  0.78553916  0.77810236  0.72042724  1
  O  O45  1  0.21446084  0.22189764  0.27957276  1
  O  O46  1  0.28553916  0.72189764  0.77957276  1
  O  O47  1  0.71446084  0.27810236  0.22042724  1
  O  O48  1  0.19487801  0.28079992  0.98450796  1
  O  O49  1  0.80512199  0.71920008  0.01549204  1
  O  O50  1  0.69487801  0.21920008  0.51549204  1
  O  O51  1  0.30512199  0.78079992  0.48450796  1
  O  O52  1  0.00995189  0.38744184  0.85621684  1
  O  O53  1  0.99004811  0.61255816  0.14378316  1
  O  O54  1  0.50995189  0.11255816  0.64378316  1
  O  O55  1  0.49004811  0.88744184  0.35621684  1
