# generated using pymatgen
data_Ba2SmV3O11
_symmetry_space_group_name_H-M   'P 1'
_cell_length_a   7.84404983
_cell_length_b   12.50708679
_cell_length_c   11.39895822
_cell_angle_alpha   103.13995463
_cell_angle_beta   90.00000000
_cell_angle_gamma   90.00000000
_symmetry_Int_Tables_number   1
_chemical_formula_structural   Ba2SmV3O11
_chemical_formula_sum   'Ba8 Sm4 V12 O44'
_cell_volume   1089.02869475
_cell_formula_units_Z   4
loop_
 _symmetry_equiv_pos_site_id
 _symmetry_equiv_pos_as_xyz
  1  'x, y, z'
loop_
 _atom_site_type_symbol
 _atom_site_label
 _atom_site_symmetry_multiplicity
 _atom_site_fract_x
 _atom_site_fract_y
 _atom_site_fract_z
 _atom_site_occupancy
  Ba  Ba0  1  0.27451455  0.76706657  0.94150734  1
  Ba  Ba1  1  0.72548545  0.23293343  0.05849266  1
  Ba  Ba2  1  0.77451455  0.23293343  0.55849266  1
  Ba  Ba3  1  0.22548545  0.76706657  0.44150734  1
  Ba  Ba4  1  0.74764519  0.55407501  0.88935470  1
  Ba  Ba5  1  0.25235481  0.44592499  0.11064530  1
  Ba  Ba6  1  0.24764519  0.44592499  0.61064530  1
  Ba  Ba7  1  0.75235481  0.55407501  0.38935470  1
  Sm  Sm8  1  0.50112348  0.99773731  0.71196995  1
  Sm  Sm9  1  0.49887652  0.00226269  0.28803005  1
  Sm  Sm10  1  0.00112348  0.00226269  0.78803005  1
  Sm  Sm11  1  0.99887652  0.99773731  0.21196995  1
  V  V12  1  0.75278429  0.90508321  0.97605252  1
  V  V13  1  0.24721571  0.09491679  0.02394748  1
  V  V14  1  0.25278429  0.09491679  0.52394748  1
  V  V15  1  0.74721571  0.90508321  0.47605252  1
  V  V16  1  0.51967008  0.68348969  0.67341800  1
  V  V17  1  0.48032992  0.31651031  0.32658200  1
  V  V18  1  0.01967008  0.31651031  0.82658200  1
  V  V19  1  0.98032992  0.68348969  0.17341800  1
  V  V20  1  0.98083237  0.68696426  0.67053950  1
  V  V21  1  0.01916763  0.31303574  0.32946050  1
  V  V22  1  0.48083237  0.31303574  0.82946050  1
  V  V23  1  0.51916763  0.68696426  0.17053950  1
  O  O24  1  0.44381508  0.81696131  0.71829631  1
  O  O25  1  0.55618492  0.18303869  0.28170369  1
  O  O26  1  0.94381508  0.18303869  0.78170369  1
  O  O27  1  0.05618492  0.81696131  0.21829631  1
  O  O28  1  0.55126630  0.17855492  0.80774824  1
  O  O29  1  0.44873370  0.82144508  0.19225176  1
  O  O30  1  0.05126630  0.82144508  0.69225176  1
  O  O31  1  0.94873370  0.17855492  0.30774824  1
  O  O32  1  0.75032656  0.66630879  0.66743668  1
  O  O33  1  0.24967344  0.33369121  0.33256332  1
  O  O34  1  0.25032656  0.33369121  0.83256332  1
  O  O35  1  0.74967344  0.66630879  0.16743668  1
  O  O36  1  0.94482685  0.37549980  0.96613953  1
  O  O37  1  0.05517315  0.62450020  0.03386047  1
  O  O38  1  0.44482685  0.62450020  0.53386047  1
  O  O39  1  0.55517315  0.37549980  0.46613953  1
  O  O40  1  0.94119139  0.39223106  0.73155823  1
  O  O41  1  0.05880861  0.60776894  0.26844177  1
  O  O42  1  0.44119139  0.60776894  0.76844177  1
  O  O43  1  0.55880861  0.39223106  0.23155823  1
  O  O44  1  0.78440803  0.98617366  0.62347372  1
  O  O45  1  0.21559197  0.01382634  0.37652628  1
  O  O46  1  0.28440803  0.01382634  0.87652628  1
  O  O47  1  0.71559197  0.98617366  0.12347372  1
  O  O48  1  0.97147102  0.88336987  0.97357326  1
  O  O49  1  0.02852898  0.11663013  0.02642674  1
  O  O50  1  0.47147102  0.11663013  0.52642674  1
  O  O51  1  0.52852898  0.88336987  0.47357326  1
  O  O52  1  0.63998192  0.78589682  0.94676737  1
  O  O53  1  0.36001808  0.21410318  0.05323263  1
  O  O54  1  0.13998192  0.21410318  0.55323263  1
  O  O55  1  0.86001808  0.78589682  0.44676737  1
  O  O56  1  0.71806763  0.98289813  0.86542950  1
  O  O57  1  0.28193237  0.01710187  0.13457050  1
  O  O58  1  0.21806763  0.01710187  0.63457050  1
  O  O59  1  0.78193237  0.98289813  0.36542950  1
  O  O60  1  0.55851584  0.37041332  0.71892365  1
  O  O61  1  0.44148416  0.62958668  0.28107635  1
  O  O62  1  0.05851584  0.62958668  0.78107635  1
  O  O63  1  0.94148416  0.37041332  0.21892365  1
  O  O64  1  0.56260844  0.38753304  0.96132127  1
  O  O65  1  0.43739156  0.61246696  0.03867873  1
  O  O66  1  0.06260844  0.61246696  0.53867873  1
  O  O67  1  0.93739156  0.38753304  0.46132127  1
