# generated using pymatgen
data_Cr3Fe2Sb3O16
_symmetry_space_group_name_H-M   'P 1'
_cell_length_a   6.05737951
_cell_length_b   6.07217025
_cell_length_c   9.16643343
_cell_angle_alpha   89.98696406
_cell_angle_beta   90.18787419
_cell_angle_gamma   120.07831126
_symmetry_Int_Tables_number   1
_chemical_formula_structural   Cr3Fe2Sb3O16
_chemical_formula_sum   'Cr3 Fe2 Sb3 O16'
_cell_volume   291.75182322
_cell_formula_units_Z   1
loop_
 _symmetry_equiv_pos_site_id
 _symmetry_equiv_pos_as_xyz
  1  'x, y, z'
loop_
 _atom_site_type_symbol
 _atom_site_label
 _atom_site_symmetry_multiplicity
 _atom_site_fract_x
 _atom_site_fract_y
 _atom_site_fract_z
 _atom_site_occupancy
  Cr  Cr0  1  0.16708668  0.83218233  0.21006463  1
  Cr  Cr1  1  0.16702556  0.33517447  0.21035430  1
  Cr  Cr2  1  0.34053731  0.17028100  0.71017072  1
  Fe  Fe3  1  0.31431564  0.65724678  0.48955378  1
  Fe  Fe4  1  0.65270564  0.32627865  0.99590335  1
  Sb  Sb5  1  0.66506488  0.83252446  0.21073293  1
  Sb  Sb6  1  0.83649179  0.66630983  0.71233937  1
  Sb  Sb7  1  0.83648759  0.17020218  0.71233866  1
  O  O8  1  0.16089577  0.83009405  0.60126565  1
  O  O9  1  0.05148731  0.52576384  0.32524669  1
  O  O10  1  0.33490398  0.66746567  0.09816506  1
  O  O11  1  0.00062755  0.00027845  0.31504204  1
  O  O12  1  0.00407778  0.00201149  0.82090930  1
  O  O13  1  0.16086603  0.33088167  0.60123198  1
  O  O14  1  0.46814960  0.95064857  0.33731860  1
  O  O15  1  0.46834853  0.51748704  0.33732866  1
  O  O16  1  0.32972822  0.16476916  0.11260142  1
  O  O17  1  0.66979540  0.83495555  0.59969266  1
  O  O18  1  0.52718929  0.48105054  0.83686342  1
  O  O19  1  0.52718310  0.04607789  0.83686549  1
  O  O20  1  0.67134847  0.33573435  0.59374414  1
  O  O21  1  0.83986407  0.66885091  0.10320971  1
  O  O22  1  0.96599985  0.48295528  0.84154591  1
  O  O23  1  0.83981898  0.17097584  0.10323052  1
