# generated using pymatgen
data_Zr3TaFe8
_symmetry_space_group_name_H-M   'P 1'
_cell_length_a   4.93119372
_cell_length_b   4.93119372
_cell_length_c   8.54957196
_cell_angle_alpha   73.23850716
_cell_angle_beta   90.00000000
_cell_angle_gamma   120.00000000
_symmetry_Int_Tables_number   1
_chemical_formula_structural   Zr3TaFe8
_chemical_formula_sum   'Zr3 Ta1 Fe8'
_cell_volume   169.76836664
_cell_formula_units_Z   1
loop_
 _symmetry_equiv_pos_site_id
 _symmetry_equiv_pos_as_xyz
  1  'x, y, z'
loop_
 _atom_site_type_symbol
 _atom_site_label
 _atom_site_symmetry_multiplicity
 _atom_site_fract_x
 _atom_site_fract_y
 _atom_site_fract_z
 _atom_site_occupancy
  Zr  Zr0  1  0.37497694  0.74995387  0.87506919  1
  Zr  Zr1  1  0.99906664  0.99813329  0.00280007  1
  Zr  Zr2  1  0.50089424  0.00178847  0.49731729  1
  Ta  Ta3  1  0.87505340  0.75010680  0.37483979  1
  Fe  Fe4  1  0.43639797  0.37229620  0.19130582  1
  Fe  Fe5  1  0.93801714  0.37809368  0.68388918  1
  Fe  Fe6  1  0.43639797  0.87279595  0.19130582  1
  Fe  Fe7  1  0.93801714  0.87603429  0.68388918  1
  Fe  Fe8  1  0.18772287  0.37544574  0.43683139  1
  Fe  Fe9  1  0.68748091  0.37496182  0.93755728  1
  Fe  Fe10  1  0.93589823  0.37229620  0.19130582  1
  Fe  Fe11  1  0.44007654  0.37809368  0.68388918  1
