# generated using pymatgen
data_CrGaMo6(H19O20)2
_symmetry_space_group_name_H-M   'P 1'
_cell_length_a   7.02551776
_cell_length_b   11.63318225
_cell_length_c   11.90879888
_cell_angle_alpha   101.54327613
_cell_angle_beta   98.20542076
_cell_angle_gamma   103.05819532
_symmetry_Int_Tables_number   1
_chemical_formula_structural   CrGaMo6(H19O20)2
_chemical_formula_sum   'Cr1 Ga1 Mo6 H38 O40'
_cell_volume   910.76364870
_cell_formula_units_Z   1
loop_
 _symmetry_equiv_pos_site_id
 _symmetry_equiv_pos_as_xyz
  1  'x, y, z'
loop_
 _atom_site_type_symbol
 _atom_site_label
 _atom_site_symmetry_multiplicity
 _atom_site_fract_x
 _atom_site_fract_y
 _atom_site_fract_z
 _atom_site_occupancy
  Cr  Cr0  1  -0.00000000  -0.00000000  0.00000000  1
  Ga  Ga1  1  -0.00000000  0.50000000  0.50000000  1
  Mo  Mo2  1  0.98647655  0.07213323  0.28922976  1
  Mo  Mo3  1  0.01352345  0.92786677  0.71077024  1
  Mo  Mo4  1  0.33784911  0.24664987  0.18068194  1
  Mo  Mo5  1  0.66215089  0.75335013  0.81931806  1
  Mo  Mo6  1  0.36613785  0.16713814  0.89781782  1
  Mo  Mo7  1  0.63386215  0.83286186  0.10218218  1
  H  H8  1  0.69997874  0.47682996  0.12768528  1
  H  H9  1  0.30002126  0.52317004  0.87231472  1
  H  H10  1  0.03427958  0.22921851  0.97757633  1
  H  H11  1  0.96572042  0.77078149  0.02242367  1
  H  H12  1  0.35196999  0.59708140  0.44961131  1
  H  H13  1  0.64803001  0.40291860  0.55038869  1
  H  H14  1  0.22240664  0.81160249  0.38102483  1
  H  H15  1  0.77759336  0.18839751  0.61897517  1
  H  H16  1  0.46389165  0.56550365  0.28586012  1
  H  H17  1  0.53610835  0.43449635  0.71413988  1
  H  H18  1  0.71767908  0.08696002  0.08064505  1
  H  H19  1  0.28232092  0.91303998  0.91935495  1
  H  H20  1  0.17478286  0.71545278  0.13608400  1
  H  H21  1  0.82521714  0.28454722  0.86391600  1
  H  H22  1  0.13160380  0.63117742  0.00676200  1
  H  H23  1  0.86839620  0.36882258  0.99323800  1
  H  H24  1  0.45312743  0.09170591  0.63927792  1
  H  H25  1  0.54687257  0.90829409  0.36072208  1
  H  H26  1  0.02446337  0.34792681  0.30407869  1
  H  H27  1  0.97553663  0.65207319  0.69592131  1
  H  H28  1  0.01032018  0.81366440  0.31286482  1
  H  H29  1  0.98967982  0.18633560  0.68713518  1
  H  H30  1  0.40549921  0.11266086  0.51346787  1
  H  H31  1  0.59450079  0.88733914  0.48653213  1
  H  H32  1  0.28361851  0.98665506  0.16200703  1
  H  H33  1  0.71638149  0.01334494  0.83799297  1
  H  H34  1  0.06959405  0.54859025  0.73873460  1
  H  H35  1  0.93040595  0.45140975  0.26126540  1
  H  H36  1  0.64986869  0.34127351  0.41323661  1
  H  H37  1  0.35013131  0.65872649  0.58676339  1
  H  H38  1  0.01916834  0.31355915  0.58576550  1
  H  H39  1  0.98083166  0.68644085  0.41423450  1
  H  H40  1  0.08527097  0.44886326  0.87884417  1
  H  H41  1  0.91472903  0.55113674  0.12115583  1
  H  H42  1  0.48324759  0.29587687  0.63692423  1
  H  H43  1  0.51675241  0.70412313  0.36307577  1
  H  H44  1  0.24495333  0.38268192  0.57441341  1
  H  H45  1  0.75504667  0.61731808  0.42558659  1
  O  O46  1  0.79879909  0.03167133  0.09771706  1
  O  O47  1  0.20120091  0.96832867  0.90228294  1
  O  O48  1  0.51598125  0.61854903  0.36487716  1
  O  O49  1  0.48401875  0.38145097  0.63512284  1
  O  O50  1  0.18945837  0.03809552  0.15322361  1
  O  O51  1  0.81054163  0.96190448  0.84677639  1
  O  O52  1  0.83877070  0.47294268  0.13343985  1
  O  O53  1  0.16122930  0.52705732  0.86656015  1
  O  O54  1  0.10025388  0.36616133  0.53998915  1
  O  O55  1  0.89974612  0.63383867  0.46001085  1
  O  O56  1  0.09566502  0.22809189  0.24788727  1
  O  O57  1  0.90433498  0.77190811  0.75211273  1
  O  O58  1  0.50823383  0.25293218  0.30454186  1
  O  O59  1  0.49176617  0.74706782  0.69545814  1
  O  O60  1  0.48080776  0.18267231  0.06240931  1
  O  O61  1  0.51919224  0.81732769  0.93759069  1
  O  O62  1  0.44564613  0.88751863  0.16121829  1
  O  O63  1  0.55435387  0.11248137  0.83878171  1
  O  O64  1  0.37340862  0.39730447  0.16975079  1
  O  O65  1  0.62659138  0.60269553  0.83024921  1
  O  O66  1  0.00688875  0.57202429  0.66867503  1
  O  O67  1  0.99311125  0.42797571  0.33132497  1
  O  O68  1  0.58437248  0.68169957  0.10865784  1
  O  O69  1  0.41562752  0.31830043  0.89134216  1
  O  O70  1  0.80122264  0.11357366  0.35564038  1
  O  O71  1  0.19877736  0.88642634  0.64435962  1
  O  O72  1  0.08958076  0.75996708  0.33872047  1
  O  O73  1  0.91041924  0.24003292  0.66127953  1
  O  O74  1  0.17467218  0.07082845  0.40075389  1
  O  O75  1  0.82532782  0.92917155  0.59924611  1
  O  O76  1  0.49993706  0.14539970  0.58949190  1
  O  O77  1  0.50006294  0.85460030  0.41050810  1
  O  O78  1  0.13735072  0.10460490  0.76588091  1
  O  O79  1  0.86264928  0.89539510  0.23411909  1
  O  O80  1  0.27253738  0.59624412  0.51338240  1
  O  O81  1  0.72746262  0.40375588  0.48661760  1
  O  O82  1  0.06872504  0.66811584  0.06958843  1
  O  O83  1  0.93127496  0.33188416  0.93041157  1
  O  O84  1  0.11729074  0.17530060  0.00243564  1
  O  O85  1  0.88270926  0.82469940  0.99756436  1
