# generated using pymatgen
data_ZrTiFe4
_symmetry_space_group_name_H-M   'P 1'
_cell_length_a   4.91135447
_cell_length_b   4.91135447
_cell_length_c   7.93666696
_cell_angle_alpha   89.96367517
_cell_angle_beta   90.03632483
_cell_angle_gamma   119.98392054
_symmetry_Int_Tables_number   1
_chemical_formula_structural   ZrTiFe4
_chemical_formula_sum   'Zr2 Ti2 Fe8'
_cell_volume   165.82178130
_cell_formula_units_Z   2
loop_
 _symmetry_equiv_pos_site_id
 _symmetry_equiv_pos_as_xyz
  1  'x, y, z'
loop_
 _atom_site_type_symbol
 _atom_site_label
 _atom_site_symmetry_multiplicity
 _atom_site_fract_x
 _atom_site_fract_y
 _atom_site_fract_z
 _atom_site_occupancy
  Zr  Zr0  1  0.33334332  0.66665668  0.07048601  1
  Zr  Zr1  1  0.66665668  0.33334332  0.92951399  1
  Ti  Ti2  1  0.66662173  0.33337827  0.55176567  1
  Ti  Ti3  1  0.33337827  0.66662173  0.44823433  1
  Fe  Fe4  1  0.00000000  -0.00000000  0.50000000  1
  Fe  Fe5  1  0.00000000  -0.00000000  0.00000000  1
  Fe  Fe6  1  0.16865013  0.33734119  0.74309050  1
  Fe  Fe7  1  0.16867506  0.83132494  0.74292721  1
  Fe  Fe8  1  0.66265881  0.83134987  0.74309050  1
  Fe  Fe9  1  0.83134987  0.66265881  0.25690950  1
  Fe  Fe10  1  0.83132494  0.16867506  0.25707279  1
  Fe  Fe11  1  0.33734119  0.16865013  0.25690950  1
