# generated using pymatgen
data_Ba2Er2CuPtO8
_symmetry_space_group_name_H-M   'P 1'
_cell_length_a   5.71161940
_cell_length_b   13.32569064
_cell_length_c   10.39499544
_cell_angle_alpha   90.00000000
_cell_angle_beta   90.00000000
_cell_angle_gamma   90.00000000
_symmetry_Int_Tables_number   1
_chemical_formula_structural   Ba2Er2CuPtO8
_chemical_formula_sum   'Ba8 Er8 Cu4 Pt4 O32'
_cell_volume   791.17633762
_cell_formula_units_Z   4
loop_
 _symmetry_equiv_pos_site_id
 _symmetry_equiv_pos_as_xyz
  1  'x, y, z'
loop_
 _atom_site_type_symbol
 _atom_site_label
 _atom_site_symmetry_multiplicity
 _atom_site_fract_x
 _atom_site_fract_y
 _atom_site_fract_z
 _atom_site_occupancy
  Ba  Ba0  1  0.75000000  0.57732273  0.59256852  1
  Ba  Ba1  1  0.25000000  0.42267727  0.40743148  1
  Ba  Ba2  1  0.25000000  0.92267727  0.09256852  1
  Ba  Ba3  1  0.75000000  0.07732273  0.90743148  1
  Ba  Ba4  1  0.75000000  0.79262043  0.31497663  1
  Ba  Ba5  1  0.25000000  0.20737957  0.68502337  1
  Ba  Ba6  1  0.25000000  0.70737957  0.81497663  1
  Ba  Ba7  1  0.75000000  0.29262043  0.18502337  1
  Er  Er8  1  0.75000000  0.58290455  0.98725003  1
  Er  Er9  1  0.25000000  0.41709545  0.01274997  1
  Er  Er10  1  0.25000000  0.91709545  0.48725003  1
  Er  Er11  1  0.75000000  0.08290455  0.51274997  1
  Er  Er12  1  0.75000000  0.85866761  0.68797117  1
  Er  Er13  1  0.25000000  0.14133239  0.31202883  1
  Er  Er14  1  0.25000000  0.64133239  0.18797117  1
  Er  Er15  1  0.75000000  0.35866761  0.81202883  1
  Cu  Cu16  1  0.75000000  0.53882713  0.26670756  1
  Cu  Cu17  1  0.25000000  0.46117287  0.73329244  1
  Cu  Cu18  1  0.25000000  0.96117287  0.76670756  1
  Cu  Cu19  1  0.75000000  0.03882713  0.23329244  1
  Pt  Pt20  1  0.75000000  0.80572159  0.96807019  1
  Pt  Pt21  1  0.25000000  0.19427841  0.03192981  1
  Pt  Pt22  1  0.25000000  0.69427841  0.46807019  1
  Pt  Pt23  1  0.75000000  0.30572159  0.53192981  1
  O  O24  1  0.75000000  0.70372069  0.81452060  1
  O  O25  1  0.25000000  0.29627931  0.18547940  1
  O  O26  1  0.25000000  0.79627931  0.31452060  1
  O  O27  1  0.75000000  0.20372069  0.68547940  1
  O  O28  1  0.49082633  0.78495992  0.55692368  1
  O  O29  1  0.50917367  0.21504008  0.44307632  1
  O  O30  1  0.50917367  0.71504008  0.05692368  1
  O  O31  1  0.99082633  0.21504008  0.44307632  1
  O  O32  1  0.49082633  0.28495992  0.94307632  1
  O  O33  1  0.00917367  0.78495992  0.55692368  1
  O  O34  1  0.00917367  0.28495992  0.94307632  1
  O  O35  1  0.99082633  0.71504008  0.05692368  1
  O  O36  1  0.99082077  0.88606269  0.86027897  1
  O  O37  1  0.00917923  0.11393731  0.13972103  1
  O  O38  1  0.00917923  0.61393731  0.36027897  1
  O  O39  1  0.49082077  0.11393731  0.13972103  1
  O  O40  1  0.99082077  0.38606269  0.63972103  1
  O  O41  1  0.50917923  0.88606269  0.86027897  1
  O  O42  1  0.50917923  0.38606269  0.63972103  1
  O  O43  1  0.49082077  0.61393731  0.36027897  1
  O  O44  1  0.49550216  0.99170000  0.63482116  1
  O  O45  1  0.50449784  0.00830000  0.36517884  1
  O  O46  1  0.50449784  0.50830000  0.13482116  1
  O  O47  1  0.99550216  0.00830000  0.36517884  1
  O  O48  1  0.49550216  0.49170000  0.86517884  1
  O  O49  1  0.00449784  0.99170000  0.63482116  1
  O  O50  1  0.00449784  0.49170000  0.86517884  1
  O  O51  1  0.99550216  0.50830000  0.13482116  1
  O  O52  1  0.75000000  0.41129361  0.39012436  1
  O  O53  1  0.25000000  0.58870639  0.60987564  1
  O  O54  1  0.25000000  0.08870639  0.89012436  1
  O  O55  1  0.75000000  0.91129361  0.10987564  1
