# generated using pymatgen
data_ZrUB24
_symmetry_space_group_name_H-M   'P 1'
_cell_length_a   5.26287363
_cell_length_b   5.26287363
_cell_length_c   9.07371463
_cell_angle_alpha   73.14165098
_cell_angle_beta   90.00000000
_cell_angle_gamma   120.00000000
_symmetry_Int_Tables_number   1
_chemical_formula_structural   ZrUB24
_chemical_formula_sum   'Zr1 U1 B24'
_cell_volume   205.08517431
_cell_formula_units_Z   1
loop_
 _symmetry_equiv_pos_site_id
 _symmetry_equiv_pos_as_xyz
  1  'x, y, z'
loop_
 _atom_site_type_symbol
 _atom_site_label
 _atom_site_symmetry_multiplicity
 _atom_site_fract_x
 _atom_site_fract_y
 _atom_site_fract_z
 _atom_site_occupancy
  Zr  Zr0  1  0.50000000  0.00000000  0.50000000  1
  U  U1  1  0.00000000  0.00000000  -0.00000000  1
  B  B2  1  0.91200177  0.50085175  0.24993287  1
  B  B3  1  0.41115001  0.49914825  0.75006713  1
  B  B4  1  0.08001473  0.49963932  0.42034594  1
  B  B5  1  0.58008948  0.50042853  0.91948200  1
  B  B6  1  0.24921538  0.83806537  0.24993287  1
  B  B7  1  0.75078462  0.83878285  0.75006713  1
  B  B8  1  0.08001473  0.16002947  0.42034594  1
  B  B9  1  0.58008948  0.16017895  0.91948200  1
  B  B10  1  0.91200177  0.16121715  0.24993287  1
  B  B11  1  0.41115001  0.16193463  0.75006713  1
  B  B12  1  0.24921538  0.16121715  0.24993287  1
  B  B13  1  0.75078462  0.16193463  0.75006713  1
  B  B14  1  0.41991052  0.83982105  0.08051800  1
  B  B15  1  0.91998527  0.83997053  0.57965406  1
  B  B16  1  0.41991052  0.49957147  0.08051800  1
  B  B17  1  0.91998527  0.50036068  0.57965406  1
  B  B18  1  0.07966095  0.49957147  0.08051800  1
  B  B19  1  0.58037541  0.50036068  0.57965406  1
  B  B20  1  0.58884999  0.50085175  0.24993287  1
  B  B21  1  0.08799823  0.49914825  0.75006713  1
  B  B22  1  0.58884999  0.83806537  0.24993287  1
  B  B23  1  0.08799823  0.83878285  0.75006713  1
  B  B24  1  0.41962459  0.49963932  0.42034594  1
  B  B25  1  0.92033905  0.50042853  0.91948200  1
