# generated using pymatgen
data_Fe10O19F
_symmetry_space_group_name_H-M   'P 1'
_cell_length_a   4.61243520
_cell_length_b   7.52357406
_cell_length_c   9.68626787
_cell_angle_alpha   109.93991779
_cell_angle_beta   90.70364737
_cell_angle_gamma   89.47572096
_symmetry_Int_Tables_number   1
_chemical_formula_structural   Fe10O19F
_chemical_formula_sum   'Fe10 O19 F1'
_cell_volume   315.95370607
_cell_formula_units_Z   1
loop_
 _symmetry_equiv_pos_site_id
 _symmetry_equiv_pos_as_xyz
  1  'x, y, z'
loop_
 _atom_site_type_symbol
 _atom_site_label
 _atom_site_symmetry_multiplicity
 _atom_site_fract_x
 _atom_site_fract_y
 _atom_site_fract_z
 _atom_site_occupancy
  Fe  Fe0  1  0.50032366  0.30046394  0.90158937  1
  Fe  Fe1  1  0.49530589  0.09849027  0.30173320  1
  Fe  Fe2  1  0.49919778  0.90092513  0.70081750  1
  Fe  Fe3  1  0.52008251  0.70355880  0.09312620  1
  Fe  Fe4  1  0.49911190  0.49904551  0.49761636  1
  Fe  Fe5  1  0.00703790  0.59935491  0.79615826  1
  Fe  Fe6  1  0.99816463  0.20144707  0.60197939  1
  Fe  Fe7  1  0.98471114  0.80363950  0.40911225  1
  Fe  Fe8  1  0.98885186  0.39064584  0.20063388  1
  Fe  Fe9  1  0.00499796  0.00129134  0.99833581  1
  O  O10  1  0.82121658  0.76361902  0.97141717  1
  O  O11  1  0.80195647  0.96952462  0.58393804  1
  O  O12  1  0.80843285  0.55931326  0.37479322  1
  O  O13  1  0.81368009  0.36359666  0.77596454  1
  O  O14  1  0.80326665  0.15270542  0.17442732  1
  O  O15  1  0.68979227  0.06289751  0.87859871  1
  O  O16  1  0.69212449  0.66168810  0.67482319  1
  O  O17  1  0.69346172  0.46340862  0.07693015  1
  O  O18  1  0.69099132  0.85807765  0.27691092  1
  O  O19  1  0.68870119  0.26197961  0.47609819  1
  O  O20  1  0.30636246  0.13979810  0.72653082  1
  O  O21  1  0.30768166  0.73891887  0.52152918  1
  O  O22  1  0.30543389  0.33852542  0.32268453  1
  O  O23  1  0.30920419  0.93667483  0.12356562  1
  O  O24  1  0.31404071  0.53882118  0.92336841  1
  O  O25  1  0.19130287  0.43697938  0.62244891  1
  O  O26  1  0.18500777  0.04055183  0.42844446  1
  O  O27  1  0.19561986  0.83885928  0.82197185  1
  O  O28  1  0.18813109  0.23694811  0.02371080  1
  F  F29  1  0.19580961  0.63825220  0.22074176  1
