# generated using pymatgen
data_Yb5In4Cu20Rh
_symmetry_space_group_name_H-M   'P 1'
_cell_length_a   5.07373458
_cell_length_b   5.07373458
_cell_length_c   20.56350302
_cell_angle_alpha   97.08648885
_cell_angle_beta   82.91351115
_cell_angle_gamma   120.00000000
_symmetry_Int_Tables_number   1
_chemical_formula_structural   Yb5In4Cu20Rh
_chemical_formula_sum   'Yb5 In4 Cu20 Rh1'
_cell_volume   453.76541347
_cell_formula_units_Z   1
loop_
 _symmetry_equiv_pos_site_id
 _symmetry_equiv_pos_as_xyz
  1  'x, y, z'
loop_
 _atom_site_type_symbol
 _atom_site_label
 _atom_site_symmetry_multiplicity
 _atom_site_fract_x
 _atom_site_fract_y
 _atom_site_fract_z
 _atom_site_occupancy
  Yb  Yb0  1  0.39794314  0.60205686  0.80617059  1
  Yb  Yb1  1  0.19988640  0.80011360  0.40034081  1
  Yb  Yb2  1  0.80004607  0.19995393  0.59986179  1
  Yb  Yb3  1  0.00165874  0.99834126  0.99502378  1
  Yb  Yb4  1  0.59992556  0.40007444  0.20022331  1
  In  In5  1  0.95012548  0.04987452  0.14962357  1
  In  In6  1  0.54983457  0.45016543  0.35049628  1
  In  In7  1  0.14996311  0.85003689  0.55011067  1
  In  In8  1  0.74979143  0.25020857  0.75062571  1
  Cu  Cu9  1  0.47425072  0.52574928  0.07342012  1
  Cu  Cu10  1  0.07508574  0.92491426  0.27492563  1
  Cu  Cu11  1  0.67478533  0.32521467  0.47504931  1
  Cu  Cu12  1  0.27489665  0.72510335  0.67522476  1
  Cu  Cu13  1  0.87420326  0.12579674  0.87641550  1
  Cu  Cu14  1  0.47425072  0.02192157  0.07342012  1
  Cu  Cu15  1  0.07508574  0.42509712  0.27492563  1
  Cu  Cu16  1  0.67478533  0.82461997  0.47504931  1
  Cu  Cu17  1  0.27489665  0.22501806  0.67522476  1
  Cu  Cu18  1  0.87420326  0.62482202  0.87641550  1
  Cu  Cu19  1  0.27548918  0.72451082  0.17353246  1
  Cu  Cu20  1  0.87511237  0.12488763  0.37466289  1
  Cu  Cu21  1  0.47519776  0.52480224  0.57440672  1
  Cu  Cu22  1  0.07498594  0.92501406  0.77504217  1
  Cu  Cu23  1  0.67506414  0.32493586  0.97480757  1
  Cu  Cu24  1  0.97807843  0.52574928  0.07342012  1
  Cu  Cu25  1  0.57490288  0.92491426  0.27492563  1
  Cu  Cu26  1  0.17538003  0.32521467  0.47504931  1
  Cu  Cu27  1  0.77498194  0.72510335  0.67522476  1
  Cu  Cu28  1  0.37517798  0.12579674  0.87641550  1
  Rh  Rh29  1  0.35001144  0.64998856  0.94996568  1
