# generated using pymatgen
data_Zn4CdSe4S
_symmetry_space_group_name_H-M   'P 1'
_cell_length_a   4.09086794
_cell_length_b   5.79147482
_cell_length_c   10.79193008
_cell_angle_alpha   74.43541873
_cell_angle_beta   79.07442982
_cell_angle_gamma   90.00000000
_symmetry_Int_Tables_number   1
_chemical_formula_structural   Zn4CdSe4S
_chemical_formula_sum   'Zn4 Cd1 Se4 S1'
_cell_volume   241.49348545
_cell_formula_units_Z   1
loop_
 _symmetry_equiv_pos_site_id
 _symmetry_equiv_pos_as_xyz
  1  'x, y, z'
loop_
 _atom_site_type_symbol
 _atom_site_label
 _atom_site_symmetry_multiplicity
 _atom_site_fract_x
 _atom_site_fract_y
 _atom_site_fract_z
 _atom_site_occupancy
  Zn  Zn0  1  0.40129318  0.40757278  0.19741364  1
  Zn  Zn1  1  0.79858605  0.79830740  0.40282791  1
  Zn  Zn2  1  0.20141395  0.20113530  0.59717209  1
  Zn  Zn3  1  0.59870682  0.60498643  0.80258636  1
  Cd  Cd4  1  0.00000000  0.98810807  1.00000000  1
  Se  Se5  1  0.89543672  0.15704965  0.20912655  1
  Se  Se6  1  0.30103250  0.55454580  0.39793501  1
  Se  Se7  1  0.69896750  0.95248081  0.60206499  1
  Se  Se8  1  0.10456328  0.36617621  0.79087345  1
  S  S9  1  0.50000000  0.71963754  1.00000000  1
