# generated using pymatgen
data_Y4Mn3NiO12
_symmetry_space_group_name_H-M   'P 1'
_cell_length_a   5.30366519
_cell_length_b   5.69454380
_cell_length_c   7.63750898
_cell_angle_alpha   89.97547421
_cell_angle_beta   89.49261886
_cell_angle_gamma   90.73520200
_symmetry_Int_Tables_number   1
_chemical_formula_structural   Y4Mn3NiO12
_chemical_formula_sum   'Y4 Mn3 Ni1 O12'
_cell_volume   230.63962544
_cell_formula_units_Z   1
loop_
 _symmetry_equiv_pos_site_id
 _symmetry_equiv_pos_as_xyz
  1  'x, y, z'
loop_
 _atom_site_type_symbol
 _atom_site_label
 _atom_site_symmetry_multiplicity
 _atom_site_fract_x
 _atom_site_fract_y
 _atom_site_fract_z
 _atom_site_occupancy
  Y  Y0  1  0.51827993  0.57331094  0.24807178  1
  Y  Y1  1  0.97965554  0.07879108  0.24559276  1
  Y  Y2  1  0.48172007  0.42668906  0.75192822  1
  Y  Y3  1  0.02034446  0.92120892  0.75440724  1
  Mn  Mn4  1  0.50000000  0.00000000  0.50000000  1
  Mn  Mn5  1  -0.00000000  0.50000000  0.50000000  1
  Mn  Mn6  1  0.50000000  0.00000000  -0.00000000  1
  Ni  Ni7  1  -0.00000000  0.50000000  -0.00000000  1
  O  O8  1  0.79901588  0.81513488  0.05345362  1
  O  O9  1  0.69440580  0.31452290  0.44462049  1
  O  O10  1  0.20308078  0.17766233  0.55909545  1
  O  O11  1  0.32040213  0.70484796  0.94271756  1
  O  O12  1  0.20098412  0.18486512  0.94654638  1
  O  O13  1  0.30559420  0.68547710  0.55537951  1
  O  O14  1  0.79691922  0.82233767  0.44090455  1
  O  O15  1  0.67959787  0.29515204  0.05728244  1
  O  O16  1  0.38521832  0.96030730  0.24134766  1
  O  O17  1  0.10806661  0.46489889  0.25516771  1
  O  O18  1  0.61478168  0.03969270  0.75865234  1
  O  O19  1  0.89193339  0.53510111  0.74483229  1
