# generated using pymatgen
data_YBiRu2O7
_symmetry_space_group_name_H-M   'P 1'
_cell_length_a   7.30083432
_cell_length_b   7.30083432
_cell_length_c   7.30083432
_cell_angle_alpha   90.03852536
_cell_angle_beta   59.70823758
_cell_angle_gamma   119.75345846
_symmetry_Int_Tables_number   1
_chemical_formula_structural   YBiRu2O7
_chemical_formula_sum   'Y2 Bi2 Ru4 O14'
_cell_volume   275.06918208
_cell_formula_units_Z   2
loop_
 _symmetry_equiv_pos_site_id
 _symmetry_equiv_pos_as_xyz
  1  'x, y, z'
loop_
 _atom_site_type_symbol
 _atom_site_label
 _atom_site_symmetry_multiplicity
 _atom_site_fract_x
 _atom_site_fract_y
 _atom_site_fract_z
 _atom_site_occupancy
  Y  Y0  1  0.25000000  0.87500000  0.37500000  1
  Y  Y1  1  0.75000000  0.37500000  0.37500000  1
  Bi  Bi2  1  0.75000000  0.37500000  0.87500000  1
  Bi  Bi3  1  0.25000000  0.37500000  0.37500000  1
  Ru  Ru4  1  0.75000000  0.87500000  0.37500000  1
  Ru  Ru5  1  0.25000000  0.87500000  0.87500000  1
  Ru  Ru6  1  0.25000000  0.37500000  0.87500000  1
  Ru  Ru7  1  0.75000000  0.87500000  0.87500000  1
  O  O8  1  0.91131643  0.95700038  0.54461241  1
  O  O9  1  0.49838721  0.54407115  0.54461241  1
  O  O10  1  0.50000000  0.95681768  0.54318232  1
  O  O11  1  0.08868357  0.54407115  0.95431605  1
  O  O12  1  0.50161279  0.95700038  0.95431605  1
  O  O13  1  0.50000000  0.54487752  0.95512248  1
  O  O14  1  0.58868357  0.79299962  0.20538759  1
  O  O15  1  0.00161279  0.20592885  0.20538759  1
  O  O16  1  -0.00000000  0.79318232  0.20681768  1
  O  O17  1  0.41131643  0.20592885  0.79568395  1
  O  O18  1  0.99838721  0.79299962  0.79568395  1
  O  O19  1  -0.00000000  0.20512248  0.79487752  1
  O  O20  1  0.50000000  0.24093361  0.25906639  1
  O  O21  1  -0.00000000  0.50906639  0.49093361  1
