# generated using pymatgen
data_Tm5Te4Se
_symmetry_space_group_name_H-M   'P 1'
_cell_length_a   4.22335462
_cell_length_b   9.48287024
_cell_length_c   7.47926878
_cell_angle_alpha   106.27053403
_cell_angle_beta   106.39975776
_cell_angle_gamma   77.13331192
_symmetry_Int_Tables_number   1
_chemical_formula_structural   Tm5Te4Se
_chemical_formula_sum   'Tm5 Te4 Se1'
_cell_volume   272.47228216
_cell_formula_units_Z   1
loop_
 _symmetry_equiv_pos_site_id
 _symmetry_equiv_pos_as_xyz
  1  'x, y, z'
loop_
 _atom_site_type_symbol
 _atom_site_label
 _atom_site_symmetry_multiplicity
 _atom_site_fract_x
 _atom_site_fract_y
 _atom_site_fract_z
 _atom_site_occupancy
  Tm  Tm0  1  -0.00000000  0.50000000  0.50000000  1
  Tm  Tm1  1  0.41624132  0.91182912  0.74431176  1
  Tm  Tm2  1  0.81585890  0.26978831  0.90150611  1
  Tm  Tm3  1  0.18414110  0.73021169  0.09849389  1
  Tm  Tm4  1  0.58375868  0.08817088  0.25568824  1
  Te  Te5  1  0.39053981  0.41084343  0.19192306  1
  Te  Te6  1  0.80645034  0.80801250  0.42091318  1
  Te  Te7  1  0.19354966  0.19198750  0.57908682  1
  Te  Te8  1  0.60946019  0.58915657  0.80807694  1
  Se  Se9  1  -0.00000000  0.00000000  0.00000000  1
