# generated using pymatgen
data_U2NiGe2Pd
_symmetry_space_group_name_H-M   'P 1'
_cell_length_a   4.41710964
_cell_length_b   6.73304070
_cell_length_c   7.50476609
_cell_angle_alpha   90.00000000
_cell_angle_beta   90.00000000
_cell_angle_gamma   90.00000000
_symmetry_Int_Tables_number   1
_chemical_formula_structural   U2NiGe2Pd
_chemical_formula_sum   'U4 Ni2 Ge4 Pd2'
_cell_volume   223.19608864
_cell_formula_units_Z   2
loop_
 _symmetry_equiv_pos_site_id
 _symmetry_equiv_pos_as_xyz
  1  'x, y, z'
loop_
 _atom_site_type_symbol
 _atom_site_label
 _atom_site_symmetry_multiplicity
 _atom_site_fract_x
 _atom_site_fract_y
 _atom_site_fract_z
 _atom_site_occupancy
  U  U0  1  0.75000000  0.50865020  0.70651588  1
  U  U1  1  0.75000000  0.00865020  0.79348412  1
  U  U2  1  0.25000000  0.48935482  0.28333858  1
  U  U3  1  0.25000000  0.98935482  0.21666142  1
  Ni  Ni4  1  0.75000000  0.31073262  0.07508953  1
  Ni  Ni5  1  0.75000000  0.81073262  0.42491047  1
  Ge  Ge6  1  0.75000000  0.70459935  0.10104794  1
  Ge  Ge7  1  0.75000000  0.20459935  0.39895206  1
  Ge  Ge8  1  0.25000000  0.28766681  0.92164037  1
  Ge  Ge9  1  0.25000000  0.78766681  0.57835963  1
  Pd  Pd10  1  0.25000000  0.69899620  0.91561522  1
  Pd  Pd11  1  0.25000000  0.19899620  0.58438478  1
