# generated using pymatgen
data_V3Fe3(TeO8)2
_symmetry_space_group_name_H-M   'P 1'
_cell_length_a   6.02786669
_cell_length_b   5.96007010
_cell_length_c   10.49733289
_cell_angle_alpha   89.41145683
_cell_angle_beta   90.03944535
_cell_angle_gamma   119.97213426
_symmetry_Int_Tables_number   1
_chemical_formula_structural   V3Fe3(TeO8)2
_chemical_formula_sum   'V3 Fe3 Te2 O16'
_cell_volume   326.67647553
_cell_formula_units_Z   1
loop_
 _symmetry_equiv_pos_site_id
 _symmetry_equiv_pos_as_xyz
  1  'x, y, z'
loop_
 _atom_site_type_symbol
 _atom_site_label
 _atom_site_symmetry_multiplicity
 _atom_site_fract_x
 _atom_site_fract_y
 _atom_site_fract_z
 _atom_site_occupancy
  V  V0  1  0.64267008  0.82584532  0.24347653  1
  V  V1  1  0.78988534  0.67306360  0.69611944  1
  V  V2  1  0.84545015  0.20039091  0.73357288  1
  Fe  Fe3  1  0.16174762  0.82888290  0.21320473  1
  Fe  Fe4  1  0.16482992  0.33825735  0.21348304  1
  Fe  Fe5  1  0.33661614  0.15473280  0.69930514  1
  Te  Te6  1  0.27531034  0.63502772  0.49325072  1
  Te  Te7  1  0.66581009  0.33609910  0.02291802  1
  O  O8  1  0.14442366  0.81315590  0.60343744  1
  O  O9  1  0.04203433  0.52172932  0.34135762  1
  O  O10  1  0.36085061  0.68505429  0.12665506  1
  O  O11  1  0.98347654  0.99209838  0.29721145  1
  O  O12  1  0.99033890  0.98816886  0.79022770  1
  O  O13  1  0.14128386  0.31764016  0.59995033  1
  O  O14  1  0.50782191  0.97521713  0.32964599  1
  O  O15  1  0.50179815  0.53485154  0.33064194  1
  O  O16  1  0.34409648  0.17554894  0.11968885  1
  O  O17  1  0.68744548  0.82795334  0.59705419  1
  O  O18  1  0.52640293  0.49647912  0.79579293  1
  O  O19  1  0.54027937  0.03072316  0.80287174  1
  O  O20  1  0.70342095  0.35015290  0.61425243  1
  O  O21  1  0.83215586  0.65988200  0.11142497  1
  O  O22  1  0.97928672  0.46192035  0.82818035  1
  O  O23  1  0.83256656  0.17732693  0.11199452  1
