# generated using pymatgen
data_V2(CrSi)3
_symmetry_space_group_name_H-M   'P 1'
_cell_length_a   4.65927653
_cell_length_b   6.90842089
_cell_length_c   6.90842089
_cell_angle_alpha   96.94009743
_cell_angle_beta   109.70742057
_cell_angle_gamma   70.29257943
_symmetry_Int_Tables_number   1
_chemical_formula_structural   V2(CrSi)3
_chemical_formula_sum   'V4 Cr6 Si6'
_cell_volume   197.07668649
_cell_formula_units_Z   2
loop_
 _symmetry_equiv_pos_site_id
 _symmetry_equiv_pos_as_xyz
  1  'x, y, z'
loop_
 _atom_site_type_symbol
 _atom_site_label
 _atom_site_symmetry_multiplicity
 _atom_site_fract_x
 _atom_site_fract_y
 _atom_site_fract_z
 _atom_site_occupancy
  V  V0  1  0.42208887  0.84799477  0.69217252  1
  V  V1  1  0.57791113  0.15200523  0.30782748  1
  V  V2  1  0.92208887  0.30782748  0.15200523  1
  V  V3  1  0.07791113  0.69217252  0.84799477  1
  Cr  Cr4  1  0.72435768  0.69935587  0.14807122  1
  Cr  Cr5  1  0.27564232  0.30064413  0.85192878  1
  Cr  Cr6  1  0.77564232  0.14807122  0.69935587  1
  Cr  Cr7  1  0.22435768  0.85192878  0.30064413  1
  Cr  Cr8  1  0.25000000  0.50000000  0.50000000  1
  Cr  Cr9  1  0.75000000  0.50000000  0.50000000  1
  Si  Si10  1  0.25000000  0.00000000  0.00000000  1
  Si  Si11  1  0.75000000  0.00000000  0.00000000  1
  Si  Si12  1  0.33407995  0.50192012  0.17008003  1
  Si  Si13  1  0.66592005  0.49807988  0.82991997  1
  Si  Si14  1  0.83407995  0.82991997  0.49807988  1
  Si  Si15  1  0.16592005  0.17008003  0.50192012  1
