# generated using pymatgen
data_Tl4Bi
_symmetry_space_group_name_H-M   'P 1'
_cell_length_a   3.49824507
_cell_length_b   3.49824507
_cell_length_c   15.03114912
_cell_angle_alpha   90.00000000
_cell_angle_beta   96.68245018
_cell_angle_gamma   120.00000000
_symmetry_Int_Tables_number   1
_chemical_formula_structural   Tl4Bi
_chemical_formula_sum   'Tl4 Bi1'
_cell_volume   157.85810389
_cell_formula_units_Z   1
loop_
 _symmetry_equiv_pos_site_id
 _symmetry_equiv_pos_as_xyz
  1  'x, y, z'
loop_
 _atom_site_type_symbol
 _atom_site_label
 _atom_site_symmetry_multiplicity
 _atom_site_fract_x
 _atom_site_fract_y
 _atom_site_fract_z
 _atom_site_occupancy
  Tl  Tl0  1  0.79952924  0.39976462  0.19929386  1
  Tl  Tl1  1  0.59953195  0.79976597  0.39929792  1
  Tl  Tl2  1  0.40046805  0.20023403  0.60070208  1
  Tl  Tl3  1  0.20047076  0.60023538  0.80070614  1
  Bi  Bi4  1  -0.00000000  -0.00000000  -0.00000000  1
