# generated using pymatgen
data_Y40Se40OF38
_symmetry_space_group_name_H-M   'P 1'
_cell_length_a   4.12963946
_cell_length_b   20.07842444
_cell_length_c   32.07660094
_cell_angle_alpha   96.04955737
_cell_angle_beta   90.00000000
_cell_angle_gamma   90.00000000
_symmetry_Int_Tables_number   1
_chemical_formula_structural   Y40Se40OF38
_chemical_formula_sum   'Y40 Se40 O1 F38'
_cell_volume   2644.87293486
_cell_formula_units_Z   1
loop_
 _symmetry_equiv_pos_site_id
 _symmetry_equiv_pos_as_xyz
  1  'x, y, z'
loop_
 _atom_site_type_symbol
 _atom_site_label
 _atom_site_symmetry_multiplicity
 _atom_site_fract_x
 _atom_site_fract_y
 _atom_site_fract_z
 _atom_site_occupancy
  Y  Y0  1  0.25000000  0.03171617  0.45309239  1
  Y  Y1  1  0.25000000  0.53166618  0.45306271  1
  Y  Y2  1  0.75000000  0.46836153  0.54707124  1
  Y  Y3  1  0.75000000  0.96836889  0.54708675  1
  Y  Y4  1  0.25000000  0.21327031  0.05002769  1
  Y  Y5  1  0.25000000  0.71381969  0.05004256  1
  Y  Y6  1  0.75000000  0.28586024  0.94972748  1
  Y  Y7  1  0.75000000  0.78619306  0.94951410  1
  Y  Y8  1  0.25000000  0.06487763  0.65303751  1
  Y  Y9  1  0.25000000  0.56491206  0.65300669  1
  Y  Y10  1  0.75000000  0.43511346  0.34706892  1
  Y  Y11  1  0.75000000  0.93514784  0.34721869  1
  Y  Y12  1  0.25000000  0.24934798  0.24709158  1
  Y  Y13  1  0.25000000  0.74860208  0.24735309  1
  Y  Y14  1  0.75000000  0.25064159  0.75291669  1
  Y  Y15  1  0.75000000  0.75089349  0.75295617  1
  Y  Y16  1  0.25000000  0.31490837  0.64726008  1
  Y  Y17  1  0.25000000  0.81489595  0.64726792  1
  Y  Y18  1  0.75000000  0.18517421  0.35288022  1
  Y  Y19  1  0.75000000  0.68506939  0.35291861  1
  Y  Y20  1  0.25000000  0.49760705  0.25262964  1
  Y  Y21  1  0.25000000  0.99820240  0.25295657  1
  Y  Y22  1  0.75000000  0.00236034  0.74745117  1
  Y  Y23  1  0.75000000  0.50228797  0.74737650  1
  Y  Y24  1  0.25000000  0.09556310  0.85603782  1
  Y  Y25  1  0.25000000  0.59613430  0.85525748  1
  Y  Y26  1  0.75000000  0.40368776  0.14460230  1
  Y  Y27  1  0.75000000  0.90296742  0.14590165  1
  Y  Y28  1  0.25000000  0.46810809  0.04829305  1
  Y  Y29  1  0.25000000  0.96784552  0.04926249  1
  Y  Y30  1  0.75000000  0.03070782  0.95300131  1
  Y  Y31  1  0.75000000  0.53164218  0.95151468  1
  Y  Y32  1  0.25000000  0.34787494  0.84596375  1
  Y  Y33  1  0.25000000  0.84811864  0.84618197  1
  Y  Y34  1  0.75000000  0.15264393  0.15396189  1
  Y  Y35  1  0.75000000  0.65187765  0.15400368  1
  Y  Y36  1  0.25000000  0.28030579  0.44702557  1
  Y  Y37  1  0.25000000  0.78023540  0.44704599  1
  Y  Y38  1  0.75000000  0.21972516  0.55311941  1
  Y  Y39  1  0.75000000  0.71973500  0.55312645  1
  Se  Se40  1  0.25000000  0.40177521  0.40683376  1
  Se  Se41  1  0.25000000  0.90176719  0.40680647  1
  Se  Se42  1  0.75000000  0.09821487  0.59310898  1
  Se  Se43  1  0.75000000  0.59821609  0.59310760  1
  Se  Se44  1  0.25000000  0.23429626  0.89327116  1
  Se  Se45  1  0.25000000  0.73398294  0.89323470  1
  Se  Se46  1  0.75000000  0.26585524  0.10673131  1
  Se  Se47  1  0.75000000  0.76653917  0.10686585  1
  Se  Se48  1  0.25000000  0.09813826  0.09516367  1
  Se  Se49  1  0.25000000  0.59780543  0.09452538  1
  Se  Se50  1  0.75000000  0.40224324  0.90557926  1
  Se  Se51  1  0.75000000  0.90202695  0.90581763  1
  Se  Se52  1  0.25000000  0.16621113  0.49334678  1
  Se  Se53  1  0.25000000  0.66621895  0.49335137  1
  Se  Se54  1  0.75000000  0.33376215  0.50658800  1
  Se  Se55  1  0.75000000  0.83377514  0.50657618  1
  Se  Se56  1  0.25000000  0.19946591  0.69259363  1
  Se  Se57  1  0.25000000  0.69945383  0.69259571  1
  Se  Se58  1  0.75000000  0.30047847  0.30738655  1
  Se  Se59  1  0.75000000  0.80058856  0.30730236  1
  Se  Se60  1  0.25000000  0.33370865  0.00767616  1
  Se  Se61  1  0.25000000  0.83302656  0.00774928  1
  Se  Se62  1  0.75000000  0.16641571  0.99253254  1
  Se  Se63  1  0.75000000  0.66622439  0.99249117  1
  Se  Se64  1  0.25000000  0.13320913  0.29242915  1
  Se  Se65  1  0.25000000  0.63336025  0.29248333  1
  Se  Se66  1  0.75000000  0.36664827  0.70750345  1
  Se  Se67  1  0.75000000  0.86664465  0.70747562  1
  Se  Se68  1  0.25000000  0.36891284  0.20536002  1
  Se  Se69  1  0.25000000  0.86869141  0.20546593  1
  Se  Se70  1  0.75000000  0.13108428  0.79483875  1
  Se  Se71  1  0.75000000  0.63113311  0.79466595  1
  Se  Se72  1  0.25000000  0.46846977  0.80680070  1
  Se  Se73  1  0.25000000  0.96840193  0.80675419  1
  Se  Se74  1  0.75000000  0.03089436  0.19295282  1
  Se  Se75  1  0.75000000  0.53156000  0.19322914  1
  Se  Se76  1  0.25000000  0.43541569  0.60676733  1
  Se  Se77  1  0.25000000  0.93541804  0.60675605  1
  Se  Se78  1  0.75000000  0.06456675  0.39315889  1
  Se  Se79  1  0.75000000  0.56459051  0.39317202  1
  O  O80  1  0.25000000  0.00613161  0.99127638  1
  F  F81  1  0.25000000  0.18185584  0.18192909  1
  F  F82  1  0.25000000  0.68178302  0.18165375  1
  F  F83  1  0.75000000  0.31836250  0.81837830  1
  F  F84  1  0.75000000  0.81840831  0.81844949  1
  F  F85  1  0.25000000  0.21109131  0.38214339  1
  F  F86  1  0.25000000  0.71114103  0.38215974  1
  F  F87  1  0.75000000  0.28885170  0.61777300  1
  F  F88  1  0.75000000  0.78884710  0.61776436  1
  F  F89  1  0.25000000  0.27960352  0.78136985  1
  F  F90  1  0.25000000  0.77956935  0.78139585  1
  F  F91  1  0.75000000  0.22041751  0.21869154  1
  F  F92  1  0.75000000  0.72054287  0.21859323  1
  F  F93  1  0.25000000  0.42056763  0.11655958  1
  F  F94  1  0.25000000  0.91993442  0.11740321  1
  F  F95  1  0.75000000  0.07907056  0.88399444  1
  F  F96  1  0.75000000  0.57945529  0.88350812  1
  F  F97  1  0.25000000  0.45227330  0.31799179  1
  F  F98  1  0.25000000  0.95225435  0.31792950  1
  F  F99  1  0.75000000  0.04774837  0.68196740  1
  F  F100  1  0.75000000  0.54773821  0.68197011  1
  F  F101  1  0.25000000  0.05409451  0.91975081  1
  F  F102  1  0.25000000  0.55461608  0.91882713  1
  F  F103  1  0.75000000  0.44543694  0.08121986  1
  F  F104  1  0.75000000  0.95056254  0.07335106  1
  F  F105  1  0.25000000  0.48691190  0.51849572  1
  F  F106  1  0.25000000  0.98690796  0.51848495  1
  F  F107  1  0.75000000  0.01309680  0.48142649  1
  F  F108  1  0.75000000  0.51310656  0.48143560  1
  F  F109  1  0.25000000  0.01885820  0.71824727  1
  F  F110  1  0.25000000  0.51886096  0.71826334  1
  F  F111  1  0.75000000  0.48116574  0.28171447  1
  F  F112  1  0.75000000  0.98107410  0.28163078  1
  F  F113  1  0.25000000  0.24808879  0.58148311  1
  F  F114  1  0.25000000  0.74808963  0.58148397  1
  F  F115  1  0.75000000  0.25186364  0.41843968  1
  F  F116  1  0.75000000  0.75189186  0.41842947  1
  F  F117  1  0.25000000  0.51140791  0.98429088  1
  F  F118  1  0.75000000  0.48865623  0.01576002  1
