# generated using pymatgen
data_VCrGeC
_symmetry_space_group_name_H-M   'P 1'
_cell_length_a   2.96628939
_cell_length_b   2.96628939
_cell_length_c   12.15834784
_cell_angle_alpha   90.00591468
_cell_angle_beta   89.99408532
_cell_angle_gamma   120.00287733
_symmetry_Int_Tables_number   1
_chemical_formula_structural   VCrGeC
_chemical_formula_sum   'V2 Cr2 Ge2 C2'
_cell_volume   92.64449877
_cell_formula_units_Z   2
loop_
 _symmetry_equiv_pos_site_id
 _symmetry_equiv_pos_as_xyz
  1  'x, y, z'
loop_
 _atom_site_type_symbol
 _atom_site_label
 _atom_site_symmetry_multiplicity
 _atom_site_fract_x
 _atom_site_fract_y
 _atom_site_fract_z
 _atom_site_occupancy
  V  V0  1  0.33339820  0.66660180  0.08939634  1
  V  V1  1  0.66660180  0.33339820  0.91060366  1
  Cr  Cr2  1  0.66668291  0.33331709  0.58369604  1
  Cr  Cr3  1  0.33331709  0.66668291  0.41630396  1
  Ge  Ge4  1  0.66667030  0.33332970  0.25664682  1
  Ge  Ge5  1  0.33332970  0.66667030  0.74335318  1
  C  C6  1  -0.00000000  -0.00000000  0.50000000  1
  C  C7  1  -0.00000000  -0.00000000  0.00000000  1
