# generated using pymatgen
data_YMg6Ga
_symmetry_space_group_name_H-M   'P 1'
_cell_length_a   6.56561092
_cell_length_b   6.56561108
_cell_length_c   4.98412404
_cell_angle_alpha   90.00000000
_cell_angle_beta   90.00000000
_cell_angle_gamma   119.76323581
_symmetry_Int_Tables_number   1
_chemical_formula_structural   YMg6Ga
_chemical_formula_sum   'Y1 Mg6 Ga1'
_cell_volume   186.50950550
_cell_formula_units_Z   1
loop_
 _symmetry_equiv_pos_site_id
 _symmetry_equiv_pos_as_xyz
  1  'x, y, z'
loop_
 _atom_site_type_symbol
 _atom_site_label
 _atom_site_symmetry_multiplicity
 _atom_site_fract_x
 _atom_site_fract_y
 _atom_site_fract_z
 _atom_site_occupancy
  Y  Y0  1  0.17504755  0.32495245  0.25000000  1
  Mg  Mg1  1  0.17502770  0.83792296  0.25000000  1
  Mg  Mg2  1  0.66207704  0.32497230  0.25000000  1
  Mg  Mg3  1  0.66421355  0.83578645  0.25000000  1
  Mg  Mg4  1  0.33828388  0.67714783  0.75000000  1
  Mg  Mg5  1  0.82285217  0.16171612  0.75000000  1
  Mg  Mg6  1  0.83254850  0.66745150  0.75000000  1
  Ga  Ga7  1  0.32994962  0.17005038  0.75000000  1
