# generated using pymatgen
data_TaNbC2
_symmetry_space_group_name_H-M   'P 1'
_cell_length_a   3.17819399
_cell_length_b   3.17819399
_cell_length_c   5.51224636
_cell_angle_alpha   73.24469141
_cell_angle_beta   90.00000000
_cell_angle_gamma   120.00000000
_symmetry_Int_Tables_number   1
_chemical_formula_structural   TaNbC2
_chemical_formula_sum   'Ta1 Nb1 C2'
_cell_volume   45.46917770
_cell_formula_units_Z   1
loop_
 _symmetry_equiv_pos_site_id
 _symmetry_equiv_pos_as_xyz
  1  'x, y, z'
loop_
 _atom_site_type_symbol
 _atom_site_label
 _atom_site_symmetry_multiplicity
 _atom_site_fract_x
 _atom_site_fract_y
 _atom_site_fract_z
 _atom_site_occupancy
  Ta  Ta0  1  0.75000000  0.50000000  0.75000000  1
  Nb  Nb1  1  0.25000000  0.50000000  0.25000000  1
  C  C2  1  0.00152088  0.00304177  0.99543735  1
  C  C3  1  0.49847912  0.99695823  0.50456265  1
