# generated using pymatgen
data_Tb4Co3
_symmetry_space_group_name_H-M   'P 1'
_cell_length_a   4.07628140
_cell_length_b   11.29134569
_cell_length_c   11.28597033
_cell_angle_alpha   59.97765607
_cell_angle_beta   89.99436974
_cell_angle_gamma   90.00280836
_symmetry_Int_Tables_number   1
_chemical_formula_structural   Tb4Co3
_chemical_formula_sum   'Tb12 Co9'
_cell_volume   449.76076387
_cell_formula_units_Z   3
loop_
 _symmetry_equiv_pos_site_id
 _symmetry_equiv_pos_as_xyz
  1  'x, y, z'
loop_
 _atom_site_type_symbol
 _atom_site_label
 _atom_site_symmetry_multiplicity
 _atom_site_fract_x
 _atom_site_fract_y
 _atom_site_fract_z
 _atom_site_occupancy
  Tb  Tb0  1  0.74986482  0.62018628  0.86516073  1
  Tb  Tb1  1  0.74996812  0.51464888  0.62023613  1
  Tb  Tb2  1  0.75002484  0.86509485  0.51451686  1
  Tb  Tb3  1  0.25013518  0.37981372  0.13483927  1
  Tb  Tb4  1  0.25003188  0.48535112  0.37976387  1
  Tb  Tb5  1  0.24997516  0.13490515  0.48548314  1
  Tb  Tb6  1  0.74960865  0.77827375  0.24622932  1
  Tb  Tb7  1  0.74961792  0.97569191  0.77830759  1
  Tb  Tb8  1  0.74979610  0.24617013  0.97554268  1
  Tb  Tb9  1  0.25039135  0.22172625  0.75377068  1
  Tb  Tb10  1  0.25038208  0.02430809  0.22169241  1
  Tb  Tb11  1  0.25020390  0.75382987  0.02445732  1
  Co  Co12  1  0.74797114  0.33342059  0.33327061  1
  Co  Co13  1  0.25202886  0.66657941  0.66672939  1
  Co  Co14  1  0.74737370  0.28128944  0.56182724  1
  Co  Co15  1  0.74739650  0.15702490  0.28132738  1
  Co  Co16  1  0.74732257  0.56176047  0.15695582  1
  Co  Co17  1  0.25262630  0.71871056  0.43817276  1
  Co  Co18  1  0.25260350  0.84297510  0.71867262  1
  Co  Co19  1  0.25267743  0.43823953  0.84304418  1
  Co  Co20  1  0.50000000  0.00000000  0.00000000  1
