# generated using pymatgen
data_Tb12Si5S28
_symmetry_space_group_name_H-M   'P 1'
_cell_length_a   9.84867181
_cell_length_b   11.38204157
_cell_length_c   11.38884458
_cell_angle_alpha   60.43367746
_cell_angle_beta   115.60788609
_cell_angle_gamma   115.62957965
_symmetry_Int_Tables_number   1
_chemical_formula_structural   Tb12Si5S28
_chemical_formula_sum   'Tb12 Si5 S28'
_cell_volume   961.42132948
_cell_formula_units_Z   1
loop_
 _symmetry_equiv_pos_site_id
 _symmetry_equiv_pos_as_xyz
  1  'x, y, z'
loop_
 _atom_site_type_symbol
 _atom_site_label
 _atom_site_symmetry_multiplicity
 _atom_site_fract_x
 _atom_site_fract_y
 _atom_site_fract_z
 _atom_site_occupancy
  Tb  Tb0  1  0.23184567  0.06791238  0.29945510  1
  Tb  Tb1  1  0.21831870  0.53484175  0.81350957  1
  Tb  Tb2  1  0.65024303  0.29665899  0.57405323  1
  Tb  Tb3  1  0.63487326  0.81436841  0.04902036  1
  Tb  Tb4  1  0.13180551  0.25304490  0.53046009  1
  Tb  Tb5  1  0.13110125  0.76594314  0.99892425  1
  Tb  Tb6  1  0.78042623  0.95800328  0.69610494  1
  Tb  Tb7  1  0.77332427  0.43033676  0.20190827  1
  Tb  Tb8  1  0.36713175  0.68439356  0.45408610  1
  Tb  Tb9  1  0.34535135  0.19334912  0.93402900  1
  Tb  Tb10  1  0.86151149  0.72905082  0.49778698  1
  Tb  Tb11  1  0.87153396  0.23855903  0.98010678  1
  Si  Si12  1  0.33407295  0.91320617  0.74887819  1
  Si  Si13  1  0.33330119  0.41757968  0.25467318  1
  Si  Si14  1  0.66657025  0.99561711  0.33739736  1
  Si  Si15  1  0.66675116  0.49491650  0.83920969  1
  Si  Si16  1  0.00091850  0.77122519  0.22886766  1
  S  S17  1  0.33274592  0.09892102  0.56632211  1
  S  S18  1  0.33344387  0.60054215  0.06788313  1
  S  S19  1  0.67339806  0.68671557  0.66050799  1
  S  S20  1  0.66019723  0.17342952  0.14648971  1
  S  S21  1  0.10782915  0.76326701  0.74754738  1
  S  S22  1  0.10366721  0.27427632  0.26010205  1
  S  S23  1  0.47027671  0.79176179  0.77837613  1
  S  S24  1  0.48594716  0.30698293  0.29046714  1
  S  S25  1  0.41376082  0.95484208  0.93701029  1
  S  S26  1  0.42113572  0.45573844  0.44327634  1
  S  S27  1  0.89495563  0.99285779  0.48124038  1
  S  S28  1  0.89534420  0.49293225  0.98503456  1
  S  S29  1  0.52100207  0.96395499  0.45204229  1
  S  S30  1  0.52609777  0.46432600  0.95709810  1
  S  S31  1  0.58212621  0.80647054  0.29777446  1
  S  S32  1  0.58008851  0.30750508  0.79788069  1
  S  S33  1  0.13885486  0.77449243  0.45186633  1
  S  S34  1  0.16478615  0.26332715  0.00038135  1
  S  S35  1  0.73771573  0.08384995  0.81856654  1
  S  S36  1  0.77404813  0.61611182  0.29499861  1
  S  S37  1  0.09514714  0.05078001  0.78424679  1
  S  S38  1  0.08885862  0.59050631  0.27015024  1
  S  S39  1  0.83921608  0.25766897  0.48358663  1
  S  S40  1  0.85094329  0.76325901  0.00081318  1
  S  S41  1  0.23582088  0.92408828  0.16178006  1
  S  S42  1  0.25850473  0.43668173  0.66200365  1
  S  S43  1  0.91366174  0.95630706  0.19333979  1
  S  S44  1  0.90134586  0.46689699  0.69324331  1
