# generated using pymatgen
data_SrNdVO4
_symmetry_space_group_name_H-M   'P 1'
_cell_length_a   3.91044120
_cell_length_b   3.91044120
_cell_length_c   6.89279331
_cell_angle_alpha   73.52114338
_cell_angle_beta   73.52114338
_cell_angle_gamma   90.00000000
_symmetry_Int_Tables_number   1
_chemical_formula_structural   SrNdVO4
_chemical_formula_sum   'Sr1 Nd1 V1 O4'
_cell_volume   96.54870858
_cell_formula_units_Z   1
loop_
 _symmetry_equiv_pos_site_id
 _symmetry_equiv_pos_as_xyz
  1  'x, y, z'
loop_
 _atom_site_type_symbol
 _atom_site_label
 _atom_site_symmetry_multiplicity
 _atom_site_fract_x
 _atom_site_fract_y
 _atom_site_fract_z
 _atom_site_occupancy
  Sr  Sr0  1  0.35385226  0.35385226  0.29229547  1
  Nd  Nd1  1  0.64205431  0.64205431  0.71589138  1
  V  V2  1  0.99721898  0.99721898  0.00556204  1
  O  O3  1  0.50847669  0.00847669  0.98304661  1
  O  O4  1  0.00847669  0.50847669  0.98304661  1
  O  O5  1  0.16565525  0.16565525  0.66868951  1
  O  O6  1  0.82426581  0.82426581  0.35146837  1
