# generated using pymatgen
data_LiCuBO3
_symmetry_space_group_name_H-M   'P 1'
_cell_length_a   14.13012031
_cell_length_b   14.07991060
_cell_length_c   3.14218548
_cell_angle_alpha   88.59013802
_cell_angle_beta   91.07711745
_cell_angle_gamma   120.16954206
_symmetry_Int_Tables_number   1
_chemical_formula_structural   LiCuBO3
_chemical_formula_sum   'Li9 Cu9 B9 O27'
_cell_volume   540.28161054
_cell_formula_units_Z   9
loop_
 _symmetry_equiv_pos_site_id
 _symmetry_equiv_pos_as_xyz
  1  'x, y, z'
loop_
 _atom_site_type_symbol
 _atom_site_label
 _atom_site_symmetry_multiplicity
 _atom_site_fract_x
 _atom_site_fract_y
 _atom_site_fract_z
 _atom_site_occupancy
  Li  Li0  1  0.09781954  0.87603873  0.51588248  1
  Li  Li1  1  0.10859182  0.56117616  0.48428037  1
  Li  Li2  1  0.45268448  0.89167824  0.55619731  1
  Li  Li3  1  0.12332619  0.22056671  0.50638713  1
  Li  Li4  1  0.43790539  0.54778844  0.45227333  1
  Li  Li5  1  0.44778866  0.24976297  0.50198387  1
  Li  Li6  1  0.77865830  0.90358467  0.48784000  1
  Li  Li7  1  0.80121224  0.55176898  0.49026661  1
  Li  Li8  1  0.74915821  0.19771458  0.50297976  1
  Cu  Cu9  1  0.24468066  0.78858072  0.06385116  1
  Cu  Cu10  1  0.20646545  0.45279725  0.00933654  1
  Cu  Cu11  1  0.21486328  0.09775056  0.99603123  1
  Cu  Cu12  1  0.54651579  0.75544638  0.93979174  1
  Cu  Cu13  1  0.58002059  0.46692040  0.96852354  1
  Cu  Cu14  1  0.53253588  0.11398651  0.03980682  1
  Cu  Cu15  1  0.88149615  0.78378492  0.96756706  1
  Cu  Cu16  1  0.88325791  0.41893108  0.96809301  1
  Cu  Cu17  1  0.90049929  0.11821358  0.02774946  1
  B  B18  1  0.00661022  0.66559417  0.99690437  1
  B  B19  1  0.33314846  0.66711996  0.99832605  1
  B  B20  1  0.33328788  0.34167766  0.98968480  1
  B  B21  1  0.65784714  0.99261035  0.01389846  1
  B  B22  1  0.33041756  0.00738073  0.53201404  1
  B  B23  1  0.67721129  0.66923156  0.46334066  1
  B  B24  1  0.66637214  0.33313529  0.00104945  1
  B  B25  1  0.99993112  0.00011683  0.00812825  1
  B  B26  1  0.99079092  0.32205379  0.50874885  1
  O  O27  1  0.02800710  0.91893046  0.01424012  1
  O  O28  1  0.00984469  0.56886264  0.96121238  1
  O  O29  1  0.10005725  0.76472438  0.08756576  1
  O  O30  1  0.31755812  0.90395248  0.55316453  1
  O  O31  1  0.09416108  0.41229091  0.51089376  1
  O  O32  1  0.22083233  0.60015882  0.99851225  1
  O  O33  1  0.37730075  0.77806433  0.05681845  1
  O  O34  1  0.08162998  0.10932950  0.02950564  1
  O  O35  1  0.55796906  0.98747522  0.06162891  1
  O  O36  1  0.23431581  0.33460900  0.07825460  1
  O  O37  1  0.39999212  0.62371674  0.94007537  1
  O  O38  1  0.66541059  0.90168135  0.90314068  1
  O  O39  1  0.33755645  0.24609845  0.94247501  1
  O  O40  1  0.42976625  0.44239455  0.95269121  1
  O  O41  1  0.24030448  0.02252276  0.51861191  1
  O  O42  1  0.58750441  0.68306644  0.45253033  1
  O  O43  1  0.66393828  0.56384763  0.47014875  1
  O  O44  1  0.43550391  0.09997253  0.52307300  1
  O  O45  1  0.89131540  0.97233118  0.97893505  1
  O  O46  1  0.78299611  0.76005396  0.46890057  1
  O  O47  1  0.56155981  0.31778400  0.01325896  1
  O  O48  1  0.68192792  0.24412977  0.97889044  1
  O  O49  1  0.75605197  0.43854657  0.01038203  1
  O  O50  1  0.90664133  0.66109419  0.94473101  1
  O  O51  1  0.75317584  0.09247467  0.07216288  1
  O  O52  1  0.89937085  0.33506034  0.49643716  1
  O  O53  1  0.97668055  0.21632896  0.51664090  1
