# generated using pymatgen
data_TbAlFe
_symmetry_space_group_name_H-M   'P 1'
_cell_length_a   5.33950167
_cell_length_b   5.41994679
_cell_length_c   8.75613589
_cell_angle_alpha   90.00000000
_cell_angle_beta   90.00000000
_cell_angle_gamma   120.50291597
_symmetry_Int_Tables_number   1
_chemical_formula_structural   TbAlFe
_chemical_formula_sum   'Tb4 Al4 Fe4'
_cell_volume   218.33110389
_cell_formula_units_Z   4
loop_
 _symmetry_equiv_pos_site_id
 _symmetry_equiv_pos_as_xyz
  1  'x, y, z'
loop_
 _atom_site_type_symbol
 _atom_site_label
 _atom_site_symmetry_multiplicity
 _atom_site_fract_x
 _atom_site_fract_y
 _atom_site_fract_z
 _atom_site_occupancy
  Tb  Tb0  1  0.66776859  0.33395528  0.55415210  1
  Tb  Tb1  1  0.33793721  0.66895968  0.42560627  1
  Tb  Tb2  1  0.33793721  0.66895968  0.07439373  1
  Tb  Tb3  1  0.66776859  0.33395528  0.94584790  1
  Al  Al4  1  0.99002893  0.99487851  0.48605799  1
  Al  Al5  1  0.99002893  0.99487851  0.01394201  1
  Al  Al6  1  0.17318612  0.33941408  0.75000000  1
  Al  Al7  1  0.17327382  0.83379234  0.75000000  1
  Fe  Fe8  1  0.66551760  0.83273511  0.75000000  1
  Fe  Fe9  1  0.82581178  0.64843497  0.25000000  1
  Fe  Fe10  1  0.82576072  0.17753272  0.25000000  1
  Fe  Fe11  1  0.34498051  0.17250384  0.25000000  1
