# generated using pymatgen
data_U6Si19Pt30
_symmetry_space_group_name_H-M   'P 1'
_cell_length_a   4.00048290
_cell_length_b   16.11283448
_cell_length_c   16.11283448
_cell_angle_alpha   120.00000248
_cell_angle_beta   90.00000000
_cell_angle_gamma   90.00000000
_symmetry_Int_Tables_number   1
_chemical_formula_structural   U6Si19Pt30
_chemical_formula_sum   'U6 Si19 Pt30'
_cell_volume   899.47051392
_cell_formula_units_Z   1
loop_
 _symmetry_equiv_pos_site_id
 _symmetry_equiv_pos_as_xyz
  1  'x, y, z'
loop_
 _atom_site_type_symbol
 _atom_site_label
 _atom_site_symmetry_multiplicity
 _atom_site_fract_x
 _atom_site_fract_y
 _atom_site_fract_z
 _atom_site_occupancy
  U  U0  1  0.75134033  0.90138291  0.60484601  1
  U  U1  1  0.75134033  0.39515399  0.29653690  1
  U  U2  1  0.75134033  0.70346310  0.09861709  1
  U  U3  1  0.24865967  0.09861709  0.39515399  1
  U  U4  1  0.24865967  0.60484601  0.70346310  1
  U  U5  1  0.24865967  0.29653690  0.90138291  1
  Si  Si6  1  0.74988310  0.62653937  0.56560930  1
  Si  Si7  1  0.74988310  0.43439070  0.06093007  1
  Si  Si8  1  0.74988310  0.93906993  0.37346063  1
  Si  Si9  1  0.25011690  0.37346063  0.43439070  1
  Si  Si10  1  0.25011690  0.56560930  0.93906993  1
  Si  Si11  1  0.25011690  0.06093007  0.62653937  1
  Si  Si12  1  0.74953754  0.31837893  0.76289994  1
  Si  Si13  1  0.74953754  0.23710006  0.55547900  1
  Si  Si14  1  0.74953754  0.44452100  0.68162107  1
  Si  Si15  1  0.25046246  0.68162107  0.23710006  1
  Si  Si16  1  0.25046246  0.76289994  0.44452100  1
  Si  Si17  1  0.25046246  0.55547900  0.31837893  1
  Si  Si18  1  0.74890435  0.13536730  0.87986619  1
  Si  Si19  1  0.74890435  0.12013381  0.25550112  1
  Si  Si20  1  0.74890435  0.74449888  0.86463270  1
  Si  Si21  1  0.25109565  0.86463270  0.12013381  1
  Si  Si22  1  0.25109565  0.87986619  0.74449888  1
  Si  Si23  1  0.25109565  0.25550112  0.13536730  1
  Si  Si24  1  0.50000000  -0.00000000  -0.00000000  1
  Pt  Pt25  1  0.75014198  0.65579485  0.42991342  1
  Pt  Pt26  1  0.75014198  0.57008658  0.22588143  1
  Pt  Pt27  1  0.75014198  0.77411857  0.34420515  1
  Pt  Pt28  1  0.24985802  0.34420515  0.57008658  1
  Pt  Pt29  1  0.24985802  0.42991342  0.77411857  1
  Pt  Pt30  1  0.24985802  0.22588143  0.65579485  1
  Pt  Pt31  1  0.74972801  0.45529171  0.92341845  1
  Pt  Pt32  1  0.74972801  0.07658155  0.53187325  1
  Pt  Pt33  1  0.74972801  0.46812675  0.54470829  1
  Pt  Pt34  1  0.25027199  0.54470829  0.07658155  1
  Pt  Pt35  1  0.25027199  0.92341845  0.46812675  1
  Pt  Pt36  1  0.25027199  0.53187325  0.45529171  1
  Pt  Pt37  1  0.75188396  0.76083316  0.72336463  1
  Pt  Pt38  1  0.75188396  0.27663537  0.03746853  1
  Pt  Pt39  1  0.75188396  0.96253147  0.23916684  1
  Pt  Pt40  1  0.24811604  0.23916684  0.27663537  1
  Pt  Pt41  1  0.24811604  0.72336463  0.96253147  1
  Pt  Pt42  1  0.24811604  0.03746853  0.76083316  1
  Pt  Pt43  1  0.75808035  0.97154072  0.84847060  1
  Pt  Pt44  1  0.75808035  0.15152940  0.12307011  1
  Pt  Pt45  1  0.75808035  0.87692989  0.02845928  1
  Pt  Pt46  1  0.24191965  0.02845928  0.15152940  1
  Pt  Pt47  1  0.24191965  0.84847060  0.87692989  1
  Pt  Pt48  1  0.24191965  0.12307011  0.97154072  1
  Pt  Pt49  1  0.74905227  0.15952799  0.74470210  1
  Pt  Pt50  1  0.74905227  0.25529790  0.41482589  1
  Pt  Pt51  1  0.74905227  0.58517411  0.84047201  1
  Pt  Pt52  1  0.25094773  0.84047201  0.25529790  1
  Pt  Pt53  1  0.25094773  0.74470210  0.58517411  1
  Pt  Pt54  1  0.25094773  0.41482589  0.15952799  1
