# generated using pymatgen
data_Tb2Pr
_symmetry_space_group_name_H-M   'P 1'
_cell_length_a   3.62317765
_cell_length_b   3.62317765
_cell_length_c   9.10015564
_cell_angle_alpha   89.99999622
_cell_angle_beta   101.48270964
_cell_angle_gamma   59.99999754
_symmetry_Int_Tables_number   1
_chemical_formula_structural   Tb2Pr
_chemical_formula_sum   'Tb2 Pr1'
_cell_volume   100.68631519
_cell_formula_units_Z   1
loop_
 _symmetry_equiv_pos_site_id
 _symmetry_equiv_pos_as_xyz
  1  'x, y, z'
loop_
 _atom_site_type_symbol
 _atom_site_label
 _atom_site_symmetry_multiplicity
 _atom_site_fract_x
 _atom_site_fract_y
 _atom_site_fract_z
 _atom_site_occupancy
  Tb  Tb0  1  0.44849947  0.77575026  0.67274921  1
  Tb  Tb1  1  0.99611920  0.00194040  0.99417881  1
  Pr  Pr2  1  0.55538132  0.22230934  0.33307198  1
