# generated using pymatgen
data_Tb7Mg3Ge8
_symmetry_space_group_name_H-M   'P 1'
_cell_length_a   7.17970988
_cell_length_b   7.84535180
_cell_length_c   14.49944546
_cell_angle_alpha   90.00717850
_cell_angle_beta   90.00000000
_cell_angle_gamma   90.00000000
_symmetry_Int_Tables_number   1
_chemical_formula_structural   Tb7Mg3Ge8
_chemical_formula_sum   'Tb14 Mg6 Ge16'
_cell_volume   816.71533084
_cell_formula_units_Z   2
loop_
 _symmetry_equiv_pos_site_id
 _symmetry_equiv_pos_as_xyz
  1  'x, y, z'
loop_
 _atom_site_type_symbol
 _atom_site_label
 _atom_site_symmetry_multiplicity
 _atom_site_fract_x
 _atom_site_fract_y
 _atom_site_fract_z
 _atom_site_occupancy
  Tb  Tb0  1  0.49003368  0.31614156  0.90318870  1
  Tb  Tb1  1  0.99003368  0.18385844  0.59681130  1
  Tb  Tb2  1  0.51275967  0.68368606  0.40559094  1
  Tb  Tb3  1  0.01275967  0.81631394  0.09440906  1
  Tb  Tb4  1  0.51053559  0.68407824  0.09360249  1
  Tb  Tb5  1  0.01053559  0.81592176  0.40639751  1
  Tb  Tb6  1  0.48833673  0.31497107  0.59742606  1
  Tb  Tb7  1  0.98833673  0.18502893  0.90257394  1
  Tb  Tb8  1  0.67128112  0.17761930  0.37473761  1
  Tb  Tb9  1  0.17128112  0.32238070  0.12526239  1
  Tb  Tb10  1  0.67040676  0.17626666  0.12623556  1
  Tb  Tb11  1  0.17040676  0.32373334  0.37376444  1
  Tb  Tb12  1  0.32959224  0.81923053  0.62963210  1
  Tb  Tb13  1  0.82959224  0.68076947  0.87036790  1
  Mg  Mg14  1  0.15763256  0.48304603  0.74942261  1
  Mg  Mg15  1  0.65763256  0.01695397  0.75057739  1
  Mg  Mg16  1  0.84028455  0.51969477  0.24996466  1
  Mg  Mg17  1  0.34028455  0.98030523  0.25003534  1
  Mg  Mg18  1  0.32721422  0.82229825  0.87564316  1
  Mg  Mg19  1  0.82721422  0.67770175  0.62435684  1
  Ge  Ge20  1  0.28488368  0.13750627  0.74982640  1
  Ge  Ge21  1  0.78488368  0.36249373  0.75017360  1
  Ge  Ge22  1  0.71330551  0.86276152  0.24971320  1
  Ge  Ge23  1  0.21330551  0.63723848  0.25028680  1
  Ge  Ge24  1  0.52705608  0.59183939  0.74941569  1
  Ge  Ge25  1  0.02705608  0.90816061  0.75058431  1
  Ge  Ge26  1  0.47796421  0.41312452  0.24930697  1
  Ge  Ge27  1  0.97796421  0.08687548  0.25069303  1
  Ge  Ge28  1  0.33181474  0.03148628  0.03466708  1
  Ge  Ge29  1  0.83181474  0.46851372  0.46533292  1
  Ge  Ge30  1  0.67065619  0.96385193  0.53935351  1
  Ge  Ge31  1  0.17065619  0.53614807  0.96064649  1
  Ge  Ge32  1  0.66535270  0.96487840  0.96226429  1
  Ge  Ge33  1  0.16535270  0.53512160  0.53773571  1
  Ge  Ge34  1  0.33088976  0.03262237  0.46518111  1
  Ge  Ge35  1  0.83088976  0.46737763  0.03481889  1
