# generated using pymatgen
data_Sr3CaSi8
_symmetry_space_group_name_H-M   'P 1'
_cell_length_a   6.51389321
_cell_length_b   6.51389321
_cell_length_c   6.51389321
_cell_angle_alpha   90.34592816
_cell_angle_beta   89.65407184
_cell_angle_gamma   90.34592816
_symmetry_Int_Tables_number   1
_chemical_formula_structural   Sr3CaSi8
_chemical_formula_sum   'Sr3 Ca1 Si8'
_cell_volume   276.37467945
_cell_formula_units_Z   1
loop_
 _symmetry_equiv_pos_site_id
 _symmetry_equiv_pos_as_xyz
  1  'x, y, z'
loop_
 _atom_site_type_symbol
 _atom_site_label
 _atom_site_symmetry_multiplicity
 _atom_site_fract_x
 _atom_site_fract_y
 _atom_site_fract_z
 _atom_site_occupancy
  Sr  Sr0  1  0.37500000  0.87387104  0.62387104  1
  Sr  Sr1  1  0.62612896  0.37612896  0.87500000  1
  Sr  Sr2  1  0.12387104  0.12500000  0.12612896  1
  Ca  Ca3  1  0.87500000  0.62500000  0.37500000  1
  Si  Si4  1  0.17013030  0.32986970  0.67013030  1
  Si  Si5  1  0.67502017  0.17635163  0.32818512  1
  Si  Si6  1  0.32364837  0.67181488  0.17502017  1
  Si  Si7  1  0.82818512  0.82497983  0.82364837  1
  Si  Si8  1  0.57986970  0.92013030  0.07986970  1
  Si  Si9  1  0.92181488  0.07364837  0.57497983  1
  Si  Si10  1  0.07497983  0.57818512  0.92635163  1
  Si  Si11  1  0.42635163  0.42502017  0.42181488  1
