# generated using pymatgen
data_TaAlCu
_symmetry_space_group_name_H-M   'P 1'
_cell_length_a   5.06533212
_cell_length_b   5.06092489
_cell_length_c   7.92022965
_cell_angle_alpha   90.00000000
_cell_angle_beta   90.00000000
_cell_angle_gamma   120.02950886
_symmetry_Int_Tables_number   1
_chemical_formula_structural   TaAlCu
_chemical_formula_sum   'Ta4 Al4 Cu4'
_cell_volume   175.78305568
_cell_formula_units_Z   4
loop_
 _symmetry_equiv_pos_site_id
 _symmetry_equiv_pos_as_xyz
  1  'x, y, z'
loop_
 _atom_site_type_symbol
 _atom_site_label
 _atom_site_symmetry_multiplicity
 _atom_site_fract_x
 _atom_site_fract_y
 _atom_site_fract_z
 _atom_site_occupancy
  Ta  Ta0  1  0.66566274  0.33133670  0.56398705  1
  Ta  Ta1  1  0.33246112  0.66489583  0.43185902  1
  Ta  Ta2  1  0.33246112  0.66489583  0.06814098  1
  Ta  Ta3  1  0.66566274  0.33133670  0.93601295  1
  Al  Al4  1  0.17000458  0.33999317  0.75000000  1
  Al  Al5  1  0.16918031  0.82904009  0.75000000  1
  Al  Al6  1  0.65986636  0.82902791  0.75000000  1
  Al  Al7  1  0.83068669  0.66142011  0.25000000  1
  Cu  Cu8  1  0.83013324  0.17247476  0.25000000  1
  Cu  Cu9  1  0.34232183  0.17245547  0.25000000  1
  Cu  Cu10  1  0.00077963  0.00156171  0.50004817  1
  Cu  Cu11  1  0.00077963  0.00156171  0.99995183  1
