# generated using pymatgen
data_SrLaVO4
_symmetry_space_group_name_H-M   'P 1'
_cell_length_a   5.53626692
_cell_length_b   5.57048444
_cell_length_c   6.93728752
_cell_angle_alpha   90.00000000
_cell_angle_beta   66.48291222
_cell_angle_gamma   90.00000000
_symmetry_Int_Tables_number   1
_chemical_formula_structural   SrLaVO4
_chemical_formula_sum   'Sr2 La2 V2 O8'
_cell_volume   196.17385440
_cell_formula_units_Z   2
loop_
 _symmetry_equiv_pos_site_id
 _symmetry_equiv_pos_as_xyz
  1  'x, y, z'
loop_
 _atom_site_type_symbol
 _atom_site_label
 _atom_site_symmetry_multiplicity
 _atom_site_fract_x
 _atom_site_fract_y
 _atom_site_fract_z
 _atom_site_occupancy
  Sr  Sr0  1  0.85438662  0.50000000  0.29122676  1
  Sr  Sr1  1  0.64561338  0.00000000  0.70877324  1
  La  La2  1  0.35813462  0.00000000  0.28373076  1
  La  La3  1  0.14186538  0.50000000  0.71626924  1
  V  V4  1  0.50108960  0.50000000  0.99782080  1
  V  V5  1  0.99891040  0.00000000  0.00217920  1
  O  O6  1  0.25000000  0.75000000  -0.00000000  1
  O  O7  1  0.75000000  0.25000000  -0.00000000  1
  O  O8  1  0.25000000  0.25000000  -0.00000000  1
  O  O9  1  0.75000000  0.75000000  -0.00000000  1
  O  O10  1  0.17631439  -0.00000000  0.64737123  1
  O  O11  1  0.66506109  0.50000000  0.66987782  1
  O  O12  1  0.32368561  0.50000000  0.35262877  1
  O  O13  1  0.83493891  0.00000000  0.33012218  1
