# generated using pymatgen
data_Sr3PrMn4O12
_symmetry_space_group_name_H-M   'P 1'
_cell_length_a   6.72798381
_cell_length_b   6.72798381
_cell_length_c   6.72798381
_cell_angle_alpha   70.90207095
_cell_angle_beta   70.34181174
_cell_angle_gamma   109.65818826
_symmetry_Int_Tables_number   1
_chemical_formula_structural   Sr3PrMn4O12
_chemical_formula_sum   'Sr3 Pr1 Mn4 O12'
_cell_volume   234.43319475
_cell_formula_units_Z   1
loop_
 _symmetry_equiv_pos_site_id
 _symmetry_equiv_pos_as_xyz
  1  'x, y, z'
loop_
 _atom_site_type_symbol
 _atom_site_label
 _atom_site_symmetry_multiplicity
 _atom_site_fract_x
 _atom_site_fract_y
 _atom_site_fract_z
 _atom_site_occupancy
  Sr  Sr0  1  0.50000000  0.50000000  0.50000000  1
  Sr  Sr1  1  -0.00000000  0.50000000  -0.00000000  1
  Sr  Sr2  1  -0.00000000  -0.00000000  0.50000000  1
  Pr  Pr3  1  0.50000000  -0.00000000  -0.00000000  1
  Mn  Mn4  1  -0.00000000  0.50000000  0.50000000  1
  Mn  Mn5  1  -0.00000000  -0.00000000  -0.00000000  1
  Mn  Mn6  1  0.50000000  0.50000000  -0.00000000  1
  Mn  Mn7  1  0.50000000  -0.00000000  0.50000000  1
  O  O8  1  0.25491948  0.24528065  -0.00020013  1
  O  O9  1  0.25491948  0.75471935  0.49036117  1
  O  O10  1  0.74508052  0.24528065  0.50963883  1
  O  O11  1  0.74508052  0.75471935  0.00020013  1
  O  O12  1  0.74508052  -0.00020013  0.24528065  1
  O  O13  1  0.74508052  0.49036117  0.75471935  1
  O  O14  1  0.25491948  0.00020013  0.75471935  1
  O  O15  1  0.25491948  0.50963883  0.24528065  1
  O  O16  1  0.99008495  0.24504248  0.75495752  1
  O  O17  1  0.00991505  0.75495752  0.24504248  1
  O  O18  1  0.50000000  0.24504248  0.24504248  1
  O  O19  1  0.50000000  0.75495752  0.75495752  1
