# generated using pymatgen
data_SrLa3Mn2Cr2O12
_symmetry_space_group_name_H-M   'P 1'
_cell_length_a   5.48360818
_cell_length_b   7.97491614
_cell_length_c   5.55348005
_cell_angle_alpha   89.99999570
_cell_angle_beta   89.99999984
_cell_angle_gamma   90.92400011
_symmetry_Int_Tables_number   1
_chemical_formula_structural   SrLa3Mn2Cr2O12
_chemical_formula_sum   'Sr1 La3 Mn2 Cr2 O12'
_cell_volume   242.82940728
_cell_formula_units_Z   1
loop_
 _symmetry_equiv_pos_site_id
 _symmetry_equiv_pos_as_xyz
  1  'x, y, z'
loop_
 _atom_site_type_symbol
 _atom_site_label
 _atom_site_symmetry_multiplicity
 _atom_site_fract_x
 _atom_site_fract_y
 _atom_site_fract_z
 _atom_site_occupancy
  Sr  Sr0  1  0.00000000  0.75000000  0.49447277  1
  La  La1  1  0.50000000  0.25000000  0.00415350  1
  La  La2  1  0.50000000  0.75000000  0.99946932  1
  La  La3  1  0.00000000  0.25000000  0.50135254  1
  Mn  Mn4  1  0.00058648  0.50117165  -0.00011677  1
  Mn  Mn5  1  0.99941352  0.99882835  -0.00011677  1
  Cr  Cr6  1  0.49962419  0.99878651  0.50034231  1
  Cr  Cr7  1  0.50037581  0.50121349  0.50034231  1
  O  O8  1  0.27704858  0.46688584  0.78368163  1
  O  O9  1  0.77869234  0.97737482  0.27077563  1
  O  O10  1  0.22130766  0.52262518  0.27077563  1
  O  O11  1  0.72295142  0.03311416  0.78368163  1
  O  O12  1  0.00000000  0.75000000  0.95170978  1
  O  O13  1  0.50000000  0.25000000  0.44384845  1
  O  O14  1  0.78087525  0.46213873  0.72677511  1
  O  O15  1  0.28348574  0.97499131  0.20920894  1
  O  O16  1  1.00000000  0.25000000  0.06042997  1
  O  O17  1  0.50000000  0.75000000  0.56322996  1
  O  O18  1  0.71651426  0.52500869  0.20920894  1
  O  O19  1  0.21912475  0.03786127  0.72677511  1
