# generated using pymatgen
data_SrLaMnO4
_symmetry_space_group_name_H-M   'P 1'
_cell_length_a   5.50530676
_cell_length_b   5.52755771
_cell_length_c   6.98215441
_cell_angle_alpha   90.00000000
_cell_angle_beta   66.78134450
_cell_angle_gamma   90.00000000
_symmetry_Int_Tables_number   1
_chemical_formula_structural   SrLaMnO4
_chemical_formula_sum   'Sr2 La2 Mn2 O8'
_cell_volume   195.26440725
_cell_formula_units_Z   2
loop_
 _symmetry_equiv_pos_site_id
 _symmetry_equiv_pos_as_xyz
  1  'x, y, z'
loop_
 _atom_site_type_symbol
 _atom_site_label
 _atom_site_symmetry_multiplicity
 _atom_site_fract_x
 _atom_site_fract_y
 _atom_site_fract_z
 _atom_site_occupancy
  Sr  Sr0  1  0.85553040  0.50000000  0.28893919  1
  Sr  Sr1  1  0.64446960  0.00000000  0.71106081  1
  La  La2  1  0.35987145  0.00000000  0.28025709  1
  La  La3  1  0.14012855  0.50000000  0.71974291  1
  Mn  Mn4  1  0.50289587  0.50000000  0.99420825  1
  Mn  Mn5  1  0.99710413  -0.00000000  0.00579175  1
  O  O6  1  0.17784038  0.00000000  0.64431924  1
  O  O7  1  0.66534119  0.50000000  0.66931761  1
  O  O8  1  0.32215962  0.50000000  0.35568076  1
  O  O9  1  0.83465881  0.00000000  0.33068239  1
  O  O10  1  0.25000000  0.25000000  0.00000000  1
  O  O11  1  0.75000000  0.75000000  0.00000000  1
  O  O12  1  0.75000000  0.25000000  0.00000000  1
  O  O13  1  0.25000000  0.75000000  0.00000000  1
