# generated using pymatgen
data_V3Cr3(SbO8)2
_symmetry_space_group_name_H-M   'P 1'
_cell_length_a   5.96488005
_cell_length_b   5.95317875
_cell_length_c   9.34060368
_cell_angle_alpha   90.66215263
_cell_angle_beta   89.63416079
_cell_angle_gamma   120.23232041
_symmetry_Int_Tables_number   1
_chemical_formula_structural   V3Cr3(SbO8)2
_chemical_formula_sum   'V3 Cr3 Sb2 O16'
_cell_volume   286.55346312
_cell_formula_units_Z   1
loop_
 _symmetry_equiv_pos_site_id
 _symmetry_equiv_pos_as_xyz
  1  'x, y, z'
loop_
 _atom_site_type_symbol
 _atom_site_label
 _atom_site_symmetry_multiplicity
 _atom_site_fract_x
 _atom_site_fract_y
 _atom_site_fract_z
 _atom_site_occupancy
  V  V0  1  0.66400591  0.83330866  0.21575653  1
  V  V1  1  0.83618341  0.66113913  0.72146851  1
  V  V2  1  0.82759383  0.16182382  0.70529907  1
  Cr  Cr3  1  0.17196960  0.83142166  0.20943915  1
  Cr  Cr4  1  0.17268409  0.33996285  0.20873013  1
  Cr  Cr5  1  0.34161243  0.17285622  0.70938074  1
  Sb  Sb6  1  0.32194180  0.66299862  0.48902264  1
  Sb  Sb7  1  0.65573590  0.32400382  0.99034882  1
  O  O8  1  0.16466231  0.83212333  0.59891855  1
  O  O9  1  0.04509882  0.52276625  0.33704262  1
  O  O10  1  0.36141992  0.67909870  0.10509092  1
  O  O11  1  0.98430225  0.99327128  0.30275925  1
  O  O12  1  0.99304488  0.99231437  0.80362087  1
  O  O13  1  0.16310187  0.33805407  0.60250049  1
  O  O14  1  0.49195367  0.95935881  0.33913080  1
  O  O15  1  0.49059048  0.53339267  0.33966037  1
  O  O16  1  0.32802913  0.16164043  0.09626294  1
  O  O17  1  0.65520292  0.83461848  0.60516281  1
  O  O18  1  0.52878399  0.48543045  0.84097909  1
  O  O19  1  0.52499400  0.04401544  0.83527460  1
  O  O20  1  0.68244571  0.34768065  0.60739653  1
  O  O21  1  0.81894225  0.65738021  0.10621255  1
  O  O22  1  0.95665360  0.47288158  0.84084086  1
  O  O23  1  0.81904522  0.15865949  0.10542015  1
