# generated using pymatgen
data_Sr4MnRuO8
_symmetry_space_group_name_H-M   'P 1'
_cell_length_a   3.92694345
_cell_length_b   3.92694345
_cell_length_c   12.68084373
_cell_angle_alpha   90.00000000
_cell_angle_beta   90.00000000
_cell_angle_gamma   90.00000000
_symmetry_Int_Tables_number   1
_chemical_formula_structural   Sr4MnRuO8
_chemical_formula_sum   'Sr4 Mn1 Ru1 O8'
_cell_volume   195.54983108
_cell_formula_units_Z   1
loop_
 _symmetry_equiv_pos_site_id
 _symmetry_equiv_pos_as_xyz
  1  'x, y, z'
loop_
 _atom_site_type_symbol
 _atom_site_label
 _atom_site_symmetry_multiplicity
 _atom_site_fract_x
 _atom_site_fract_y
 _atom_site_fract_z
 _atom_site_occupancy
  Sr  Sr0  1  0.50000000  0.50000000  0.13770750  1
  Sr  Sr1  1  0.00000000  -0.00000000  0.65207768  1
  Sr  Sr2  1  -0.00000000  0.00000000  0.34792232  1
  Sr  Sr3  1  0.50000000  0.50000000  0.86229250  1
  Mn  Mn4  1  0.00000000  0.00000000  -0.00000000  1
  Ru  Ru5  1  0.50000000  0.50000000  0.50000000  1
  O  O6  1  0.50000000  0.00000000  0.50000000  1
  O  O7  1  -0.00000000  0.50000000  -0.00000000  1
  O  O8  1  0.50000000  0.00000000  -0.00000000  1
  O  O9  1  0.00000000  0.50000000  0.50000000  1
  O  O10  1  0.50000000  0.50000000  0.33888612  1
  O  O11  1  -0.00000000  -0.00000000  0.84190261  1
  O  O12  1  0.00000000  0.00000000  0.15809739  1
  O  O13  1  0.50000000  0.50000000  0.66111388  1
