# generated using pymatgen
data_Ta3AlCr8
_symmetry_space_group_name_H-M   'P 1'
_cell_length_a   4.86385942
_cell_length_b   4.86421825
_cell_length_c   7.99090158
_cell_angle_alpha   89.99813272
_cell_angle_beta   89.99920652
_cell_angle_gamma   60.00157224
_symmetry_Int_Tables_number   1
_chemical_formula_structural   Ta3AlCr8
_chemical_formula_sum   'Ta3 Al1 Cr8'
_cell_volume   163.72966015
_cell_formula_units_Z   1
loop_
 _symmetry_equiv_pos_site_id
 _symmetry_equiv_pos_as_xyz
  1  'x, y, z'
loop_
 _atom_site_type_symbol
 _atom_site_label
 _atom_site_symmetry_multiplicity
 _atom_site_fract_x
 _atom_site_fract_y
 _atom_site_fract_z
 _atom_site_occupancy
  Ta  Ta0  1  0.66666377  0.66666770  0.44128493  1
  Ta  Ta1  1  0.66667465  0.66666324  0.06085674  1
  Ta  Ta2  1  0.33332245  0.33333792  0.93667679  1
  Al  Al3  1  0.33335101  0.33332320  0.56337780  1
  Cr  Cr4  1  0.00006409  -0.00002180  0.49974866  1
  Cr  Cr5  1  0.00003035  -0.00000572  0.99909011  1
  Cr  Cr6  1  0.83070679  0.33853727  0.74835215  1
  Cr  Cr7  1  0.33852263  0.83073063  0.74837337  1
  Cr  Cr8  1  0.83071649  0.83074870  0.74834692  1
  Cr  Cr9  1  0.17056032  0.65883737  0.25130305  1
  Cr  Cr10  1  0.65883290  0.17058395  0.25128546  1
  Cr  Cr11  1  0.17055453  0.17059753  0.25130401  1
