# generated using pymatgen
data_Ta3V7Si6
_symmetry_space_group_name_H-M   'P 1'
_cell_length_a   4.89486272
_cell_length_b   7.29961373
_cell_length_c   7.29923280
_cell_angle_alpha   120.00172856
_cell_angle_beta   89.99789756
_cell_angle_gamma   90.00420474
_symmetry_Int_Tables_number   1
_chemical_formula_structural   Ta3V7Si6
_chemical_formula_sum   'Ta3 V7 Si6'
_cell_volume   225.86070335
_cell_formula_units_Z   1
loop_
 _symmetry_equiv_pos_site_id
 _symmetry_equiv_pos_as_xyz
  1  'x, y, z'
loop_
 _atom_site_type_symbol
 _atom_site_label
 _atom_site_symmetry_multiplicity
 _atom_site_fract_x
 _atom_site_fract_y
 _atom_site_fract_z
 _atom_site_occupancy
  Ta  Ta0  1  0.25002917  0.77086165  1.00000000  1
  Ta  Ta1  1  0.24996302  0.22911220  0.22916596  1
  Ta  Ta2  1  0.24996302  0.99994625  0.77083404  1
  V  V3  1  0.50339597  0.33336136  0.66672692  1
  V  V4  1  0.50339597  0.66663444  0.33327308  1
  V  V5  1  0.99656911  0.66662468  0.33328112  1
  V  V6  1  0.99656911  0.33334356  0.66671888  1
  V  V7  1  0.74996418  0.26366313  0.00000000  1
  V  V8  1  0.75004952  0.73633016  0.73622044  1
  V  V9  1  0.75004952  0.00010972  0.26377956  1
  Si  Si10  1  0.74998296  0.61026462  0.00000000  1
  Si  Si11  1  0.74995894  0.38990308  0.38989960  1
  Si  Si12  1  0.74995894  0.00000348  0.61010040  1
  Si  Si13  1  0.25003491  0.40838230  0.00000000  1
  Si  Si14  1  0.25005783  0.59147017  0.59148097  1
  Si  Si15  1  0.25005783  0.99998921  0.40851903  1
