# generated using pymatgen
data_Fe10O19F
_symmetry_space_group_name_H-M   'P 1'
_cell_length_a   4.64038104
_cell_length_b   4.64038104
_cell_length_c   14.81546694
_cell_angle_alpha   90.00000000
_cell_angle_beta   90.00000000
_cell_angle_gamma   90.85860962
_symmetry_Int_Tables_number   1
_chemical_formula_structural   Fe10O19F
_chemical_formula_sum   'Fe10 O19 F1'
_cell_volume   318.98764687
_cell_formula_units_Z   1
loop_
 _symmetry_equiv_pos_site_id
 _symmetry_equiv_pos_as_xyz
  1  'x, y, z'
loop_
 _atom_site_type_symbol
 _atom_site_label
 _atom_site_symmetry_multiplicity
 _atom_site_fract_x
 _atom_site_fract_y
 _atom_site_fract_z
 _atom_site_occupancy
  Fe  Fe0  1  0.00635851  0.99364149  0.00477768  1
  Fe  Fe1  1  0.00157728  0.99842272  0.20193677  1
  Fe  Fe2  1  0.00051671  0.99948329  0.40000000  1
  Fe  Fe3  1  0.00157728  0.99842272  0.59806323  1
  Fe  Fe4  1  0.00635851  0.99364149  0.79522232  1
  Fe  Fe5  1  0.50172635  0.49827365  0.10053285  1
  Fe  Fe6  1  0.50085866  0.49914134  0.49993571  1
  Fe  Fe7  1  0.50085866  0.49914134  0.30006429  1
  Fe  Fe8  1  0.50172635  0.49827365  0.69946715  1
  Fe  Fe9  1  0.47963518  0.52036482  0.90000000  1
  O  O10  1  0.19474338  0.80525662  0.10631155  1
  O  O11  1  0.18939371  0.81060629  0.30110851  1
  O  O12  1  0.18939371  0.81060629  0.49889149  1
  O  O13  1  0.19474338  0.80525662  0.69368845  1
  O  O14  1  0.18170652  0.81829348  0.90000000  1
  O  O15  1  0.30561565  0.31035107  0.00040630  1
  O  O16  1  0.31223190  0.30699400  0.20070423  1
  O  O17  1  0.30996950  0.30942190  0.40000000  1
  O  O18  1  0.31223190  0.30699400  0.59929577  1
  O  O19  1  0.30561565  0.31035107  0.79959370  1
  O  O20  1  0.68964893  0.69438435  0.00040630  1
  O  O21  1  0.69300600  0.68776810  0.20070423  1
  O  O22  1  0.69057810  0.69003050  0.40000000  1
  O  O23  1  0.69300600  0.68776810  0.59929577  1
  O  O24  1  0.68964893  0.69438435  0.79959370  1
  O  O25  1  0.81174639  0.18825361  0.10404476  1
  O  O26  1  0.81271689  0.18728311  0.49929644  1
  O  O27  1  0.81271689  0.18728311  0.30070356  1
  O  O28  1  0.81174639  0.18825361  0.69595524  1
  F  F29  1  0.79834570  0.20165430  0.90000000  1
