# generated using pymatgen
data_SmAlGa
_symmetry_space_group_name_H-M   'P 1'
_cell_length_a   3.89053485
_cell_length_b   4.41578370
_cell_length_c   4.41580677
_cell_angle_alpha   119.99050335
_cell_angle_beta   90.00000000
_cell_angle_gamma   90.00000000
_symmetry_Int_Tables_number   1
_chemical_formula_structural   SmAlGa
_chemical_formula_sum   'Sm1 Al1 Ga1'
_cell_volume   65.70514016
_cell_formula_units_Z   1
loop_
 _symmetry_equiv_pos_site_id
 _symmetry_equiv_pos_as_xyz
  1  'x, y, z'
loop_
 _atom_site_type_symbol
 _atom_site_label
 _atom_site_symmetry_multiplicity
 _atom_site_fract_x
 _atom_site_fract_y
 _atom_site_fract_z
 _atom_site_occupancy
  Sm  Sm0  1  -0.00000000  0.99997504  0.00001429  1
  Al  Al1  1  0.50000000  0.33330922  0.66665207  1
  Ga  Ga2  1  0.50000000  0.66661574  0.33333364  1
