# generated using pymatgen
data_Sr4CaYCu4Bi2(PbO8)2
_symmetry_space_group_name_H-M   'P 1'
_cell_length_a   5.39314666
_cell_length_b   5.46205344
_cell_length_c   31.57964084
_cell_angle_alpha   90.15485256
_cell_angle_beta   90.00000000
_cell_angle_gamma   90.00000000
_symmetry_Int_Tables_number   1
_chemical_formula_structural   Sr4CaYCu4Bi2(PbO8)2
_chemical_formula_sum   'Sr8 Ca2 Y2 Cu8 Bi4 Pb4 O32'
_cell_volume   930.25877610
_cell_formula_units_Z   2
loop_
 _symmetry_equiv_pos_site_id
 _symmetry_equiv_pos_as_xyz
  1  'x, y, z'
loop_
 _atom_site_type_symbol
 _atom_site_label
 _atom_site_symmetry_multiplicity
 _atom_site_fract_x
 _atom_site_fract_y
 _atom_site_fract_z
 _atom_site_occupancy
  Sr  Sr0  1  0.46326716  0.75545884  0.36061102  1
  Sr  Sr1  1  0.03803310  0.75322798  0.63819053  1
  Sr  Sr2  1  0.46326716  0.74454116  0.13938898  1
  Sr  Sr3  1  0.03803310  0.74677202  0.86180947  1
  Sr  Sr4  1  0.53673284  0.24454116  0.63938898  1
  Sr  Sr5  1  0.96196690  0.24677202  0.36180947  1
  Sr  Sr6  1  0.53673284  0.25545884  0.86061102  1
  Sr  Sr7  1  0.96196690  0.25322798  0.13819053  1
  Ca  Ca8  1  0.46433376  0.75000000  0.25000000  1
  Ca  Ca9  1  0.53566624  0.25000000  0.75000000  1
  Y  Y10  1  0.03604376  0.75000000  0.75000000  1
  Y  Y11  1  0.96395624  0.25000000  0.25000000  1
  Cu  Cu12  1  0.96141844  0.75046963  0.30277363  1
  Cu  Cu13  1  0.53869062  0.75115293  0.69521727  1
  Cu  Cu14  1  0.96141844  0.74953037  0.19722637  1
  Cu  Cu15  1  0.53869062  0.74884707  0.80478273  1
  Cu  Cu16  1  0.03858156  0.24953037  0.69722637  1
  Cu  Cu17  1  0.46130938  0.24884707  0.30478273  1
  Cu  Cu18  1  0.03858156  0.25046963  0.80277363  1
  Cu  Cu19  1  0.46130938  0.25115293  0.19521727  1
  Bi  Bi20  1  0.00093816  0.27321701  0.55383207  1
  Bi  Bi21  1  0.00093816  0.22678299  0.94616793  1
  Bi  Bi22  1  0.99906184  0.72678299  0.44616793  1
  Bi  Bi23  1  0.99906184  0.77321701  0.05383207  1
  Pb  Pb24  1  0.48643746  0.26089255  0.44712005  1
  Pb  Pb25  1  0.48643746  0.23910745  0.05287995  1
  Pb  Pb26  1  0.51356254  0.73910745  0.55287995  1
  Pb  Pb27  1  0.51356254  0.76089255  0.94712005  1
  O  O28  1  0.72368500  0.01171620  0.29619434  1
  O  O29  1  0.78527398  0.00425337  0.70381594  1
  O  O30  1  0.72368500  0.48828380  0.20380566  1
  O  O31  1  0.78527398  0.49574663  0.79618406  1
  O  O32  1  0.27631500  0.98828380  0.70380566  1
  O  O33  1  0.21472602  0.99574663  0.29618406  1
  O  O34  1  0.27631500  0.51171620  0.79619434  1
  O  O35  1  0.21472602  0.50425337  0.20381594  1
  O  O36  1  0.45416089  0.21464298  0.37751606  1
  O  O37  1  0.05166756  0.21414993  0.61956463  1
  O  O38  1  0.45416089  0.28535702  0.12248394  1
  O  O39  1  0.05166756  0.28585007  0.88043537  1
  O  O40  1  0.54583911  0.78535702  0.62248394  1
  O  O41  1  0.94833244  0.78585007  0.38043537  1
  O  O42  1  0.54583911  0.71464298  0.87751606  1
  O  O43  1  0.94833244  0.71414993  0.11956463  1
  O  O44  1  0.61262350  0.16747248  0.93871198  1
  O  O45  1  0.90961168  0.15003605  0.05940129  1
  O  O46  1  0.61262350  0.33252752  0.56128802  1
  O  O47  1  0.90961168  0.34996395  0.44059871  1
  O  O48  1  0.38737650  0.83252752  0.06128802  1
  O  O49  1  0.09038832  0.84996395  0.94059871  1
  O  O50  1  0.38737650  0.66747248  0.43871198  1
  O  O51  1  0.09038832  0.65003605  0.55940129  1
  O  O52  1  0.19785066  0.48690474  0.29956173  1
  O  O53  1  0.29237299  0.49628845  0.70029390  1
  O  O54  1  0.19785066  0.01309526  0.20043827  1
  O  O55  1  0.29237299  0.00371155  0.79970610  1
  O  O56  1  0.80214934  0.51309526  0.70043827  1
  O  O57  1  0.70762701  0.50371155  0.29970610  1
  O  O58  1  0.80214934  0.98690474  0.79956173  1
  O  O59  1  0.70762701  0.99628845  0.20029390  1
