# generated using pymatgen
data_Sm2Fe15Co2
_symmetry_space_group_name_H-M   'P 1'
_cell_length_a   6.44235510
_cell_length_b   6.42450119
_cell_length_c   6.44235504
_cell_angle_alpha   82.42832186
_cell_angle_beta   82.65704068
_cell_angle_gamma   82.42831202
_symmetry_Int_Tables_number   1
_chemical_formula_structural   Sm2Fe15Co2
_chemical_formula_sum   'Sm2 Fe15 Co2'
_cell_volume   260.35227106
_cell_formula_units_Z   1
loop_
 _symmetry_equiv_pos_site_id
 _symmetry_equiv_pos_as_xyz
  1  'x, y, z'
loop_
 _atom_site_type_symbol
 _atom_site_label
 _atom_site_symmetry_multiplicity
 _atom_site_fract_x
 _atom_site_fract_y
 _atom_site_fract_z
 _atom_site_occupancy
  Sm  Sm0  1  0.65865565  0.65771868  0.65865565  1
  Sm  Sm1  1  0.34120419  0.34162675  0.34120419  1
  Fe  Fe2  1  0.29431177  0.70653815  0.00105027  1
  Fe  Fe3  1  0.70959409  0.00001180  0.28930024  1
  Fe  Fe4  1  0.99894305  0.29319073  0.70768512  1
  Fe  Fe5  1  0.28930024  0.00001180  0.70959409  1
  Fe  Fe6  1  0.00105027  0.70653815  0.29431177  1
  Fe  Fe7  1  0.70768512  0.29319073  0.99894305  1
  Fe  Fe8  1  0.99858860  -0.00008738  0.50102806  1
  Fe  Fe9  1  0.00040512  0.49963680  0.00040512  1
  Fe  Fe10  1  0.50102806  -0.00008738  0.99858860  1
  Fe  Fe11  1  0.90441083  0.90351209  0.90441083  1
  Fe  Fe12  1  0.09638320  0.09474494  0.09638320  1
  Fe  Fe13  1  0.34186284  0.84603539  0.34186284  1
  Fe  Fe14  1  0.15875764  0.65769878  0.65872047  1
  Fe  Fe15  1  0.65872047  0.65769878  0.15875764  1
  Fe  Fe16  1  0.65633548  0.16101791  0.65633548  1
  Co  Co17  1  0.84382882  0.34050164  0.33893456  1
  Co  Co18  1  0.33893456  0.34050164  0.84382882  1
