# generated using pymatgen
data_Sr4La(CoO3)5
_symmetry_space_group_name_H-M   'P 1'
_cell_length_a   5.45836505
_cell_length_b   6.70887041
_cell_length_c   8.69701420
_cell_angle_alpha   105.21368586
_cell_angle_beta   71.71120130
_cell_angle_gamma   90.00000000
_symmetry_Int_Tables_number   1
_chemical_formula_structural   Sr4La(CoO3)5
_chemical_formula_sum   'Sr4 La1 Co5 O15'
_cell_volume   290.61385709
_cell_formula_units_Z   1
loop_
 _symmetry_equiv_pos_site_id
 _symmetry_equiv_pos_as_xyz
  1  'x, y, z'
loop_
 _atom_site_type_symbol
 _atom_site_label
 _atom_site_symmetry_multiplicity
 _atom_site_fract_x
 _atom_site_fract_y
 _atom_site_fract_z
 _atom_site_occupancy
  Sr  Sr0  1  0.00035640  0.50013923  0.99928720  1
  Sr  Sr1  1  0.39984185  0.90222348  0.20031631  1
  Sr  Sr2  1  0.80015815  0.29777652  0.39968369  1
  Sr  Sr3  1  0.19964360  0.69986077  0.60071280  1
  La  La4  1  0.60000000  0.10000000  0.80000000  1
  Co  Co5  1  0.20061943  0.19989373  0.59876113  1
  Co  Co6  1  0.60000000  0.60000000  0.80000000  1
  Co  Co7  1  0.99938057  0.00010627  0.00123887  1
  Co  Co8  1  0.39818708  0.40025709  0.20362584  1
  Co  Co9  1  0.80181292  0.79974291  0.39637416  1
  O  O10  1  0.40217219  0.38728284  0.69880276  1
  O  O11  1  0.79782781  0.81271716  0.90119724  1
  O  O12  1  0.20891422  0.20186794  0.09091032  1
  O  O13  1  0.60000000  0.60000000  0.30000000  1
  O  O14  1  0.99108578  0.99813206  0.50908968  1
  O  O15  1  0.30036632  0.29365170  0.39926735  1
  O  O16  1  0.69405816  0.69919555  0.61188368  1
  O  O17  1  0.10000000  0.10000000  0.80000000  1
  O  O18  1  0.50594184  0.50080445  0.98811632  1
  O  O19  1  0.89963368  0.90634830  0.20073265  1
  O  O20  1  0.49982454  0.99813206  0.50908968  1
  O  O21  1  0.89902505  0.38728284  0.69880276  1
  O  O22  1  0.30097495  0.81271716  0.90119724  1
  O  O23  1  0.70017546  0.20186794  0.09091032  1
  O  O24  1  0.10000000  0.60000000  0.30000000  1
