# generated using pymatgen
data_Sr7Cu2HgBiSbO15
_symmetry_space_group_name_H-M   'P 1'
_cell_length_a   7.73915240
_cell_length_b   9.02216579
_cell_length_c   11.78846473
_cell_angle_alpha   90.00000000
_cell_angle_beta   90.00000000
_cell_angle_gamma   90.00000000
_symmetry_Int_Tables_number   1
_chemical_formula_structural   Sr7Cu2HgBiSbO15
_chemical_formula_sum   'Sr14 Cu4 Hg2 Bi2 Sb2 O30'
_cell_volume   823.11677139
_cell_formula_units_Z   2
loop_
 _symmetry_equiv_pos_site_id
 _symmetry_equiv_pos_as_xyz
  1  'x, y, z'
loop_
 _atom_site_type_symbol
 _atom_site_label
 _atom_site_symmetry_multiplicity
 _atom_site_fract_x
 _atom_site_fract_y
 _atom_site_fract_z
 _atom_site_occupancy
  Sr  Sr0  1  0.50000000  0.28989259  0.00000000  1
  Sr  Sr1  1  0.00000000  0.28989259  0.00000000  1
  Sr  Sr2  1  0.50000000  0.71010741  0.00000000  1
  Sr  Sr3  1  -0.00000000  0.71010741  0.00000000  1
  Sr  Sr4  1  0.49291683  0.29274635  0.65694350  1
  Sr  Sr5  1  0.50708317  0.29274635  0.34305650  1
  Sr  Sr6  1  0.00708317  0.29274635  0.65694350  1
  Sr  Sr7  1  0.99291683  0.29274635  0.34305650  1
  Sr  Sr8  1  0.50708317  0.70725365  0.34305650  1
  Sr  Sr9  1  0.49291683  0.70725365  0.65694350  1
  Sr  Sr10  1  0.99291683  0.70725365  0.34305650  1
  Sr  Sr11  1  0.00708317  0.70725365  0.65694350  1
  Sr  Sr12  1  0.75000000  0.00000000  0.84083531  1
  Sr  Sr13  1  0.25000000  0.00000000  0.15916469  1
  Cu  Cu14  1  0.25000000  0.50000000  0.82635917  1
  Cu  Cu15  1  0.75000000  0.50000000  0.17364083  1
  Cu  Cu16  1  0.75000000  0.50000000  0.49959676  1
  Cu  Cu17  1  0.25000000  0.50000000  0.50040324  1
  Hg  Hg18  1  0.75000000  0.00000000  0.50200912  1
  Hg  Hg19  1  0.25000000  0.00000000  0.49799088  1
  Bi  Bi20  1  0.25000000  0.00000000  0.82017749  1
  Bi  Bi21  1  0.75000000  0.00000000  0.17982251  1
  Sb  Sb22  1  0.75000000  0.50000000  0.83248264  1
  Sb  Sb23  1  0.25000000  0.50000000  0.16751736  1
  O  O24  1  0.75000000  0.27380679  0.83627825  1
  O  O25  1  0.25000000  0.27380679  0.16372175  1
  O  O26  1  0.25000000  0.72619321  0.16372175  1
  O  O27  1  0.75000000  0.72619321  0.83627825  1
  O  O28  1  0.75000000  0.50000000  0.00104935  1
  O  O29  1  0.25000000  0.50000000  0.99895065  1
  O  O30  1  0.50000000  0.00000000  0.00000000  1
  O  O31  1  -0.00000000  0.00000000  -0.00000000  1
  O  O32  1  0.75000000  0.22701402  0.50400658  1
  O  O33  1  0.25000000  0.22701402  0.49599342  1
  O  O34  1  0.25000000  0.77298598  0.49599342  1
  O  O35  1  0.75000000  0.77298598  0.50400658  1
  O  O36  1  0.75000000  0.50000000  0.66525212  1
  O  O37  1  0.25000000  0.50000000  0.33474788  1
  O  O38  1  0.49453258  0.50000000  0.83079596  1
  O  O39  1  0.50546742  0.50000000  0.16920404  1
  O  O40  1  0.00546742  0.50000000  0.83079596  1
  O  O41  1  0.99453258  0.50000000  0.16920404  1
  O  O42  1  0.25000000  0.50000000  0.66096229  1
  O  O43  1  0.75000000  0.50000000  0.33903771  1
  O  O44  1  0.47146425  0.00000000  0.71073887  1
  O  O45  1  0.52853575  0.00000000  0.28926113  1
  O  O46  1  0.02853575  0.00000000  0.71073887  1
  O  O47  1  0.97146425  0.00000000  0.28926113  1
  O  O48  1  0.25000000  0.23716273  0.83412284  1
  O  O49  1  0.75000000  0.23716273  0.16587716  1
  O  O50  1  0.75000000  0.76283727  0.16587716  1
  O  O51  1  0.25000000  0.76283727  0.83412284  1
  O  O52  1  0.50000000  0.50000000  0.50000000  1
  O  O53  1  0.00000000  0.50000000  0.50000000  1
