# generated using pymatgen
data_Sr4Fe2MoWO12
_symmetry_space_group_name_H-M   'P 1'
_cell_length_a   5.63622743
_cell_length_b   5.68271426
_cell_length_c   9.83466105
_cell_angle_alpha   89.21588628
_cell_angle_beta   73.41852948
_cell_angle_gamma   60.48772912
_symmetry_Int_Tables_number   1
_chemical_formula_structural   Sr4Fe2MoWO12
_chemical_formula_sum   'Sr4 Fe2 Mo1 W1 O12'
_cell_volume   259.66655893
_cell_formula_units_Z   1
loop_
 _symmetry_equiv_pos_site_id
 _symmetry_equiv_pos_as_xyz
  1  'x, y, z'
loop_
 _atom_site_type_symbol
 _atom_site_label
 _atom_site_symmetry_multiplicity
 _atom_site_fract_x
 _atom_site_fract_y
 _atom_site_fract_z
 _atom_site_occupancy
  Sr  Sr0  1  0.75445954  0.62350852  0.86491857  1
  Sr  Sr1  1  0.74583319  0.12480282  0.38754157  1
  Sr  Sr2  1  0.25416681  0.37519718  0.11245843  1
  Sr  Sr3  1  0.24554046  0.87649148  0.63508143  1
  Fe  Fe4  1  0.00061028  0.99826026  0.99644155  1
  Fe  Fe5  1  -0.00061028  0.50173974  0.50355845  1
  Mo  Mo6  1  0.50000000  0.25000000  0.75000000  1
  W  W7  1  0.50000000  0.75000000  0.25000000  1
  O  O8  1  0.74114875  0.39059271  0.13074930  1
  O  O9  1  0.75761412  0.86444654  0.61673916  1
  O  O10  1  0.24238588  0.63555346  0.88326084  1
  O  O11  1  0.25885125  0.10940729  0.36925070  1
  O  O12  1  0.20517426  0.15319337  0.86384121  1
  O  O13  1  0.22805242  0.63789019  0.34985357  1
  O  O14  1  0.79482574  0.34680663  0.63615879  1
  O  O15  1  0.77194758  0.86210981  0.15014643  1
  O  O16  1  0.71205490  0.60792283  0.38605119  1
  O  O17  1  0.71229386  0.11002838  0.89651638  1
  O  O18  1  0.28770614  0.38997162  0.60348362  1
  O  O19  1  0.28794510  0.89207717  0.11394881  1
