# generated using pymatgen
data_SiPN3
_symmetry_space_group_name_H-M   'P 1'
_cell_length_a   4.69663972
_cell_length_b   5.29304602
_cell_length_c   5.30612581
_cell_angle_alpha   120.29443584
_cell_angle_beta   90.00000000
_cell_angle_gamma   90.00000000
_symmetry_Int_Tables_number   1
_chemical_formula_structural   SiPN3
_chemical_formula_sum   'Si2 P2 N6'
_cell_volume   113.89506559
_cell_formula_units_Z   2
loop_
 _symmetry_equiv_pos_site_id
 _symmetry_equiv_pos_as_xyz
  1  'x, y, z'
loop_
 _atom_site_type_symbol
 _atom_site_label
 _atom_site_symmetry_multiplicity
 _atom_site_fract_x
 _atom_site_fract_y
 _atom_site_fract_z
 _atom_site_occupancy
  Si  Si0  1  0.50372759  0.00143998  0.32536478  1
  Si  Si1  1  0.00372759  0.99856002  0.67463522  1
  P  P2  1  0.49539511  0.32830609  0.99392564  1
  P  P3  1  0.99539511  0.67169391  0.00607436  1
  N  N4  1  0.85854713  0.90527188  0.33245778  1
  N  N5  1  0.84225785  0.34612631  0.91546034  1
  N  N6  1  0.35854713  0.09472812  0.66754222  1
  N  N7  1  0.34225785  0.65387369  0.08453966  1
  N  N8  1  0.93327233  0.75242723  0.76919155  1
  N  N9  1  0.43327233  0.24757277  0.23080845  1
