# generated using pymatgen
data_Sr4Zr3TiO12
_symmetry_space_group_name_H-M   'P 1'
_cell_length_a   5.79640095
_cell_length_b   5.82518979
_cell_length_c   8.20686428
_cell_angle_alpha   90.00001501
_cell_angle_beta   89.97495975
_cell_angle_gamma   90.01798118
_symmetry_Int_Tables_number   1
_chemical_formula_structural   Sr4Zr3TiO12
_chemical_formula_sum   'Sr4 Zr3 Ti1 O12'
_cell_volume   277.10584521
_cell_formula_units_Z   1
loop_
 _symmetry_equiv_pos_site_id
 _symmetry_equiv_pos_as_xyz
  1  'x, y, z'
loop_
 _atom_site_type_symbol
 _atom_site_label
 _atom_site_symmetry_multiplicity
 _atom_site_fract_x
 _atom_site_fract_y
 _atom_site_fract_z
 _atom_site_occupancy
  Sr  Sr0  1  0.49381768  0.02676965  0.24174473  1
  Sr  Sr1  1  0.00719929  0.52276156  0.24190910  1
  Sr  Sr2  1  0.50618232  0.97323035  0.75825527  1
  Sr  Sr3  1  0.99280071  0.47723844  0.75809090  1
  Zr  Zr4  1  0.00000000  -0.00000000  0.50000000  1
  Zr  Zr5  1  0.50000000  0.50000000  0.50000000  1
  Zr  Zr6  1  0.00000000  -0.00000000  -0.00000000  1
  Ti  Ti7  1  0.50000000  0.50000000  -0.00000000  1
  O  O8  1  0.56578213  0.48729237  0.24001014  1
  O  O9  1  0.92640305  0.98494870  0.24886784  1
  O  O10  1  0.43421787  0.51270763  0.75998986  1
  O  O11  1  0.07359695  0.01505130  0.75113216  1
  O  O12  1  0.27833743  0.76335033  0.03318531  1
  O  O13  1  0.21183922  0.28851937  0.45865311  1
  O  O14  1  0.71164564  0.21227916  0.54025876  1
  O  O15  1  0.76260302  0.72165738  0.96642771  1
  O  O16  1  0.72166257  0.23664967  0.96681469  1
  O  O17  1  0.78816078  0.71148063  0.54134689  1
  O  O18  1  0.28835436  0.78772084  0.45974124  1
  O  O19  1  0.23739698  0.27834262  0.03357229  1
