# generated using pymatgen
data_Sr2Fe2O5
_symmetry_space_group_name_H-M   'P 1'
_cell_length_a   5.63601560
_cell_length_b   5.70389161
_cell_length_c   8.88600591
_cell_angle_alpha   70.89033794
_cell_angle_beta   71.11707470
_cell_angle_gamma   88.83833624
_symmetry_Int_Tables_number   1
_chemical_formula_structural   Sr2Fe2O5
_chemical_formula_sum   'Sr4 Fe4 O10'
_cell_volume   254.21676843
_cell_formula_units_Z   2
loop_
 _symmetry_equiv_pos_site_id
 _symmetry_equiv_pos_as_xyz
  1  'x, y, z'
loop_
 _atom_site_type_symbol
 _atom_site_label
 _atom_site_symmetry_multiplicity
 _atom_site_fract_x
 _atom_site_fract_y
 _atom_site_fract_z
 _atom_site_occupancy
  Sr  Sr0  1  0.87722893  0.37371156  0.21446643  1
  Sr  Sr1  1  0.12277107  0.62628844  0.78553357  1
  Sr  Sr2  1  0.40830464  0.91182200  0.21446643  1
  Sr  Sr3  1  0.59169536  0.08817800  0.78553357  1
  Fe  Fe4  1  0.50000000  0.50000000  0.00000000  1
  Fe  Fe5  1  0.00000000  0.00000000  0.00000000  1
  Fe  Fe6  1  0.82620391  0.68587856  0.50000000  1
  Fe  Fe7  1  0.17379609  0.31412144  0.50000000  1
  O  O8  1  0.25405710  0.25405710  0.99188581  1
  O  O9  1  0.24121203  0.74121203  0.01757593  1
  O  O10  1  0.75878797  0.25878797  0.98242407  1
  O  O11  1  0.74594290  0.74594290  0.00811419  1
  O  O12  1  0.37232370  0.32242696  0.28121178  1
  O  O13  1  0.62767630  0.67757304  0.71878822  1
  O  O14  1  0.84646452  0.89636126  0.28121178  1
  O  O15  1  0.15353548  0.10363874  0.71878822  1
  O  O16  1  0.17528804  0.65528085  0.50000000  1
  O  O17  1  0.82471196  0.34471915  0.50000000  1
