# generated using pymatgen
data_Sr4Li(RuO4)3
_symmetry_space_group_name_H-M   'P 1'
_cell_length_a   5.61148117
_cell_length_b   5.55235706
_cell_length_c   7.97447950
_cell_angle_alpha   90.27085905
_cell_angle_beta   90.11175360
_cell_angle_gamma   89.99236130
_symmetry_Int_Tables_number   1
_chemical_formula_structural   Sr4Li(RuO4)3
_chemical_formula_sum   'Sr4 Li1 Ru3 O12'
_cell_volume   248.45718481
_cell_formula_units_Z   1
loop_
 _symmetry_equiv_pos_site_id
 _symmetry_equiv_pos_as_xyz
  1  'x, y, z'
loop_
 _atom_site_type_symbol
 _atom_site_label
 _atom_site_symmetry_multiplicity
 _atom_site_fract_x
 _atom_site_fract_y
 _atom_site_fract_z
 _atom_site_occupancy
  Sr  Sr0  1  0.50260148  0.51056178  0.23286771  1
  Sr  Sr1  1  0.00666750  0.01342782  0.23208590  1
  Sr  Sr2  1  0.49739852  0.48943822  0.76713229  1
  Sr  Sr3  1  0.99333250  0.98657218  0.76791410  1
  Li  Li4  1  0.00000000  0.50000000  -0.00000000  1
  Ru  Ru5  1  0.50000000  -0.00000000  0.50000000  1
  Ru  Ru6  1  0.00000000  0.50000000  0.50000000  1
  Ru  Ru7  1  0.50000000  -0.00000000  -0.00000000  1
  O  O8  1  0.73298132  0.74712421  0.97529868  1
  O  O9  1  0.77629713  0.22095708  0.53151773  1
  O  O10  1  0.27950327  0.27766963  0.46342383  1
  O  O11  1  0.25016985  0.76449897  0.02181735  1
  O  O12  1  0.26701868  0.25287579  0.02470132  1
  O  O13  1  0.22370287  0.77904292  0.46848227  1
  O  O14  1  0.72049673  0.72233037  0.53657617  1
  O  O15  1  0.74983015  0.23550103  0.97818265  1
  O  O16  1  0.94808981  0.50022402  0.26286834  1
  O  O17  1  0.56360598  0.99313977  0.25003200  1
  O  O18  1  0.05191019  0.49977598  0.73713166  1
  O  O19  1  0.43639402  0.00686023  0.74996800  1
