# generated using pymatgen
data_PrCu3Pd2
_symmetry_space_group_name_H-M   'P 1'
_cell_length_a   5.20688612
_cell_length_b   5.20688612
_cell_length_c   5.20688612
_cell_angle_alpha   88.72680583
_cell_angle_beta   63.54633880
_cell_angle_gamma   122.16143013
_symmetry_Int_Tables_number   1
_chemical_formula_structural   PrCu3Pd2
_chemical_formula_sum   'Pr1 Cu3 Pd2'
_cell_volume   100.53367576
_cell_formula_units_Z   1
loop_
 _symmetry_equiv_pos_site_id
 _symmetry_equiv_pos_as_xyz
  1  'x, y, z'
loop_
 _atom_site_type_symbol
 _atom_site_label
 _atom_site_symmetry_multiplicity
 _atom_site_fract_x
 _atom_site_fract_y
 _atom_site_fract_z
 _atom_site_occupancy
  Pr  Pr0  1  -0.00000000  0.00245736  0.99754264  1
  Cu  Cu1  1  0.25128669  0.87140714  0.37987956  1
  Cu  Cu2  1  0.74871331  0.36883375  0.37987956  1
  Cu  Cu3  1  0.50000000  0.75780642  0.74219358  1
  Pd  Pd4  1  0.75196165  0.37474767  0.87329068  1
  Pd  Pd5  1  0.24803835  0.37474767  0.37721398  1
