# generated using pymatgen
data_Nd4Si7
_symmetry_space_group_name_H-M   'P 1'
_cell_length_a   4.23959136
_cell_length_b   4.10932198
_cell_length_c   13.81642359
_cell_angle_alpha   90.00000000
_cell_angle_beta   90.00000000
_cell_angle_gamma   90.00000000
_symmetry_Int_Tables_number   1
_chemical_formula_structural   Nd4Si7
_chemical_formula_sum   'Nd4 Si7'
_cell_volume   240.70760353
_cell_formula_units_Z   1
loop_
 _symmetry_equiv_pos_site_id
 _symmetry_equiv_pos_as_xyz
  1  'x, y, z'
loop_
 _atom_site_type_symbol
 _atom_site_label
 _atom_site_symmetry_multiplicity
 _atom_site_fract_x
 _atom_site_fract_y
 _atom_site_fract_z
 _atom_site_occupancy
  Nd  Nd0  1  0.25000000  0.00000000  0.37320840  1
  Nd  Nd1  1  0.75000000  0.50000000  0.87380154  1
  Nd  Nd2  1  0.25000000  0.50000000  0.12640326  1
  Nd  Nd3  1  0.75000000  0.00000000  0.62662751  1
  Si  Si4  1  0.75000000  0.50000000  0.30256583  1
  Si  Si5  1  0.25000000  0.00000000  0.79069618  1
  Si  Si6  1  0.75000000  -0.00000000  0.21064621  1
  Si  Si7  1  0.25000000  0.50000000  0.70352705  1
  Si  Si8  1  0.25000000  0.00000000  0.95961105  1
  Si  Si9  1  0.75000000  0.00000000  0.03970087  1
  Si  Si10  1  0.25000000  0.50000000  0.53651211  1
