# generated using pymatgen
data_ScGa4Fe3Co8
_symmetry_space_group_name_H-M   'P 1'
_cell_length_a   4.09264675
_cell_length_b   4.09264675
_cell_length_c   13.56724570
_cell_angle_alpha   90.00000000
_cell_angle_beta   81.32507446
_cell_angle_gamma   120.00000000
_symmetry_Int_Tables_number   1
_chemical_formula_structural   ScGa4Fe3Co8
_chemical_formula_sum   'Sc1 Ga4 Fe3 Co8'
_cell_volume   193.79489428
_cell_formula_units_Z   1
loop_
 _symmetry_equiv_pos_site_id
 _symmetry_equiv_pos_as_xyz
  1  'x, y, z'
loop_
 _atom_site_type_symbol
 _atom_site_label
 _atom_site_symmetry_multiplicity
 _atom_site_fract_x
 _atom_site_fract_y
 _atom_site_fract_z
 _atom_site_occupancy
  Sc  Sc0  1  -0.00000000  -0.00000000  0.00000000  1
  Ga  Ga1  1  0.25191074  0.12595537  0.62213389  1
  Ga  Ga2  1  0.75305475  0.37652737  0.87041788  1
  Ga  Ga3  1  0.24694525  0.62347263  0.12958212  1
  Ga  Ga4  1  0.74808926  0.87404463  0.37786611  1
  Fe  Fe5  1  0.49746155  0.24873078  0.25380767  1
  Fe  Fe6  1  -0.00000000  0.50000000  0.50000000  1
  Fe  Fe7  1  0.50253845  0.75126922  0.74619233  1
  Co  Co8  1  0.62554505  0.81277252  0.56168243  1
  Co  Co9  1  0.13043945  0.06521973  0.80434082  1
  Co  Co10  1  0.61926044  0.30963022  0.07110935  1
  Co  Co11  1  0.12280243  0.56140122  0.31579635  1
  Co  Co12  1  0.87719757  0.43859878  0.68420365  1
  Co  Co13  1  0.38073956  0.69036978  0.92889065  1
  Co  Co14  1  0.86956055  0.93478027  0.19565918  1
  Co  Co15  1  0.37445495  0.18722748  0.43831757  1
