# generated using pymatgen
data_PrTi6Bi7O24
_symmetry_space_group_name_H-M   'P 1'
_cell_length_a   5.47671846
_cell_length_b   5.43663004
_cell_length_c   17.01193203
_cell_angle_alpha   80.44147458
_cell_angle_beta   90.12972477
_cell_angle_gamma   90.41419811
_symmetry_Int_Tables_number   1
_chemical_formula_structural   PrTi6Bi7O24
_chemical_formula_sum   'Pr1 Ti6 Bi7 O24'
_cell_volume   499.48270905
_cell_formula_units_Z   1
loop_
 _symmetry_equiv_pos_site_id
 _symmetry_equiv_pos_as_xyz
  1  'x, y, z'
loop_
 _atom_site_type_symbol
 _atom_site_label
 _atom_site_symmetry_multiplicity
 _atom_site_fract_x
 _atom_site_fract_y
 _atom_site_fract_z
 _atom_site_occupancy
  Pr  Pr0  1  0.99318559  0.02179324  0.87221572  1
  Ti  Ti1  1  0.49882006  0.96085603  0.99872652  1
  Ti  Ti2  1  0.00029601  0.45978019  0.99813931  1
  Ti  Ti3  1  0.49923350  0.10126055  0.74264142  1
  Ti  Ti4  1  0.50027519  0.84540633  0.25798512  1
  Ti  Ti5  1  0.99932694  0.59338503  0.74314430  1
  Ti  Ti6  1  0.99822465  0.34522970  0.25763251  1
  Bi  Bi7  1  0.47371681  0.27871327  0.42327507  1
  Bi  Bi8  1  0.52555162  0.69861338  0.57690798  1
  Bi  Bi9  1  0.02512373  0.77804563  0.42344981  1
  Bi  Bi10  1  0.97383167  0.19841182  0.57711454  1
  Bi  Bi11  1  0.50280037  0.43292327  0.13289340  1
  Bi  Bi12  1  0.48996641  0.55489979  0.86406307  1
  Bi  Bi13  1  0.99472955  0.93171456  0.13201000  1
  O  O14  1  0.23597043  0.16228040  0.01557685  1
  O  O15  1  0.75505034  0.19303583  0.97818502  1
  O  O16  1  0.26449209  0.66093247  0.02185275  1
  O  O17  1  0.75692764  0.70233027  0.97691115  1
  O  O18  1  0.55930802  0.13536884  0.63847175  1
  O  O19  1  0.44187521  0.77153195  0.36203458  1
  O  O20  1  0.94065894  0.63408440  0.63867979  1
  O  O21  1  0.05860417  0.27145438  0.36171061  1
  O  O22  1  0.22426869  0.07865566  0.22376634  1
  O  O23  1  0.76912017  0.30770596  0.77844491  1
  O  O24  1  0.27579845  0.57924388  0.22361743  1
  O  O25  1  0.73542324  0.81101550  0.77879070  1
  O  O26  1  0.25418499  0.97674185  0.50238283  1
  O  O27  1  0.74576026  0.47951570  0.49837584  1
  O  O28  1  0.24586342  0.47681646  0.50197982  1
  O  O29  1  0.75443991  0.97965496  0.49789181  1
  O  O30  1  0.42785071  0.97458024  0.88496232  1
  O  O31  1  0.57338732  0.86461255  0.11491473  1
  O  O32  1  0.07214858  0.51417000  0.88405579  1
  O  O33  1  0.92869631  0.36174904  0.11486990  1
  O  O34  1  0.28079203  0.36896077  0.75624236  1
  O  O35  1  0.71359446  0.12949026  0.24663807  1
  O  O36  1  0.22452757  0.86630478  0.75362622  1
  O  O37  1  0.78617496  0.62993104  0.24581967  1
