# generated using pymatgen
data_Pr9Ga5Se21
_symmetry_space_group_name_H-M   'P 1'
_cell_length_a   12.35533587
_cell_length_b   12.35422996
_cell_length_c   12.35503014
_cell_angle_alpha   95.70093243
_cell_angle_beta   84.30065717
_cell_angle_gamma   84.29893679
_symmetry_Int_Tables_number   1
_chemical_formula_structural   Pr9Ga5Se21
_chemical_formula_sum   'Pr18 Ga10 Se42'
_cell_volume   1855.88432611
_cell_formula_units_Z   2
loop_
 _symmetry_equiv_pos_site_id
 _symmetry_equiv_pos_as_xyz
  1  'x, y, z'
loop_
 _atom_site_type_symbol
 _atom_site_label
 _atom_site_symmetry_multiplicity
 _atom_site_fract_x
 _atom_site_fract_y
 _atom_site_fract_z
 _atom_site_occupancy
  Pr  Pr0  1  0.25636929  0.11245517  0.88241985  1
  Pr  Pr1  1  0.91878522  0.45511648  0.22520130  1
  Pr  Pr2  1  0.59570510  0.77807832  0.55465990  1
  Pr  Pr3  1  0.44534333  0.40429884  0.77806586  1
  Pr  Pr4  1  0.11759095  0.74362104  0.11245127  1
  Pr  Pr5  1  0.77478929  0.08121437  0.45511993  1
  Pr  Pr6  1  0.54489185  0.22519980  0.08121239  1
  Pr  Pr7  1  0.22192738  0.55465805  0.40429160  1
  Pr  Pr8  1  0.88754339  0.88241415  0.74363278  1
  Pr  Pr9  1  0.41740631  0.21200467  0.44008776  1
  Pr  Pr10  1  0.07346897  0.55188806  0.78061302  1
  Pr  Pr11  1  0.74882895  0.87745418  0.10810492  1
  Pr  Pr12  1  0.21937985  0.92652443  0.55189044  1
  Pr  Pr13  1  0.89187862  0.25118068  0.87746365  1
  Pr  Pr14  1  0.55992065  0.58258825  0.21199775  1
  Pr  Pr15  1  0.12254361  0.10809958  0.25117454  1
  Pr  Pr16  1  0.78798933  0.44008682  0.58258504  1
  Pr  Pr17  1  0.44812088  0.78061793  0.92652592  1
  Ga  Ga18  1  0.94678920  0.72236320  0.38981218  1
  Ga  Ga19  1  0.61019260  0.05321649  0.72235741  1
  Ga  Ga20  1  0.27764445  0.38980858  0.05320605  1
  Ga  Ga21  1  0.44655969  0.88701363  0.22339460  1
  Ga  Ga22  1  0.11298890  0.22339327  0.55344009  1
  Ga  Ga23  1  0.77661470  0.55344334  0.88701424  1
  Ga  Ga24  1  0.14911767  0.85087449  0.85087463  1
  Ga  Ga25  1  0.84985419  0.15014936  0.15013602  1
  Ga  Ga26  1  0.35076683  0.64924623  0.64924202  1
  Ga  Ga27  1  0.64892646  0.35107002  0.35107860  1
  Se  Se28  1  0.69512414  0.55401075  0.39921014  1
  Se  Se29  1  0.34511783  0.88936976  0.74820485  1
  Se  Se30  1  0.01389109  0.23260898  0.08400970  1
  Se  Se31  1  0.91599442  0.98611660  0.23260497  1
  Se  Se32  1  0.60079009  0.30486346  0.55400162  1
  Se  Se33  1  0.25180840  0.65487412  0.88936536  1
  Se  Se34  1  0.11060346  0.74820172  0.65487794  1
  Se  Se35  1  0.76738891  0.08400005  0.98611228  1
  Se  Se36  1  0.44599414  0.39921132  0.30486744  1
  Se  Se37  1  0.62818015  0.13941916  0.28104254  1
  Se  Se38  1  0.28370724  0.46997763  0.61529972  1
  Se  Se39  1  0.96733563  0.78271192  0.93831803  1
  Se  Se40  1  0.38469237  0.71629502  0.46997881  1
  Se  Se41  1  0.06168348  0.03266711  0.78270025  1
  Se  Se42  1  0.71896936  0.37179939  0.13940450  1
  Se  Se43  1  0.21730445  0.93829356  0.03266101  1
  Se  Se44  1  0.86059260  0.28103809  0.37182229  1
  Se  Se45  1  0.53003428  0.61530251  0.71629824  1
  Se  Se46  1  0.98314289  0.54165428  0.45009079  1
  Se  Se47  1  0.64426755  0.87335348  0.78306995  1
  Se  Se48  1  0.30500449  0.20634896  0.10949195  1
  Se  Se49  1  0.89050549  0.69499342  0.20635020  1
  Se  Se50  1  0.54990619  0.01684980  0.54164938  1
  Se  Se51  1  0.21692998  0.35571240  0.87334575  1
  Se  Se52  1  0.12665244  0.78306809  0.35571523  1
  Se  Se53  1  0.79364641  0.10950507  0.69498839  1
  Se  Se54  1  0.45836081  0.45008827  0.01685291  1
  Se  Se55  1  0.51977852  0.96788069  0.06433062  1
  Se  Se56  1  0.18500265  0.30107840  0.39165837  1
  Se  Se57  1  0.84211116  0.63321826  0.72341644  1
  Se  Se58  1  0.60834669  0.81499172  0.30106196  1
  Se  Se59  1  0.27658474  0.15789015  0.63322065  1
  Se  Se60  1  0.93566987  0.48022857  0.96789554  1
  Se  Se61  1  0.36677445  0.72341620  0.15789498  1
  Se  Se62  1  0.03210960  0.06433052  0.48023520  1
  Se  Se63  1  0.69892839  0.39165759  0.81500072  1
  Se  Se64  1  0.82088019  0.84659785  0.51385608  1
  Se  Se65  1  0.48614713  0.17910483  0.84660346  1
  Se  Se66  1  0.15341822  0.51385006  0.17911008  1
  Se  Se67  1  0.65393410  0.67921074  0.01337169  1
  Se  Se68  1  0.32078985  0.01338485  0.34607843  1
  Se  Se69  1  0.98662447  0.34607923  0.67921180  1
