# generated using pymatgen
data_NdAlCu4
_symmetry_space_group_name_H-M   'P 1'
_cell_length_a   4.05475866
_cell_length_b   5.33805911
_cell_length_c   5.33866162
_cell_angle_alpha   60.00197262
_cell_angle_beta   90.00000000
_cell_angle_gamma   90.00000000
_symmetry_Int_Tables_number   1
_chemical_formula_structural   NdAlCu4
_chemical_formula_sum   'Nd1 Al1 Cu4'
_cell_volume   100.07372081
_cell_formula_units_Z   1
loop_
 _symmetry_equiv_pos_site_id
 _symmetry_equiv_pos_as_xyz
  1  'x, y, z'
loop_
 _atom_site_type_symbol
 _atom_site_label
 _atom_site_symmetry_multiplicity
 _atom_site_fract_x
 _atom_site_fract_y
 _atom_site_fract_z
 _atom_site_occupancy
  Nd  Nd0  1  0.00000000  0.99998149  0.00003363  1
  Al  Al1  1  0.00000000  0.33333468  0.33338923  1
  Cu  Cu2  1  -0.00000000  0.66663413  0.66666425  1
  Cu  Cu3  1  0.50000000  0.50097610  0.50098493  1
  Cu  Cu4  1  0.50000000  0.50093491  0.99807197  1
  Cu  Cu5  1  0.50000000  0.99803869  0.50095599  1
