# generated using pymatgen
data_Pr2MnRhO6
_symmetry_space_group_name_H-M   'P 1'
_cell_length_a   5.58904058
_cell_length_b   5.89687905
_cell_length_c   7.69066466
_cell_angle_alpha   90.00000000
_cell_angle_beta   91.60239736
_cell_angle_gamma   90.00000000
_symmetry_Int_Tables_number   1
_chemical_formula_structural   Pr2MnRhO6
_chemical_formula_sum   'Pr4 Mn2 Rh2 O12'
_cell_volume   253.36900893
_cell_formula_units_Z   2
loop_
 _symmetry_equiv_pos_site_id
 _symmetry_equiv_pos_as_xyz
  1  'x, y, z'
loop_
 _atom_site_type_symbol
 _atom_site_label
 _atom_site_symmetry_multiplicity
 _atom_site_fract_x
 _atom_site_fract_y
 _atom_site_fract_z
 _atom_site_occupancy
  Pr  Pr0  1  0.51988450  0.56685397  0.24890636  1
  Pr  Pr1  1  0.98011550  0.06685397  0.25109364  1
  Pr  Pr2  1  0.48011550  0.43314603  0.75109364  1
  Pr  Pr3  1  0.01988450  0.93314603  0.74890636  1
  Mn  Mn4  1  -0.00000000  0.50000000  0.00000000  1
  Mn  Mn5  1  0.50000000  0.00000000  0.50000000  1
  Rh  Rh6  1  -0.00000000  0.50000000  0.50000000  1
  Rh  Rh7  1  0.50000000  0.00000000  0.00000000  1
  O  O8  1  0.80265428  0.79703553  0.05034389  1
  O  O9  1  0.69734572  0.29703553  0.44965611  1
  O  O10  1  0.19477686  0.20120811  0.54836503  1
  O  O11  1  0.30522314  0.70120811  0.95163497  1
  O  O12  1  0.19734572  0.20296447  0.94965611  1
  O  O13  1  0.30265428  0.70296447  0.55034389  1
  O  O14  1  0.80522314  0.79879189  0.45163497  1
  O  O15  1  0.69477686  0.29879189  0.04836503  1
  O  O16  1  0.39813692  0.96735419  0.25484884  1
  O  O17  1  0.10186308  0.46735419  0.24515116  1
  O  O18  1  0.60186308  0.03264581  0.74515116  1
  O  O19  1  0.89813692  0.53264581  0.75484884  1
