# generated using pymatgen
data_NbNi3P2
_symmetry_space_group_name_H-M   'P 1'
_cell_length_a   3.58953761
_cell_length_b   5.91929225
_cell_length_c   10.41719610
_cell_angle_alpha   90.47112848
_cell_angle_beta   90.00000000
_cell_angle_gamma   90.00000000
_symmetry_Int_Tables_number   1
_chemical_formula_structural   NbNi3P2
_chemical_formula_sum   'Nb3 Ni9 P6'
_cell_volume   221.33212209
_cell_formula_units_Z   3
loop_
 _symmetry_equiv_pos_site_id
 _symmetry_equiv_pos_as_xyz
  1  'x, y, z'
loop_
 _atom_site_type_symbol
 _atom_site_label
 _atom_site_symmetry_multiplicity
 _atom_site_fract_x
 _atom_site_fract_y
 _atom_site_fract_z
 _atom_site_occupancy
  Nb  Nb0  1  0.50000000  0.70417703  0.70477257  1
  Nb  Nb1  1  0.50000000  0.70627271  0.29300292  1
  Nb  Nb2  1  0.50000000  0.20530353  0.79815230  1
  Ni  Ni3  1  -0.00000000  0.25625334  0.00453331  1
  Ni  Ni4  1  0.00000000  0.75536258  0.49856285  1
  Ni  Ni5  1  -0.00000000  0.36551653  0.36955649  1
  Ni  Ni6  1  -0.00000000  0.87391912  0.88275940  1
  Ni  Ni7  1  -0.00000000  0.87990796  0.12573679  1
  Ni  Ni8  1  0.00000000  0.36810558  0.61737852  1
  Ni  Ni9  1  0.50000000  0.59945735  0.00331916  1
  Ni  Ni10  1  0.50000000  0.09604853  0.49629068  1
  Ni  Ni11  1  0.50000000  0.19923834  0.20120447  1
  P  P12  1  0.00000000  0.00632925  0.33429304  1
  P  P13  1  -0.00000000  0.50533721  0.84209702  1
  P  P14  1  0.00000000  0.49335533  0.16314898  1
  P  P15  1  -0.00000000  0.00337930  0.66171884  1
  P  P16  1  0.50000000  0.99466450  0.00677954  1
  P  P17  1  0.50000000  0.48717181  0.49669312  1
