# generated using pymatgen
data_Nd10(SiGe)3
_symmetry_space_group_name_H-M   'P 1'
_cell_length_a   6.68266309
_cell_length_b   8.83934236
_cell_length_c   8.83934235
_cell_angle_alpha   60.02035663
_cell_angle_beta   89.99970651
_cell_angle_gamma   90.00029350
_symmetry_Int_Tables_number   1
_chemical_formula_structural   Nd10(SiGe)3
_chemical_formula_sum   'Nd10 Si3 Ge3'
_cell_volume   452.28184676
_cell_formula_units_Z   1
loop_
 _symmetry_equiv_pos_site_id
 _symmetry_equiv_pos_as_xyz
  1  'x, y, z'
loop_
 _atom_site_type_symbol
 _atom_site_label
 _atom_site_symmetry_multiplicity
 _atom_site_fract_x
 _atom_site_fract_y
 _atom_site_fract_z
 _atom_site_occupancy
  Nd  Nd0  1  0.49708483  0.33336101  0.33338800  1
  Nd  Nd1  1  0.49708483  0.66661200  0.66663899  1
  Nd  Nd2  1  0.00290744  0.66664813  0.66660687  1
  Nd  Nd3  1  0.00290744  0.33339313  0.33335187  1
  Nd  Nd4  1  0.75000965  0.24508157  0.75491843  1
  Nd  Nd5  1  0.74999580  0.75504498  -0.00003739  1
  Nd  Nd6  1  0.74999580  0.00003739  0.24495502  1
  Nd  Nd7  1  0.25001258  0.75516510  0.24483490  1
  Nd  Nd8  1  0.24999609  0.24470208  0.00003611  1
  Nd  Nd9  1  0.24999609  -0.00003611  0.75529792  1
  Si  Si10  1  0.24999458  0.39380308  0.60619692  1
  Si  Si11  1  0.25000366  0.60620787  -0.00019036  1
  Si  Si12  1  0.25000366  0.00019036  0.39379213  1
  Ge  Ge13  1  0.75000600  0.60629024  0.39370976  1
  Ge  Ge14  1  0.75000078  0.39366983  0.00017067  1
  Ge  Ge15  1  0.75000078  -0.00017067  0.60633017  1
