# generated using pymatgen
data_Fe6O11F
_symmetry_space_group_name_H-M   'P 1'
_cell_length_a   10.28695395
_cell_length_b   6.64653726
_cell_length_c   2.97686386
_cell_angle_alpha   90.00000000
_cell_angle_beta   90.00000000
_cell_angle_gamma   71.18666220
_symmetry_Int_Tables_number   1
_chemical_formula_structural   Fe6O11F
_chemical_formula_sum   'Fe6 O11 F1'
_cell_volume   192.66191952
_cell_formula_units_Z   1
loop_
 _symmetry_equiv_pos_site_id
 _symmetry_equiv_pos_as_xyz
  1  'x, y, z'
loop_
 _atom_site_type_symbol
 _atom_site_label
 _atom_site_symmetry_multiplicity
 _atom_site_fract_x
 _atom_site_fract_y
 _atom_site_fract_z
 _atom_site_occupancy
  Fe  Fe0  1  0.99865287  0.00120974  0.00000000  1
  Fe  Fe1  1  0.99965985  0.50056530  0.50000000  1
  Fe  Fe2  1  0.33501067  0.33304937  0.00000000  1
  Fe  Fe3  1  0.66697417  0.15071661  0.50000000  1
  Fe  Fe4  1  0.33418328  0.83339721  0.50000000  1
  Fe  Fe5  1  0.66558020  0.67956739  0.00000000  1
  O  O6  1  0.99973259  0.31178918  0.00000000  1
  O  O7  1  0.33340905  0.02264035  0.00000000  1
  O  O8  1  0.99951353  0.68871058  0.00000000  1
  O  O9  1  0.20819982  0.39598426  0.50000000  1
  O  O10  1  0.46357987  0.26971579  0.50000000  1
  O  O11  1  0.12615879  0.93668656  0.50000000  1
  O  O12  1  0.33325288  0.64446393  0.00000000  1
  O  O13  1  0.87050951  0.06649037  0.50000000  1
  O  O14  1  0.53957045  0.72762333  0.50000000  1
  O  O15  1  0.79325479  0.60008972  0.50000000  1
  O  O16  1  0.66634247  0.97497202  0.00000000  1
  F  F17  1  0.66641419  0.36232827  0.00000000  1
