# generated using pymatgen
data_Nd3Ni7P5
_symmetry_space_group_name_H-M   'P 1'
_cell_length_a   3.92349879
_cell_length_b   16.58783252
_cell_length_c   16.57713197
_cell_angle_alpha   59.89059274
_cell_angle_beta   90.00000000
_cell_angle_gamma   90.00000000
_symmetry_Int_Tables_number   1
_chemical_formula_structural   Nd3Ni7P5
_chemical_formula_sum   'Nd12 Ni28 P20'
_cell_volume   933.30446290
_cell_formula_units_Z   4
loop_
 _symmetry_equiv_pos_site_id
 _symmetry_equiv_pos_as_xyz
  1  'x, y, z'
loop_
 _atom_site_type_symbol
 _atom_site_label
 _atom_site_symmetry_multiplicity
 _atom_site_fract_x
 _atom_site_fract_y
 _atom_site_fract_z
 _atom_site_occupancy
  Nd  Nd0  1  0.75000000  0.61616237  0.82461829  1
  Nd  Nd1  1  0.75000000  0.55893720  0.61691625  1
  Nd  Nd2  1  0.75000000  0.82485380  0.55920462  1
  Nd  Nd3  1  0.25000000  0.38361483  0.17479829  1
  Nd  Nd4  1  0.25000000  0.44089216  0.38392019  1
  Nd  Nd5  1  0.25000000  0.17542546  0.44094353  1
  Nd  Nd6  1  0.75000000  0.88040668  0.76656501  1
  Nd  Nd7  1  0.75000000  0.35339613  0.88046603  1
  Nd  Nd8  1  0.75000000  0.76414470  0.35619249  1
  Nd  Nd9  1  0.25000000  0.12153453  0.23377446  1
  Nd  Nd10  1  0.25000000  0.64572120  0.11956700  1
  Nd  Nd11  1  0.25000000  0.23387120  0.64625788  1
  Ni  Ni12  1  0.75000000  0.69966227  0.95683618  1
  Ni  Ni13  1  0.75000000  0.34218380  0.70045684  1
  Ni  Ni14  1  0.75000000  0.95846321  0.34346528  1
  Ni  Ni15  1  0.25000000  0.30355871  0.04311134  1
  Ni  Ni16  1  0.25000000  0.65591217  0.30187950  1
  Ni  Ni17  1  0.25000000  0.04321216  0.65358480  1
  Ni  Ni18  1  0.75000000  0.06747617  0.75851719  1
  Ni  Ni19  1  0.75000000  0.17458870  0.06726141  1
  Ni  Ni20  1  0.75000000  0.75146758  0.17484205  1
  Ni  Ni21  1  0.25000000  0.92578099  0.24956262  1
  Ni  Ni22  1  0.25000000  0.82377989  0.92759473  1
  Ni  Ni23  1  0.25000000  0.24968850  0.82411459  1
  Ni  Ni24  1  0.75000000  0.01304548  0.55256406  1
  Ni  Ni25  1  0.75000000  0.43440991  0.01281188  1
  Ni  Ni26  1  0.75000000  0.55325361  0.43344330  1
  Ni  Ni27  1  0.25000000  0.98647009  0.44649166  1
  Ni  Ni28  1  0.25000000  0.56636527  0.98648262  1
  Ni  Ni29  1  0.25000000  0.44617919  0.56779273  1
  Ni  Ni30  1  0.75000000  0.28322867  0.49086740  1
  Ni  Ni31  1  0.75000000  0.22584802  0.28308195  1
  Ni  Ni32  1  0.75000000  0.49008837  0.22611251  1
  Ni  Ni33  1  0.25000000  0.71585511  0.50985623  1
  Ni  Ni34  1  0.25000000  0.77429252  0.71688741  1
  Ni  Ni35  1  0.25000000  0.50908822  0.77427622  1
  Ni  Ni36  1  0.75000000  0.91148871  0.14719424  1
  Ni  Ni37  1  0.25000000  0.05878427  0.09082778  1
  Ni  Ni38  1  0.25000000  0.85004406  0.06025355  1
  Ni  Ni39  1  0.25000000  0.09468962  0.84317776  1
  P  P40  1  0.75000000  0.33292074  0.33345030  1
  P  P41  1  0.25000000  0.66671976  0.66673537  1
  P  P42  1  0.75000000  0.18035915  0.80228437  1
  P  P43  1  0.75000000  0.02168691  0.18061254  1
  P  P44  1  0.75000000  0.80181014  0.01608125  1
  P  P45  1  0.25000000  0.81792988  0.20317665  1
  P  P46  1  0.25000000  0.98095231  0.81426261  1
  P  P47  1  0.25000000  0.20465723  0.98140413  1
  P  P48  1  0.75000000  0.12735115  0.59575236  1
  P  P49  1  0.75000000  0.27688810  0.12750869  1
  P  P50  1  0.75000000  0.59427581  0.27717545  1
  P  P51  1  0.25000000  0.87127708  0.40585457  1
  P  P52  1  0.25000000  0.72272253  0.87207804  1
  P  P53  1  0.25000000  0.40553846  0.72295549  1
  P  P54  1  0.75000000  0.39111370  0.53786803  1
  P  P55  1  0.75000000  0.07129705  0.39133324  1
  P  P56  1  0.75000000  0.53733901  0.07146832  1
  P  P57  1  0.25000000  0.60763707  0.46344027  1
  P  P58  1  0.25000000  0.92920350  0.60882765  1
  P  P59  1  0.25000000  0.46225488  0.92865880  1
