# generated using pymatgen
data_Sc(TiFe3)2
_symmetry_space_group_name_H-M   'P 1'
_cell_length_a   4.83564041
_cell_length_b   4.83579025
_cell_length_c   23.75831278
_cell_angle_alpha   90.00000000
_cell_angle_beta   89.99949968
_cell_angle_gamma   59.99897490
_symmetry_Int_Tables_number   1
_chemical_formula_structural   Sc(TiFe3)2
_chemical_formula_sum   'Sc4 Ti8 Fe24'
_cell_volume   481.13083882
_cell_formula_units_Z   4
loop_
 _symmetry_equiv_pos_site_id
 _symmetry_equiv_pos_as_xyz
  1  'x, y, z'
loop_
 _atom_site_type_symbol
 _atom_site_label
 _atom_site_symmetry_multiplicity
 _atom_site_fract_x
 _atom_site_fract_y
 _atom_site_fract_z
 _atom_site_occupancy
  Sc  Sc0  1  0.33334613  0.33332693  0.18935269  1
  Sc  Sc1  1  0.33331383  0.33334309  0.52145549  1
  Sc  Sc2  1  0.33333314  0.33333343  0.85389314  1
  Sc  Sc3  1  0.66665930  0.66667035  0.14505714  1
  Ti  Ti4  1  0.66663875  0.66668063  0.47703892  1
  Ti  Ti5  1  0.66663791  0.66668105  0.81008332  1
  Ti  Ti6  1  0.66667477  0.66666261  0.01931987  1
  Ti  Ti7  1  0.66664638  0.66667681  0.35390759  1
  Ti  Ti8  1  0.66666970  0.66666515  0.68688461  1
  Ti  Ti9  1  0.33334566  0.33332717  0.31456255  1
  Ti  Ti10  1  0.33334442  0.33332779  0.64759813  1
  Ti  Ti11  1  0.33334779  0.33332610  0.97953577  1
  Fe  Fe12  1  0.99999290  0.00000355  0.16655492  1
  Fe  Fe13  1  0.00000380  -0.00000190  0.49997158  1
  Fe  Fe14  1  0.00001994  0.99999003  0.83307634  1
  Fe  Fe15  1  0.99999352  0.00000324  0.99935349  1
  Fe  Fe16  1  -0.00002349  0.00001174  0.33412368  1
  Fe  Fe17  1  0.00004823  -0.00002412  0.66666962  1
  Fe  Fe18  1  0.83050730  0.33900129  0.25315096  1
  Fe  Fe19  1  0.82945390  0.34103312  0.58510230  1
  Fe  Fe20  1  0.83027808  0.33946343  0.91770588  1
  Fe  Fe21  1  0.33901728  0.83049136  0.25314346  1
  Fe  Fe22  1  0.34097011  0.82951494  0.58510119  1
  Fe  Fe23  1  0.33948609  0.83025696  0.91768640  1
  Fe  Fe24  1  0.83050730  0.83049141  0.25315096  1
  Fe  Fe25  1  0.82945390  0.82951298  0.58510230  1
  Fe  Fe26  1  0.83027808  0.83025850  0.91770588  1
  Fe  Fe27  1  0.16916823  0.66166535  0.08062227  1
  Fe  Fe28  1  0.16956778  0.66087944  0.41544595  1
  Fe  Fe29  1  0.16937362  0.66124908  0.74849091  1
  Fe  Fe30  1  0.66167032  0.16916484  0.08064700  1
  Fe  Fe31  1  0.66091018  0.16954491  0.41545169  1
  Fe  Fe32  1  0.66125555  0.16937222  0.74849487  1
  Fe  Fe33  1  0.16916823  0.16916642  0.08062227  1
  Fe  Fe34  1  0.16956778  0.16955278  0.41544595  1
  Fe  Fe35  1  0.16937362  0.16937730  0.74849091  1
