# generated using pymatgen
data_NaAl3Si3(HO6)2
_symmetry_space_group_name_H-M   'P 1'
_cell_length_a   5.18191620
_cell_length_b   5.18893896
_cell_length_c   19.63184169
_cell_angle_alpha   92.40882049
_cell_angle_beta   85.17153777
_cell_angle_gamma   119.95523451
_symmetry_Int_Tables_number   1
_chemical_formula_structural   NaAl3Si3(HO6)2
_chemical_formula_sum   'Na2 Al6 Si6 H4 O24'
_cell_volume   455.73498714
_cell_formula_units_Z   2
loop_
 _symmetry_equiv_pos_site_id
 _symmetry_equiv_pos_as_xyz
  1  'x, y, z'
loop_
 _atom_site_type_symbol
 _atom_site_label
 _atom_site_symmetry_multiplicity
 _atom_site_fract_x
 _atom_site_fract_y
 _atom_site_fract_z
 _atom_site_occupancy
  Na  Na0  1  0.07797656  0.18484809  0.26466577  1
  Na  Na1  1  0.89312846  0.81515191  0.76466577  1
  Al  Al2  1  0.33389472  0.16624546  0.49758959  1
  Al  Al3  1  0.82854112  0.16116160  0.99709871  1
  Al  Al4  1  0.66737952  0.83883840  0.49709871  1
  Al  Al5  1  0.16764926  0.83375454  0.99758959  1
  Al  Al6  1  0.38013174  0.85402928  0.35945716  1
  Al  Al7  1  0.52610247  0.14597072  0.85945716  1
  Si  Si8  1  0.47890551  0.85901251  0.13885125  1
  Si  Si9  1  0.61989300  0.14098749  0.63885125  1
  Si  Si10  1  0.69585299  0.51194210  0.35762203  1
  Si  Si11  1  0.82309794  0.51727487  0.13852092  1
  Si  Si12  1  0.30582307  0.48272513  0.63852092  1
  Si  Si13  1  0.18391089  0.48805790  0.85762203  1
  H  H14  1  0.02403080  0.29154368  0.42633077  1
  H  H15  1  0.27313927  0.29663826  0.06489989  1
  H  H16  1  0.97650101  0.70336174  0.56489989  1
  H  H17  1  0.73248713  0.70845632  0.92633077  1
  O  O18  1  0.45121544  0.19389144  0.32557034  1
  O  O19  1  0.69759164  0.18578722  0.17255234  1
  O  O20  1  0.51180442  0.81421278  0.67255234  1
  O  O21  1  0.25732400  0.80610856  0.82557034  1
  O  O22  1  0.02995317  0.55540689  0.33907667  1
  O  O23  1  0.57451974  0.61872138  0.16198754  1
  O  O24  1  0.95579836  0.38127862  0.66198754  1
  O  O25  1  0.47454628  0.44459311  0.83907667  1
  O  O26  1  0.62715552  0.50652463  0.44264010  1
  O  O27  1  0.87466146  0.50090784  0.05602515  1
  O  O28  1  0.37375362  0.49909216  0.55602515  1
  O  O29  1  0.12063089  0.49347537  0.94264010  1
  O  O30  1  0.40350116  0.89162463  0.44859560  1
  O  O31  1  0.48206754  0.87887649  0.05677868  1
  O  O32  1  0.60319105  0.12112351  0.55677868  1
  O  O33  1  0.51187653  0.10837537  0.94859560  1
  O  O34  1  0.66122491  0.77645672  0.32448605  1
  O  O35  1  0.13692328  0.74251394  0.17393260  1
  O  O36  1  0.39440935  0.25748606  0.67393260  1
  O  O37  1  0.88476819  0.22354328  0.82448605  1
  O  O38  1  0.01744091  0.12800252  0.45013852  1
  O  O39  1  0.09594621  0.11413372  0.05318033  1
  O  O40  1  0.98181249  0.88586628  0.55318033  1
  O  O41  1  0.88943839  0.87199748  0.95013852  1
