# generated using pymatgen
data_NbVCo
_symmetry_space_group_name_H-M   'P 1'
_cell_length_a   4.83945448
_cell_length_b   4.94713581
_cell_length_c   8.10703888
_cell_angle_alpha   90.00000000
_cell_angle_beta   90.00000000
_cell_angle_gamma   120.73659417
_symmetry_Int_Tables_number   1
_chemical_formula_structural   NbVCo
_chemical_formula_sum   'Nb4 V4 Co4'
_cell_volume   166.82899200
_cell_formula_units_Z   4
loop_
 _symmetry_equiv_pos_site_id
 _symmetry_equiv_pos_as_xyz
  1  'x, y, z'
loop_
 _atom_site_type_symbol
 _atom_site_label
 _atom_site_symmetry_multiplicity
 _atom_site_fract_x
 _atom_site_fract_y
 _atom_site_fract_z
 _atom_site_occupancy
  Nb  Nb0  1  0.66031909  0.33013028  0.56643280  1
  Nb  Nb1  1  0.32358460  0.66183825  0.44599413  1
  Nb  Nb2  1  0.32358460  0.66183825  0.05400587  1
  Nb  Nb3  1  0.66031909  0.33013028  0.93356720  1
  V  V4  1  0.67317048  0.83655832  0.75000000  1
  V  V5  1  0.82694225  0.66269872  0.25000000  1
  V  V6  1  0.82699585  0.16428278  0.25000000  1
  V  V7  1  0.34056677  0.17030267  0.25000000  1
  Co  Co8  1  0.99991544  -0.00001732  0.50804509  1
  Co  Co9  1  0.99991544  -0.00001732  0.99195491  1
  Co  Co10  1  0.18237647  0.34353909  0.75000000  1
  Co  Co11  1  0.18230993  0.83871600  0.75000000  1
