# generated using pymatgen
data_Nd2Mn3Sb3O14
_symmetry_space_group_name_H-M   'P 1'
_cell_length_a   7.43316295
_cell_length_b   7.37328825
_cell_length_c   7.43398439
_cell_angle_alpha   90.00000000
_cell_angle_beta   59.99634432
_cell_angle_gamma   121.15917019
_symmetry_Int_Tables_number   1
_chemical_formula_structural   Nd2Mn3Sb3O14
_chemical_formula_sum   'Nd2 Mn3 Sb3 O14'
_cell_volume   282.93126549
_cell_formula_units_Z   1
loop_
 _symmetry_equiv_pos_site_id
 _symmetry_equiv_pos_as_xyz
  1  'x, y, z'
loop_
 _atom_site_type_symbol
 _atom_site_label
 _atom_site_symmetry_multiplicity
 _atom_site_fract_x
 _atom_site_fract_y
 _atom_site_fract_z
 _atom_site_occupancy
  Nd  Nd0  1  -0.00000000  -0.00000000  0.50000000  1
  Nd  Nd1  1  -0.00000000  -0.00000000  -0.00000000  1
  Mn  Mn2  1  0.50000000  0.00000000  0.50000000  1
  Mn  Mn3  1  0.50000000  0.50000000  -0.00000000  1
  Mn  Mn4  1  0.50000000  -0.00000000  -0.00000000  1
  Sb  Sb5  1  0.50000000  0.50000000  0.50000000  1
  Sb  Sb6  1  0.00000000  0.50000000  -0.00000000  1
  Sb  Sb7  1  -0.00000000  0.50000000  0.50000000  1
  O  O8  1  0.28370807  0.14437120  0.10814597  1
  O  O9  1  0.71629193  0.85562880  0.89185403  1
  O  O10  1  0.67705070  0.82706886  0.41147465  1
  O  O11  1  0.84809375  0.41835585  0.82595313  1
  O  O12  1  0.24717602  0.82925687  0.82501984  1
  O  O13  1  0.25168782  0.42827557  0.42123317  1
  O  O14  1  0.25168782  0.42827557  0.82707900  1
  O  O15  1  0.24717602  0.82925687  0.42780414  1
  O  O16  1  0.32294930  0.17293114  0.58852535  1
  O  O17  1  0.15190625  0.58164415  0.17404687  1
  O  O18  1  0.75282398  0.17074313  0.17498016  1
  O  O19  1  0.74831218  0.57172443  0.57876683  1
  O  O20  1  0.74831218  0.57172443  0.17292100  1
  O  O21  1  0.75282398  0.17074313  0.57219586  1
