# generated using pymatgen
data_Pr(ZnAs)3
_symmetry_space_group_name_H-M   'P 1'
_cell_length_a   4.21506825
_cell_length_b   4.21518698
_cell_length_c   20.65888185
_cell_angle_alpha   90.00000000
_cell_angle_beta   90.00000000
_cell_angle_gamma   119.94949558
_symmetry_Int_Tables_number   1
_chemical_formula_structural   Pr(ZnAs)3
_chemical_formula_sum   'Pr2 Zn6 As6'
_cell_volume   318.03849778
_cell_formula_units_Z   2
loop_
 _symmetry_equiv_pos_site_id
 _symmetry_equiv_pos_as_xyz
  1  'x, y, z'
loop_
 _atom_site_type_symbol
 _atom_site_label
 _atom_site_symmetry_multiplicity
 _atom_site_fract_x
 _atom_site_fract_y
 _atom_site_fract_z
 _atom_site_occupancy
  Pr  Pr0  1  0.99812489  0.00055035  0.50002108  1
  Pr  Pr1  1  0.99812489  0.00055035  0.99997892  1
  Zn  Zn2  1  0.66637547  0.33465120  0.12823957  1
  Zn  Zn3  1  0.33377249  0.66790285  0.87169773  1
  Zn  Zn4  1  0.33377249  0.66790285  0.62830227  1
  Zn  Zn5  1  0.66637547  0.33465120  0.37176043  1
  Zn  Zn6  1  0.63260204  0.35825516  0.75000000  1
  Zn  Zn7  1  0.27558692  0.63429641  0.25000000  1
  As  As8  1  0.66645328  0.33427898  0.58695422  1
  As  As9  1  0.33297318  0.66798844  0.41308540  1
  As  As10  1  0.33297318  0.66798844  0.08691460  1
  As  As11  1  0.66645328  0.33427898  0.91304578  1
  As  As12  1  0.29720348  0.69548723  0.75000000  1
  As  As13  1  0.60210893  0.29731757  0.25000000  1
