# generated using pymatgen
data_Nb2AlB6
_symmetry_space_group_name_H-M   'P 1'
_cell_length_a   3.04303327
_cell_length_b   3.04306243
_cell_length_c   10.31042485
_cell_angle_alpha   90.00000000
_cell_angle_beta   90.00000000
_cell_angle_gamma   60.00030732
_symmetry_Int_Tables_number   1
_chemical_formula_structural   Nb2AlB6
_chemical_formula_sum   'Nb2 Al1 B6'
_cell_volume   82.68488010
_cell_formula_units_Z   1
loop_
 _symmetry_equiv_pos_site_id
 _symmetry_equiv_pos_as_xyz
  1  'x, y, z'
loop_
 _atom_site_type_symbol
 _atom_site_label
 _atom_site_symmetry_multiplicity
 _atom_site_fract_x
 _atom_site_fract_y
 _atom_site_fract_z
 _atom_site_occupancy
  Nb  Nb0  1  0.99996316  1.00000000  0.33553250  1
  Nb  Nb1  1  0.99996316  1.00000000  0.66446750  1
  Al  Al2  1  0.99998230  1.00000000  -0.00000000  1
  B  B3  1  0.66665254  0.66662755  0.15933019  1
  B  B4  1  0.66662264  0.66668087  0.50000000  1
  B  B5  1  0.66665254  0.66662755  0.84066981  1
  B  B6  1  0.33328008  0.33337245  0.15933019  1
  B  B7  1  0.33330351  0.33331913  0.50000000  1
  B  B8  1  0.33328008  0.33337245  0.84066981  1
