# generated using pymatgen
data_Nb4B20Mo11
_symmetry_space_group_name_H-M   'P 1'
_cell_length_a   3.10418615
_cell_length_b   3.20735904
_cell_length_c   35.06401339
_cell_angle_alpha   92.62138080
_cell_angle_beta   92.53700132
_cell_angle_gamma   90.00000000
_symmetry_Int_Tables_number   1
_chemical_formula_structural   Nb4B20Mo11
_chemical_formula_sum   'Nb4 B20 Mo11'
_cell_volume   348.39786480
_cell_formula_units_Z   1
loop_
 _symmetry_equiv_pos_site_id
 _symmetry_equiv_pos_as_xyz
  1  'x, y, z'
loop_
 _atom_site_type_symbol
 _atom_site_label
 _atom_site_symmetry_multiplicity
 _atom_site_fract_x
 _atom_site_fract_y
 _atom_site_fract_z
 _atom_site_occupancy
  Nb  Nb0  1  0.09998292  0.59998292  0.19996584  1
  Nb  Nb1  1  0.70000149  0.20000149  0.40000299  1
  Nb  Nb2  1  0.29999851  0.79999851  0.59999701  1
  Nb  Nb3  1  0.90001708  0.40001708  0.80003416  1
  B  B4  1  0.07285188  0.07285188  0.14570377  1
  B  B5  1  0.67302987  0.67302987  0.34605974  1
  B  B6  1  0.27302975  0.27302975  0.54605950  1
  B  B7  1  0.87303858  0.87303858  0.74607716  1
  B  B8  1  0.47304230  0.47304230  0.94608459  1
  B  B9  1  0.52695770  0.52695770  0.05391541  1
  B  B10  1  0.12696142  0.12696142  0.25392284  1
  B  B11  1  0.72697025  0.72697025  0.45394050  1
  B  B12  1  0.32697013  0.32697013  0.65394026  1
  B  B13  1  0.92714812  0.92714812  0.85429623  1
  B  B14  1  0.58673697  0.08673697  0.17347394  1
  B  B15  1  0.18677113  0.68677113  0.37354226  1
  B  B16  1  0.78676159  0.28676159  0.57352317  1
  B  B17  1  0.38679626  0.88679626  0.77359252  1
  B  B18  1  0.98707589  0.48707589  0.97415178  1
  B  B19  1  0.01292411  0.51292411  0.02584822  1
  B  B20  1  0.61320374  0.11320374  0.22640748  1
  B  B21  1  0.21323841  0.71323841  0.42647683  1
  B  B22  1  0.81322887  0.31322887  0.62645774  1
  B  B23  1  0.41326303  0.91326303  0.82652606  1
  Mo  Mo24  1  0.03652770  0.03652770  0.07305539  1
  Mo  Mo25  1  0.63706542  0.63706542  0.27413084  1
  Mo  Mo26  1  0.23707554  0.23707554  0.47415107  1
  Mo  Mo27  1  0.83712393  0.83712393  0.67424786  1
  Mo  Mo28  1  0.43715488  0.43715488  0.87430976  1
  Mo  Mo29  1  0.56284512  0.56284512  0.12569024  1
  Mo  Mo30  1  0.16287607  0.16287607  0.32575214  1
  Mo  Mo31  1  0.76292446  0.76292446  0.52584893  1
  Mo  Mo32  1  0.36293458  0.36293458  0.72586916  1
  Mo  Mo33  1  0.96347230  0.96347230  0.92694461  1
  Mo  Mo34  1  0.50000000  -0.00000000  -0.00000000  1
