# generated using pymatgen
data_Na3TmTi2Nb2O12
_symmetry_space_group_name_H-M   'P 1'
_cell_length_a   5.41279958
_cell_length_b   5.58085969
_cell_length_c   7.74043665
_cell_angle_alpha   90.13919565
_cell_angle_beta   89.97848529
_cell_angle_gamma   90.67628672
_symmetry_Int_Tables_number   1
_chemical_formula_structural   Na3TmTi2Nb2O12
_chemical_formula_sum   'Na3 Tm1 Ti2 Nb2 O12'
_cell_volume   233.80669843
_cell_formula_units_Z   1
loop_
 _symmetry_equiv_pos_site_id
 _symmetry_equiv_pos_as_xyz
  1  'x, y, z'
loop_
 _atom_site_type_symbol
 _atom_site_label
 _atom_site_symmetry_multiplicity
 _atom_site_fract_x
 _atom_site_fract_y
 _atom_site_fract_z
 _atom_site_occupancy
  Na  Na0  1  0.51051732  0.53608384  0.25133326  1
  Na  Na1  1  0.99466554  0.02575844  0.25045465  1
  Na  Na2  1  0.49129311  0.46084385  0.75010026  1
  Tm  Tm3  1  0.01141497  0.93151922  0.74972282  1
  Ti  Ti4  1  0.51062331  0.98406975  0.99317651  1
  Ti  Ti5  1  0.99681206  0.47841511  0.50652534  1
  Nb  Nb6  1  0.50635691  0.99459570  0.48958774  1
  Nb  Nb7  1  0.99681398  0.47807323  0.01024761  1
  O  O8  1  0.42882569  0.98297819  0.24686471  1
  O  O9  1  0.08399578  0.48466060  0.25265393  1
  O  O10  1  0.60688769  0.02769721  0.75330037  1
  O  O11  1  0.92056151  0.53509492  0.74695183  1
  O  O12  1  0.79569084  0.80364736  0.02631233  1
  O  O13  1  0.70569093  0.30361784  0.46130781  1
  O  O14  1  0.19085958  0.20579070  0.55695050  1
  O  O15  1  0.28116268  0.73327499  0.94505139  1
  O  O16  1  0.19379673  0.20352222  0.94210838  1
  O  O17  1  0.27689599  0.72968648  0.55436987  1
  O  O18  1  0.79831309  0.80127572  0.47273143  1
  O  O19  1  0.69882228  0.29939462  0.04024928  1
