# generated using pymatgen
data_Na2AlFe(SiO3)4
_symmetry_space_group_name_H-M   'P 1'
_cell_length_a   5.33493632
_cell_length_b   6.53199682
_cell_length_c   6.53199682
_cell_angle_alpha   84.51247253
_cell_angle_beta   76.91104260
_cell_angle_gamma   76.91104260
_symmetry_Int_Tables_number   1
_chemical_formula_structural   Na2AlFe(SiO3)4
_chemical_formula_sum   'Na2 Al1 Fe1 Si4 O12'
_cell_volume   215.71566089
_cell_formula_units_Z   1
loop_
 _symmetry_equiv_pos_site_id
 _symmetry_equiv_pos_as_xyz
  1  'x, y, z'
loop_
 _atom_site_type_symbol
 _atom_site_label
 _atom_site_symmetry_multiplicity
 _atom_site_fract_x
 _atom_site_fract_y
 _atom_site_fract_z
 _atom_site_occupancy
  Na  Na0  1  0.75000000  0.70111683  0.29888317  1
  Na  Na1  1  0.25000000  0.29853494  0.70146506  1
  Al  Al2  1  0.75000000  0.09884840  0.90115160  1
  Fe  Fe3  1  0.25000000  0.90211844  0.09788156  1
  Si  Si4  1  0.73449055  0.61543785  0.80091081  1
  Si  Si5  1  0.76550945  0.19908919  0.38456215  1
  Si  Si6  1  0.27101434  0.37812998  0.19944784  1
  Si  Si7  1  0.22898566  0.80055216  0.62187002  1
  O  O8  1  0.64450427  0.81304635  0.96084284  1
  O  O9  1  0.85549573  0.03915716  0.18695365  1
  O  O10  1  0.38071668  0.19015652  0.02944240  1
  O  O11  1  0.11928332  0.97055760  0.80984348  1
  O  O12  1  0.79752775  0.37691892  0.89548417  1
  O  O13  1  0.70247225  0.10451583  0.62308108  1
  O  O14  1  0.20123743  0.61453818  0.09967646  1
  O  O15  1  0.29876257  0.90032354  0.38546182  1
  O  O16  1  0.50840272  0.64262228  0.65797654  1
  O  O17  1  0.99159728  0.34202346  0.35737772  1
  O  O18  1  0.48776464  0.36075059  0.34843821  1
  O  O19  1  0.01223536  0.65156179  0.63924941  1
