# generated using pymatgen
data_Na3ErTi2Nb2O12
_symmetry_space_group_name_H-M   'P 1'
_cell_length_a   5.41392773
_cell_length_b   5.57979457
_cell_length_c   7.75859370
_cell_angle_alpha   90.14988267
_cell_angle_beta   89.94961290
_cell_angle_gamma   90.67973816
_symmetry_Int_Tables_number   1
_chemical_formula_structural   Na3ErTi2Nb2O12
_chemical_formula_sum   'Na3 Er1 Ti2 Nb2 O12'
_cell_volume   234.35890865
_cell_formula_units_Z   1
loop_
 _symmetry_equiv_pos_site_id
 _symmetry_equiv_pos_as_xyz
  1  'x, y, z'
loop_
 _atom_site_type_symbol
 _atom_site_label
 _atom_site_symmetry_multiplicity
 _atom_site_fract_x
 _atom_site_fract_y
 _atom_site_fract_z
 _atom_site_occupancy
  Na  Na0  1  0.51111340  0.53579345  0.25116018  1
  Na  Na1  1  0.99375054  0.02684860  0.25063998  1
  Na  Na2  1  0.49119352  0.46115049  0.75012563  1
  Er  Er3  1  0.01186425  0.93118193  0.74975694  1
  Ti  Ti4  1  0.51020747  0.98394890  0.99228927  1
  Ti  Ti5  1  0.99768286  0.47917445  0.50751220  1
  Nb  Nb6  1  0.50709307  0.99533603  0.48855290  1
  Nb  Nb7  1  0.99658301  0.47774620  0.01135855  1
  O  O8  1  0.79472409  0.80267150  0.02631449  1
  O  O9  1  0.70581025  0.30317688  0.46128249  1
  O  O10  1  0.19320725  0.20758719  0.55612467  1
  O  O11  1  0.28068885  0.73281837  0.94495149  1
  O  O12  1  0.19654993  0.20577828  0.94295041  1
  O  O13  1  0.27676580  0.72935840  0.55429840  1
  O  O14  1  0.79666628  0.80050894  0.47265424  1
  O  O15  1  0.69953846  0.29981074  0.04020793  1
  O  O16  1  0.42931060  0.98236482  0.24673399  1
  O  O17  1  0.08429877  0.48461498  0.25283294  1
  O  O18  1  0.60273086  0.02758058  0.75361570  1
  O  O19  1  0.92022075  0.53254927  0.74663760  1
