# generated using pymatgen
data_Na4(WO3)5
_symmetry_space_group_name_H-M   'P 1'
_cell_length_a   5.59605943
_cell_length_b   6.87394982
_cell_length_c   8.82944556
_cell_angle_alpha   104.57735550
_cell_angle_beta   71.52459439
_cell_angle_gamma   90.00000000
_symmetry_Int_Tables_number   1
_chemical_formula_structural   Na4(WO3)5
_chemical_formula_sum   'Na4 W5 O15'
_cell_volume   310.58815612
_cell_formula_units_Z   1
loop_
 _symmetry_equiv_pos_site_id
 _symmetry_equiv_pos_as_xyz
  1  'x, y, z'
loop_
 _atom_site_type_symbol
 _atom_site_label
 _atom_site_symmetry_multiplicity
 _atom_site_fract_x
 _atom_site_fract_y
 _atom_site_fract_z
 _atom_site_occupancy
  Na  Na0  1  0.40152036  0.40038701  0.19695928  1
  Na  Na1  1  0.80120356  0.80006633  0.39759287  1
  Na  Na2  1  0.19879644  0.19993367  0.60240713  1
  Na  Na3  1  0.59847964  0.59961299  0.80304072  1
  W  W4  1  0.80286304  0.29642170  0.39427391  1
  W  W5  1  0.19713696  0.70357830  0.60572609  1
  W  W6  1  0.59803109  0.10379506  0.80393782  1
  W  W7  1  -0.00000000  0.50000000  0.00000000  1
  W  W8  1  0.40196891  0.89620494  0.19606218  1
  O  O9  1  0.50000000  0.50000000  0.50000000  1
  O  O10  1  0.90420160  0.89204173  0.69164703  1
  O  O11  1  0.30491785  0.30397645  0.89650686  1
  O  O12  1  0.69508215  0.69602355  0.10349314  1
  O  O13  1  0.09579840  0.10795827  0.30835297  1
  O  O14  1  0.59584863  0.10795827  0.30835297  1
  O  O15  1  -0.00000000  0.50000000  0.50000000  1
  O  O16  1  0.40415137  0.89204173  0.69164703  1
  O  O17  1  0.79857529  0.30397645  0.89650686  1
  O  O18  1  0.20142471  0.69602355  0.10349314  1
  O  O19  1  0.70065812  0.19895284  0.59868376  1
  O  O20  1  0.10476480  0.59887298  0.79047040  1
  O  O21  1  0.50000000  0.00000000  0.00000000  1
  O  O22  1  0.89523520  0.40112702  0.20952960  1
  O  O23  1  0.29934188  0.80104716  0.40131624  1
