# generated using pymatgen
data_Mn5Ni(BO5)2
_symmetry_space_group_name_H-M   'P 1'
_cell_length_a   3.08705618
_cell_length_b   9.51103444
_cell_length_c   12.93433977
_cell_angle_alpha   90.00000000
_cell_angle_beta   90.00000000
_cell_angle_gamma   90.00000000
_symmetry_Int_Tables_number   1
_chemical_formula_structural   Mn5Ni(BO5)2
_chemical_formula_sum   'Mn10 Ni2 B4 O20'
_cell_volume   379.76641298
_cell_formula_units_Z   2
loop_
 _symmetry_equiv_pos_site_id
 _symmetry_equiv_pos_as_xyz
  1  'x, y, z'
loop_
 _atom_site_type_symbol
 _atom_site_label
 _atom_site_symmetry_multiplicity
 _atom_site_fract_x
 _atom_site_fract_y
 _atom_site_fract_z
 _atom_site_occupancy
  Mn  Mn0  1  0.00000000  0.50053496  0.49927273  1
  Mn  Mn1  1  -0.00000000  0.99946504  0.99927273  1
  Mn  Mn2  1  0.50000000  0.50260832  0.00127308  1
  Mn  Mn3  1  0.50000000  0.99739168  0.50127308  1
  Mn  Mn4  1  -0.00000000  0.49719115  0.77551659  1
  Mn  Mn5  1  0.00000000  0.00280885  0.27551659  1
  Mn  Mn6  1  0.50000000  0.76037919  0.88118114  1
  Mn  Mn7  1  0.50000000  0.24586719  0.11693769  1
  Mn  Mn8  1  0.50000000  0.25413281  0.61693769  1
  Mn  Mn9  1  0.50000000  0.73962081  0.38118114  1
  Ni  Ni10  1  -0.00000000  0.50020607  0.22219862  1
  Ni  Ni11  1  0.00000000  0.99979393  0.72219862  1
  B  B12  1  0.50000000  0.72860988  0.63979770  1
  B  B13  1  0.50000000  0.27818336  0.36088204  1
  B  B14  1  0.50000000  0.22181664  0.86088204  1
  B  B15  1  0.50000000  0.77139012  0.13979770  1
  O  O16  1  0.50000000  0.65825978  0.54611791  1
  O  O17  1  0.50000000  0.34729412  0.45480454  1
  O  O18  1  0.50000000  0.15270588  0.95480454  1
  O  O19  1  0.50000000  0.84174022  0.04611791  1
  O  O20  1  0.50000000  0.36941620  0.85855632  1
  O  O21  1  0.50000000  0.62368388  0.14486535  1
  O  O22  1  0.50000000  0.87631612  0.64486535  1
  O  O23  1  0.50000000  0.13058380  0.35855632  1
  O  O24  1  0.50000000  0.65181007  0.73163094  1
  O  O25  1  0.50000000  0.35505824  0.26832776  1
  O  O26  1  0.50000000  0.14494176  0.76832776  1
  O  O27  1  0.50000000  0.84818993  0.23163094  1
  O  O28  1  0.00000000  0.62127953  0.91913440  1
  O  O29  1  0.00000000  0.38463642  0.08303809  1
  O  O30  1  -0.00000000  0.11536358  0.58303809  1
  O  O31  1  -0.00000000  0.87872047  0.41913440  1
  O  O32  1  -0.00000000  0.38265707  0.64161262  1
  O  O33  1  -0.00000000  0.61250768  0.35485247  1
  O  O34  1  0.00000000  0.88749232  0.85485247  1
  O  O35  1  -0.00000000  0.11734293  0.14161262  1
