# generated using pymatgen
data_Li4Cr2Ni3Sn(PO4)6
_symmetry_space_group_name_H-M   'P 1'
_cell_length_a   8.41975249
_cell_length_b   8.70312801
_cell_length_c   8.69223810
_cell_angle_alpha   61.78745497
_cell_angle_beta   62.55833318
_cell_angle_gamma   62.65487671
_symmetry_Int_Tables_number   1
_chemical_formula_structural   Li4Cr2Ni3Sn(PO4)6
_chemical_formula_sum   'Li4 Cr2 Ni3 Sn1 P6 O24'
_cell_volume   473.78332770
_cell_formula_units_Z   1
loop_
 _symmetry_equiv_pos_site_id
 _symmetry_equiv_pos_as_xyz
  1  'x, y, z'
loop_
 _atom_site_type_symbol
 _atom_site_label
 _atom_site_symmetry_multiplicity
 _atom_site_fract_x
 _atom_site_fract_y
 _atom_site_fract_z
 _atom_site_occupancy
  Li  Li0  1  0.74598089  0.14976058  0.35088689  1
  Li  Li1  1  0.29255656  0.84474792  0.64024611  1
  Li  Li2  1  0.63410610  0.29358512  0.84967421  1
  Li  Li3  1  0.85549117  0.63656994  0.29726004  1
  Cr  Cr4  1  0.01028941  0.00135611  0.00266449  1
  Cr  Cr5  1  0.49221078  0.49942590  0.50001625  1
  Ni  Ni6  1  0.14515095  0.14792460  0.14475290  1
  Ni  Ni7  1  0.35350393  0.35575146  0.35242156  1
  Ni  Ni8  1  0.64647537  0.64829190  0.65172108  1
  Sn  Sn9  1  0.85102710  0.84662812  0.85199000  1
  P  P10  1  0.25014771  0.54208186  0.95520244  1
  P  P11  1  0.55487077  0.95837907  0.24927681  1
  P  P12  1  0.94321007  0.24722326  0.53918390  1
  P  P13  1  0.05705843  0.74582778  0.44629142  1
  P  P14  1  0.43802631  0.05037715  0.74732007  1
  P  P15  1  0.74601760  0.44182456  0.05392571  1
  O  O16  1  0.10477222  0.30660283  0.49804258  1
  O  O17  1  0.30440160  0.51767504  0.11044676  1
  O  O18  1  0.05494114  0.91295243  0.26804898  1
  O  O19  1  0.54659501  0.10613424  0.30300001  1
  O  O20  1  0.02163469  0.80632376  0.60751997  1
  O  O21  1  0.25120404  0.59677669  0.43129477  1
  O  O22  1  0.24826053  0.07325439  0.90144167  1
  O  O23  1  0.44780572  0.23065225  0.58339335  1
  O  O24  1  0.18279553  0.39366730  0.98619472  1
  O  O25  1  0.59638710  0.42340974  0.24702099  1
  O  O26  1  0.09667946  0.74582975  0.92072878  1
  O  O27  1  0.39805202  0.00546497  0.18141053  1
  O  O28  1  0.59889089  0.01161729  0.81878781  1
  O  O29  1  0.90007209  0.25261183  0.07816088  1
  O  O30  1  0.40708416  0.56803944  0.76007167  1
  O  O31  1  0.80817794  0.60247976  0.02172864  1
  O  O32  1  0.57135960  0.76469256  0.40467516  1
  O  O33  1  0.76050420  0.92400504  0.09218071  1
  O  O34  1  0.74549547  0.40397905  0.56696037  1
  O  O35  1  0.95844715  0.18275776  0.39658643  1
  O  O36  1  0.47291340  0.89228883  0.69040550  1
  O  O37  1  0.92193022  0.09334161  0.74042320  1
  O  O38  1  0.68562788  0.47655612  0.89616338  1
  O  O39  1  0.89984476  0.67613096  0.48547825  1
