# generated using pymatgen
data_Na5(CuO2)3
_symmetry_space_group_name_H-M   'P 1'
_cell_length_a   5.70769063
_cell_length_b   8.21195733
_cell_length_c   17.01321600
_cell_angle_alpha   90.00000000
_cell_angle_beta   90.00000000
_cell_angle_gamma   107.88479159
_symmetry_Int_Tables_number   1
_chemical_formula_structural   Na5(CuO2)3
_chemical_formula_sum   'Na20 Cu12 O24'
_cell_volume   758.89662424
_cell_formula_units_Z   4
loop_
 _symmetry_equiv_pos_site_id
 _symmetry_equiv_pos_as_xyz
  1  'x, y, z'
loop_
 _atom_site_type_symbol
 _atom_site_label
 _atom_site_symmetry_multiplicity
 _atom_site_fract_x
 _atom_site_fract_y
 _atom_site_fract_z
 _atom_site_occupancy
  Na  Na0  1  0.26566043  0.38025793  0.63131381  1
  Na  Na1  1  0.76566043  0.88025793  0.86868619  1
  Na  Na2  1  0.73433957  0.61974207  0.36868619  1
  Na  Na3  1  0.23433957  0.11974207  0.13131381  1
  Na  Na4  1  0.21504558  0.05265126  0.55245553  1
  Na  Na5  1  0.71504558  0.55265126  0.94754447  1
  Na  Na6  1  0.78495442  0.94734874  0.44754447  1
  Na  Na7  1  0.28495442  0.44734874  0.05245553  1
  Na  Na8  1  0.26408306  0.38047897  0.45337691  1
  Na  Na9  1  0.76408306  0.88047897  0.04662309  1
  Na  Na10  1  0.73591694  0.61952103  0.54662309  1
  Na  Na11  1  0.23591694  0.11952103  0.95337691  1
  Na  Na12  1  0.22515047  0.09044198  0.76998800  1
  Na  Na13  1  0.72515047  0.59044198  0.73001200  1
  Na  Na14  1  0.77484953  0.90955802  0.23001200  1
  Na  Na15  1  0.27484953  0.40955802  0.26998800  1
  Na  Na16  1  0.22034426  0.08772071  0.32189797  1
  Na  Na17  1  0.72034426  0.58772071  0.17810203  1
  Na  Na18  1  0.77965574  0.91227929  0.67810203  1
  Na  Na19  1  0.27965574  0.41227929  0.82189797  1
  Cu  Cu20  1  0.74774882  0.25734989  0.28985233  1
  Cu  Cu21  1  0.24774882  0.75734989  0.21014767  1
  Cu  Cu22  1  0.25225118  0.74265011  0.71014767  1
  Cu  Cu23  1  0.75225118  0.24265011  0.78985233  1
  Cu  Cu24  1  0.73468550  0.25240322  0.62279985  1
  Cu  Cu25  1  0.23468550  0.75240322  0.87720015  1
  Cu  Cu26  1  0.26531450  0.74759678  0.37720015  1
  Cu  Cu27  1  0.76531450  0.24759678  0.12279985  1
  Cu  Cu28  1  0.73253755  0.26651931  0.45617096  1
  Cu  Cu29  1  0.23253755  0.76651931  0.04382904  1
  Cu  Cu30  1  0.26746245  0.73348069  0.54382904  1
  Cu  Cu31  1  0.76746245  0.23348069  0.95617096  1
  O  O32  1  0.53937496  0.31327723  0.54163070  1
  O  O33  1  0.03937496  0.81327723  0.95836930  1
  O  O34  1  0.46062504  0.68672277  0.45836930  1
  O  O35  1  0.96062504  0.18672277  0.04163070  1
  O  O36  1  0.56024491  0.29929943  0.20492979  1
  O  O37  1  0.06024491  0.79929943  0.29507021  1
  O  O38  1  0.43975509  0.70070057  0.79507021  1
  O  O39  1  0.93975509  0.20070057  0.70492979  1
  O  O40  1  0.55135427  0.30111940  0.71210382  1
  O  O41  1  0.05135427  0.80111940  0.78789618  1
  O  O42  1  0.44864573  0.69888060  0.28789618  1
  O  O43  1  0.94864573  0.19888060  0.21210382  1
  O  O44  1  0.92476265  0.20001936  0.53785645  1
  O  O45  1  0.42476265  0.70001936  0.96214355  1
  O  O46  1  0.07523735  0.79998064  0.46214355  1
  O  O47  1  0.57523735  0.29998064  0.03785645  1
  O  O48  1  0.55047876  0.31986441  0.36737333  1
  O  O49  1  0.05047876  0.81986441  0.13262667  1
  O  O50  1  0.44952124  0.68013559  0.63262667  1
  O  O51  1  0.94952124  0.18013559  0.86737333  1
  O  O52  1  0.93401810  0.21071932  0.37373323  1
  O  O53  1  0.43401810  0.71071932  0.12626677  1
  O  O54  1  0.06598190  0.78928068  0.62626677  1
  O  O55  1  0.56598190  0.28928068  0.87373323  1
