# generated using pymatgen
data_Nb19Fe20
_symmetry_space_group_name_H-M   'P 1'
_cell_length_a   4.92945408
_cell_length_b   4.92945408
_cell_length_c   26.93469892
_cell_angle_alpha   90.00000000
_cell_angle_beta   90.00000000
_cell_angle_gamma   60.00000323
_symmetry_Int_Tables_number   1
_chemical_formula_structural   Nb19Fe20
_chemical_formula_sum   'Nb19 Fe20'
_cell_volume   566.81380830
_cell_formula_units_Z   1
loop_
 _symmetry_equiv_pos_site_id
 _symmetry_equiv_pos_as_xyz
  1  'x, y, z'
loop_
 _atom_site_type_symbol
 _atom_site_label
 _atom_site_symmetry_multiplicity
 _atom_site_fract_x
 _atom_site_fract_y
 _atom_site_fract_z
 _atom_site_occupancy
  Nb  Nb0  1  0.66666700  0.66666700  0.21690375  1
  Nb  Nb1  1  -0.00000000  -0.00000000  0.54916705  1
  Nb  Nb2  1  0.33333300  0.33333300  0.88139705  1
  Nb  Nb3  1  0.66666700  0.66666700  0.11860295  1
  Nb  Nb4  1  -0.00000000  -0.00000000  0.45083295  1
  Nb  Nb5  1  0.33333300  0.33333300  0.78309625  1
  Nb  Nb6  1  0.33333300  0.33333300  0.16845423  1
  Nb  Nb7  1  0.66666700  0.66666700  0.50002514  1
  Nb  Nb8  1  -0.00000000  -0.00000000  0.83167291  1
  Nb  Nb9  1  -0.00000000  -0.00000000  0.16832709  1
  Nb  Nb10  1  0.33333300  0.33333300  0.49997486  1
  Nb  Nb11  1  0.66666700  0.66666700  0.83154577  1
  Nb  Nb12  1  0.66666700  0.66666700  0.31963659  1
  Nb  Nb13  1  -0.00000000  -0.00000000  0.65272762  1
  Nb  Nb14  1  0.33333300  0.33333300  0.98415392  1
  Nb  Nb15  1  0.66666700  0.66666700  0.01584608  1
  Nb  Nb16  1  -0.00000000  -0.00000000  0.34727238  1
  Nb  Nb17  1  0.33333300  0.33333300  0.68036341  1
  Nb  Nb18  1  -0.00000000  -0.00000000  0.00000000  1
  Fe  Fe19  1  0.65931033  0.17034533  0.07901209  1
  Fe  Fe20  1  0.00019187  0.49990406  0.40862404  1
  Fe  Fe21  1  0.33378545  0.83310677  0.74133660  1
  Fe  Fe22  1  0.17034533  0.17034533  0.07901209  1
  Fe  Fe23  1  0.49990406  0.49990406  0.40862404  1
  Fe  Fe24  1  0.83310677  0.83310677  0.74133660  1
  Fe  Fe25  1  0.17034533  0.65931033  0.07901209  1
  Fe  Fe26  1  0.49990406  0.00019187  0.40862404  1
  Fe  Fe27  1  0.83310677  0.33378545  0.74133660  1
  Fe  Fe28  1  0.66621455  0.16689323  0.25866340  1
  Fe  Fe29  1  0.99980813  0.50009594  0.59137596  1
  Fe  Fe30  1  0.34068967  0.82965467  0.92098791  1
  Fe  Fe31  1  0.16689323  0.16689323  0.25866340  1
  Fe  Fe32  1  0.50009594  0.50009594  0.59137596  1
  Fe  Fe33  1  0.82965467  0.82965467  0.92098791  1
  Fe  Fe34  1  0.16689323  0.66621455  0.25866340  1
  Fe  Fe35  1  0.50009594  0.99980813  0.59137596  1
  Fe  Fe36  1  0.82965467  0.34068967  0.92098791  1
  Fe  Fe37  1  0.33333300  0.33333300  0.33379462  1
  Fe  Fe38  1  0.66666700  0.66666700  0.66620538  1
