# generated using pymatgen
data_MnCo2TeO6
_symmetry_space_group_name_H-M   'P 1'
_cell_length_a   6.20570057
_cell_length_b   6.23107590
_cell_length_c   6.19076309
_cell_angle_alpha   90.36945051
_cell_angle_beta   89.68732008
_cell_angle_gamma   89.88714346
_symmetry_Int_Tables_number   1
_chemical_formula_structural   MnCo2TeO6
_chemical_formula_sum   'Mn2 Co4 Te2 O12'
_cell_volume   239.37658883
_cell_formula_units_Z   2
loop_
 _symmetry_equiv_pos_site_id
 _symmetry_equiv_pos_as_xyz
  1  'x, y, z'
loop_
 _atom_site_type_symbol
 _atom_site_label
 _atom_site_symmetry_multiplicity
 _atom_site_fract_x
 _atom_site_fract_y
 _atom_site_fract_z
 _atom_site_occupancy
  Mn  Mn0  1  0.43657000  0.74853224  0.05373224  1
  Mn  Mn1  1  0.94664425  0.56411828  0.74765058  1
  Co  Co2  1  0.25750683  0.05431053  0.56314401  1
  Co  Co3  1  0.56476206  0.25621028  0.94654238  1
  Co  Co4  1  0.05336902  0.43300905  0.25785676  1
  Co  Co5  1  0.74321523  0.94678226  0.43692508  1
  Te  Te6  1  0.50065754  0.49586526  0.49628854  1
  Te  Te7  1  0.00018008  0.00303166  0.00141025  1
  O  O8  1  0.08682535  0.70389350  0.05084962  1
  O  O9  1  0.95413443  0.91463721  0.69918103  1
  O  O10  1  0.29852740  0.05359591  0.90495079  1
  O  O11  1  0.90676685  0.29843550  0.95738204  1
  O  O12  1  0.05071537  0.09413917  0.30167655  1
  O  O13  1  0.70264131  0.95596196  0.09374887  1
  O  O14  1  0.57018754  0.55888864  0.79846595  1
  O  O15  1  0.20039656  0.42587910  0.56246482  1
  O  O16  1  0.43570765  0.79868561  0.43571632  1
  O  O17  1  0.42594487  0.42601452  0.19865314  1
  O  O18  1  0.79777502  0.57174118  0.42388558  1
  O  O19  1  0.56747264  0.19626811  0.56947545  1
