# generated using pymatgen
data_Mn5Cu(PO4)4
_symmetry_space_group_name_H-M   'P 1'
_cell_length_a   6.17166977
_cell_length_b   8.97209118
_cell_length_c   11.74032834
_cell_angle_alpha   90.00000000
_cell_angle_beta   90.00000000
_cell_angle_gamma   98.73389085
_symmetry_Int_Tables_number   1
_chemical_formula_structural   Mn5Cu(PO4)4
_chemical_formula_sum   'Mn10 Cu2 P8 O32'
_cell_volume   642.55632460
_cell_formula_units_Z   2
loop_
 _symmetry_equiv_pos_site_id
 _symmetry_equiv_pos_as_xyz
  1  'x, y, z'
loop_
 _atom_site_type_symbol
 _atom_site_label
 _atom_site_symmetry_multiplicity
 _atom_site_fract_x
 _atom_site_fract_y
 _atom_site_fract_z
 _atom_site_occupancy
  Mn  Mn0  1  0.12315177  0.87076180  0.19367525  1
  Mn  Mn1  1  0.37684823  0.12923820  0.69367525  1
  Mn  Mn2  1  0.87666418  0.13066885  0.80513204  1
  Mn  Mn3  1  0.62333582  0.86933115  0.30513204  1
  Mn  Mn4  1  0.34006776  0.44660204  0.38756933  1
  Mn  Mn5  1  0.15993224  0.55339796  0.88756933  1
  Mn  Mn6  1  0.66322294  0.55763042  0.61503367  1
  Mn  Mn7  1  0.83677706  0.44236958  0.11503367  1
  Mn  Mn8  1  0.83030607  0.22841494  0.42907035  1
  Mn  Mn9  1  0.66969393  0.77158506  0.92907035  1
  Cu  Cu10  1  0.17258748  0.79966519  0.55090853  1
  Cu  Cu11  1  0.32741252  0.20033481  0.05090853  1
  P  P12  1  0.30437852  0.10829055  0.41427409  1
  P  P13  1  0.19562148  0.89170945  0.91427409  1
  P  P14  1  0.69180643  0.89255806  0.57968356  1
  P  P15  1  0.80819357  0.10744194  0.07968356  1
  P  P16  1  0.89194544  0.59293608  0.36182709  1
  P  P17  1  0.60805456  0.40706392  0.86182709  1
  P  P18  1  0.10985729  0.40905678  0.64156059  1
  P  P19  1  0.39014271  0.59094322  0.14156059  1
  O  O20  1  0.51006954  0.22932272  0.42136597  1
  O  O21  1  0.98993046  0.77067728  0.92136597  1
  O  O22  1  0.47836782  0.77406722  0.57445029  1
  O  O23  1  0.02163218  0.22593278  0.07445029  1
  O  O24  1  0.91076413  0.44667701  0.29341359  1
  O  O25  1  0.58923587  0.55332299  0.79341359  1
  O  O26  1  0.08607239  0.54822197  0.71453798  1
  O  O27  1  0.41392761  0.45177803  0.21453798  1
  O  O28  1  0.67659858  0.57108435  0.43275558  1
  O  O29  1  0.82340142  0.42891565  0.93275558  1
  O  O30  1  0.32516667  0.43118453  0.56975419  1
  O  O31  1  0.17483333  0.56881547  0.06975419  1
  O  O32  1  0.25424777  0.03296008  0.53435741  1
  O  O33  1  0.24575223  0.96703992  0.03435741  1
  O  O34  1  0.74194658  0.97245029  0.46288657  1
  O  O35  1  0.75805342  0.02754971  0.96288657  1
  O  O36  1  0.87562996  0.72749425  0.27935995  1
  O  O37  1  0.62437004  0.27250575  0.77935995  1
  O  O38  1  0.12653614  0.26927267  0.71931450  1
  O  O39  1  0.37346386  0.73072733  0.21931450  1
  O  O40  1  0.10417679  0.62743290  0.43544030  1
  O  O41  1  0.39582321  0.37256710  0.93544030  1
  O  O42  1  0.89853576  0.37483282  0.56759038  1
  O  O43  1  0.60146424  0.62516718  0.06759038  1
  O  O44  1  0.12688299  0.20120107  0.37580764  1
  O  O45  1  0.37311701  0.79879893  0.87580764  1
  O  O46  1  0.87465614  0.79524328  0.61042855  1
  O  O47  1  0.62534386  0.20475672  0.11042855  1
  O  O48  1  0.32892584  0.98393768  0.32583855  1
  O  O49  1  0.17107416  0.01606232  0.82583855  1
  O  O50  1  0.67278369  0.01132023  0.67440406  1
  O  O51  1  0.82721631  0.98867977  0.17440406  1
