# generated using pymatgen
data_Na2MgB12(H4O7)4
_symmetry_space_group_name_H-M   'P 1'
_cell_length_a   7.57122851
_cell_length_b   7.83543120
_cell_length_c   19.07274370
_cell_angle_alpha   97.96976067
_cell_angle_beta   90.00000000
_cell_angle_gamma   90.00000000
_symmetry_Int_Tables_number   1
_chemical_formula_structural   Na2MgB12(H4O7)4
_chemical_formula_sum   'Na4 Mg2 B24 H32 O56'
_cell_volume   1120.53997776
_cell_formula_units_Z   2
loop_
 _symmetry_equiv_pos_site_id
 _symmetry_equiv_pos_as_xyz
  1  'x, y, z'
loop_
 _atom_site_type_symbol
 _atom_site_label
 _atom_site_symmetry_multiplicity
 _atom_site_fract_x
 _atom_site_fract_y
 _atom_site_fract_z
 _atom_site_occupancy
  Na  Na0  1  0.17495660  0.29022041  0.66319958  1
  Na  Na1  1  0.67495660  0.70977959  0.83680042  1
  Na  Na2  1  0.82504340  0.70977959  0.33680042  1
  Na  Na3  1  0.32504340  0.29022041  0.16319958  1
  Mg  Mg4  1  0.50000000  0.00000000  0.50000000  1
  Mg  Mg5  1  -0.00000000  0.00000000  0.00000000  1
  B  B6  1  0.45791223  0.25440070  0.97339033  1
  B  B7  1  0.95791223  0.74559930  0.52660967  1
  B  B8  1  0.54208777  0.74559930  0.02660967  1
  B  B9  1  0.04208777  0.25440070  0.47339033  1
  B  B10  1  0.34419389  0.98660392  0.75719789  1
  B  B11  1  0.84419389  0.01339608  0.74280211  1
  B  B12  1  0.65580611  0.01339608  0.24280211  1
  B  B13  1  0.15580611  0.98660392  0.25719789  1
  B  B14  1  0.30546330  0.02890459  0.88788711  1
  B  B15  1  0.80546330  0.97109541  0.61211289  1
  B  B16  1  0.69453670  0.97109541  0.11211289  1
  B  B17  1  0.19453670  0.02890459  0.38788711  1
  B  B18  1  0.15540572  0.32481380  0.93496162  1
  B  B19  1  0.65540572  0.67518620  0.56503838  1
  B  B20  1  0.84459428  0.67518620  0.06503838  1
  B  B21  1  0.34459428  0.32481380  0.43496162  1
  B  B22  1  0.09740171  0.18199025  0.80208781  1
  B  B23  1  0.59740171  0.81800975  0.69791219  1
  B  B24  1  0.90259829  0.81800975  0.19791219  1
  B  B25  1  0.40259829  0.18199025  0.30208781  1
  B  B26  1  0.05222695  0.49565285  0.84076102  1
  B  B27  1  0.55222695  0.50434715  0.65923898  1
  B  B28  1  0.94777305  0.50434715  0.15923898  1
  B  B29  1  0.44777305  0.49565285  0.34076102  1
  H  H30  1  0.26662278  0.82941466  0.94455495  1
  H  H31  1  0.76662278  0.17058534  0.55544505  1
  H  H32  1  0.73337722  0.17058534  0.05544505  1
  H  H33  1  0.23337722  0.82941466  0.44455495  1
  H  H34  1  0.34698141  0.98430638  0.62323447  1
  H  H35  1  0.84698141  0.01569362  0.87676553  1
  H  H36  1  0.65301859  0.01569362  0.37676553  1
  H  H37  1  0.15301859  0.98430638  0.12323447  1
  H  H38  1  0.01269216  0.65387316  0.98061320  1
  H  H39  1  0.51269216  0.34612684  0.51938680  1
  H  H40  1  0.98730784  0.34612684  0.01938680  1
  H  H41  1  0.48730784  0.65387316  0.48061320  1
  H  H42  1  0.05492175  0.75080136  0.85586654  1
  H  H43  1  0.55492175  0.24919864  0.64413346  1
  H  H44  1  0.94507825  0.24919864  0.14413346  1
  H  H45  1  0.44507825  0.75080136  0.35586654  1
  H  H46  1  0.17947998  0.98299701  0.57301197  1
  H  H47  1  0.67947998  0.01700299  0.92698803  1
  H  H48  1  0.82052002  0.01700299  0.42698803  1
  H  H49  1  0.32052002  0.98299701  0.07301197  1
  H  H50  1  0.97807131  0.59549993  0.67297775  1
  H  H51  1  0.47807131  0.40450007  0.82702225  1
  H  H52  1  0.02192869  0.40450007  0.32702225  1
  H  H53  1  0.52192869  0.59549993  0.17297775  1
  H  H54  1  0.37546061  0.57681582  0.97201304  1
  H  H55  1  0.87546061  0.42318418  0.52798696  1
  H  H56  1  0.62453939  0.42318418  0.02798696  1
  H  H57  1  0.12453939  0.57681582  0.47201304  1
  H  H58  1  0.16471237  0.66956116  0.68400858  1
  H  H59  1  0.66471237  0.33043884  0.81599142  1
  H  H60  1  0.83528763  0.33043884  0.31599142  1
  H  H61  1  0.33528763  0.66956116  0.18400858  1
  O  O62  1  0.45121858  0.09285358  0.93552587  1
  O  O63  1  0.95121858  0.90714642  0.56447413  1
  O  O64  1  0.54878142  0.90714642  0.06447413  1
  O  O65  1  0.04878142  0.09285358  0.43552587  1
  O  O66  1  0.03224302  0.25502878  0.98274769  1
  O  O67  1  0.53224302  0.74497122  0.51725231  1
  O  O68  1  0.96775698  0.74497122  0.01725231  1
  O  O69  1  0.46775698  0.25502878  0.48274769  1
  O  O70  1  0.19010185  0.18333206  0.87343540  1
  O  O71  1  0.69010185  0.81666794  0.62656460  1
  O  O72  1  0.80989815  0.81666794  0.12656460  1
  O  O73  1  0.30989815  0.18333206  0.37343540  1
  O  O74  1  0.18932541  0.91308196  0.92287536  1
  O  O75  1  0.68932541  0.08691804  0.57712464  1
  O  O76  1  0.81067459  0.08691804  0.07712464  1
  O  O77  1  0.31067459  0.91308196  0.42287536  1
  O  O78  1  0.29775916  0.03643960  0.58210050  1
  O  O79  1  0.79775916  0.96356040  0.91789950  1
  O  O80  1  0.70224084  0.96356040  0.41789950  1
  O  O81  1  0.20224084  0.03643960  0.08210050  1
  O  O82  1  0.43253185  0.91601834  0.69661274  1
  O  O83  1  0.93253185  0.08398166  0.80338726  1
  O  O84  1  0.56746815  0.08398166  0.30338726  1
  O  O85  1  0.06746815  0.91601834  0.19661274  1
  O  O86  1  0.05954361  0.35800522  0.78853302  1
  O  O87  1  0.55954361  0.64199478  0.71146698  1
  O  O88  1  0.94045639  0.64199478  0.21146698  1
  O  O89  1  0.44045639  0.35800522  0.28853302  1
  O  O90  1  0.08551063  0.48057150  0.91036879  1
  O  O91  1  0.58551063  0.51942850  0.58963121  1
  O  O92  1  0.91448937  0.51942850  0.08963121  1
  O  O93  1  0.41448937  0.48057150  0.41036879  1
  O  O94  1  0.37898582  0.94028065  0.82249977  1
  O  O95  1  0.87898582  0.05971935  0.67750023  1
  O  O96  1  0.62101418  0.05971935  0.17750023  1
  O  O97  1  0.12101418  0.94028065  0.32249977  1
  O  O98  1  0.21689368  0.10530761  0.74729945  1
  O  O99  1  0.71689368  0.89469239  0.75270055  1
  O  O100  1  0.78310632  0.89469239  0.25270055  1
  O  O101  1  0.28310632  0.10530761  0.24729945  1
  O  O102  1  0.09681206  0.58294777  0.65329139  1
  O  O103  1  0.59681206  0.41705223  0.84670861  1
  O  O104  1  0.90318794  0.41705223  0.34670861  1
  O  O105  1  0.40318794  0.58294777  0.15329139  1
  O  O106  1  0.32548262  0.37319363  0.96983542  1
  O  O107  1  0.82548262  0.62680637  0.53016458  1
  O  O108  1  0.67451738  0.62680637  0.03016458  1
  O  O109  1  0.17451738  0.37319363  0.46983542  1
  O  O110  1  0.00789705  0.65495969  0.82151651  1
  O  O111  1  0.50789705  0.34504031  0.67848349  1
  O  O112  1  0.99210295  0.34504031  0.17848349  1
  O  O113  1  0.49210295  0.65495969  0.32151651  1
  O  O114  1  0.40013524  0.70389062  0.98184894  1
  O  O115  1  0.90013524  0.29610938  0.51815106  1
  O  O116  1  0.59986476  0.29610938  0.01815106  1
  O  O117  1  0.09986476  0.70389062  0.48184894  1
