# generated using pymatgen
data_MgTi2ZnO6
_symmetry_space_group_name_H-M   'P 1'
_cell_length_a   5.11380393
_cell_length_b   5.11380393
_cell_length_c   5.53855874
_cell_angle_alpha   62.50606479
_cell_angle_beta   62.50606479
_cell_angle_gamma   60.00000686
_symmetry_Int_Tables_number   1
_chemical_formula_structural   MgTi2ZnO6
_chemical_formula_sum   'Mg1 Ti2 Zn1 O6'
_cell_volume   106.12592615
_cell_formula_units_Z   1
loop_
 _symmetry_equiv_pos_site_id
 _symmetry_equiv_pos_as_xyz
  1  'x, y, z'
loop_
 _atom_site_type_symbol
 _atom_site_label
 _atom_site_symmetry_multiplicity
 _atom_site_fract_x
 _atom_site_fract_y
 _atom_site_fract_z
 _atom_site_occupancy
  Mg  Mg0  1  0.35627196  0.35627196  0.93118412  1
  Ti  Ti1  1  0.14459903  0.14459903  0.56620290  1
  Ti  Ti2  1  0.85429010  0.85429010  0.43712970  1
  Zn  Zn3  1  0.63982958  0.63982958  0.08051126  1
  O  O4  1  0.95358693  0.22390902  0.25926618  1
  O  O5  1  0.22390902  0.56323787  0.25926618  1
  O  O6  1  0.56323787  0.95358693  0.25926618  1
  O  O7  1  0.05224858  0.77465919  0.73572450  1
  O  O8  1  0.77465919  0.43736774  0.73572450  1
  O  O9  1  0.43736774  0.05224858  0.73572450  1
