# generated using pymatgen
data_Li5Al(SiO4)2
_symmetry_space_group_name_H-M   'P 1'
_cell_length_a   5.16467270
_cell_length_b   5.16467270
_cell_length_c   6.34127702
_cell_angle_alpha   89.89682277
_cell_angle_beta   89.89682277
_cell_angle_gamma   90.45820850
_symmetry_Int_Tables_number   1
_chemical_formula_structural   Li5Al(SiO4)2
_chemical_formula_sum   'Li5 Al1 Si2 O8'
_cell_volume   169.14027303
_cell_formula_units_Z   1
loop_
 _symmetry_equiv_pos_site_id
 _symmetry_equiv_pos_as_xyz
  1  'x, y, z'
loop_
 _atom_site_type_symbol
 _atom_site_label
 _atom_site_symmetry_multiplicity
 _atom_site_fract_x
 _atom_site_fract_y
 _atom_site_fract_z
 _atom_site_occupancy
  Li  Li0  1  0.67384347  0.32615653  0.75000000  1
  Li  Li1  1  0.30647650  0.69352350  0.25000000  1
  Li  Li2  1  0.31544065  0.68455935  0.75000000  1
  Li  Li3  1  0.82069162  0.80018836  0.51036824  1
  Li  Li4  1  0.19981164  0.17930838  0.98963176  1
  Al  Al5  1  0.67671936  0.32328064  0.25000000  1
  Si  Si6  1  0.18121477  0.17055303  0.50180272  1
  Si  Si7  1  0.82944697  0.81878523  0.99819728  1
  O  O8  1  0.86089489  0.23329920  0.47312987  1
  O  O9  1  0.19789253  0.85731203  0.49754108  1
  O  O10  1  0.14268797  0.80210747  0.00245892  1
  O  O11  1  0.76670080  0.13910511  0.02687013  1
  O  O12  1  0.29247897  0.30462065  0.71367042  1
  O  O13  1  0.33471093  0.29439041  0.28810623  1
  O  O14  1  0.70560959  0.66528907  0.21189377  1
  O  O15  1  0.69537935  0.70752103  0.78632958  1
