# generated using pymatgen
data_MgCoSiO4
_symmetry_space_group_name_H-M   'P 1'
_cell_length_a   4.81636632
_cell_length_b   6.09147750
_cell_length_c   10.29633239
_cell_angle_alpha   90.00000000
_cell_angle_beta   90.00000000
_cell_angle_gamma   90.00000000
_symmetry_Int_Tables_number   1
_chemical_formula_structural   MgCoSiO4
_chemical_formula_sum   'Mg4 Co4 Si4 O16'
_cell_volume   302.08190359
_cell_formula_units_Z   4
loop_
 _symmetry_equiv_pos_site_id
 _symmetry_equiv_pos_as_xyz
  1  'x, y, z'
loop_
 _atom_site_type_symbol
 _atom_site_label
 _atom_site_symmetry_multiplicity
 _atom_site_fract_x
 _atom_site_fract_y
 _atom_site_fract_z
 _atom_site_occupancy
  Mg  Mg0  1  0.50000000  0.00000000  0.50000000  1
  Mg  Mg1  1  0.00000000  0.50000000  0.00000000  1
  Mg  Mg2  1  0.50000000  0.50000000  0.50000000  1
  Mg  Mg3  1  0.00000000  0.00000000  0.00000000  1
  Co  Co4  1  0.49882466  0.75000000  0.22486888  1
  Co  Co5  1  0.00117534  0.75000000  0.72486888  1
  Co  Co6  1  0.50117534  0.25000000  0.77513112  1
  Co  Co7  1  0.99882466  0.25000000  0.27513112  1
  Si  Si8  1  0.92704089  0.75000000  0.40591722  1
  Si  Si9  1  0.57295911  0.75000000  0.90591722  1
  Si  Si10  1  0.07295911  0.25000000  0.59408278  1
  Si  Si11  1  0.42704089  0.25000000  0.09408278  1
  O  O12  1  0.26569733  0.75000000  0.40933591  1
  O  O13  1  0.23430267  0.75000000  0.90933591  1
  O  O14  1  0.73430267  0.25000000  0.59066409  1
  O  O15  1  0.76569733  0.25000000  0.09066409  1
  O  O16  1  0.72318996  0.75000000  0.05314493  1
  O  O17  1  0.77681004  0.75000000  0.55314493  1
  O  O18  1  0.27681004  0.25000000  0.94685507  1
  O  O19  1  0.22318996  0.25000000  0.44685507  1
  O  O20  1  0.77621730  0.96728733  0.33838333  1
  O  O21  1  0.72378270  0.53271267  0.83838333  1
  O  O22  1  0.22378270  0.46728733  0.66161667  1
  O  O23  1  0.27621730  0.03271267  0.16161667  1
  O  O24  1  0.22378270  0.03271267  0.66161667  1
  O  O25  1  0.27621730  0.46728733  0.16161667  1
  O  O26  1  0.77621730  0.53271267  0.33838333  1
  O  O27  1  0.72378270  0.96728733  0.83838333  1
