# generated using pymatgen
data_Fe10O19F
_symmetry_space_group_name_H-M   'P 1'
_cell_length_a   4.63142472
_cell_length_b   12.83676236
_cell_length_c   5.49853287
_cell_angle_alpha   103.46757934
_cell_angle_beta   90.67640837
_cell_angle_gamma   89.48250819
_symmetry_Int_Tables_number   1
_chemical_formula_structural   Fe10O19F
_chemical_formula_sum   'Fe10 O19 F1'
_cell_volume   317.88354592
_cell_formula_units_Z   1
loop_
 _symmetry_equiv_pos_site_id
 _symmetry_equiv_pos_as_xyz
  1  'x, y, z'
loop_
 _atom_site_type_symbol
 _atom_site_label
 _atom_site_symmetry_multiplicity
 _atom_site_fract_x
 _atom_site_fract_y
 _atom_site_fract_z
 _atom_site_occupancy
  Fe  Fe0  1  0.50166411  0.99937269  0.50207359  1
  Fe  Fe1  1  0.49525040  0.39905127  0.30065778  1
  Fe  Fe2  1  0.50006095  0.20030238  0.89878124  1
  Fe  Fe3  1  0.49607362  0.60009895  0.69941225  1
  Fe  Fe4  1  0.51971802  0.80353991  0.09118683  1
  Fe  Fe5  1  0.99725431  0.39912527  0.79919772  1
  Fe  Fe6  1  0.99584895  0.80127422  0.60895249  1
  Fe  Fe7  1  0.99837655  0.20018939  0.40092729  1
  Fe  Fe8  1  0.98516524  0.59366557  0.19865251  1
  Fe  Fe9  1  0.00679762  0.00256859  0.00219059  1
  O  O10  1  0.81073578  0.26192056  0.71306091  1
  O  O11  1  0.81473081  0.86785528  0.92195752  1
  O  O12  1  0.81146808  0.66289920  0.51342944  1
  O  O13  1  0.81372786  0.06259979  0.31486811  1
  O  O14  1  0.80229914  0.45491735  0.10750257  1
  O  O15  1  0.69093579  0.06320718  0.81471812  1
  O  O16  1  0.68660942  0.46148594  0.61191788  1
  O  O17  1  0.69194709  0.66214071  0.01558636  1
  O  O18  1  0.69595357  0.86106373  0.41509889  1
  O  O19  1  0.68696810  0.26081141  0.21476647  1
  O  O20  1  0.30638061  0.33679582  0.98643741  1
  O  O21  1  0.30969001  0.73919927  0.78468316  1
  O  O22  1  0.31081795  0.13801819  0.58590001  1
  O  O23  1  0.31448834  0.93853628  0.18789645  1
  O  O24  1  0.30545649  0.53849250  0.38258029  1
  O  O25  1  0.18799227  0.13943700  0.08799587  1
  O  O26  1  0.19320189  0.93898518  0.68841710  1
  O  O27  1  0.18347431  0.53529615  0.88365729  1
  O  O28  1  0.18845470  0.33789723  0.48855574  1
  F  F29  1  0.19845503  0.73925299  0.27893714  1
