# generated using pymatgen
data_Li3CoRuO5
_symmetry_space_group_name_H-M   'P 1'
_cell_length_a   5.17928534
_cell_length_b   7.92676536
_cell_length_c   5.12686904
_cell_angle_alpha   96.19674771
_cell_angle_beta   70.70644353
_cell_angle_gamma   109.06835787
_symmetry_Int_Tables_number   1
_chemical_formula_structural   Li3CoRuO5
_chemical_formula_sum   'Li6 Co2 Ru2 O10'
_cell_volume   187.76164658
_cell_formula_units_Z   2
loop_
 _symmetry_equiv_pos_site_id
 _symmetry_equiv_pos_as_xyz
  1  'x, y, z'
loop_
 _atom_site_type_symbol
 _atom_site_label
 _atom_site_symmetry_multiplicity
 _atom_site_fract_x
 _atom_site_fract_y
 _atom_site_fract_z
 _atom_site_occupancy
  Li  Li0  1  0.00077372  0.00154743  1.00000000  1
  Li  Li1  1  0.60164433  0.20328866  0.00000000  1
  Li  Li2  1  0.20000000  0.40000000  0.00000000  1
  Li  Li3  1  0.79835567  0.59671134  1.00000000  1
  Li  Li4  1  0.39922628  0.79845257  0.00000000  1
  Li  Li5  1  0.70000000  0.40000000  0.50000000  1
  Co  Co6  1  0.89766205  0.79532411  0.50000000  1
  Co  Co7  1  0.50233795  0.00467589  0.50000000  1
  Ru  Ru8  1  0.30080143  0.60160286  0.50000000  1
  Ru  Ru9  1  0.09919857  0.19839714  0.50000000  1
  O  O10  1  0.86001333  0.19587410  0.27057043  1
  O  O11  1  0.42800317  0.40000000  0.26678695  1
  O  O12  1  0.06413923  0.60412590  0.27057043  1
  O  O13  1  0.63275500  0.78992959  0.26633543  1
  O  O14  1  0.24282541  0.01007041  0.26633543  1
  O  O15  1  0.53998667  0.60412590  0.72942957  1
  O  O16  1  0.15717459  0.78992959  0.73366457  1
  O  O17  1  0.76724500  0.01007041  0.73366457  1
  O  O18  1  0.33586077  0.19587410  0.72942957  1
  O  O19  1  0.97199683  0.40000000  0.73321305  1
