# generated using pymatgen
data_LaCuSi
_symmetry_space_group_name_H-M   'P 1'
_cell_length_a   4.18577179
_cell_length_b   4.18645666
_cell_length_c   4.22083558
_cell_angle_alpha   90.00000000
_cell_angle_beta   90.00000000
_cell_angle_gamma   119.99097379
_symmetry_Int_Tables_number   1
_chemical_formula_structural   LaCuSi
_chemical_formula_sum   'La1 Cu1 Si1'
_cell_volume   64.06055636
_cell_formula_units_Z   1
loop_
 _symmetry_equiv_pos_site_id
 _symmetry_equiv_pos_as_xyz
  1  'x, y, z'
loop_
 _atom_site_type_symbol
 _atom_site_label
 _atom_site_symmetry_multiplicity
 _atom_site_fract_x
 _atom_site_fract_y
 _atom_site_fract_z
 _atom_site_occupancy
  La  La0  1  0.99999276  0.99999384  0.00000000  1
  Cu  Cu1  1  0.33331011  0.66672932  0.50000000  1
  Si  Si2  1  0.66659713  0.33327684  0.50000000  1
