# generated using pymatgen
data_Ti7O8
_symmetry_space_group_name_H-M   'P 1'
_cell_length_a   8.94130881
_cell_length_b   5.19881455
_cell_length_c   4.10337111
_cell_angle_alpha   113.24382176
_cell_angle_beta   90.00000000
_cell_angle_gamma   107.54037385
_symmetry_Int_Tables_number   1
_chemical_formula_structural   Ti7O8
_chemical_formula_sum   'Ti7 O8'
_cell_volume   165.56433477
_cell_formula_units_Z   1
loop_
 _symmetry_equiv_pos_site_id
 _symmetry_equiv_pos_as_xyz
  1  'x, y, z'
loop_
 _atom_site_type_symbol
 _atom_site_label
 _atom_site_symmetry_multiplicity
 _atom_site_fract_x
 _atom_site_fract_y
 _atom_site_fract_z
 _atom_site_occupancy
  Ti  Ti0  1  0.11405179  0.65131830  0.32565865  1
  Ti  Ti1  1  0.45512880  0.70350407  0.35175204  1
  Ti  Ti2  1  0.33490049  0.96561262  0.98280631  1
  Ti  Ti3  1  0.77523663  0.67702975  0.33851487  1
  Ti  Ti4  1  0.19736403  0.33669288  0.66834594  1
  Ti  Ti5  1  0.89979924  0.31913124  0.65956562  1
  Ti  Ti6  1  0.56946200  0.30369070  0.65184585  1
  O  O7  1  0.23651586  0.33577727  0.16788913  1
  O  O8  1  0.88740544  0.37424487  0.18712293  1
  O  O9  1  0.55129014  0.34290502  0.17145201  1
  O  O10  1  0.44028519  0.63228372  0.81614186  1
  O  O11  1  0.10125751  0.68795166  0.84397633  1
  O  O12  1  0.67683884  0.99931938  0.49965969  1
  O  O13  1  0.99206940  0.98553614  0.49276857  1
  O  O14  1  0.32395164  0.01833539  0.50916820  1
