# generated using pymatgen
data_KRb2CO3F
_symmetry_space_group_name_H-M   'P 1'
_cell_length_a   7.25152368
_cell_length_b   7.32585803
_cell_length_c   7.32585814
_cell_angle_alpha   64.13738261
_cell_angle_beta   64.48176968
_cell_angle_gamma   64.48176730
_symmetry_Int_Tables_number   1
_chemical_formula_structural   KRb2CO3F
_chemical_formula_sum   'K2 Rb4 C2 O6 F2'
_cell_volume   301.56863487
_cell_formula_units_Z   2
loop_
 _symmetry_equiv_pos_site_id
 _symmetry_equiv_pos_as_xyz
  1  'x, y, z'
loop_
 _atom_site_type_symbol
 _atom_site_label
 _atom_site_symmetry_multiplicity
 _atom_site_fract_x
 _atom_site_fract_y
 _atom_site_fract_z
 _atom_site_occupancy
  K  K0  1  0.82043175  0.67950811  0.25003061  1
  K  K1  1  0.67956825  0.24996939  0.82049189  1
  Rb  Rb2  1  0.25000000  0.81687812  0.68312188  1
  Rb  Rb3  1  0.31711201  0.74961592  0.18330203  1
  Rb  Rb4  1  0.75000000  0.18317467  0.31682533  1
  Rb  Rb5  1  0.18288799  0.31669797  0.75038408  1
  C  C6  1  0.25000000  0.25132292  0.24867708  1
  C  C7  1  0.75000000  0.75020041  0.74979959  1
  O  O8  1  0.41813750  0.08318114  0.24796194  1
  O  O9  1  0.08186250  0.25203806  0.41681886  1
  O  O10  1  0.25000000  0.41951629  0.08048371  1
  O  O11  1  0.91665069  0.74849673  0.58033250  1
  O  O12  1  0.75000000  0.58218052  0.91781948  1
  O  O13  1  0.58334931  0.91966750  0.75150327  1
  F  F14  1  0.51075464  0.49935151  0.50179927  1
  F  F15  1  0.98924536  0.99820073  0.00064849  1
