# generated using pymatgen
data_LaEr4Ge3
_symmetry_space_group_name_H-M   'P 1'
_cell_length_a   6.48413165
_cell_length_b   8.52899936
_cell_length_c   8.52993085
_cell_angle_alpha   119.99638980
_cell_angle_beta   90.00228240
_cell_angle_gamma   89.99543475
_symmetry_Int_Tables_number   1
_chemical_formula_structural   LaEr4Ge3
_chemical_formula_sum   'La2 Er8 Ge6'
_cell_volume   408.54682941
_cell_formula_units_Z   2
loop_
 _symmetry_equiv_pos_site_id
 _symmetry_equiv_pos_as_xyz
  1  'x, y, z'
loop_
 _atom_site_type_symbol
 _atom_site_label
 _atom_site_symmetry_multiplicity
 _atom_site_fract_x
 _atom_site_fract_y
 _atom_site_fract_z
 _atom_site_occupancy
  La  La0  1  0.50002356  0.33343103  0.66680849  1
  La  La1  1  0.50002356  0.66662254  0.33319151  1
  Er  Er2  1  0.99997431  0.66664387  0.33328720  1
  Er  Er3  1  0.99997431  0.33335667  0.66671280  1
  Er  Er4  1  0.75585584  0.24055670  1.00000000  1
  Er  Er5  1  0.75580331  0.75953757  0.75947943  1
  Er  Er6  1  0.75580331  0.00005815  0.24052057  1
  Er  Er7  1  0.24418117  0.75945746  0.00000000  1
  Er  Er8  1  0.24417116  0.24047542  0.24053865  1
  Er  Er9  1  0.24417116  0.99993677  0.75946135  1
  Ge  Ge10  1  0.76740334  0.61001201  0.00000000  1
  Ge  Ge11  1  0.76735828  0.39000727  0.39005156  1
  Ge  Ge12  1  0.76735828  -0.00004429  0.60994844  1
  Ge  Ge13  1  0.23253096  0.38994207  1.00000000  1
  Ge  Ge14  1  0.23268372  0.60996392  0.60992109  1
  Ge  Ge15  1  0.23268372  0.00004283  0.39007891  1
