# generated using pymatgen
data_Li2MoO3
_symmetry_space_group_name_H-M   'P 1'
_cell_length_a   6.16312300
_cell_length_b   8.66792240
_cell_length_c   10.41155299
_cell_angle_alpha   66.73358825
_cell_angle_beta   73.40229461
_cell_angle_gamma   89.75184478
_symmetry_Int_Tables_number   1
_chemical_formula_structural   Li2MoO3
_chemical_formula_sum   'Li16 Mo8 O24'
_cell_volume   485.94615204
_cell_formula_units_Z   8
loop_
 _symmetry_equiv_pos_site_id
 _symmetry_equiv_pos_as_xyz
  1  'x, y, z'
loop_
 _atom_site_type_symbol
 _atom_site_label
 _atom_site_symmetry_multiplicity
 _atom_site_fract_x
 _atom_site_fract_y
 _atom_site_fract_z
 _atom_site_occupancy
  Li  Li0  1  0.82809778  0.82485646  0.83887970  1
  Li  Li1  1  0.17190222  0.17514354  0.16112030  1
  Li  Li2  1  0.50000000  0.50000000  0.50000000  1
  Li  Li3  1  0.34479085  0.33830662  0.84046277  1
  Li  Li4  1  0.65520915  0.66169338  0.15953723  1
  Li  Li5  1  -0.00000000  0.00000000  0.50000000  1
  Li  Li6  1  0.16790424  0.66316751  0.67326733  1
  Li  Li7  1  0.50000000  0.00000000  0.00000000  1
  Li  Li8  1  0.83209576  0.33683249  0.32673267  1
  Li  Li9  1  -0.00000000  0.00000000  0.00000000  1
  Li  Li10  1  0.33831252  0.34402991  0.31933190  1
  Li  Li11  1  0.66168748  0.65597009  0.68066810  1
  Li  Li12  1  0.17423929  0.66274064  0.16260406  1
  Li  Li13  1  0.50000000  0.00000000  0.50000000  1
  Li  Li14  1  0.82576071  0.33725936  0.83739594  1
  Li  Li15  1  0.50000000  0.50000000  0.00000000  1
  Mo  Mo16  1  0.34158053  0.82715652  0.84082028  1
  Mo  Mo17  1  0.65841947  0.17284348  0.15917972  1
  Mo  Mo18  1  -0.00000000  0.50000000  0.50000000  1
  Mo  Mo19  1  0.83083597  0.83398745  0.33199606  1
  Mo  Mo20  1  0.16916403  0.16601255  0.66800394  1
  Mo  Mo21  1  -0.00000000  0.50000000  0.00000000  1
  Mo  Mo22  1  0.33358627  0.83210405  0.33193565  1
  Mo  Mo23  1  0.66641373  0.16789595  0.66806435  1
  O  O24  1  0.68027673  0.41755559  0.15976443  1
  O  O25  1  0.00324337  0.75237405  0.49731188  1
  O  O26  1  0.33706120  0.08175811  0.83282802  1
  O  O27  1  0.85516962  0.57438357  0.84776378  1
  O  O28  1  0.15443782  0.90973072  0.18277012  1
  O  O29  1  0.49282465  0.23961203  0.51639505  1
  O  O30  1  0.98158815  0.25575364  0.00998471  1
  O  O31  1  0.32763083  0.59696903  0.33366995  1
  O  O32  1  0.65035790  0.92594481  0.67351219  1
  O  O33  1  0.50641347  0.24418294  0.00818786  1
  O  O34  1  0.83425558  0.59937538  0.33472604  1
  O  O35  1  0.18038914  0.92699478  0.67279427  1
  O  O36  1  0.31972327  0.58244441  0.84023557  1
  O  O37  1  0.66293880  0.91824189  0.16717198  1
  O  O38  1  -0.00324337  0.24762595  0.50268812  1
  O  O39  1  0.14483038  0.42561643  0.15223622  1
  O  O40  1  0.50717535  0.76038797  0.48360495  1
  O  O41  1  0.84556218  0.09026928  0.81722988  1
  O  O42  1  0.01841185  0.74424636  0.99001529  1
  O  O43  1  0.34964210  0.07405519  0.32648781  1
  O  O44  1  0.67236917  0.40303097  0.66633005  1
  O  O45  1  0.49358653  0.75581706  0.99181214  1
  O  O46  1  0.81961086  0.07300522  0.32720573  1
  O  O47  1  0.16574442  0.40062462  0.66527396  1
