# generated using pymatgen
data_La3Mg2TaO9
_symmetry_space_group_name_H-M   'P 1'
_cell_length_a   5.72739017
_cell_length_b   8.02782382
_cell_length_c   16.90883715
_cell_angle_alpha   89.96637636
_cell_angle_beta   90.00000000
_cell_angle_gamma   90.00000000
_symmetry_Int_Tables_number   1
_chemical_formula_structural   La3Mg2TaO9
_chemical_formula_sum   'La12 Mg8 Ta4 O36'
_cell_volume   777.44248374
_cell_formula_units_Z   4
loop_
 _symmetry_equiv_pos_site_id
 _symmetry_equiv_pos_as_xyz
  1  'x, y, z'
loop_
 _atom_site_type_symbol
 _atom_site_label
 _atom_site_symmetry_multiplicity
 _atom_site_fract_x
 _atom_site_fract_y
 _atom_site_fract_z
 _atom_site_occupancy
  La  La0  1  0.03406235  0.24074870  0.33886144  1
  La  La1  1  0.04005736  0.23599192  0.65606345  1
  La  La2  1  0.04841962  0.26932545  0.99641151  1
  La  La3  1  0.45994264  0.73599192  0.15606345  1
  La  La4  1  0.45158038  0.76932545  0.49641151  1
  La  La5  1  0.46593765  0.74074870  0.83886144  1
  La  La6  1  0.95158038  0.73067455  0.00358849  1
  La  La7  1  0.95994264  0.76400808  0.34393655  1
  La  La8  1  0.96593765  0.75925130  0.66113856  1
  La  La9  1  0.53406235  0.25925130  0.16113856  1
  La  La10  1  0.54841962  0.23067455  0.50358849  1
  La  La11  1  0.54005736  0.26400808  0.84393655  1
  Mg  Mg12  1  0.99663185  0.50116547  0.16893827  1
  Mg  Mg13  1  -0.00000000  0.50000000  0.50000000  1
  Mg  Mg14  1  0.00336815  0.49883453  0.83106173  1
  Mg  Mg15  1  0.50000000  -0.00000000  0.00000000  1
  Mg  Mg16  1  0.49663185  0.99883453  0.33106173  1
  Mg  Mg17  1  0.50336815  0.00116547  0.66893827  1
  Mg  Mg18  1  0.50000000  0.50000000  0.00000000  1
  Mg  Mg19  1  -0.00000000  -0.00000000  0.50000000  1
  Ta  Ta20  1  0.50143166  0.50142898  0.33318366  1
  Ta  Ta21  1  0.49856834  0.49857102  0.66681634  1
  Ta  Ta22  1  0.00143166  0.99857102  0.16681634  1
  Ta  Ta23  1  0.99856834  0.00142898  0.83318366  1
  O  O24  1  0.20272111  0.54700597  0.07098671  1
  O  O25  1  0.21615685  0.54609010  0.39918833  1
  O  O26  1  0.21563096  0.54996605  0.73227464  1
  O  O27  1  0.28436904  0.04996605  0.23227464  1
  O  O28  1  0.29727889  0.04700597  0.57098671  1
  O  O29  1  0.28384315  0.04609010  0.89918833  1
  O  O30  1  0.78436904  0.45003395  0.26772536  1
  O  O31  1  0.78384315  0.45390990  0.60081167  1
  O  O32  1  0.79727889  0.45299403  0.92901329  1
  O  O33  1  0.71615685  0.95390990  0.10081167  1
  O  O34  1  0.70272111  0.95299403  0.42901329  1
  O  O35  1  0.71563096  0.95003395  0.76772536  1
  O  O36  1  0.70546052  0.54231192  0.10006458  1
  O  O37  1  0.70075953  0.55036301  0.42655783  1
  O  O38  1  0.70162867  0.54357956  0.76173389  1
  O  O39  1  0.79837133  0.04357956  0.26173389  1
  O  O40  1  0.79453948  0.04231192  0.60006458  1
  O  O41  1  0.79924047  0.05036301  0.92655783  1
  O  O42  1  0.29837133  0.45642044  0.23826611  1
  O  O43  1  0.29924047  0.44963699  0.57344217  1
  O  O44  1  0.29453948  0.45768808  0.89993542  1
  O  O45  1  0.20075953  0.94963699  0.07344217  1
  O  O46  1  0.20546052  0.95768808  0.39993542  1
  O  O47  1  0.20162867  0.95642044  0.73826611  1
  O  O48  1  0.46877299  0.24686866  0.02827448  1
  O  O49  1  0.47716070  0.25814618  0.36113998  1
  O  O50  1  0.47864905  0.25916465  0.69879269  1
  O  O51  1  0.02135095  0.75916465  0.19879269  1
  O  O52  1  0.03122701  0.74686866  0.52827448  1
  O  O53  1  0.02283930  0.75814618  0.86113998  1
  O  O54  1  0.52135095  0.74083535  0.30120731  1
  O  O55  1  0.52283930  0.74185382  0.63886002  1
  O  O56  1  0.53122701  0.75313134  0.97172552  1
  O  O57  1  0.97716070  0.24185382  0.13886002  1
  O  O58  1  0.96877299  0.25313134  0.47172552  1
  O  O59  1  0.97864905  0.24083535  0.80120731  1
