# generated using pymatgen
data_K2Na(SbO3)3
_symmetry_space_group_name_H-M   'P 1'
_cell_length_a   9.62947038
_cell_length_b   9.62874612
_cell_length_c   9.63062931
_cell_angle_alpha   90.00000000
_cell_angle_beta   90.00000000
_cell_angle_gamma   90.00000000
_symmetry_Int_Tables_number   1
_chemical_formula_structural   K2Na(SbO3)3
_chemical_formula_sum   'K8 Na4 Sb12 O36'
_cell_volume   892.94930658
_cell_formula_units_Z   4
loop_
 _symmetry_equiv_pos_site_id
 _symmetry_equiv_pos_as_xyz
  1  'x, y, z'
loop_
 _atom_site_type_symbol
 _atom_site_label
 _atom_site_symmetry_multiplicity
 _atom_site_fract_x
 _atom_site_fract_y
 _atom_site_fract_z
 _atom_site_occupancy
  K  K0  1  0.90165304  0.89794717  0.60220382  1
  K  K1  1  0.90165304  0.60205283  0.89779618  1
  K  K2  1  0.60245466  0.90117290  0.90141860  1
  K  K3  1  0.60245466  0.59882710  0.59858140  1
  K  K4  1  0.10245466  0.09882710  0.40141860  1
  K  K5  1  0.10245466  0.40117290  0.09858140  1
  K  K6  1  0.40165304  0.10205283  0.10220382  1
  K  K7  1  0.40165304  0.39794717  0.39779618  1
  Na  Na8  1  0.50814207  0.50801037  0.99164564  1
  Na  Na9  1  0.50814207  0.99198963  0.50835436  1
  Na  Na10  1  0.00814207  0.49198963  0.49164564  1
  Na  Na11  1  0.00814207  0.00801037  0.00835436  1
  Sb  Sb12  1  0.09104445  0.25000000  0.75000000  1
  Sb  Sb13  1  0.40943833  0.25000000  0.75000000  1
  Sb  Sb14  1  0.75039993  0.09086359  0.25080687  1
  Sb  Sb15  1  0.75039993  0.40913641  0.24919313  1
  Sb  Sb16  1  0.25039227  0.74977217  0.09048976  1
  Sb  Sb17  1  0.25039227  0.75022783  0.40951024  1
  Sb  Sb18  1  0.90943833  0.75000000  0.25000000  1
  Sb  Sb19  1  0.59104445  0.75000000  0.25000000  1
  Sb  Sb20  1  0.25039993  0.90913641  0.75080687  1
  Sb  Sb21  1  0.25039993  0.59086359  0.74919313  1
  Sb  Sb22  1  0.75039227  0.24977217  0.90951024  1
  Sb  Sb23  1  0.75039227  0.25022783  0.59048976  1
  O  O24  1  0.74790503  0.08712053  0.46238883  1
  O  O25  1  0.74790503  0.41287947  0.03761117  1
  O  O26  1  0.75361517  0.08810210  0.03899040  1
  O  O27  1  0.75361517  0.41189790  0.46100960  1
  O  O28  1  0.46194884  0.74737534  0.08750260  1
  O  O29  1  0.03874989  0.74694304  0.41236340  1
  O  O30  1  0.03874989  0.75305696  0.08763660  1
  O  O31  1  0.46194884  0.75262466  0.41249740  1
  O  O32  1  0.08816957  0.46150474  0.74680709  1
  O  O33  1  0.41311263  0.03832538  0.74755961  1
  O  O34  1  0.08816957  0.03849526  0.75319291  1
  O  O35  1  0.41311263  0.46167462  0.75244039  1
  O  O36  1  0.25361517  0.91189790  0.53899040  1
  O  O37  1  0.25361517  0.58810210  0.96100960  1
  O  O38  1  0.24790503  0.91287947  0.96238883  1
  O  O39  1  0.24790503  0.58712053  0.53761117  1
  O  O40  1  0.53874989  0.25305696  0.91236340  1
  O  O41  1  0.96194884  0.25262466  0.58750260  1
  O  O42  1  0.96194884  0.24737534  0.91249740  1
  O  O43  1  0.53874989  0.24694304  0.58763660  1
  O  O44  1  0.91311263  0.53832538  0.25244039  1
  O  O45  1  0.58816957  0.96150474  0.25319291  1
  O  O46  1  0.91311263  0.96167462  0.24755961  1
  O  O47  1  0.58816957  0.53849526  0.24680709  1
  O  O48  1  0.11221963  0.75000000  0.75000000  1
  O  O49  1  0.38953039  0.75000000  0.75000000  1
  O  O50  1  0.75013726  0.11127755  0.74986723  1
  O  O51  1  0.75013726  0.38872245  0.75013277  1
  O  O52  1  0.75020324  0.74925415  0.11133438  1
  O  O53  1  0.75020324  0.75074585  0.38866562  1
  O  O54  1  0.88953039  0.25000000  0.25000000  1
  O  O55  1  0.61221963  0.25000000  0.25000000  1
  O  O56  1  0.25013726  0.88872245  0.24986723  1
  O  O57  1  0.25013726  0.61127755  0.25013277  1
  O  O58  1  0.25020324  0.24925415  0.88866562  1
  O  O59  1  0.25020324  0.25074585  0.61133438  1
