# generated using pymatgen
data_K4NaCl5
_symmetry_space_group_name_H-M   'P 1'
_cell_length_a   4.39131222
_cell_length_b   6.29693492
_cell_length_c   11.71348055
_cell_angle_alpha   74.40771732
_cell_angle_beta   79.19617200
_cell_angle_gamma   90.00000000
_symmetry_Int_Tables_number   1
_chemical_formula_structural   K4NaCl5
_chemical_formula_sum   'K4 Na1 Cl5'
_cell_volume   306.01428641
_cell_formula_units_Z   1
loop_
 _symmetry_equiv_pos_site_id
 _symmetry_equiv_pos_as_xyz
  1  'x, y, z'
loop_
 _atom_site_type_symbol
 _atom_site_label
 _atom_site_symmetry_multiplicity
 _atom_site_fract_x
 _atom_site_fract_y
 _atom_site_fract_z
 _atom_site_occupancy
  K  K0  1  0.40203637  0.40203637  0.19592727  1
  K  K1  1  0.80527229  0.80527229  0.38945542  1
  K  K2  1  0.19472771  0.19472771  0.61054458  1
  K  K3  1  0.59796363  0.59796363  0.80407273  1
  Na  Na4  1  -0.00000000  -0.00000000  0.00000000  1
  Cl  Cl5  1  0.20148686  0.70148686  0.59702629  1
  Cl  Cl6  1  0.58916795  0.08916795  0.82166409  1
  Cl  Cl7  1  -0.00000000  0.50000000  0.00000000  1
  Cl  Cl8  1  0.41083205  0.91083205  0.17833591  1
  Cl  Cl9  1  0.79851314  0.29851314  0.40297371  1
