# generated using pymatgen
data_KAl3Si3(HO6)2
_symmetry_space_group_name_H-M   'P 1'
_cell_length_a   5.23223980
_cell_length_b   5.25214869
_cell_length_c   20.60073311
_cell_angle_alpha   93.12855587
_cell_angle_beta   83.70957097
_cell_angle_gamma   119.87468645
_symmetry_Int_Tables_number   1
_chemical_formula_structural   KAl3Si3(HO6)2
_chemical_formula_sum   'K2 Al6 Si6 H4 O24'
_cell_volume   487.93537555
_cell_formula_units_Z   2
loop_
 _symmetry_equiv_pos_site_id
 _symmetry_equiv_pos_as_xyz
  1  'x, y, z'
loop_
 _atom_site_type_symbol
 _atom_site_label
 _atom_site_symmetry_multiplicity
 _atom_site_fract_x
 _atom_site_fract_y
 _atom_site_fract_z
 _atom_site_occupancy
  K  K0  1  0.09376367  0.19333458  0.25646579  1
  K  K1  1  0.90042909  0.80666542  0.75646579  1
  Al  Al2  1  0.33476007  0.16957614  0.49756568  1
  Al  Al3  1  0.82670429  0.15931429  0.99722833  1
  Al  Al4  1  0.66739000  0.84068571  0.49722833  1
  Al  Al5  1  0.16518394  0.83042386  0.99756568  1
  Al  Al6  1  0.39092981  0.85197695  0.36707566  1
  Al  Al7  1  0.53895286  0.14802305  0.86707566  1
  Si  Si8  1  0.70341991  0.50744312  0.36486092  1
  Si  Si9  1  0.80980376  0.51428338  0.13279000  1
  Si  Si10  1  0.29552039  0.48571662  0.63279000  1
  Si  Si11  1  0.19597680  0.49255688  0.86486092  1
  Si  Si12  1  0.46595593  0.85735667  0.13301648  1
  Si  Si13  1  0.60859926  0.14264333  0.63301648  1
  H  H14  1  0.03016340  0.26851123  0.42363009  1
  H  H15  1  0.25374812  0.28077592  0.06405666  1
  H  H16  1  0.97297219  0.71922408  0.56405666  1
  H  H17  1  0.76165217  0.73148877  0.92363009  1
  O  O18  1  0.41378524  0.89860885  0.45213548  1
  O  O19  1  0.47403982  0.87745740  0.05493570  1
  O  O20  1  0.59658242  0.12254260  0.55493570  1
  O  O21  1  0.51517639  0.10139115  0.95213548  1
  O  O22  1  0.02133258  0.11931473  0.45124720  1
  O  O23  1  0.08042520  0.10304556  0.05151081  1
  O  O24  1  0.97737964  0.89695444  0.55151081  1
  O  O25  1  0.90201785  0.88068527  0.95124720  1
  O  O26  1  0.48594344  0.18958087  0.33315941  1
  O  O27  1  0.65171093  0.18436311  0.16597269  1
  O  O28  1  0.46734783  0.81563689  0.66597269  1
  O  O29  1  0.29636257  0.81041913  0.83315941  1
  O  O30  1  0.04258888  0.57135164  0.34827238  1
  O  O31  1  0.58595956  0.64457059  0.15638549  1
  O  O32  1  0.94138898  0.35542941  0.65638549  1
  O  O33  1  0.47123724  0.42864836  0.84827238  1
  O  O34  1  0.65102108  0.75100188  0.33237540  1
  O  O35  1  0.12042686  0.71319603  0.16696560  1
  O  O36  1  0.40723083  0.28680397  0.66696560  1
  O  O37  1  0.90001920  0.24899812  0.83237540  1
  O  O38  1  0.62416562  0.50451662  0.44627001  1
  O  O39  1  0.86738661  0.49649004  0.05408021  1
  O  O40  1  0.37089657  0.50350996  0.55408021  1
  O  O41  1  0.11964900  0.49548338  0.94627001  1
