# generated using pymatgen
data_K4NaCl5
_symmetry_space_group_name_H-M   'P 1'
_cell_length_a   6.28580080
_cell_length_b   7.65334957
_cell_length_c   7.65334957
_cell_angle_alpha   99.70869971
_cell_angle_beta   114.24610354
_cell_angle_gamma   65.75389646
_symmetry_Int_Tables_number   1
_chemical_formula_structural   K4NaCl5
_chemical_formula_sum   'K4 Na1 Cl5'
_cell_volume   306.09295833
_cell_formula_units_Z   1
loop_
 _symmetry_equiv_pos_site_id
 _symmetry_equiv_pos_as_xyz
  1  'x, y, z'
loop_
 _atom_site_type_symbol
 _atom_site_label
 _atom_site_symmetry_multiplicity
 _atom_site_fract_x
 _atom_site_fract_y
 _atom_site_fract_z
 _atom_site_occupancy
  K  K0  1  0.59892833  0.19987359  0.39773026  1
  K  K1  1  0.20119808  0.39773026  0.80012641  1
  K  K2  1  0.79880192  0.60226974  0.19987359  1
  K  K3  1  0.40107167  0.80012641  0.60226974  1
  Na  Na4  1  0.00000000  -0.00000000  -0.00000000  1
  Cl  Cl5  1  0.71440495  0.37943411  0.80824400  1
  Cl  Cl6  1  0.28559505  0.62056589  0.19175600  1
  Cl  Cl7  1  0.90616094  0.80824400  0.62056589  1
  Cl  Cl8  1  0.50000000  -0.00000000  -0.00000000  1
  Cl  Cl9  1  0.09383906  0.19175600  0.37943411  1
