# generated using pymatgen
data_La10ZnPb5
_symmetry_space_group_name_H-M   'P 1'
_cell_length_a   6.42617597
_cell_length_b   9.66428078
_cell_length_c   9.66428078
_cell_angle_alpha   96.34624997
_cell_angle_beta   109.41879185
_cell_angle_gamma   70.58120815
_symmetry_Int_Tables_number   1
_chemical_formula_structural   La10ZnPb5
_chemical_formula_sum   'La10 Zn1 Pb5'
_cell_volume   533.85063902
_cell_formula_units_Z   1
loop_
 _symmetry_equiv_pos_site_id
 _symmetry_equiv_pos_as_xyz
  1  'x, y, z'
loop_
 _atom_site_type_symbol
 _atom_site_label
 _atom_site_symmetry_multiplicity
 _atom_site_fract_x
 _atom_site_fract_y
 _atom_site_fract_z
 _atom_site_occupancy
  La  La0  1  0.25000000  0.50000000  0.50000000  1
  La  La1  1  0.75000000  0.50000000  0.50000000  1
  La  La2  1  0.42388401  0.86625235  0.70241163  1
  La  La3  1  0.58772473  0.13374765  0.29758837  1
  La  La4  1  0.91227527  0.29758837  0.13374765  1
  La  La5  1  0.07611599  0.70241163  0.86625235  1
  La  La6  1  0.72147238  0.70241163  0.13374765  1
  La  La7  1  0.29013636  0.29758837  0.86625235  1
  La  La8  1  0.77852762  0.13374765  0.70241163  1
  La  La9  1  0.20986364  0.86625235  0.29758837  1
  Zn  Zn10  1  0.75000000  0.00000000  0.00000000  1
  Pb  Pb11  1  0.33820260  0.50000000  0.17640520  1
  Pb  Pb12  1  0.66179740  0.50000000  0.82359480  1
  Pb  Pb13  1  0.83820260  0.82359480  0.50000000  1
  Pb  Pb14  1  0.16179740  0.17640520  0.50000000  1
  Pb  Pb15  1  0.25000000  0.00000000  0.00000000  1
