# generated using pymatgen
data_KZnP2H5O9
_symmetry_space_group_name_H-M   'P 1'
_cell_length_a   6.65148655
_cell_length_b   7.80505233
_cell_length_c   15.70425399
_cell_angle_alpha   90.00000000
_cell_angle_beta   90.00000000
_cell_angle_gamma   90.00000000
_symmetry_Int_Tables_number   1
_chemical_formula_structural   KZnP2H5O9
_chemical_formula_sum   'K4 Zn4 P8 H20 O36'
_cell_volume   815.28949609
_cell_formula_units_Z   4
loop_
 _symmetry_equiv_pos_site_id
 _symmetry_equiv_pos_as_xyz
  1  'x, y, z'
loop_
 _atom_site_type_symbol
 _atom_site_label
 _atom_site_symmetry_multiplicity
 _atom_site_fract_x
 _atom_site_fract_y
 _atom_site_fract_z
 _atom_site_occupancy
  K  K0  1  0.37631099  0.74701661  0.53532196  1
  K  K1  1  0.12368901  0.74701661  0.03532196  1
  K  K2  1  0.62368901  0.24701661  0.46467804  1
  K  K3  1  0.87631099  0.24701661  0.96467804  1
  Zn  Zn4  1  0.06251769  0.75063468  0.80354259  1
  Zn  Zn5  1  0.43748231  0.75063468  0.30354259  1
  Zn  Zn6  1  0.93748231  0.25063468  0.19645741  1
  Zn  Zn7  1  0.56251769  0.25063468  0.69645741  1
  P  P8  1  0.85491707  0.93904153  0.63818575  1
  P  P9  1  0.63392834  0.55622788  0.13539363  1
  P  P10  1  0.14508293  0.43904153  0.36181425  1
  P  P11  1  0.36607166  0.05622788  0.86460637  1
  P  P12  1  0.13392834  0.05622788  0.36460637  1
  P  P13  1  0.35491707  0.43904153  0.86181425  1
  P  P14  1  0.86607166  0.55622788  0.63539363  1
  P  P15  1  0.64508293  0.93904153  0.13818575  1
  H  H16  1  0.88960987  0.14611485  0.76651726  1
  H  H17  1  0.61119027  0.35728536  0.26536338  1
  H  H18  1  0.11039013  0.64611485  0.23348274  1
  H  H19  1  0.38880973  0.85728536  0.73463662  1
  H  H20  1  0.11119027  0.85728536  0.23463662  1
  H  H21  1  0.38960987  0.64611485  0.73348274  1
  H  H22  1  0.88880973  0.35728536  0.76536338  1
  H  H23  1  0.61039013  0.14611485  0.26651726  1
  H  H24  1  0.22932116  0.15145525  0.60748778  1
  H  H25  1  0.27372612  0.35320504  0.10498749  1
  H  H26  1  0.77067884  0.65145525  0.39251222  1
  H  H27  1  0.72627388  0.85320504  0.89501251  1
  H  H28  1  0.77372612  0.85320504  0.39501251  1
  H  H29  1  0.72932116  0.65145525  0.89251222  1
  H  H30  1  0.22627388  0.35320504  0.60498749  1
  H  H31  1  0.27067884  0.15145525  0.10748778  1
  H  H32  1  0.00492649  0.99755831  0.51217645  1
  H  H33  1  0.99507351  0.49755831  0.48782355  1
  H  H34  1  0.50492649  0.49755831  0.98782355  1
  H  H35  1  0.49507351  0.99755831  0.01217645  1
  O  O36  1  0.68162544  0.05670919  0.61570785  1
  O  O37  1  0.81175688  0.44002922  0.11568280  1
  O  O38  1  0.31837456  0.55670919  0.38429215  1
  O  O39  1  0.18824312  0.94002922  0.88431720  1
  O  O40  1  0.31175688  0.94002922  0.38431720  1
  O  O41  1  0.18162544  0.55670919  0.88429215  1
  O  O42  1  0.68824312  0.44002922  0.61568280  1
  O  O43  1  0.81837456  0.05670919  0.11570785  1
  O  O44  1  0.81483560  0.25156100  0.78332302  1
  O  O45  1  0.68516440  0.25156100  0.28332302  1
  O  O46  1  0.18516440  0.75156100  0.21667698  1
  O  O47  1  0.31483560  0.75156100  0.71667698  1
  O  O48  1  0.92677582  0.94347651  0.72965592  1
  O  O49  1  0.56878508  0.55635689  0.22884733  1
  O  O50  1  0.07322418  0.44347651  0.27034408  1
  O  O51  1  0.43121492  0.05635689  0.77115267  1
  O  O52  1  0.06878508  0.05635689  0.27115267  1
  O  O53  1  0.42677582  0.44347651  0.77034408  1
  O  O54  1  0.93121492  0.55635689  0.72884733  1
  O  O55  1  0.57322418  0.94347651  0.22965592  1
  O  O56  1  0.77586817  0.74913611  0.61385070  1
  O  O57  1  0.72413183  0.74913611  0.11385070  1
  O  O58  1  0.22413183  0.24913611  0.38614930  1
  O  O59  1  0.27586817  0.24913611  0.88614930  1
  O  O60  1  0.31777222  0.25253246  0.60577946  1
  O  O61  1  0.18222778  0.25253246  0.10577946  1
  O  O62  1  0.68222778  0.75253246  0.39422054  1
  O  O63  1  0.81777222  0.75253246  0.89422054  1
  O  O64  1  0.04251436  0.97477657  0.57805888  1
  O  O65  1  0.45566899  0.52748255  0.07404340  1
  O  O66  1  0.95748564  0.47477657  0.42194112  1
  O  O67  1  0.54433101  0.02748255  0.92595660  1
  O  O68  1  0.95566899  0.02748255  0.42595660  1
  O  O69  1  0.54251436  0.47477657  0.92194112  1
  O  O70  1  0.04433101  0.52748255  0.57404340  1
  O  O71  1  0.45748564  0.97477657  0.07805888  1
