# generated using pymatgen
data_KBaY(BO2)6
_symmetry_space_group_name_H-M   'P 1'
_cell_length_a   7.24300109
_cell_length_b   7.24300109
_cell_length_c   7.29688257
_cell_angle_alpha   90.00000334
_cell_angle_beta   119.75603061
_cell_angle_gamma   59.99999421
_symmetry_Int_Tables_number   1
_chemical_formula_structural   KBaY(BO2)6
_chemical_formula_sum   'K1 Ba1 Y1 B6 O12'
_cell_volume   271.67591232
_cell_formula_units_Z   1
loop_
 _symmetry_equiv_pos_site_id
 _symmetry_equiv_pos_as_xyz
  1  'x, y, z'
loop_
 _atom_site_type_symbol
 _atom_site_label
 _atom_site_symmetry_multiplicity
 _atom_site_fract_x
 _atom_site_fract_y
 _atom_site_fract_z
 _atom_site_occupancy
  K  K0  1  0.57780985  0.21109507  0.36671478  1
  Ba  Ba1  1  0.41616349  0.79191826  0.62424523  1
  Y  Y2  1  0.99764534  0.00117733  0.99646801  1
  B  B3  1  0.00060944  0.36632334  0.75330617  1
  B  B4  1  0.11962951  0.63306722  0.75330617  1
  B  B5  1  0.38637339  0.24730327  0.75330617  1
  B  B6  1  0.00008282  0.63308765  0.24790925  1
  B  B7  1  0.88099690  0.36682953  0.24790925  1
  B  B8  1  0.61473878  0.75217357  0.24790925  1
  O  O9  1  0.08857370  0.82920990  0.76198499  1
  O  O10  1  0.59119489  0.08221639  0.76198499  1
  O  O11  1  0.84420139  0.32658871  0.76198499  1
  O  O12  1  0.92512637  0.16516665  0.24330104  1
  O  O13  1  0.40846769  0.90970698  0.24330104  1
  O  O14  1  0.15300802  0.68182533  0.24330104  1
  O  O15  1  0.21304640  0.20573981  0.74867644  1
  O  O16  1  0.95441625  0.58121379  0.74867644  1
  O  O17  1  0.32989023  0.46436996  0.74867644  1
  O  O18  1  0.78445912  0.79498471  0.24901277  1
  O  O19  1  0.04399749  0.42055616  0.24901277  1
  O  O20  1  0.66956894  0.53544635  0.24901277  1
