# generated using pymatgen
data_KMnSn3O8
_symmetry_space_group_name_H-M   'P 1'
_cell_length_a   3.24701828
_cell_length_b   7.55467716
_cell_length_c   7.66938830
_cell_angle_alpha   91.93031878
_cell_angle_beta   102.22122804
_cell_angle_gamma   77.59026937
_symmetry_Int_Tables_number   1
_chemical_formula_structural   KMnSn3O8
_chemical_formula_sum   'K1 Mn1 Sn3 O8'
_cell_volume   179.55824520
_cell_formula_units_Z   1
loop_
 _symmetry_equiv_pos_site_id
 _symmetry_equiv_pos_as_xyz
  1  'x, y, z'
loop_
 _atom_site_type_symbol
 _atom_site_label
 _atom_site_symmetry_multiplicity
 _atom_site_fract_x
 _atom_site_fract_y
 _atom_site_fract_z
 _atom_site_occupancy
  K  K0  1  0.50085924  0.99491981  0.99663829  1
  Mn  Mn1  1  0.65178715  0.51397590  0.81755021  1
  Sn  Sn2  1  0.34120370  0.48856792  0.17097532  1
  Sn  Sn3  1  0.84192741  0.80986438  0.49371920  1
  Sn  Sn4  1  0.16425985  0.19266942  0.52118912  1
  O  O5  1  0.46381884  0.69974638  0.62738406  1
  O  O6  1  0.53922814  0.29070704  0.36916331  1
  O  O7  1  0.83502944  0.62225901  0.29231789  1
  O  O8  1  0.16427239  0.38220460  0.71074938  1
  O  O9  1  0.84326253  0.35512459  0.04164964  1
  O  O10  1  0.14796228  0.65045341  0.94637797  1
  O  O11  1  0.80124155  0.04740832  0.64989142  1
  O  O12  1  0.20514747  0.95209925  0.36239419  1
