# generated using pymatgen
data_Ho3Er3MnBi2
_symmetry_space_group_name_H-M   'P 1'
_cell_length_a   4.24936969
_cell_length_b   8.25192040
_cell_length_c   8.25192105
_cell_angle_alpha   60.00871548
_cell_angle_beta   90.00000000
_cell_angle_gamma   90.00000000
_symmetry_Int_Tables_number   1
_chemical_formula_structural   Ho3Er3MnBi2
_chemical_formula_sum   'Ho3 Er3 Mn1 Bi2'
_cell_volume   250.61287346
_cell_formula_units_Z   1
loop_
 _symmetry_equiv_pos_site_id
 _symmetry_equiv_pos_as_xyz
  1  'x, y, z'
loop_
 _atom_site_type_symbol
 _atom_site_label
 _atom_site_symmetry_multiplicity
 _atom_site_fract_x
 _atom_site_fract_y
 _atom_site_fract_z
 _atom_site_occupancy
  Ho  Ho0  1  -0.00000000  0.23299414  0.76700586  1
  Ho  Ho1  1  0.00000000  0.76703904  0.99982512  1
  Ho  Ho2  1  0.00000000  0.00017488  0.23296096  1
  Er  Er3  1  0.50000000  0.60754950  0.39245050  1
  Er  Er4  1  0.50000000  0.39226292  0.00006248  1
  Er  Er5  1  0.50000000  0.99993752  0.60773708  1
  Mn  Mn6  1  0.50000000  0.00004993  0.99995007  1
  Bi  Bi7  1  -0.00000000  0.33325563  0.33336356  1
  Bi  Bi8  1  -0.00000000  0.66663644  0.66674437  1
