# generated using pymatgen
data_K4PdPt(NO2)8
_symmetry_space_group_name_H-M   'P 1'
_cell_length_a   7.90730459
_cell_length_b   9.52911737
_cell_length_c   12.95841389
_cell_angle_alpha   90.00000000
_cell_angle_beta   90.00000000
_cell_angle_gamma   96.21273467
_symmetry_Int_Tables_number   1
_chemical_formula_structural   K4PdPt(NO2)8
_chemical_formula_sum   'K8 Pd2 Pt2 N16 O32'
_cell_volume   970.67720775
_cell_formula_units_Z   2
loop_
 _symmetry_equiv_pos_site_id
 _symmetry_equiv_pos_as_xyz
  1  'x, y, z'
loop_
 _atom_site_type_symbol
 _atom_site_label
 _atom_site_symmetry_multiplicity
 _atom_site_fract_x
 _atom_site_fract_y
 _atom_site_fract_z
 _atom_site_occupancy
  K  K0  1  0.91732081  0.18490043  0.34352224  1
  K  K1  1  0.58267919  0.81509957  0.84352224  1
  K  K2  1  0.08267919  0.81509957  0.65647776  1
  K  K3  1  0.41732081  0.18490043  0.15647776  1
  K  K4  1  0.64849383  0.65517233  0.18059035  1
  K  K5  1  0.85150617  0.34482767  0.68059035  1
  K  K6  1  0.35150617  0.34482767  0.81940965  1
  K  K7  1  0.14849383  0.65517233  0.31940965  1
  Pd  Pd8  1  0.50000000  0.50000000  0.50000000  1
  Pd  Pd9  1  -0.00000000  0.50000000  0.00000000  1
  Pt  Pt10  1  -0.00000000  -0.00000000  0.00000000  1
  Pt  Pt11  1  0.50000000  -0.00000000  0.50000000  1
  N  N12  1  0.75340836  0.58202312  0.47630039  1
  N  N13  1  0.74659164  0.41797688  0.97630039  1
  N  N14  1  0.24659164  0.41797688  0.52369961  1
  N  N15  1  0.25340836  0.58202312  0.02369961  1
  N  N16  1  0.76890053  0.01191974  0.06781557  1
  N  N17  1  0.73109947  0.98808026  0.56781557  1
  N  N18  1  0.23109947  0.98808026  0.93218443  1
  N  N19  1  0.26890053  0.01191974  0.43218443  1
  N  N20  1  0.51083773  0.39462278  0.36162222  1
  N  N21  1  0.98916227  0.60537722  0.86162222  1
  N  N22  1  0.48916227  0.60537722  0.63837778  1
  N  N23  1  0.01083773  0.39462278  0.13837778  1
  N  N24  1  0.93234582  0.10873639  0.87256492  1
  N  N25  1  0.56765418  0.89126361  0.37256492  1
  N  N26  1  0.06765418  0.89126361  0.12743508  1
  N  N27  1  0.43234582  0.10873639  0.62743508  1
  O  O28  1  0.60172694  0.29666897  0.35000439  1
  O  O29  1  0.89827306  0.70333103  0.85000439  1
  O  O30  1  0.39827306  0.70333103  0.64999561  1
  O  O31  1  0.10172694  0.29666897  0.14999561  1
  O  O32  1  0.79958566  0.62540905  0.38863669  1
  O  O33  1  0.70041434  0.37459095  0.88863669  1
  O  O34  1  0.20041434  0.37459095  0.61136331  1
  O  O35  1  0.29958566  0.62540905  0.11136331  1
  O  O36  1  0.79634753  0.07101330  0.82605645  1
  O  O37  1  0.70365247  0.92898670  0.32605645  1
  O  O38  1  0.20365247  0.92898670  0.17394355  1
  O  O39  1  0.29634753  0.07101330  0.67394355  1
  O  O40  1  0.74927398  0.11135834  0.12808265  1
  O  O41  1  0.75072602  0.88864166  0.62808265  1
  O  O42  1  0.25072602  0.88864166  0.87191735  1
  O  O43  1  0.24927398  0.11135834  0.37191735  1
  O  O44  1  0.64825186  0.91854585  0.05007106  1
  O  O45  1  0.85174814  0.08145415  0.55007106  1
  O  O46  1  0.35174814  0.08145415  0.94992894  1
  O  O47  1  0.14825186  0.91854585  0.44992894  1
  O  O48  1  0.85874243  0.58649407  0.54866209  1
  O  O49  1  0.64125757  0.41350593  0.04866209  1
  O  O50  1  0.14125757  0.41350593  0.45133791  1
  O  O51  1  0.35874243  0.58649407  0.95133791  1
  O  O52  1  0.42591201  0.43409155  0.28720986  1
  O  O53  1  0.07408799  0.56590845  0.78720986  1
  O  O54  1  0.57408799  0.56590845  0.71279014  1
  O  O55  1  0.92591201  0.43409155  0.21279014  1
  O  O56  1  0.02817137  0.21315407  0.84052026  1
  O  O57  1  0.47182863  0.78684593  0.34052026  1
  O  O58  1  0.97182863  0.78684593  0.15947974  1
  O  O59  1  0.52817137  0.21315407  0.65947974  1
