# generated using pymatgen
data_Fe6O11F
_symmetry_space_group_name_H-M   'P 1'
_cell_length_a   4.62055671
_cell_length_b   4.62055671
_cell_length_c   8.98599779
_cell_angle_alpha   90.00000000
_cell_angle_beta   90.00000000
_cell_angle_gamma   91.40252648
_symmetry_Int_Tables_number   1
_chemical_formula_structural   Fe6O11F
_chemical_formula_sum   'Fe6 O11 F1'
_cell_volume   191.78948279
_cell_formula_units_Z   1
loop_
 _symmetry_equiv_pos_site_id
 _symmetry_equiv_pos_as_xyz
  1  'x, y, z'
loop_
 _atom_site_type_symbol
 _atom_site_label
 _atom_site_symmetry_multiplicity
 _atom_site_fract_x
 _atom_site_fract_y
 _atom_site_fract_z
 _atom_site_occupancy
  Fe  Fe0  1  0.00680585  0.99319415  0.00666076  1
  Fe  Fe1  1  0.00308852  0.99691048  0.33333300  1
  Fe  Fe2  1  0.00680585  0.99319415  0.66000624  1
  Fe  Fe3  1  0.50320922  0.49679078  0.16758793  1
  Fe  Fe4  1  0.48023816  0.51976184  0.83333300  1
  Fe  Fe5  1  0.50320922  0.49679078  0.49907807  1
  O  O6  1  0.19479268  0.80520732  0.17385746  1
  O  O7  1  0.19479268  0.80520732  0.49280954  1
  O  O8  1  0.18005323  0.81994677  0.83333300  1
  O  O9  1  0.30622598  0.31023640  0.99992125  1
  O  O10  1  0.31354196  0.30480656  0.33333300  1
  O  O11  1  0.30622598  0.31023640  0.66674475  1
  O  O12  1  0.68976360  0.69377402  0.99992125  1
  O  O13  1  0.69519344  0.68645804  0.33333300  1
  O  O14  1  0.68976360  0.69377402  0.66674475  1
  O  O15  1  0.81430741  0.18569259  0.17024347  1
  O  O16  1  0.81430741  0.18569259  0.49642253  1
  F  F17  1  0.79767419  0.20232581  0.83333300  1
