# generated using pymatgen
data_K5Nb16(O5F2)4
_symmetry_space_group_name_H-M   'P 1'
_cell_length_a   5.91361111
_cell_length_b   5.91361111
_cell_length_c   22.55406030
_cell_angle_alpha   82.46691963
_cell_angle_beta   82.46691963
_cell_angle_gamma   90.00000000
_symmetry_Int_Tables_number   1
_chemical_formula_structural   K5Nb16(O5F2)4
_chemical_formula_sum   'K5 Nb16 O20 F8'
_cell_volume   775.05907743
_cell_formula_units_Z   1
loop_
 _symmetry_equiv_pos_site_id
 _symmetry_equiv_pos_as_xyz
  1  'x, y, z'
loop_
 _atom_site_type_symbol
 _atom_site_label
 _atom_site_symmetry_multiplicity
 _atom_site_fract_x
 _atom_site_fract_y
 _atom_site_fract_z
 _atom_site_occupancy
  K  K0  1  0.15383980  0.65383980  0.69232041  1
  K  K1  1  0.65383980  0.15383980  0.69232041  1
  K  K2  1  0.34822732  0.84822732  0.30354536  1
  K  K3  1  0.84822732  0.34822732  0.30354536  1
  K  K4  1  0.59342592  0.59342592  0.81314817  1
  Nb  Nb5  1  0.20365767  0.20365767  0.59268465  1
  Nb  Nb6  1  0.70372782  0.70372782  0.59254436  1
  Nb  Nb7  1  0.29656159  0.29656159  0.40687682  1
  Nb  Nb8  1  0.79657081  0.79657081  0.40685839  1
  Nb  Nb9  1  0.75027457  0.24983732  0.99988811  1
  Nb  Nb10  1  0.24983732  0.75027457  0.99988811  1
  Nb  Nb11  1  0.24983732  0.24983732  0.99988811  1
  Nb  Nb12  1  0.75027457  0.75027457  0.99988811  1
  Nb  Nb13  1  0.04735772  0.54735772  0.90528455  1
  Nb  Nb14  1  0.54735772  0.04735772  0.90528455  1
  Nb  Nb15  1  0.45016049  0.95016049  0.09967902  1
  Nb  Nb16  1  0.95016049  0.45016049  0.09967902  1
  Nb  Nb17  1  0.50011310  0.99978471  0.50010220  1
  Nb  Nb18  1  0.99978471  0.50011310  0.50010220  1
  Nb  Nb19  1  0.99978471  0.99978471  0.50010220  1
  Nb  Nb20  1  0.50011310  0.50011310  0.50010220  1
  O  O21  1  0.45200972  0.95176030  0.59622997  1
  O  O22  1  0.95176030  0.45200972  0.59622997  1
  O  O23  1  0.95176030  0.95176030  0.59622997  1
  O  O24  1  0.45200972  0.45200972  0.59622997  1
  O  O25  1  0.54783956  0.04785240  0.40430804  1
  O  O26  1  0.04785240  0.54783956  0.40430804  1
  O  O27  1  0.04785240  0.04785240  0.40430804  1
  O  O28  1  0.54783956  0.54783956  0.40430804  1
  O  O29  1  0.79493141  0.79493141  0.90397308  1
  O  O30  1  0.30109551  0.30109551  0.90397308  1
  O  O31  1  0.30109551  0.79493141  0.90397308  1
  O  O32  1  0.79493141  0.30109551  0.90397308  1
  O  O33  1  0.20253823  0.20253823  0.09515541  1
  O  O34  1  0.70230636  0.70230636  0.09515541  1
  O  O35  1  0.70230636  0.20253823  0.09515541  1
  O  O36  1  0.20253823  0.70230636  0.09515541  1
  O  O37  1  0.49953234  0.49953234  0.00093532  1
  O  O38  1  0.99980132  0.99980132  0.00039736  1
  O  O39  1  0.24993570  0.74993570  0.50012859  1
  O  O40  1  0.74993570  0.24993570  0.50012859  1
  F  F41  1  0.09522262  0.59522262  0.80955476  1
  F  F42  1  0.59522262  0.09522262  0.80955476  1
  F  F43  1  0.40493750  0.90493750  0.19012500  1
  F  F44  1  0.90493750  0.40493750  0.19012500  1
  F  F45  1  0.15577345  0.15577345  0.68845309  1
  F  F46  1  0.65420411  0.65420411  0.69159179  1
  F  F47  1  0.34400119  0.34400119  0.31199762  1
  F  F48  1  0.84399508  0.84399508  0.31200984  1
