# generated using pymatgen
data_In3AsSe3
_symmetry_space_group_name_H-M   'P 1'
_cell_length_a   4.23322805
_cell_length_b   7.42222565
_cell_length_c   7.41973647
_cell_angle_alpha   98.41684665
_cell_angle_beta   106.57487406
_cell_angle_gamma   90.00000000
_symmetry_Int_Tables_number   1
_chemical_formula_structural   In3AsSe3
_chemical_formula_sum   'In3 As1 Se3'
_cell_volume   220.81987380
_cell_formula_units_Z   1
loop_
 _symmetry_equiv_pos_site_id
 _symmetry_equiv_pos_as_xyz
  1  'x, y, z'
loop_
 _atom_site_type_symbol
 _atom_site_label
 _atom_site_symmetry_multiplicity
 _atom_site_fract_x
 _atom_site_fract_y
 _atom_site_fract_z
 _atom_site_occupancy
  In  In0  1  0.75371779  0.25348397  0.50743559  1
  In  In1  1  0.49059463  0.51161887  0.98118927  1
  In  In2  1  0.25877212  0.74681400  0.51754425  1
  As  As3  1  0.68178134  0.56253035  0.36356269  1
  Se  Se4  1  0.44027833  0.82734589  0.88055666  1
  Se  Se5  1  0.18267230  0.05862167  0.36534460  1
  Se  Se6  1  0.94218347  0.28958525  0.88436695  1
