# generated using pymatgen
data_KMg2As2H31O23
_symmetry_space_group_name_H-M   'P 1'
_cell_length_a   6.45852632
_cell_length_b   6.68378989
_cell_length_c   12.90144787
_cell_angle_alpha   86.65531306
_cell_angle_beta   83.75537791
_cell_angle_gamma   88.38919929
_symmetry_Int_Tables_number   1
_chemical_formula_structural   KMg2As2H31O23
_chemical_formula_sum   'K1 Mg2 As2 H31 O23'
_cell_volume   552.54196405
_cell_formula_units_Z   1
loop_
 _symmetry_equiv_pos_site_id
 _symmetry_equiv_pos_as_xyz
  1  'x, y, z'
loop_
 _atom_site_type_symbol
 _atom_site_label
 _atom_site_symmetry_multiplicity
 _atom_site_fract_x
 _atom_site_fract_y
 _atom_site_fract_z
 _atom_site_occupancy
  K  K0  1  0.48570878  0.41504377  0.27691626  1
  Mg  Mg1  1  0.00926060  0.49945145  0.49375795  1
  Mg  Mg2  1  0.49909171  0.49915470  0.99803781  1
  As  As3  1  0.87517345  0.95465841  0.19002372  1
  As  As4  1  0.13451435  0.06170315  0.80070532  1
  H  H5  1  0.70616289  0.20754490  0.56841908  1
  H  H6  1  0.31287819  0.76744187  0.41701571  1
  H  H7  1  0.81206937  0.99487018  0.66667747  1
  H  H8  1  0.19517354  0.01623550  0.32947042  1
  H  H9  1  0.00624949  0.99336134  0.98031952  1
  H  H10  1  0.72279630  0.28586997  0.45014907  1
  H  H11  1  0.32007194  0.59598643  0.66093442  1
  H  H12  1  0.75725251  0.83443638  0.52683758  1
  H  H13  1  0.24966607  0.14769007  0.47263328  1
  H  H14  1  0.01219622  0.70544814  0.67519210  1
  H  H15  1  0.97776331  0.29346453  0.31186685  1
  H  H16  1  0.53806074  0.49577947  0.62944573  1
  H  H17  1  0.38512721  0.62245624  0.50917600  1
  H  H18  1  0.53920638  0.20793127  0.85587352  1
  H  H19  1  0.46342308  0.79640656  0.14122427  1
  H  H20  1  0.01440472  0.46654395  0.71181659  1
  H  H21  1  0.97969409  0.53715717  0.27749885  1
  H  H22  1  0.75568813  0.81216393  0.90893915  1
  H  H23  1  0.22939057  0.19274638  0.09057253  1
  H  H24  1  0.56064456  0.00559870  0.68679180  1
  H  H25  1  0.44619471  0.98722276  0.30100251  1
  H  H26  1  0.52936226  0.84407349  0.87124563  1
  H  H27  1  0.46458022  0.14102459  0.11535257  1
  H  H28  1  0.84884863  0.55417368  0.10747185  1
  H  H29  1  0.15238111  0.44872447  0.89098403  1
  H  H30  1  0.85207539  0.32584893  0.07272690  1
  H  H31  1  0.14462619  0.67224927  0.93047845  1
  H  H32  1  0.76916014  0.30060114  0.85906927  1
  H  H33  1  0.22965790  0.70694687  0.13927744  1
  H  H34  1  0.87343809  0.87275691  0.41144661  1
  H  H35  1  0.13011225  0.12683490  0.58656815  1
  O  O36  1  0.68089365  0.01347975  0.63099207  1
  O  O37  1  0.33223732  0.00534202  0.36037038  1
  O  O38  1  0.61938433  0.74918688  0.90940287  1
  O  O39  1  0.36812700  0.25225139  0.09616447  1
  O  O40  1  0.62244511  0.30123894  0.89138524  1
  O  O41  1  0.38289194  0.68124170  0.12182453  1
  O  O42  1  0.01833096  0.56658082  0.65028721  1
  O  O43  1  0.99335892  0.43231663  0.33592215  1
  O  O44  1  0.72995030  0.33498120  0.51909567  1
  O  O45  1  0.30521849  0.62518655  0.44581819  1
  O  O46  1  0.76276709  0.44986912  0.08079715  1
  O  O47  1  0.21806791  0.54110781  0.93567187  1
  O  O48  1  0.84002495  0.76819053  0.46870513  1
  O  O49  1  0.17443177  0.22613606  0.52803491  1
  O  O50  1  0.96792087  0.71093825  0.18020346  1
  O  O51  1  0.03790815  0.30194363  0.81297582  1
  O  O52  1  0.60682417  0.96930438  0.19377624  1
  O  O53  1  0.39778496  0.03839795  0.80142846  1
  O  O54  1  0.98759036  0.09782589  0.08322472  1
  O  O55  1  0.01557554  0.91542749  0.91165106  1
  O  O56  1  0.94432292  0.04701990  0.30398431  1
  O  O57  1  0.05060026  0.95910130  0.69460921  1
  O  O58  1  0.46123796  0.62333034  0.62775648  1
