# generated using pymatgen
data_Hf4Ti(PbO3)5
_symmetry_space_group_name_H-M   'P 1'
_cell_length_a   5.87151697
_cell_length_b   10.08362702
_cell_length_c   13.04588863
_cell_angle_alpha   75.07453245
_cell_angle_beta   102.35158075
_cell_angle_gamma   106.60864438
_symmetry_Int_Tables_number   1
_chemical_formula_structural   Hf4Ti(PbO3)5
_chemical_formula_sum   'Hf8 Ti2 Pb10 O30'
_cell_volume   706.94390055
_cell_formula_units_Z   2
loop_
 _symmetry_equiv_pos_site_id
 _symmetry_equiv_pos_as_xyz
  1  'x, y, z'
loop_
 _atom_site_type_symbol
 _atom_site_label
 _atom_site_symmetry_multiplicity
 _atom_site_fract_x
 _atom_site_fract_y
 _atom_site_fract_z
 _atom_site_occupancy
  Hf  Hf0  1  0.43156440  0.70336673  0.10924005  1
  Hf  Hf1  1  0.23086663  0.10120541  0.30788372  1
  Hf  Hf2  1  0.03154190  0.50369145  0.50692142  1
  Hf  Hf3  1  0.82885251  0.90210863  0.70712179  1
  Hf  Hf4  1  0.03167965  0.00395332  0.00683111  1
  Hf  Hf5  1  0.82924780  0.40213533  0.20697806  1
  Hf  Hf6  1  0.43107773  0.20319979  0.60917676  1
  Hf  Hf7  1  0.23146165  0.60117811  0.80769812  1
  Ti  Ti8  1  0.63923008  0.30333377  0.90931754  1
  Ti  Ti9  1  0.63913344  0.80301144  0.40962022  1
  Pb  Pb10  1  0.27866838  0.35564607  0.06564614  1
  Pb  Pb11  1  0.08785429  0.75790668  0.27301471  1
  Pb  Pb12  1  0.87699534  0.15414151  0.46944402  1
  Pb  Pb13  1  0.67415324  0.55329273  0.67099941  1
  Pb  Pb14  1  0.47769362  0.96217965  0.86973456  1
  Pb  Pb15  1  0.67412103  0.05314595  0.17105148  1
  Pb  Pb16  1  0.47727438  0.46156736  0.37010165  1
  Pb  Pb17  1  0.27881471  0.85609752  0.56524406  1
  Pb  Pb18  1  0.08765354  0.25759591  0.77319838  1
  Pb  Pb19  1  0.87638881  0.65424248  0.96903774  1
  O  O20  1  0.98604567  0.73537856  0.76336502  1
  O  O21  1  0.78215897  0.14593540  0.96006505  1
  O  O22  1  0.58779511  0.53660495  0.16146932  1
  O  O23  1  0.39158790  0.93512402  0.36400233  1
  O  O24  1  0.18893335  0.33930080  0.56259322  1
  O  O25  1  0.90335115  0.97144020  0.84648366  1
  O  O26  1  0.70094399  0.36713035  0.04106998  1
  O  O27  1  0.50592858  0.77081773  0.25088222  1
  O  O28  1  0.30226661  0.16972408  0.44818908  1
  O  O29  1  0.10094028  0.56947966  0.64813621  1
  O  O30  1  0.11045616  0.04178514  0.63943782  1
  O  O31  1  0.89860041  0.43599048  0.84418239  1
  O  O32  1  0.71020036  0.84526401  0.03907135  1
  O  O33  1  0.51034273  0.24033195  0.23971827  1
  O  O34  1  0.31541454  0.64557751  0.44004752  1
  O  O35  1  0.68904410  0.83120209  0.55300477  1
  O  O36  1  0.49334367  0.23341805  0.76315019  1
  O  O37  1  0.28931191  0.63115741  0.96096191  1
  O  O38  1  0.08851347  0.03210187  0.16040515  1
  O  O39  1  0.89091383  0.43384802  0.35922378  1
  O  O40  1  0.49796736  0.76588577  0.75215643  1
  O  O41  1  0.30317313  0.17025868  0.95244782  1
  O  O42  1  0.09752512  0.56723150  0.15226358  1
  O  O43  1  0.88704512  0.95960191  0.35613832  1
  O  O44  1  0.69756460  0.37037544  0.55183542  1
  O  O45  1  0.61311387  0.04947982  0.63612563  1
  O  O46  1  0.41576134  0.44728475  0.83938460  1
  O  O47  1  0.21471025  0.85200020  0.03714457  1
  O  O48  1  0.01121958  0.24749718  0.23819843  1
  O  O49  1  0.80555371  0.65777263  0.43658504  1
