# generated using pymatgen
data_GaAgTeSe
_symmetry_space_group_name_H-M   'P 1'
_cell_length_a   6.20356777
_cell_length_b   6.29293335
_cell_length_c   7.34324006
_cell_angle_alpha   64.62855667
_cell_angle_beta   65.01379992
_cell_angle_gamma   90.00000000
_symmetry_Int_Tables_number   1
_chemical_formula_structural   GaAgTeSe
_chemical_formula_sum   'Ga2 Ag2 Te2 Se2'
_cell_volume   228.97368990
_cell_formula_units_Z   2
loop_
 _symmetry_equiv_pos_site_id
 _symmetry_equiv_pos_as_xyz
  1  'x, y, z'
loop_
 _atom_site_type_symbol
 _atom_site_label
 _atom_site_symmetry_multiplicity
 _atom_site_fract_x
 _atom_site_fract_y
 _atom_site_fract_z
 _atom_site_occupancy
  Ga  Ga0  1  0.24077016  0.74077016  0.51845968  1
  Ga  Ga1  1  0.50922984  0.50922984  0.98154032  1
  Ag  Ag2  1  0.74534810  0.24534810  0.50930379  1
  Ag  Ag3  1  0.00465190  0.00465190  0.99069621  1
  Te  Te4  1  0.14302063  0.12500000  0.25000000  1
  Te  Te5  1  0.60697937  0.62500000  0.25000000  1
  Se  Se6  1  0.37500000  0.84436377  0.75000000  1
  Se  Se7  1  0.87500000  0.40563623  0.75000000  1
