# generated using pymatgen
data_K7Hg31
_symmetry_space_group_name_H-M   'P 1'
_cell_length_a   10.37617301
_cell_length_b   11.53180982
_cell_length_c   11.61386529
_cell_angle_alpha   59.78643654
_cell_angle_beta   90.00005578
_cell_angle_gamma   90.00016547
_symmetry_Int_Tables_number   1
_chemical_formula_structural   K7Hg31
_chemical_formula_sum   'K7 Hg31'
_cell_volume   1200.89063692
_cell_formula_units_Z   1
loop_
 _symmetry_equiv_pos_site_id
 _symmetry_equiv_pos_as_xyz
  1  'x, y, z'
loop_
 _atom_site_type_symbol
 _atom_site_label
 _atom_site_symmetry_multiplicity
 _atom_site_fract_x
 _atom_site_fract_y
 _atom_site_fract_z
 _atom_site_occupancy
  K  K0  1  0.00000560  0.33409986  0.33226916  1
  K  K1  1  0.99999589  0.66549147  0.66766054  1
  K  K2  1  0.49999668  0.50065381  0.50098449  1
  K  K3  1  0.49999692  0.50094736  0.99812887  1
  K  K4  1  0.49999561  0.99819040  0.50089474  1
  K  K5  1  0.20325010  -0.00001716  0.00002634  1
  K  K6  1  0.79673210  0.00006154  0.99999522  1
  Hg  Hg7  1  0.99999995  0.27077323  0.73144431  1
  Hg  Hg8  1  0.99999687  0.73081113  0.99892970  1
  Hg  Hg9  1  0.00000150  0.99880134  0.27032119  1
  Hg  Hg10  1  -0.00000195  0.73089818  0.27041282  1
  Hg  Hg11  1  0.00000854  0.27083654  0.99810310  1
  Hg  Hg12  1  0.00001151  0.99876324  0.73115379  1
  Hg  Hg13  1  0.16723276  0.50456872  0.50432192  1
  Hg  Hg14  1  0.16741743  0.50483693  0.99092258  1
  Hg  Hg15  1  0.16618013  0.99084451  0.50476308  1
  Hg  Hg16  1  0.83276673  0.50458219  0.50431766  1
  Hg  Hg17  1  0.83258416  0.50483411  0.99093368  1
  Hg  Hg18  1  0.83381574  0.99084504  0.50476274  1
  Hg  Hg19  1  0.26533715  0.18854839  0.18774216  1
  Hg  Hg20  1  0.26540900  0.18857925  0.62362777  1
  Hg  Hg21  1  0.26469905  0.62406990  0.18800002  1
  Hg  Hg22  1  0.30042790  0.82205828  0.82219038  1
  Hg  Hg23  1  0.30013830  0.35504083  0.82232933  1
  Hg  Hg24  1  0.30036648  0.82185200  0.35585246  1
  Hg  Hg25  1  0.69959406  0.82207581  0.82216466  1
  Hg  Hg26  1  0.69962672  0.82188196  0.35581127  1
  Hg  Hg27  1  0.69984587  0.35504652  0.82233116  1
  Hg  Hg28  1  0.73467116  0.18856518  0.18773076  1
  Hg  Hg29  1  0.73530551  0.62409692  0.18798333  1
  Hg  Hg30  1  0.73458374  0.18859746  0.62362546  1
  Hg  Hg31  1  0.35855690  0.33334185  0.33329881  1
  Hg  Hg32  1  0.35383231  0.66679788  0.66668326  1
  Hg  Hg33  1  0.64616295  0.66681797  0.66663495  1
  Hg  Hg34  1  0.64145623  0.33335894  0.33328898  1
  Hg  Hg35  1  0.50000076  0.09606786  0.09748966  1
  Hg  Hg36  1  0.49999420  0.09584280  0.80642103  1
  Hg  Hg37  1  0.50000546  0.80643777  0.09654863  1
