# generated using pymatgen
data_Ga4Ni3Pd
_symmetry_space_group_name_H-M   'P 1'
_cell_length_a   4.74539515
_cell_length_b   4.74539515
_cell_length_c   4.74539515
_cell_angle_alpha   90.40590133
_cell_angle_beta   89.59409867
_cell_angle_gamma   90.40590133
_symmetry_Int_Tables_number   1
_chemical_formula_structural   Ga4Ni3Pd
_chemical_formula_sum   'Ga4 Ni3 Pd1'
_cell_volume   106.85247957
_cell_formula_units_Z   1
loop_
 _symmetry_equiv_pos_site_id
 _symmetry_equiv_pos_as_xyz
  1  'x, y, z'
loop_
 _atom_site_type_symbol
 _atom_site_label
 _atom_site_symmetry_multiplicity
 _atom_site_fract_x
 _atom_site_fract_y
 _atom_site_fract_z
 _atom_site_occupancy
  Ga  Ga0  1  0.16508420  0.33491580  0.66508420  1
  Ga  Ga1  1  0.34518776  0.66045368  0.14883741  1
  Ga  Ga2  1  0.64883741  0.15481224  0.33954632  1
  Ga  Ga3  1  0.83954632  0.85116259  0.84518776  1
  Ni  Ni4  1  0.63762392  0.35822660  0.86149389  1
  Ni  Ni5  1  0.36149389  0.86237608  0.64177340  1
  Ni  Ni6  1  0.14177340  0.13850611  0.13762392  1
  Pd  Pd7  1  0.86045310  0.63954690  0.36045310  1
