# generated using pymatgen
data_CeMg6Zn
_symmetry_space_group_name_H-M   'P 1'
_cell_length_a   6.67544253
_cell_length_b   6.45260786
_cell_length_c   5.11056210
_cell_angle_alpha   90.00000000
_cell_angle_beta   90.00000000
_cell_angle_gamma   118.90177175
_symmetry_Int_Tables_number   1
_chemical_formula_structural   CeMg6Zn
_chemical_formula_sum   'Ce1 Mg6 Zn1'
_cell_volume   192.71483347
_cell_formula_units_Z   1
loop_
 _symmetry_equiv_pos_site_id
 _symmetry_equiv_pos_as_xyz
  1  'x, y, z'
loop_
 _atom_site_type_symbol
 _atom_site_label
 _atom_site_symmetry_multiplicity
 _atom_site_fract_x
 _atom_site_fract_y
 _atom_site_fract_z
 _atom_site_occupancy
  Ce  Ce0  1  0.16138982  0.83069441  0.25000000  1
  Mg  Mg1  1  0.66124214  0.33568198  0.25000000  1
  Mg  Mg2  1  0.66124214  0.82555916  0.25000000  1
  Mg  Mg3  1  0.33672093  0.17959346  0.75000000  1
  Mg  Mg4  1  0.33672093  0.65712847  0.75000000  1
  Mg  Mg5  1  0.84072142  0.17036121  0.75000000  1
  Mg  Mg6  1  0.82451122  0.66225611  0.75000000  1
  Zn  Zn7  1  0.17745141  0.33872520  0.25000000  1
