# generated using pymatgen
data_Er6Ga17Pt5
_symmetry_space_group_name_H-M   'P 1'
_cell_length_a   4.24145967
_cell_length_b   8.15048267
_cell_length_c   16.18229546
_cell_angle_alpha   107.52536556
_cell_angle_beta   82.46958304
_cell_angle_gamma   105.08174575
_symmetry_Int_Tables_number   1
_chemical_formula_structural   Er6Ga17Pt5
_chemical_formula_sum   'Er6 Ga17 Pt5'
_cell_volume   514.23585909
_cell_formula_units_Z   1
loop_
 _symmetry_equiv_pos_site_id
 _symmetry_equiv_pos_as_xyz
  1  'x, y, z'
loop_
 _atom_site_type_symbol
 _atom_site_label
 _atom_site_symmetry_multiplicity
 _atom_site_fract_x
 _atom_site_fract_y
 _atom_site_fract_z
 _atom_site_occupancy
  Er  Er0  1  0.24952753  0.75208757  0.25303251  1
  Er  Er1  1  0.75047247  0.24791243  0.74696749  1
  Er  Er2  1  0.41030413  0.22945747  0.40884922  1
  Er  Er3  1  0.90190387  0.70853557  0.90472784  1
  Er  Er4  1  0.09809613  0.29146443  0.09527216  1
  Er  Er5  1  0.58969587  0.77054253  0.59115078  1
  Ga  Ga6  1  0.17424294  0.80564102  0.45715514  1
  Ga  Ga7  1  0.67801364  0.31632204  0.96029477  1
  Ga  Ga8  1  0.32198636  0.68367796  0.03970523  1
  Ga  Ga9  1  0.82575706  0.19435898  0.54284486  1
  Ga  Ga10  1  0.46051496  0.09770828  0.17667836  1
  Ga  Ga11  1  0.95751207  0.58956829  0.67454416  1
  Ga  Ga12  1  0.04248793  0.41043171  0.32545584  1
  Ga  Ga13  1  0.53948504  0.90229172  0.82332164  1
  Ga  Ga14  1  0.73728422  0.58241256  0.10784412  1
  Ga  Ga15  1  0.23052100  0.06517736  0.60413535  1
  Ga  Ga16  1  0.76947900  0.93482264  0.39586465  1
  Ga  Ga17  1  0.26271578  0.41758744  0.89215588  1
  Ga  Ga18  1  0.60683648  0.44632338  0.23265042  1
  Ga  Ga19  1  0.10395044  0.94306681  0.73516593  1
  Ga  Ga20  1  0.89604956  0.05693319  0.26483407  1
  Ga  Ga21  1  0.39316352  0.55367662  0.76734958  1
  Ga  Ga22  1  0.50000000  0.00000000  -0.00000000  1
  Pt  Pt23  1  0.90434490  0.90567765  0.09698786  1
  Pt  Pt24  1  0.39542031  0.39454035  0.60369973  1
  Pt  Pt25  1  0.60457969  0.60545965  0.39630027  1
  Pt  Pt26  1  0.09565510  0.09432235  0.90301214  1
  Pt  Pt27  1  0.00000000  0.50000000  0.50000000  1
