# generated using pymatgen
data_Eu2ZnSb2
_symmetry_space_group_name_H-M   'P 1'
_cell_length_a   4.68060054
_cell_length_b   4.66976572
_cell_length_c   8.13355739
_cell_angle_alpha   90.00000000
_cell_angle_beta   90.00000000
_cell_angle_gamma   60.07654463
_symmetry_Int_Tables_number   1
_chemical_formula_structural   Eu2ZnSb2
_chemical_formula_sum   'Eu2 Zn1 Sb2'
_cell_volume   154.07859129
_cell_formula_units_Z   1
loop_
 _symmetry_equiv_pos_site_id
 _symmetry_equiv_pos_as_xyz
  1  'x, y, z'
loop_
 _atom_site_type_symbol
 _atom_site_label
 _atom_site_symmetry_multiplicity
 _atom_site_fract_x
 _atom_site_fract_y
 _atom_site_fract_z
 _atom_site_occupancy
  Eu  Eu0  1  0.99942819  0.00028590  0.52359747  1
  Eu  Eu1  1  0.99942819  0.00028590  0.97640253  1
  Zn  Zn2  1  0.33307757  0.33346122  0.25000000  1
  Sb  Sb3  1  0.33435037  0.33282481  0.75000000  1
  Sb  Sb4  1  0.66711567  0.66644216  0.25000000  1
