# generated using pymatgen
data_EuGaCu
_symmetry_space_group_name_H-M   'P 1'
_cell_length_a   4.53272433
_cell_length_b   5.85522856
_cell_length_c   5.61351495
_cell_angle_alpha   98.08257846
_cell_angle_beta   113.81175982
_cell_angle_gamma   67.22792159
_symmetry_Int_Tables_number   1
_chemical_formula_structural   EuGaCu
_chemical_formula_sum   'Eu2 Ga2 Cu2'
_cell_volume   125.65537602
_cell_formula_units_Z   2
loop_
 _symmetry_equiv_pos_site_id
 _symmetry_equiv_pos_as_xyz
  1  'x, y, z'
loop_
 _atom_site_type_symbol
 _atom_site_label
 _atom_site_symmetry_multiplicity
 _atom_site_fract_x
 _atom_site_fract_y
 _atom_site_fract_z
 _atom_site_occupancy
  Eu  Eu0  1  0.75501269  0.69546424  0.20548961  1
  Eu  Eu1  1  0.24498731  0.30453576  0.79451039  1
  Ga  Ga2  1  0.06148201  0.10734955  0.23031357  1
  Ga  Ga3  1  0.93851799  0.89265045  0.76968643  1
  Cu  Cu4  1  0.55929434  0.27490216  0.39349083  1
  Cu  Cu5  1  0.44070566  0.72509784  0.60650917  1
