# generated using pymatgen
data_Er6Mg(GeS7)2
_symmetry_space_group_name_H-M   'P 1'
_cell_length_a   5.87935772
_cell_length_b   9.73457678
_cell_length_c   9.73457037
_cell_angle_alpha   119.99902039
_cell_angle_beta   90.00127941
_cell_angle_gamma   89.99979632
_symmetry_Int_Tables_number   1
_chemical_formula_structural   Er6Mg(GeS7)2
_chemical_formula_sum   'Er6 Mg1 Ge2 S14'
_cell_volume   482.50149923
_cell_formula_units_Z   1
loop_
 _symmetry_equiv_pos_site_id
 _symmetry_equiv_pos_as_xyz
  1  'x, y, z'
loop_
 _atom_site_type_symbol
 _atom_site_label
 _atom_site_symmetry_multiplicity
 _atom_site_fract_x
 _atom_site_fract_y
 _atom_site_fract_z
 _atom_site_occupancy
  Er  Er0  1  0.73998533  0.14099289  0.36198903  1
  Er  Er1  1  0.74001946  0.63801651  0.77900727  1
  Er  Er2  1  0.73997601  0.22100429  0.85899427  1
  Er  Er3  1  0.23486717  0.86010854  0.64236437  1
  Er  Er4  1  0.23490499  0.35763314  0.21773198  1
  Er  Er5  1  0.23488120  0.78225642  0.13989363  1
  Mg  Mg6  1  0.54556987  0.00000029  0.99999780  1
  Ge  Ge7  1  0.16255530  0.33333831  0.66667000  1
  Ge  Ge8  1  0.65848464  0.66664500  0.33333207  1
  S  S9  1  0.79131361  0.25275207  0.15082838  1
  S  S10  1  0.79132070  0.84917867  0.10193010  1
  S  S11  1  0.79131198  0.89807407  0.74724064  1
  S  S12  1  0.30764158  0.74821081  0.85139393  1
  S  S13  1  0.30763887  0.14861034  0.89680586  1
  S  S14  1  0.30764736  0.10319628  0.25180644  1
  S  S15  1  0.53849441  0.33334470  0.66667750  1
  S  S16  1  0.03552116  0.66666042  0.33333100  1
  S  S17  1  0.00050860  0.48039548  0.90504602  1
  S  S18  1  0.00053684  0.09495902  0.57534518  1
  S  S19  1  0.00050810  0.42465689  0.51961272  1
  S  S20  1  0.49524128  0.52064637  0.09515747  1
  S  S21  1  0.49524885  0.90482237  0.42548884  1
  S  S22  1  0.49522269  0.57449714  0.47935550  1
