# generated using pymatgen
data_Fe6O11F
_symmetry_space_group_name_H-M   'P 1'
_cell_length_a   7.11808983
_cell_length_b   5.50428775
_cell_length_c   5.50428775
_cell_angle_alpha   73.89426891
_cell_angle_beta   72.27868785
_cell_angle_gamma   72.27868785
_symmetry_Int_Tables_number   1
_chemical_formula_structural   Fe6O11F
_chemical_formula_sum   'Fe6 O11 F1'
_cell_volume   191.57734101
_cell_formula_units_Z   1
loop_
 _symmetry_equiv_pos_site_id
 _symmetry_equiv_pos_as_xyz
  1  'x, y, z'
loop_
 _atom_site_type_symbol
 _atom_site_label
 _atom_site_symmetry_multiplicity
 _atom_site_fract_x
 _atom_site_fract_y
 _atom_site_fract_z
 _atom_site_occupancy
  Fe  Fe0  1  0.83333300  0.66400690  0.66932610  1
  Fe  Fe1  1  0.66739455  0.32796971  0.33519424  1
  Fe  Fe2  1  0.33333300  0.68701021  0.64632279  1
  Fe  Fe3  1  0.16003018  0.33288578  0.34773791  1
  Fe  Fe4  1  0.50663682  0.98559609  0.00044722  1
  Fe  Fe5  1  -0.00072755  0.99813876  0.00536329  1
  O  O6  1  0.66720726  0.01696387  0.64415611  1
  O  O7  1  0.29356112  0.90174590  0.89582393  1
  O  O8  1  0.96279280  0.22701423  0.23660173  1
  O  O9  1  0.62760753  0.56395554  0.55950239  1
  O  O10  1  0.03905947  0.77383061  0.76937746  1
  O  O11  1  0.37310588  0.43750907  0.43158710  1
  O  O12  1  0.70387320  0.09673127  0.10631877  1
  O  O13  1  0.33333300  0.98707081  0.34626319  1
  O  O14  1  0.67314672  0.62956406  0.01962857  1
  O  O15  1  0.99351928  0.31370543  0.70376994  1
  O  O16  1  -0.00054026  0.68917689  0.31636913  1
  F  F17  1  0.33333300  0.36712288  0.96621012  1
