# generated using pymatgen
data_Fe3H9S2O15
_symmetry_space_group_name_H-M   'P 1'
_cell_length_a   7.21199349
_cell_length_b   7.21199349
_cell_length_c   7.21199342
_cell_angle_alpha   62.22640409
_cell_angle_beta   62.22640409
_cell_angle_gamma   62.22639970
_symmetry_Int_Tables_number   1
_chemical_formula_structural   Fe3H9S2O15
_chemical_formula_sum   'Fe3 H9 S2 O15'
_cell_volume   278.43458005
_cell_formula_units_Z   1
loop_
 _symmetry_equiv_pos_site_id
 _symmetry_equiv_pos_as_xyz
  1  'x, y, z'
loop_
 _atom_site_type_symbol
 _atom_site_label
 _atom_site_symmetry_multiplicity
 _atom_site_fract_x
 _atom_site_fract_y
 _atom_site_fract_z
 _atom_site_occupancy
  Fe  Fe0  1  0.00184652  0.00184612  0.49444150  1
  Fe  Fe1  1  0.00184612  0.49444150  0.00184652  1
  Fe  Fe2  1  0.49444150  0.00184652  0.00184612  1
  H  H3  1  0.28531578  0.68863893  0.68863016  1
  H  H4  1  0.68863893  0.68863016  0.28531578  1
  H  H5  1  0.68863016  0.28531578  0.68863893  1
  H  H6  1  0.71832092  0.30019776  0.30019578  1
  H  H7  1  0.30019776  0.30019578  0.71832092  1
  H  H8  1  0.30019578  0.71832092  0.30019776  1
  H  H9  1  0.89273197  0.89244819  0.10124941  1
  H  H10  1  0.89244819  0.10124941  0.89273197  1
  H  H11  1  0.10124941  0.89273197  0.89244819  1
  S  S12  1  0.69370457  0.69370457  0.69370457  1
  S  S13  1  0.30676408  0.30676408  0.30676408  1
  O  O14  1  0.12297016  0.74620882  0.74618664  1
  O  O15  1  0.74620882  0.74618664  0.12297016  1
  O  O16  1  0.74618664  0.12297016  0.74620882  1
  O  O17  1  0.87518937  0.27130460  0.27130561  1
  O  O18  1  0.27130460  0.27130561  0.87518937  1
  O  O19  1  0.27130561  0.87518937  0.27130460  1
  O  O20  1  0.60899030  0.60899030  0.60899030  1
  O  O21  1  0.39155358  0.39155358  0.39155358  1
  O  O22  1  0.83211121  0.83209863  0.50410475  1
  O  O23  1  0.83209863  0.50410475  0.83211121  1
  O  O24  1  0.50410475  0.83211121  0.83209863  1
  O  O25  1  0.16879491  0.16880161  0.49612974  1
  O  O26  1  0.16880161  0.49612974  0.16879491  1
  O  O27  1  0.49612974  0.16879491  0.16880161  1
  O  O28  1  0.99001840  0.99001840  0.99001840  1
