# generated using pymatgen
data_La8ScTi6NbO28
_symmetry_space_group_name_H-M   'P 1'
_cell_length_a   5.59093052
_cell_length_b   7.90215954
_cell_length_c   26.59205644
_cell_angle_alpha   90.00000000
_cell_angle_beta   89.43164912
_cell_angle_gamma   90.00000000
_symmetry_Int_Tables_number   1
_chemical_formula_structural   La8ScTi6NbO28
_chemical_formula_sum   'La16 Sc2 Ti12 Nb2 O56'
_cell_volume   1174.79055316
_cell_formula_units_Z   2
loop_
 _symmetry_equiv_pos_site_id
 _symmetry_equiv_pos_as_xyz
  1  'x, y, z'
loop_
 _atom_site_type_symbol
 _atom_site_label
 _atom_site_symmetry_multiplicity
 _atom_site_fract_x
 _atom_site_fract_y
 _atom_site_fract_z
 _atom_site_occupancy
  La  La0  1  0.71264945  0.87009579  0.45922156  1
  La  La1  1  0.21524482  0.12187101  0.55241176  1
  La  La2  1  0.21524482  0.37812899  0.05241176  1
  La  La3  1  0.71264945  0.62990421  0.95922156  1
  La  La4  1  0.22328025  0.87598108  0.30418264  1
  La  La5  1  0.72514773  0.12182306  0.69333393  1
  La  La6  1  0.72514773  0.37817694  0.19333393  1
  La  La7  1  0.22328025  0.62401892  0.80418264  1
  La  La8  1  0.71787096  0.87699652  0.19979791  1
  La  La9  1  0.21605549  0.11956440  0.79666211  1
  La  La10  1  0.21605549  0.38043560  0.29666211  1
  La  La11  1  0.71787096  0.62300348  0.69979791  1
  La  La12  1  0.16820818  0.87485167  0.03965935  1
  La  La13  1  0.66484229  0.11612705  0.96491839  1
  La  La14  1  0.66484229  0.38387295  0.46491839  1
  La  La15  1  0.16820818  0.62514833  0.53965935  1
  Sc  Sc16  1  0.20757678  0.62517033  0.40794276  1
  Sc  Sc17  1  0.20757678  0.87482967  0.90794276  1
  Ti  Ti18  1  0.71305363  0.62710808  0.30560034  1
  Ti  Ti19  1  0.21426082  0.37210030  0.69230027  1
  Ti  Ti20  1  0.21426082  0.12789970  0.19230027  1
  Ti  Ti21  1  0.71305363  0.87289192  0.80560034  1
  Ti  Ti22  1  0.21778892  0.62556880  0.19093862  1
  Ti  Ti23  1  0.71400660  0.37618069  0.80647397  1
  Ti  Ti24  1  0.71400660  0.12381931  0.30647397  1
  Ti  Ti25  1  0.21778892  0.87443120  0.69093862  1
  Ti  Ti26  1  0.71319296  0.38508029  0.59189642  1
  Ti  Ti27  1  0.71319296  0.11491971  0.09189642  1
  Ti  Ti28  1  0.70368302  0.61862487  0.09049944  1
  Ti  Ti29  1  0.70368302  0.88137513  0.59049944  1
  Nb  Nb30  1  0.20473483  0.37102655  0.91069601  1
  Nb  Nb31  1  0.20473483  0.12897345  0.41069601  1
  O  O32  1  0.93707444  0.61032444  0.03542743  1
  O  O33  1  0.42643796  0.38782000  0.96855648  1
  O  O34  1  0.42643796  0.11218000  0.46855648  1
  O  O35  1  0.93707444  0.88967556  0.53542743  1
  O  O36  1  0.77734305  0.88035989  0.09794387  1
  O  O37  1  0.29484788  0.13132545  0.90014339  1
  O  O38  1  0.29484788  0.36867455  0.40014339  1
  O  O39  1  0.77734305  0.61964011  0.59794387  1
  O  O40  1  0.49622518  0.67431585  0.35487429  1
  O  O41  1  0.00139103  0.33022858  0.64170869  1
  O  O42  1  0.00139103  0.16977142  0.14170869  1
  O  O43  1  0.49622518  0.82568415  0.85487429  1
  O  O44  1  0.01418715  0.58722810  0.13854581  1
  O  O45  1  0.50896990  0.42109688  0.85904625  1
  O  O46  1  0.50896990  0.07890312  0.35904625  1
  O  O47  1  0.01418715  0.91277190  0.63854581  1
  O  O48  1  0.95788266  0.59798670  0.24023575  1
  O  O49  1  0.45590317  0.40187255  0.75718781  1
  O  O50  1  0.45590317  0.09812745  0.25718781  1
  O  O51  1  0.95788266  0.90201330  0.74023575  1
  O  O52  1  0.52483545  0.65074342  0.15506440  1
  O  O53  1  0.01725009  0.34585123  0.84274420  1
  O  O54  1  0.01725009  0.15414877  0.34274420  1
  O  O55  1  0.52483545  0.84925658  0.65506440  1
  O  O56  1  0.45954286  0.66920856  0.25400817  1
  O  O57  1  0.96210615  0.32985205  0.74298177  1
  O  O58  1  0.96210615  0.17014795  0.24298177  1
  O  O59  1  0.45954286  0.83079144  0.75400817  1
  O  O60  1  0.44102005  0.63988720  0.46621260  1
  O  O61  1  0.93971052  0.35617863  0.53947747  1
  O  O62  1  0.93971052  0.14382137  0.03947747  1
  O  O63  1  0.44102005  0.86011280  0.96621260  1
  O  O64  1  0.79549157  0.88365660  0.29234506  1
  O  O65  1  0.29448278  0.11750232  0.70345718  1
  O  O66  1  0.29448278  0.38249768  0.20345718  1
  O  O67  1  0.79549157  0.61634340  0.79234506  1
  O  O68  1  0.45063199  0.63911331  0.04741579  1
  O  O69  1  0.93570338  0.35233947  0.95437455  1
  O  O70  1  0.93570338  0.14766053  0.45437455  1
  O  O71  1  0.45063199  0.86088669  0.54741579  1
  O  O72  1  0.94401155  0.61233860  0.46238831  1
  O  O73  1  0.45432344  0.38642260  0.54620631  1
  O  O74  1  0.45432344  0.11357740  0.04620631  1
  O  O75  1  0.94401155  0.88766140  0.96238831  1
  O  O76  1  0.14069768  0.88431824  0.40147875  1
  O  O77  1  0.66020098  0.11913956  0.59785615  1
  O  O78  1  0.66020098  0.38086044  0.09785615  1
  O  O79  1  0.14069768  0.61568176  0.90147875  1
  O  O80  1  0.17080567  0.88262346  0.19896870  1
  O  O81  1  0.66355264  0.11937332  0.79779030  1
  O  O82  1  0.66355264  0.38062668  0.29779030  1
  O  O83  1  0.17080567  0.61737654  0.69896870  1
  O  O84  1  0.00772191  0.60547113  0.34052623  1
  O  O85  1  0.51965214  0.38926469  0.65649885  1
  O  O86  1  0.51965214  0.11073531  0.15649885  1
  O  O87  1  0.00772191  0.89452887  0.84052623  1
