# generated using pymatgen
data_GaAg(GeSe3)2
_symmetry_space_group_name_H-M   'P 1'
_cell_length_a   7.29835602
_cell_length_b   7.34109019
_cell_length_c   12.82118853
_cell_angle_alpha   98.22590914
_cell_angle_beta   73.27200353
_cell_angle_gamma   119.80762142
_symmetry_Int_Tables_number   1
_chemical_formula_structural   GaAg(GeSe3)2
_chemical_formula_sum   'Ga2 Ag2 Ge4 Se12'
_cell_volume   570.82694787
_cell_formula_units_Z   2
loop_
 _symmetry_equiv_pos_site_id
 _symmetry_equiv_pos_as_xyz
  1  'x, y, z'
loop_
 _atom_site_type_symbol
 _atom_site_label
 _atom_site_symmetry_multiplicity
 _atom_site_fract_x
 _atom_site_fract_y
 _atom_site_fract_z
 _atom_site_occupancy
  Ga  Ga0  1  0.24976704  0.50099277  0.49949927  1
  Ga  Ga1  1  0.99877428  0.99900723  0.99949927  1
  Ag  Ag2  1  0.65355116  0.34294643  0.08168243  1
  Ag  Ag3  1  0.56060473  0.15705357  0.58168243  1
  Ge  Ge4  1  0.97169641  0.25630206  0.27340199  1
  Ge  Ge5  1  0.99038361  0.75228109  0.72682880  1
  Ge  Ge6  1  0.96539435  0.24369794  0.77340199  1
  Ge  Ge7  1  0.48810252  0.74771891  0.22682880  1
  Se  Se8  1  0.93710770  0.18197782  0.45626036  1
  Se  Se9  1  0.20737709  0.81652586  0.54283779  1
  Se  Se10  1  0.00512988  0.31802218  0.95626036  1
  Se  Se11  1  0.64085123  0.68347414  0.04283779  1
  Se  Se12  1  0.59815732  0.12030858  0.26099200  1
  Se  Se13  1  0.73808919  0.88030923  0.73988185  1
  Se  Se14  1  0.72784874  0.37969142  0.76099200  1
  Se  Se15  1  0.10777995  0.61969077  0.23988185  1
  Se  Se16  1  0.17093194  0.09635247  0.15174564  1
  Se  Se17  1  0.22182013  0.89936687  0.84766988  1
  Se  Se18  1  0.32457947  0.40364753  0.65174564  1
  Se  Se19  1  0.57245326  0.60063313  0.34766988  1
