# generated using pymatgen
data_FeCoB
_symmetry_space_group_name_H-M   'P 1'
_cell_length_a   4.10411987
_cell_length_b   4.16497858
_cell_length_c   4.16497858
_cell_angle_alpha   60.48745585
_cell_angle_beta   75.08090267
_cell_angle_gamma   104.91909733
_symmetry_Int_Tables_number   1
_chemical_formula_structural   FeCoB
_chemical_formula_sum   'Fe2 Co2 B2'
_cell_volume   53.25135359
_cell_formula_units_Z   2
loop_
 _symmetry_equiv_pos_site_id
 _symmetry_equiv_pos_as_xyz
  1  'x, y, z'
loop_
 _atom_site_type_symbol
 _atom_site_label
 _atom_site_symmetry_multiplicity
 _atom_site_fract_x
 _atom_site_fract_y
 _atom_site_fract_z
 _atom_site_occupancy
  Fe  Fe0  1  0.17074580  0.83537290  0.66462710  1
  Fe  Fe1  1  0.82925420  0.16462710  0.33537290  1
  Co  Co2  1  0.50000000  0.33465072  0.83465072  1
  Co  Co3  1  0.50000000  0.66534928  0.16534928  1
  B  B4  1  0.00000000  0.25000000  0.75000000  1
  B  B5  1  0.00000000  0.75000000  0.25000000  1
