# generated using pymatgen
data_DyBiRu2O7
_symmetry_space_group_name_H-M   'P 1'
_cell_length_a   7.29184555
_cell_length_b   7.29184555
_cell_length_c   7.29184555
_cell_angle_alpha   90.11411987
_cell_angle_beta   59.55718712
_cell_angle_gamma   119.69043496
_symmetry_Int_Tables_number   1
_chemical_formula_structural   DyBiRu2O7
_chemical_formula_sum   'Dy2 Bi2 Ru4 O14'
_cell_volume   273.86430352
_cell_formula_units_Z   2
loop_
 _symmetry_equiv_pos_site_id
 _symmetry_equiv_pos_as_xyz
  1  'x, y, z'
loop_
 _atom_site_type_symbol
 _atom_site_label
 _atom_site_symmetry_multiplicity
 _atom_site_fract_x
 _atom_site_fract_y
 _atom_site_fract_z
 _atom_site_occupancy
  Dy  Dy0  1  0.25000000  0.87500000  0.37500000  1
  Dy  Dy1  1  0.75000000  0.37500000  0.37500000  1
  Bi  Bi2  1  0.75000000  0.37500000  0.87500000  1
  Bi  Bi3  1  0.25000000  0.37500000  0.37500000  1
  Ru  Ru4  1  0.75000000  0.87500000  0.37500000  1
  Ru  Ru5  1  0.25000000  0.87500000  0.87500000  1
  Ru  Ru6  1  0.25000000  0.37500000  0.87500000  1
  Ru  Ru7  1  0.75000000  0.87500000  0.87500000  1
  O  O8  1  0.50000000  0.24082015  0.25917985  1
  O  O9  1  -0.00000000  0.50917985  0.49082015  1
  O  O10  1  0.91180462  0.95695699  0.54398053  1
  O  O11  1  0.49906248  0.54421485  0.54398053  1
  O  O12  1  0.50000000  0.95749474  0.54250526  1
  O  O13  1  0.08819538  0.54421485  0.95484763  1
  O  O14  1  0.50093752  0.95695699  0.95484763  1
  O  O15  1  0.50000000  0.54517465  0.95482535  1
  O  O16  1  0.58819538  0.79304301  0.20601947  1
  O  O17  1  0.00093752  0.20578515  0.20601947  1
  O  O18  1  -0.00000000  0.79250526  0.20749474  1
  O  O19  1  0.41180462  0.20578515  0.79515237  1
  O  O20  1  0.99906248  0.79304301  0.79515237  1
  O  O21  1  -0.00000000  0.20482535  0.79517465  1
