# generated using pymatgen
data_Cr2CdSe3S
_symmetry_space_group_name_H-M   'P 1'
_cell_length_a   7.59946908
_cell_length_b   7.59946908
_cell_length_c   7.59946908
_cell_angle_alpha   90.01020153
_cell_angle_beta   59.80256040
_cell_angle_gamma   119.81470957
_symmetry_Int_Tables_number   1
_chemical_formula_structural   Cr2CdSe3S
_chemical_formula_sum   'Cr4 Cd2 Se6 S2'
_cell_volume   310.30503146
_cell_formula_units_Z   2
loop_
 _symmetry_equiv_pos_site_id
 _symmetry_equiv_pos_as_xyz
  1  'x, y, z'
loop_
 _atom_site_type_symbol
 _atom_site_label
 _atom_site_symmetry_multiplicity
 _atom_site_fract_x
 _atom_site_fract_y
 _atom_site_fract_z
 _atom_site_occupancy
  Cr  Cr0  1  0.74950727  0.37028446  0.88020828  1
  Cr  Cr1  1  0.25049273  0.37028446  0.37922281  1
  Cr  Cr2  1  0.25872728  0.88370968  0.37501760  1
  Cr  Cr3  1  0.74127272  0.36625512  0.37501760  1
  Cd  Cd4  1  0.50000000  0.74800907  0.75199093  1
  Cd  Cd5  1  -0.00000000  0.01098011  0.98901989  1
  Se  Se6  1  0.72194167  0.58311353  0.13882814  1
  Se  Se7  1  0.27805833  0.13923019  0.13882814  1
  Se  Se8  1  0.21659020  0.60726180  0.17614800  1
  Se  Se9  1  0.78340980  0.60726180  0.60932840  1
  Se  Se10  1  0.77915912  0.16790702  0.61125210  1
  Se  Se11  1  0.22084088  0.60958878  0.61125210  1
  S  S12  1  0.28559570  0.14305700  0.57134730  1
  S  S13  1  0.71440430  0.14305700  0.14253870  1
