# generated using pymatgen
data_CrB2W
_symmetry_space_group_name_H-M   'P 1'
_cell_length_a   3.01256649
_cell_length_b   3.07960611
_cell_length_c   4.39262025
_cell_angle_alpha   69.47945827
_cell_angle_beta   90.00000000
_cell_angle_gamma   90.00000000
_symmetry_Int_Tables_number   1
_chemical_formula_structural   CrB2W
_chemical_formula_sum   'Cr1 B2 W1'
_cell_volume   38.16672114
_cell_formula_units_Z   1
loop_
 _symmetry_equiv_pos_site_id
 _symmetry_equiv_pos_as_xyz
  1  'x, y, z'
loop_
 _atom_site_type_symbol
 _atom_site_label
 _atom_site_symmetry_multiplicity
 _atom_site_fract_x
 _atom_site_fract_y
 _atom_site_fract_z
 _atom_site_occupancy
  Cr  Cr0  1  0.75000000  0.14173723  0.71652553  1
  B  B1  1  0.25000000  0.56497825  0.87004350  1
  B  B2  1  0.75000000  0.44216709  0.11566581  1
  W  W3  1  0.25000000  0.85111742  0.29776516  1
