# generated using pymatgen
data_Cu2GeTe3
_symmetry_space_group_name_H-M   'P 1'
_cell_length_a   7.39513121
_cell_length_b   11.33284469
_cell_length_c   8.63699976
_cell_angle_alpha   67.57581901
_cell_angle_beta   90.10830059
_cell_angle_gamma   90.29301179
_symmetry_Int_Tables_number   1
_chemical_formula_structural   Cu2GeTe3
_chemical_formula_sum   'Cu8 Ge4 Te12'
_cell_volume   669.10611235
_cell_formula_units_Z   4
loop_
 _symmetry_equiv_pos_site_id
 _symmetry_equiv_pos_as_xyz
  1  'x, y, z'
loop_
 _atom_site_type_symbol
 _atom_site_label
 _atom_site_symmetry_multiplicity
 _atom_site_fract_x
 _atom_site_fract_y
 _atom_site_fract_z
 _atom_site_occupancy
  Cu  Cu0  1  0.50323281  0.00507034  0.24812791  1
  Cu  Cu1  1  0.17321928  0.33347605  0.58320686  1
  Cu  Cu2  1  0.82561305  0.66278766  0.91835517  1
  Cu  Cu3  1  0.33777678  0.66239647  0.67108608  1
  Cu  Cu4  1  0.99847953  0.00432555  0.99883761  1
  Cu  Cu5  1  0.66438236  0.33354189  0.32875704  1
  Cu  Cu6  1  0.50087308  0.00203979  0.74941975  1
  Cu  Cu7  1  0.16762989  0.33336306  0.08266516  1
  Ge  Ge8  1  0.83420330  0.66549946  0.41733724  1
  Ge  Ge9  1  0.66077151  0.33194321  0.84251267  1
  Ge  Ge10  1  0.34046689  0.65927323  0.16425577  1
  Ge  Ge11  1  0.99954768  0.00810972  0.49409031  1
  Te  Te12  1  0.32042004  0.41601468  0.79292681  1
  Te  Te13  1  0.99393720  0.75756988  0.10698306  1
  Te  Te14  1  0.65338717  0.08576940  0.45894553  1
  Te  Te15  1  0.66391202  0.07653004  0.96042950  1
  Te  Te16  1  0.32982244  0.40438634  0.29657145  1
  Te  Te17  1  0.00768095  0.74441618  0.64241961  1
  Te  Te18  1  0.17253352  0.08623931  0.71380845  1
  Te  Te19  1  0.84202389  0.41813763  0.04685907  1
  Te  Te20  1  0.49050335  0.75980285  0.37976808  1
  Te  Te21  1  0.17505600  0.08712777  0.19959073  1
  Te  Te22  1  0.84050133  0.40584565  0.53775963  1
  Te  Te23  1  0.50402591  0.75633385  0.86528651  1
