# generated using pymatgen
data_CoNiAs4
_symmetry_space_group_name_H-M   'P 1'
_cell_length_a   3.34620331
_cell_length_b   4.95432834
_cell_length_c   5.85837971
_cell_angle_alpha   89.92746384
_cell_angle_beta   90.00000000
_cell_angle_gamma   90.00000000
_symmetry_Int_Tables_number   1
_chemical_formula_structural   CoNiAs4
_chemical_formula_sum   'Co1 Ni1 As4'
_cell_volume   97.12125343
_cell_formula_units_Z   1
loop_
 _symmetry_equiv_pos_site_id
 _symmetry_equiv_pos_as_xyz
  1  'x, y, z'
loop_
 _atom_site_type_symbol
 _atom_site_label
 _atom_site_symmetry_multiplicity
 _atom_site_fract_x
 _atom_site_fract_y
 _atom_site_fract_z
 _atom_site_occupancy
  Co  Co0  1  0.50000000  0.50000000  0.50000000  1
  Ni  Ni1  1  0.00000000  -0.00000000  0.00000000  1
  As  As2  1  0.50000000  0.69215366  0.13750349  1
  As  As3  1  0.50000000  0.30784634  0.86249651  1
  As  As4  1  -0.00000000  0.19853853  0.36886531  1
  As  As5  1  -0.00000000  0.80146147  0.63113469  1
