# generated using pymatgen
data_Fe6O11F
_symmetry_space_group_name_H-M   'P 1'
_cell_length_a   7.25684895
_cell_length_b   5.50694037
_cell_length_c   5.50694037
_cell_angle_alpha   71.93870517
_cell_angle_beta   70.96985707
_cell_angle_gamma   70.96985707
_symmetry_Int_Tables_number   1
_chemical_formula_structural   Fe6O11F
_chemical_formula_sum   'Fe6 O11 F1'
_cell_volume   191.49808566
_cell_formula_units_Z   1
loop_
 _symmetry_equiv_pos_site_id
 _symmetry_equiv_pos_as_xyz
  1  'x, y, z'
loop_
 _atom_site_type_symbol
 _atom_site_label
 _atom_site_symmetry_multiplicity
 _atom_site_fract_x
 _atom_site_fract_y
 _atom_site_fract_z
 _atom_site_occupancy
  Fe  Fe0  1  0.83508815  0.66692690  0.66692690  1
  Fe  Fe1  1  0.66722929  0.33568835  0.33568835  1
  Fe  Fe2  1  0.33147249  0.65637332  0.65637332  1
  Fe  Fe3  1  0.16371131  0.33116796  0.33116796  1
  Fe  Fe4  1  0.50981572  0.00674893  0.00674893  1
  Fe  Fe5  1  0.99084982  0.00178474  0.00178474  1
  O  O6  1  0.66746188  0.02370201  0.64600024  1
  O  O7  1  0.33088367  0.35836530  0.97116449  1
  O  O8  1  0.95637308  0.23346378  0.23346378  1
  O  O9  1  0.62707195  0.55991131  0.55991131  1
  O  O10  1  0.04199770  0.77059147  0.77059147  1
  O  O11  1  0.37883121  0.42586732  0.42586732  1
  O  O12  1  0.69918179  0.11329144  0.11329144  1
  O  O13  1  0.33088367  0.97116449  0.35836530  1
  O  O14  1  0.66746188  0.64600024  0.02370201  1
  O  O15  1  0.00111640  0.30733002  0.69359923  1
  O  O16  1  0.00111640  0.69359923  0.30733002  1
  F  F17  1  0.29945360  0.89802218  0.89802218  1
