# generated using pymatgen
data_Dy10Al4Ge11
_symmetry_space_group_name_H-M   'P 1'
_cell_length_a   4.20490869
_cell_length_b   5.62579167
_cell_length_c   24.60825974
_cell_angle_alpha   90.82441082
_cell_angle_beta   94.90115095
_cell_angle_gamma   111.94504179
_symmetry_Int_Tables_number   1
_chemical_formula_structural   Dy10Al4Ge11
_chemical_formula_sum   'Dy10 Al4 Ge11'
_cell_volume   537.30148506
_cell_formula_units_Z   1
loop_
 _symmetry_equiv_pos_site_id
 _symmetry_equiv_pos_as_xyz
  1  'x, y, z'
loop_
 _atom_site_type_symbol
 _atom_site_label
 _atom_site_symmetry_multiplicity
 _atom_site_fract_x
 _atom_site_fract_y
 _atom_site_fract_z
 _atom_site_occupancy
  Dy  Dy0  1  0.27328788  0.60359939  0.94297638  1
  Dy  Dy1  1  0.46958699  0.19663434  0.74253963  1
  Dy  Dy2  1  0.66924271  0.79626306  0.54222236  1
  Dy  Dy3  1  0.06948339  0.99621868  0.14274810  1
  Dy  Dy4  1  0.86937892  0.39667419  0.34208366  1
  Dy  Dy5  1  0.93051661  0.00378132  0.85725190  1
  Dy  Dy6  1  0.13062108  0.60332581  0.65791634  1
  Dy  Dy7  1  0.33075729  0.20373694  0.45777764  1
  Dy  Dy8  1  0.72671212  0.39640061  0.05702362  1
  Dy  Dy9  1  0.53041301  0.80336566  0.25746037  1
  Al  Al10  1  0.79951281  0.39869218  0.20033345  1
  Al  Al11  1  0.59967891  0.79956848  0.39978934  1
  Al  Al12  1  0.40032109  0.20043152  0.60021066  1
  Al  Al13  1  0.20048719  0.60130782  0.79966655  1
  Ge  Ge14  1  0.55932928  0.17783443  0.94082414  1
  Ge  Ge15  1  0.75659660  0.76995784  0.74323536  1
  Ge  Ge16  1  0.95606193  0.36902596  0.54309789  1
  Ge  Ge17  1  0.35473527  0.56559254  0.14387801  1
  Ge  Ge18  1  0.15624505  0.96928470  0.34320540  1
  Ge  Ge19  1  0.64526473  0.43440746  0.85612199  1
  Ge  Ge20  1  0.84375495  0.03071530  0.65679460  1
  Ge  Ge21  1  0.04393807  0.63097404  0.45690211  1
  Ge  Ge22  1  0.44067072  0.82216557  0.05917586  1
  Ge  Ge23  1  0.24340340  0.23004216  0.25676464  1
  Ge  Ge24  1  -0.00000000  -0.00000000  0.00000000  1
