# generated using pymatgen
data_Cs4Ga3FeS8
_symmetry_space_group_name_H-M   'P 1'
_cell_length_a   5.87073703
_cell_length_b   7.33031888
_cell_length_c   12.44476718
_cell_angle_alpha   92.22779973
_cell_angle_beta   82.73997917
_cell_angle_gamma   101.29706139
_symmetry_Int_Tables_number   1
_chemical_formula_structural   Cs4Ga3FeS8
_chemical_formula_sum   'Cs4 Ga3 Fe1 S8'
_cell_volume   520.91100861
_cell_formula_units_Z   1
loop_
 _symmetry_equiv_pos_site_id
 _symmetry_equiv_pos_as_xyz
  1  'x, y, z'
loop_
 _atom_site_type_symbol
 _atom_site_label
 _atom_site_symmetry_multiplicity
 _atom_site_fract_x
 _atom_site_fract_y
 _atom_site_fract_z
 _atom_site_occupancy
  Cs  Cs0  1  0.92707637  0.03179247  0.32216808  1
  Cs  Cs1  1  0.42769525  0.53248544  0.82314835  1
  Cs  Cs2  1  0.57293280  0.46731974  0.17688260  1
  Cs  Cs3  1  0.07222878  0.96825438  0.67780251  1
  Ga  Ga4  1  0.74861948  0.49587091  0.50147492  1
  Ga  Ga5  1  0.25140718  0.50446711  0.49855329  1
  Ga  Ga6  1  0.75165352  0.00438248  0.99846076  1
  Fe  Fe7  1  0.24831470  0.99529520  0.00151022  1
  S  S8  1  0.04574945  0.55838213  0.36078339  1
  S  S9  1  0.54501766  0.05808931  0.86095568  1
  S  S10  1  0.05355539  0.23767301  0.04039898  1
  S  S11  1  0.55314472  0.73788476  0.54052629  1
  S  S12  1  0.45319499  0.94144852  0.13900023  1
  S  S13  1  0.95444623  0.44192029  0.63912306  1
  S  S14  1  0.44691105  0.26234495  0.45954479  1
  S  S15  1  0.94805444  0.76238831  0.95966785  1
