# generated using pymatgen
data_Cr3Si3Pb10(ClO12)2
_symmetry_space_group_name_H-M   'P 1'
_cell_length_a   7.45779371
_cell_length_b   10.35878084
_cell_length_c   10.36007511
_cell_angle_alpha   59.71636557
_cell_angle_beta   90.00000000
_cell_angle_gamma   90.00000000
_symmetry_Int_Tables_number   1
_chemical_formula_structural   Cr3Si3Pb10(ClO12)2
_chemical_formula_sum   'Cr3 Si3 Pb10 Cl2 O24'
_cell_volume   691.13706740
_cell_formula_units_Z   1
loop_
 _symmetry_equiv_pos_site_id
 _symmetry_equiv_pos_as_xyz
  1  'x, y, z'
loop_
 _atom_site_type_symbol
 _atom_site_label
 _atom_site_symmetry_multiplicity
 _atom_site_fract_x
 _atom_site_fract_y
 _atom_site_fract_z
 _atom_site_occupancy
  Cr  Cr0  1  0.25000000  0.62323847  0.40664518  1
  Cr  Cr1  1  0.75000000  0.02740406  0.37695525  1
  Cr  Cr2  1  0.75000000  0.58749673  0.03343536  1
  Si  Si3  1  0.25000000  0.96930754  0.61506173  1
  Si  Si4  1  0.25000000  0.40490341  0.97594209  1
  Si  Si5  1  0.75000000  0.38115732  0.59052643  1
  Pb  Pb6  1  0.00513865  0.65163925  0.68848620  1
  Pb  Pb7  1  0.48687874  0.31871067  0.35568159  1
  Pb  Pb8  1  0.01312126  0.31871067  0.35568159  1
  Pb  Pb9  1  0.49486135  0.65163925  0.68848620  1
  Pb  Pb10  1  0.75000000  0.03026135  0.74544954  1
  Pb  Pb11  1  0.75000000  0.27305714  0.96122612  1
  Pb  Pb12  1  0.75000000  0.73686818  0.25120975  1
  Pb  Pb13  1  0.25000000  0.01306142  0.25648377  1
  Pb  Pb14  1  0.25000000  0.77946429  0.95192098  1
  Pb  Pb15  1  0.25000000  0.24982437  0.77097705  1
  Cl  Cl16  1  0.50405780  0.00140125  0.00419793  1
  Cl  Cl17  1  0.99594220  0.00140125  0.00419793  1
  O  O18  1  0.25000000  0.88567584  0.51382713  1
  O  O19  1  0.25000000  0.59296789  0.88427358  1
  O  O20  1  0.25000000  0.52601599  0.59523070  1
  O  O21  1  0.75000000  0.11640216  0.47650146  1
  O  O22  1  0.75000000  0.40082471  0.11785966  1
  O  O23  1  0.75000000  0.48713394  0.40533870  1
  O  O24  1  0.42699630  0.90841151  0.72748987  1
  O  O25  1  0.42783612  0.36448573  0.90514716  1
  O  O26  1  0.42992177  0.73238633  0.35364552  1
  O  O27  1  0.93021329  0.08774022  0.26807132  1
  O  O28  1  0.92823329  0.64113113  0.09094849  1
  O  O29  1  0.92806297  0.26968158  0.63475874  1
  O  O30  1  0.56978671  0.08774022  0.26807132  1
  O  O31  1  0.57176671  0.64113113  0.09094849  1
  O  O32  1  0.57193703  0.26968158  0.63475874  1
  O  O33  1  0.07300370  0.90841151  0.72748987  1
  O  O34  1  0.07216388  0.36448573  0.90514716  1
  O  O35  1  0.07007823  0.73238633  0.35364552  1
  O  O36  1  0.25000000  0.15406219  0.50323661  1
  O  O37  1  0.25000000  0.32374188  0.15947429  1
  O  O38  1  0.25000000  0.50568319  0.33999836  1
  O  O39  1  0.75000000  0.84268528  0.48491188  1
  O  O40  1  0.75000000  0.66114392  0.84662236  1
  O  O41  1  0.75000000  0.47644345  0.68003835  1
