# generated using pymatgen
data_Co3PW2
_symmetry_space_group_name_H-M   'P 1'
_cell_length_a   4.76066622
_cell_length_b   4.76096936
_cell_length_c   7.31691198
_cell_angle_alpha   90.00000000
_cell_angle_beta   90.00000000
_cell_angle_gamma   59.99790053
_symmetry_Int_Tables_number   1
_chemical_formula_structural   Co3PW2
_chemical_formula_sum   'Co6 P2 W4'
_cell_volume   143.61916382
_cell_formula_units_Z   2
loop_
 _symmetry_equiv_pos_site_id
 _symmetry_equiv_pos_as_xyz
  1  'x, y, z'
loop_
 _atom_site_type_symbol
 _atom_site_label
 _atom_site_symmetry_multiplicity
 _atom_site_fract_x
 _atom_site_fract_y
 _atom_site_fract_z
 _atom_site_occupancy
  Co  Co0  1  0.83153741  0.33693831  0.75000000  1
  Co  Co1  1  0.33695537  0.83152231  0.75000000  1
  Co  Co2  1  0.83153741  0.83152428  0.75000000  1
  Co  Co3  1  0.16846259  0.66306169  0.25000000  1
  Co  Co4  1  0.66304463  0.16847769  0.25000000  1
  Co  Co5  1  0.16846259  0.16847572  0.25000000  1
  P  P6  1  0.00000000  -0.00000000  0.50000000  1
  P  P7  1  0.00000000  -0.00000000  0.00000000  1
  W  W8  1  0.33336974  0.33331513  0.56544738  1
  W  W9  1  0.66663026  0.66668487  0.43455262  1
  W  W10  1  0.66663026  0.66668487  0.06544738  1
  W  W11  1  0.33336974  0.33331513  0.93455262  1
