# generated using pymatgen
data_CdInAsSe
_symmetry_space_group_name_H-M   'P 1'
_cell_length_a   4.38463466
_cell_length_b   4.38463466
_cell_length_c   7.60080182
_cell_angle_alpha   73.23587209
_cell_angle_beta   90.00000000
_cell_angle_gamma   120.00000000
_symmetry_Int_Tables_number   1
_chemical_formula_structural   CdInAsSe
_chemical_formula_sum   'Cd1 In1 As1 Se1'
_cell_volume   119.32356840
_cell_formula_units_Z   1
loop_
 _symmetry_equiv_pos_site_id
 _symmetry_equiv_pos_as_xyz
  1  'x, y, z'
loop_
 _atom_site_type_symbol
 _atom_site_label
 _atom_site_symmetry_multiplicity
 _atom_site_fract_x
 _atom_site_fract_y
 _atom_site_fract_z
 _atom_site_occupancy
  Cd  Cd0  1  0.99811733  0.99623466  0.00564800  1
  In  In1  1  0.50146248  0.00292496  0.49561256  1
  As  As2  1  0.87422933  0.74845866  0.37731201  1
  Se  Se3  1  0.37619086  0.75238172  0.87142742  1
