# generated using pymatgen
data_Cd3(InTe3)2
_symmetry_space_group_name_H-M   'P 1'
_cell_length_a   6.42792299
_cell_length_b   9.18540763
_cell_length_c   8.01090505
_cell_angle_alpha   72.25640804
_cell_angle_beta   66.34689195
_cell_angle_gamma   90.00000012
_symmetry_Int_Tables_number   1
_chemical_formula_structural   Cd3(InTe3)2
_chemical_formula_sum   'Cd3 In2 Te6'
_cell_volume   408.57090862
_cell_formula_units_Z   1
loop_
 _symmetry_equiv_pos_site_id
 _symmetry_equiv_pos_as_xyz
  1  'x, y, z'
loop_
 _atom_site_type_symbol
 _atom_site_label
 _atom_site_symmetry_multiplicity
 _atom_site_fract_x
 _atom_site_fract_y
 _atom_site_fract_z
 _atom_site_occupancy
  Cd  Cd0  1  0.99072375  0.98916658  0.01350182  1
  Cd  Cd1  1  0.36629302  0.16666700  0.33333300  1
  Cd  Cd2  1  0.67089257  0.34416642  0.65316518  1
  In  In3  1  0.98518618  0.50517380  0.00214652  1
  In  In4  1  0.65399970  0.82815920  0.66452048  1
  Te  Te5  1  0.25973535  0.73844416  0.02399304  1
  Te  Te6  1  0.55851738  0.88934809  0.33853748  1
  Te  Te7  1  0.91755930  0.08160494  0.66541721  1
  Te  Te8  1  0.24964251  0.25172806  0.00124979  1
  Te  Te9  1  0.56372186  0.44398591  0.32812852  1
  Te  Te10  1  0.95039538  0.59488884  0.64267396  1
