# generated using pymatgen
data_Ce2Si9Ni17
_symmetry_space_group_name_H-M   'P 1'
_cell_length_a   7.81843033
_cell_length_b   7.81843033
_cell_length_c   7.87435196
_cell_angle_alpha   61.47542985
_cell_angle_beta   61.47542985
_cell_angle_gamma   92.18336325
_symmetry_Int_Tables_number   1
_chemical_formula_structural   Ce2Si9Ni17
_chemical_formula_sum   'Ce2 Si9 Ni17'
_cell_volume   348.79630630
_cell_formula_units_Z   1
loop_
 _symmetry_equiv_pos_site_id
 _symmetry_equiv_pos_as_xyz
  1  'x, y, z'
loop_
 _atom_site_type_symbol
 _atom_site_label
 _atom_site_symmetry_multiplicity
 _atom_site_fract_x
 _atom_site_fract_y
 _atom_site_fract_z
 _atom_site_occupancy
  Ce  Ce0  1  0.25000000  0.25000000  0.50000000  1
  Ce  Ce1  1  0.75000000  0.75000000  0.50000000  1
  Si  Si2  1  0.55912411  0.69789951  0.24297638  1
  Si  Si3  1  0.19789951  0.05912411  0.24297638  1
  Si  Si4  1  0.70987666  0.20987666  0.23370857  1
  Si  Si5  1  0.05641476  0.55641476  0.23370857  1
  Si  Si6  1  0.44087589  0.30210049  0.75702362  1
  Si  Si7  1  0.80210049  0.94087589  0.75702362  1
  Si  Si8  1  0.29012334  0.79012334  0.76629143  1
  Si  Si9  1  0.94358524  0.44358524  0.76629143  1
  Si  Si10  1  0.50000000  -0.00000000  -0.00000000  1
  Ni  Ni11  1  0.44041198  0.71419939  -0.00000000  1
  Ni  Ni12  1  0.55958802  0.28580061  -0.00000000  1
  Ni  Ni13  1  0.06514388  0.20362245  -0.00000000  1
  Ni  Ni14  1  0.93485612  0.79637755  -0.00000000  1
  Ni  Ni15  1  0.29637755  0.43485612  -0.00000000  1
  Ni  Ni16  1  0.70362245  0.56514388  -0.00000000  1
  Ni  Ni17  1  0.78580061  0.05958802  -0.00000000  1
  Ni  Ni18  1  0.21419939  0.94041198  -0.00000000  1
  Ni  Ni19  1  0.68811603  0.44166554  0.37021843  1
  Ni  Ni20  1  0.94166554  0.18811603  0.37021843  1
  Ni  Ni21  1  0.44178332  0.94178332  0.37029502  1
  Ni  Ni22  1  0.18792165  0.68792165  0.37029502  1
  Ni  Ni23  1  0.31188397  0.55833446  0.62978157  1
  Ni  Ni24  1  0.05833446  0.81188397  0.62978157  1
  Ni  Ni25  1  0.55821668  0.05821668  0.62970498  1
  Ni  Ni26  1  0.81207835  0.31207835  0.62970498  1
  Ni  Ni27  1  -0.00000000  0.50000000  -0.00000000  1
