# generated using pymatgen
data_CaTmMn2O6
_symmetry_space_group_name_H-M   'P 1'
_cell_length_a   5.31059294
_cell_length_b   5.54242338
_cell_length_c   7.56601221
_cell_angle_alpha   90.00000000
_cell_angle_beta   90.00000000
_cell_angle_gamma   90.00000000
_symmetry_Int_Tables_number   1
_chemical_formula_structural   CaTmMn2O6
_chemical_formula_sum   'Ca2 Tm2 Mn4 O12'
_cell_volume   222.69463252
_cell_formula_units_Z   2
loop_
 _symmetry_equiv_pos_site_id
 _symmetry_equiv_pos_as_xyz
  1  'x, y, z'
loop_
 _atom_site_type_symbol
 _atom_site_label
 _atom_site_symmetry_multiplicity
 _atom_site_fract_x
 _atom_site_fract_y
 _atom_site_fract_z
 _atom_site_occupancy
  Ca  Ca0  1  0.48696983  0.44650504  0.75000000  1
  Ca  Ca1  1  0.01303017  0.94650504  0.75000000  1
  Tm  Tm2  1  0.51542946  0.56935159  0.25000000  1
  Tm  Tm3  1  0.98457054  0.06935159  0.25000000  1
  Mn  Mn4  1  0.00367839  0.50230184  0.99907604  1
  Mn  Mn5  1  0.49632161  0.00230184  0.50092396  1
  Mn  Mn6  1  0.00367839  0.50230184  0.50092396  1
  Mn  Mn7  1  0.49632161  0.00230184  0.99907604  1
  O  O8  1  0.39428768  0.96616254  0.25000000  1
  O  O9  1  0.10571232  0.46616254  0.25000000  1
  O  O10  1  0.58594499  0.02921989  0.75000000  1
  O  O11  1  0.91405501  0.52921989  0.75000000  1
  O  O12  1  0.79561127  0.79697408  0.06190584  1
  O  O13  1  0.70438873  0.29697408  0.43809416  1
  O  O14  1  0.19159613  0.19510455  0.53539659  1
  O  O15  1  0.30840387  0.69510455  0.96460341  1
  O  O16  1  0.19159613  0.19510455  0.96460341  1
  O  O17  1  0.30840387  0.69510455  0.53539659  1
  O  O18  1  0.79561127  0.79697408  0.43809416  1
  O  O19  1  0.70438873  0.29697408  0.06190584  1
