# generated using pymatgen
data_CdGa4HgTe8
_symmetry_space_group_name_H-M   'P 1'
_cell_length_a   6.05274342
_cell_length_b   7.71791142
_cell_length_c   11.52674370
_cell_angle_alpha   75.19766536
_cell_angle_beta   74.77844635
_cell_angle_gamma   66.91332755
_symmetry_Int_Tables_number   1
_chemical_formula_structural   CdGa4HgTe8
_chemical_formula_sum   'Cd1 Ga4 Hg1 Te8'
_cell_volume   470.85468594
_cell_formula_units_Z   1
loop_
 _symmetry_equiv_pos_site_id
 _symmetry_equiv_pos_as_xyz
  1  'x, y, z'
loop_
 _atom_site_type_symbol
 _atom_site_label
 _atom_site_symmetry_multiplicity
 _atom_site_fract_x
 _atom_site_fract_y
 _atom_site_fract_z
 _atom_site_occupancy
  Cd  Cd0  1  0.99996213  0.50000000  0.50000000  1
  Ga  Ga1  1  0.25057311  0.37514356  0.12485405  1
  Ga  Ga2  1  0.24944730  0.87494460  0.62505932  1
  Ga  Ga3  1  0.75057071  0.62485644  0.87514595  1
  Ga  Ga4  1  0.74945122  0.12505540  0.37494068  1
  Hg  Hg5  1  0.00046655  -0.00000000  0.00000000  1
  Te  Te6  1  0.59669566  0.54818449  0.70132332  1
  Te  Te7  1  0.59595811  0.04719888  0.20194619  1
  Te  Te8  1  0.15550989  0.32648321  0.92258381  1
  Te  Te9  1  0.15322969  0.82596560  0.42305679  1
  Te  Te10  1  0.40457691  0.67351679  0.07741619  1
  Te  Te11  1  0.40225208  0.17403440  0.57694321  1
  Te  Te12  1  0.84620347  0.45181551  0.29867668  1
  Te  Te13  1  0.84510318  0.95280112  0.79805381  1
