# generated using pymatgen
data_Fe3O5F
_symmetry_space_group_name_H-M   'P 1'
_cell_length_a   4.63788641
_cell_length_b   7.65604825
_cell_length_c   5.51149747
_cell_angle_alpha   94.54526760
_cell_angle_beta   91.79808890
_cell_angle_gamma   88.38530828
_symmetry_Int_Tables_number   1
_chemical_formula_structural   Fe3O5F
_chemical_formula_sum   'Fe6 O10 F2'
_cell_volume   194.92523623
_cell_formula_units_Z   2
loop_
 _symmetry_equiv_pos_site_id
 _symmetry_equiv_pos_as_xyz
  1  'x, y, z'
loop_
 _atom_site_type_symbol
 _atom_site_label
 _atom_site_symmetry_multiplicity
 _atom_site_fract_x
 _atom_site_fract_y
 _atom_site_fract_z
 _atom_site_occupancy
  Fe  Fe0  1  0.50000000  0.66666700  0.16666700  1
  Fe  Fe1  1  0.50075270  0.99780507  0.50116955  1
  Fe  Fe2  1  0.49924730  0.33552893  0.83216345  1
  Fe  Fe3  1  0.00000000  0.66666700  0.66666700  1
  Fe  Fe4  1  0.98262238  0.32052630  0.33649079  1
  Fe  Fe5  1  0.01737762  0.01280670  0.99684221  1
  O  O6  1  0.81249490  0.43948066  0.62497703  1
  O  O7  1  0.80541012  0.09379505  0.28942743  1
  O  O8  1  0.69440170  0.10285446  0.79427617  1
  O  O9  1  0.69038987  0.76377527  0.46590311  1
  O  O10  1  0.69407386  0.43922090  0.12663133  1
  O  O11  1  0.30961013  0.56955773  0.86743089  1
  O  O12  1  0.30559830  0.23047854  0.53905783  1
  O  O13  1  0.30592614  0.89411310  0.20670167  1
  O  O14  1  0.19458988  0.23953895  0.04390557  1
  O  O15  1  0.18750510  0.89385234  0.70835697  1
  F  F16  1  0.80460761  0.77072344  0.97059779  1
  F  F17  1  0.19539239  0.56260956  0.36273521  1
