# generated using pymatgen
data_CaZrV2O8
_symmetry_space_group_name_H-M   'P 1'
_cell_length_a   5.91898865
_cell_length_b   5.91898865
_cell_length_c   5.91898865
_cell_angle_alpha   63.58316133
_cell_angle_beta   73.88591699
_cell_angle_gamma   106.11408301
_symmetry_Int_Tables_number   1
_chemical_formula_structural   CaZrV2O8
_chemical_formula_sum   'Ca1 Zr1 V2 O8'
_cell_volume   157.85235773
_cell_formula_units_Z   1
loop_
 _symmetry_equiv_pos_site_id
 _symmetry_equiv_pos_as_xyz
  1  'x, y, z'
loop_
 _atom_site_type_symbol
 _atom_site_label
 _atom_site_symmetry_multiplicity
 _atom_site_fract_x
 _atom_site_fract_y
 _atom_site_fract_z
 _atom_site_occupancy
  Ca  Ca0  1  0.25000000  0.37500000  0.87500000  1
  Zr  Zr1  1  0.75000000  0.62500000  0.12500000  1
  V  V2  1  0.75000000  0.12500000  0.62500000  1
  V  V3  1  0.25000000  0.87500000  0.37500000  1
  O  O4  1  0.92811596  0.31578102  0.25610302  1
  O  O5  1  0.05315716  0.84451628  0.20864088  1
  O  O6  1  0.44684284  0.23820196  0.20864088  1
  O  O7  1  0.57188404  0.31578102  0.61233494  1
  O  O8  1  0.05315716  0.70864088  0.73820196  1
  O  O9  1  0.92811596  0.11233494  0.81578102  1
  O  O10  1  0.57188404  0.75610302  0.81578102  1
  O  O11  1  0.44684284  0.70864088  0.34451628  1
