# generated using pymatgen
data_CaNd2BeO5
_symmetry_space_group_name_H-M   'P 1'
_cell_length_a   6.53092161
_cell_length_b   7.21060317
_cell_length_c   9.52218174
_cell_angle_alpha   90.00000000
_cell_angle_beta   90.00000000
_cell_angle_gamma   90.00000000
_symmetry_Int_Tables_number   1
_chemical_formula_structural   CaNd2BeO5
_chemical_formula_sum   'Ca4 Nd8 Be4 O20'
_cell_volume   448.41747854
_cell_formula_units_Z   4
loop_
 _symmetry_equiv_pos_site_id
 _symmetry_equiv_pos_as_xyz
  1  'x, y, z'
loop_
 _atom_site_type_symbol
 _atom_site_label
 _atom_site_symmetry_multiplicity
 _atom_site_fract_x
 _atom_site_fract_y
 _atom_site_fract_z
 _atom_site_occupancy
  Ca  Ca0  1  0.57832386  0.97954516  0.67573414  1
  Ca  Ca1  1  0.42167614  0.47954516  0.32426586  1
  Ca  Ca2  1  0.07832386  0.47954516  0.82426586  1
  Ca  Ca3  1  0.92167614  0.97954516  0.17573414  1
  Nd  Nd4  1  0.09764131  0.74565458  0.52369188  1
  Nd  Nd5  1  0.40235869  0.74565458  0.02369188  1
  Nd  Nd6  1  0.90235869  0.24565458  0.47630812  1
  Nd  Nd7  1  0.59764131  0.24565458  0.97630812  1
  Nd  Nd8  1  0.92694011  0.52721061  0.17211163  1
  Nd  Nd9  1  0.07305989  0.02721061  0.82788837  1
  Nd  Nd10  1  0.42694011  0.02721061  0.32788837  1
  Nd  Nd11  1  0.57305989  0.52721061  0.67211163  1
  Be  Be12  1  0.69294463  0.74851323  0.39658833  1
  Be  Be13  1  0.80705537  0.74851323  0.89658833  1
  Be  Be14  1  0.30705537  0.24851323  0.60341167  1
  Be  Be15  1  0.19294463  0.24851323  0.10341167  1
  O  O16  1  0.16699729  0.74901502  0.27415237  1
  O  O17  1  0.33300271  0.74901502  0.77415237  1
  O  O18  1  0.83300271  0.24901502  0.72584763  1
  O  O19  1  0.66699729  0.24901502  0.22584763  1
  O  O20  1  0.01944982  0.75048350  0.98882053  1
  O  O21  1  0.48055018  0.75048350  0.48882053  1
  O  O22  1  0.98055018  0.25048350  0.01117947  1
  O  O23  1  0.51944982  0.25048350  0.51117947  1
  O  O24  1  0.64041827  0.75032726  0.22325357  1
  O  O25  1  0.85958173  0.75032726  0.72325357  1
  O  O26  1  0.35958173  0.25032726  0.77674643  1
  O  O27  1  0.14041827  0.25032726  0.27674643  1
  O  O28  1  0.31221384  0.05717566  0.07072979  1
  O  O29  1  0.19305697  0.44207499  0.57282480  1
  O  O30  1  0.68778616  0.55717566  0.92927021  1
  O  O31  1  0.80694303  0.94207499  0.42717520  1
  O  O32  1  0.69305697  0.94207499  0.92717520  1
  O  O33  1  0.81221384  0.55717566  0.42927021  1
  O  O34  1  0.30694303  0.44207499  0.07282480  1
  O  O35  1  0.18778616  0.05717566  0.57072979  1
