# generated using pymatgen
data_Ce2SiGe
_symmetry_space_group_name_H-M   'P 1'
_cell_length_a   3.95412727
_cell_length_b   5.89159104
_cell_length_c   8.20955868
_cell_angle_alpha   90.00000000
_cell_angle_beta   90.00000000
_cell_angle_gamma   90.00000000
_symmetry_Int_Tables_number   1
_chemical_formula_structural   Ce2SiGe
_chemical_formula_sum   'Ce4 Si2 Ge2'
_cell_volume   191.25070649
_cell_formula_units_Z   2
loop_
 _symmetry_equiv_pos_site_id
 _symmetry_equiv_pos_as_xyz
  1  'x, y, z'
loop_
 _atom_site_type_symbol
 _atom_site_label
 _atom_site_symmetry_multiplicity
 _atom_site_fract_x
 _atom_site_fract_y
 _atom_site_fract_z
 _atom_site_occupancy
  Ce  Ce0  1  0.25000000  0.38367086  0.68103456  1
  Ce  Ce1  1  0.25000000  0.11632914  0.18103456  1
  Ce  Ce2  1  0.75000000  0.61259934  0.31972412  1
  Ce  Ce3  1  0.75000000  0.88740066  0.81972412  1
  Si  Si4  1  0.75000000  0.13007532  0.46273123  1
  Si  Si5  1  0.75000000  0.36992468  0.96273123  1
  Ge  Ge6  1  0.25000000  0.87209211  0.53651009  1
  Ge  Ge7  1  0.25000000  0.62790789  0.03651009  1
