# generated using pymatgen
data_Ca4ZnFe3(SiO3)8
_symmetry_space_group_name_H-M   'P 1'
_cell_length_a   5.31570446
_cell_length_b   9.96934046
_cell_length_c   9.13389795
_cell_angle_alpha   90.00000000
_cell_angle_beta   90.00000000
_cell_angle_gamma   74.71549110
_symmetry_Int_Tables_number   1
_chemical_formula_structural   Ca4ZnFe3(SiO3)8
_chemical_formula_sum   'Ca4 Zn1 Fe3 Si8 O24'
_cell_volume   466.92120883
_cell_formula_units_Z   1
loop_
 _symmetry_equiv_pos_site_id
 _symmetry_equiv_pos_as_xyz
  1  'x, y, z'
loop_
 _atom_site_type_symbol
 _atom_site_label
 _atom_site_symmetry_multiplicity
 _atom_site_fract_x
 _atom_site_fract_y
 _atom_site_fract_z
 _atom_site_occupancy
  Ca  Ca0  1  0.75000000  0.50000000  0.79883268  1
  Ca  Ca1  1  0.75000000  0.00000000  0.29908414  1
  Ca  Ca2  1  0.25000000  0.50000000  0.20063937  1
  Ca  Ca3  1  0.25000000  0.00000000  0.70094615  1
  Zn  Zn4  1  0.75000000  0.50000000  0.40609806  1
  Fe  Fe5  1  0.75000000  0.00000000  0.90692223  1
  Fe  Fe6  1  0.25000000  0.50000000  0.59328407  1
  Fe  Fe7  1  0.25000000  0.00000000  0.09311023  1
  Si  Si8  1  0.73179338  0.71254919  0.09258841  1
  Si  Si9  1  0.73180076  0.21283651  0.59212286  1
  Si  Si10  1  0.76820662  0.28745081  0.09258841  1
  Si  Si11  1  0.76819924  0.78716349  0.59212286  1
  Si  Si12  1  0.26824841  0.28721432  0.90782244  1
  Si  Si13  1  0.26863117  0.78711571  0.40771924  1
  Si  Si14  1  0.23175159  0.71278568  0.90782244  1
  Si  Si15  1  0.23136883  0.21288429  0.40771924  1
  O  O16  1  0.49370003  0.65031489  0.01923326  1
  O  O17  1  0.49341614  0.15049276  0.51907314  1
  O  O18  1  0.00629997  0.34968511  0.01923326  1
  O  O19  1  0.00658386  0.84950724  0.51907314  1
  O  O20  1  0.50635013  0.34969207  0.98091404  1
  O  O21  1  0.50630301  0.84965963  0.48082310  1
  O  O22  1  0.99364987  0.65030793  0.98091404  1
  O  O23  1  0.99369699  0.15034037  0.48082310  1
  O  O24  1  0.65040966  0.88072587  0.09031964  1
  O  O25  1  0.65044202  0.38137419  0.58949450  1
  O  O26  1  0.84959034  0.11927413  0.09031964  1
  O  O27  1  0.84955798  0.61862581  0.58949450  1
  O  O28  1  0.34947922  0.11914998  0.90966787  1
  O  O29  1  0.35172726  0.61806715  0.40996862  1
  O  O30  1  0.15052078  0.88085002  0.90966787  1
  O  O31  1  0.14827274  0.38193285  0.40996862  1
  O  O32  1  0.82413780  0.63725949  0.24638009  1
  O  O33  1  0.82340813  0.13755610  0.74535901  1
  O  O34  1  0.67586220  0.36274051  0.24638009  1
  O  O35  1  0.67659187  0.86244390  0.74535901  1
  O  O36  1  0.17626743  0.36278827  0.75442019  1
  O  O37  1  0.17664149  0.86234103  0.25463513  1
  O  O38  1  0.32373257  0.63721173  0.75442019  1
  O  O39  1  0.32335851  0.13765897  0.25463513  1
