# generated using pymatgen
data_Ca4MnFe11Si8(HO9)4
_symmetry_space_group_name_H-M   'P 1'
_cell_length_a   5.87384740
_cell_length_b   8.94963265
_cell_length_c   13.20584990
_cell_angle_alpha   89.98811142
_cell_angle_beta   90.00000000
_cell_angle_gamma   90.00000000
_symmetry_Int_Tables_number   1
_chemical_formula_structural   Ca4MnFe11Si8(HO9)4
_chemical_formula_sum   'Ca4 Mn1 Fe11 Si8 H4 O36'
_cell_volume   694.21535649
_cell_formula_units_Z   1
loop_
 _symmetry_equiv_pos_site_id
 _symmetry_equiv_pos_as_xyz
  1  'x, y, z'
loop_
 _atom_site_type_symbol
 _atom_site_label
 _atom_site_symmetry_multiplicity
 _atom_site_fract_x
 _atom_site_fract_y
 _atom_site_fract_z
 _atom_site_occupancy
  Ca  Ca0  1  0.75000000  0.13147564  0.68666020  1
  Ca  Ca1  1  0.75000000  0.36844663  0.18642900  1
  Ca  Ca2  1  0.25000000  0.86906894  0.31291557  1
  Ca  Ca3  1  0.25000000  0.63014712  0.81309836  1
  Mn  Mn4  1  0.25000000  0.76118543  0.55982359  1
  Fe  Fe5  1  0.01295171  0.44842695  0.60997450  1
  Fe  Fe6  1  0.48678830  0.05171566  0.10965074  1
  Fe  Fe7  1  0.51206303  0.54982965  0.38958328  1
  Fe  Fe8  1  0.98798904  0.94976739  0.88992977  1
  Fe  Fe9  1  0.98793697  0.54982965  0.38958328  1
  Fe  Fe10  1  0.51201096  0.94976739  0.88992977  1
  Fe  Fe11  1  0.48704829  0.44842695  0.60997450  1
  Fe  Fe12  1  0.01321170  0.05171566  0.10965074  1
  Fe  Fe13  1  0.25000000  0.74344341  0.05874414  1
  Fe  Fe14  1  0.75000000  0.24022888  0.44129159  1
  Fe  Fe15  1  0.75000000  0.26012216  0.94150658  1
  Si  Si16  1  0.25000000  0.13309069  0.54120002  1
  Si  Si17  1  0.25000000  0.36900119  0.04119935  1
  Si  Si18  1  0.75000000  0.86908933  0.45863515  1
  Si  Si19  1  0.75000000  0.63053197  0.95950488  1
  Si  Si20  1  0.25000000  0.27233239  0.82188133  1
  Si  Si21  1  0.25000000  0.22733584  0.32179617  1
  Si  Si22  1  0.75000000  0.72680378  0.17842343  1
  Si  Si23  1  0.75000000  0.77238327  0.67886141  1
  H  H24  1  0.75000000  0.43387720  0.77121884  1
  H  H25  1  0.75000000  0.06615369  0.27109118  1
  H  H26  1  0.25000000  0.56574574  0.22831171  1
  H  H27  1  0.25000000  0.93516436  0.72894988  1
  O  O28  1  0.01549833  0.22897157  0.56386480  1
  O  O29  1  0.48361774  0.27144920  0.06405760  1
  O  O30  1  0.51675789  0.77229781  0.43501607  1
  O  O31  1  0.98472746  0.72724644  0.93637685  1
  O  O32  1  0.98324211  0.77229781  0.43501607  1
  O  O33  1  0.51527254  0.72724644  0.93637685  1
  O  O34  1  0.48450167  0.22897157  0.56386480  1
  O  O35  1  0.01638226  0.27144920  0.06405760  1
  O  O36  1  0.25000000  0.39070586  0.72479672  1
  O  O37  1  0.25000000  0.10858112  0.22494019  1
  O  O38  1  0.75000000  0.60874298  0.27532199  1
  O  O39  1  0.75000000  0.89112535  0.77537305  1
  O  O40  1  0.01711359  0.17004739  0.82940372  1
  O  O41  1  0.48302115  0.32950448  0.32914616  1
  O  O42  1  0.51595803  0.82892066  0.17020476  1
  O  O43  1  0.98239965  0.66950747  0.67133746  1
  O  O44  1  0.98404197  0.82892066  0.17020476  1
  O  O45  1  0.51760035  0.66950747  0.67133746  1
  O  O46  1  0.48288641  0.17004739  0.82940372  1
  O  O47  1  0.01697885  0.32950448  0.32914616  1
  O  O48  1  0.75000000  0.47464345  0.89825290  1
  O  O49  1  0.75000000  0.02567497  0.39811406  1
  O  O50  1  0.25000000  0.52358861  0.10290191  1
  O  O51  1  0.25000000  0.97987077  0.60479197  1
  O  O52  1  0.75000000  0.46895287  0.49100170  1
  O  O53  1  0.75000000  0.03145658  0.99080144  1
  O  O54  1  0.25000000  0.52596890  0.50752829  1
  O  O55  1  0.25000000  0.97216126  0.00801030  1
  O  O56  1  0.75000000  0.39101840  0.70154804  1
  O  O57  1  0.75000000  0.10824450  0.20117659  1
  O  O58  1  0.25000000  0.60920906  0.29809649  1
  O  O59  1  0.25000000  0.89032966  0.79836378  1
  O  O60  1  0.25000000  0.39832076  0.91583123  1
  O  O61  1  0.25000000  0.10167476  0.41617841  1
  O  O62  1  0.75000000  0.60162424  0.08433619  1
  O  O63  1  0.75000000  0.89710894  0.58400098  1
