# generated using pymatgen
data_BaSrHf2O6
_symmetry_space_group_name_H-M   'P 1'
_cell_length_a   5.88594277
_cell_length_b   5.88594277
_cell_length_c   5.90410290
_cell_angle_alpha   60.10170247
_cell_angle_beta   60.10170247
_cell_angle_gamma   90.00000000
_symmetry_Int_Tables_number   1
_chemical_formula_structural   BaSrHf2O6
_chemical_formula_sum   'Ba1 Sr1 Hf2 O6'
_cell_volume   145.07773362
_cell_formula_units_Z   1
loop_
 _symmetry_equiv_pos_site_id
 _symmetry_equiv_pos_as_xyz
  1  'x, y, z'
loop_
 _atom_site_type_symbol
 _atom_site_label
 _atom_site_symmetry_multiplicity
 _atom_site_fract_x
 _atom_site_fract_y
 _atom_site_fract_z
 _atom_site_occupancy
  Ba  Ba0  1  0.25000000  0.75000000  0.50000000  1
  Sr  Sr1  1  0.75000000  0.25000000  0.50000000  1
  Hf  Hf2  1  0.50000000  0.50000000  -0.00000000  1
  Hf  Hf3  1  0.00000000  0.00000000  -0.00000000  1
  O  O4  1  0.72369511  0.78086822  0.99543667  1
  O  O5  1  0.28086822  0.22369511  0.99543667  1
  O  O6  1  0.77630489  0.27630489  0.00456333  1
  O  O7  1  0.21913178  0.71913178  0.00456333  1
  O  O8  1  0.25000000  0.25000000  0.50000000  1
  O  O9  1  0.75000000  0.75000000  0.50000000  1
