# generated using pymatgen
data_CaLaNbCoO6
_symmetry_space_group_name_H-M   'P 1'
_cell_length_a   5.59784782
_cell_length_b   5.73439530
_cell_length_c   7.90117501
_cell_angle_alpha   90.00000000
_cell_angle_beta   89.84906711
_cell_angle_gamma   90.00000000
_symmetry_Int_Tables_number   1
_chemical_formula_structural   CaLaNbCoO6
_chemical_formula_sum   'Ca2 La2 Nb2 Co2 O12'
_cell_volume   253.62898898
_cell_formula_units_Z   2
loop_
 _symmetry_equiv_pos_site_id
 _symmetry_equiv_pos_as_xyz
  1  'x, y, z'
loop_
 _atom_site_type_symbol
 _atom_site_label
 _atom_site_symmetry_multiplicity
 _atom_site_fract_x
 _atom_site_fract_y
 _atom_site_fract_z
 _atom_site_occupancy
  Ca  Ca0  1  0.48892736  0.54979431  0.25083893  1
  Ca  Ca1  1  0.98892736  0.95020569  0.75083893  1
  La  La2  1  0.51020668  0.45316215  0.74881094  1
  La  La3  1  0.01020668  0.04683785  0.24881094  1
  Nb  Nb4  1  0.00003681  0.50291822  0.49841761  1
  Nb  Nb5  1  0.50003681  0.99708178  0.99841761  1
  Co  Co6  1  0.00075994  0.50024207  -0.00031251  1
  Co  Co7  1  0.50075994  -0.00024207  0.49968749  1
  O  O8  1  0.29366102  0.30450190  0.45257095  1
  O  O9  1  0.79366102  0.19549810  0.95257095  1
  O  O10  1  0.70838675  0.70276198  0.54690098  1
  O  O11  1  0.20838675  0.79723802  0.04690098  1
  O  O12  1  0.19263576  0.78879356  0.44957460  1
  O  O13  1  0.69263576  0.71120644  0.94957460  1
  O  O14  1  0.81116233  0.21530541  0.55297709  1
  O  O15  1  0.31116233  0.28469459  0.05297709  1
  O  O16  1  0.59083125  0.96727793  0.24630342  1
  O  O17  1  0.09083125  0.53272207  0.74630342  1
  O  O18  1  0.40339210  0.02793503  0.75391799  1
  O  O19  1  0.90339210  0.47206497  0.25391799  1
