# generated using pymatgen
data_BaSrSi4(NO)4
_symmetry_space_group_name_H-M   'P 1'
_cell_length_a   7.34922472
_cell_length_b   7.39638824
_cell_length_c   7.44849072
_cell_angle_alpha   87.99005685
_cell_angle_beta   76.70275549
_cell_angle_gamma   83.39359202
_symmetry_Int_Tables_number   1
_chemical_formula_structural   BaSrSi4(NO)4
_chemical_formula_sum   'Ba2 Sr2 Si8 N8 O8'
_cell_volume   391.39611604
_cell_formula_units_Z   2
loop_
 _symmetry_equiv_pos_site_id
 _symmetry_equiv_pos_as_xyz
  1  'x, y, z'
loop_
 _atom_site_type_symbol
 _atom_site_label
 _atom_site_symmetry_multiplicity
 _atom_site_fract_x
 _atom_site_fract_y
 _atom_site_fract_z
 _atom_site_occupancy
  Ba  Ba0  1  0.70414842  0.82157752  0.79052944  1
  Ba  Ba1  1  0.70832223  0.31407902  0.75827835  1
  Sr  Sr2  1  0.21232358  0.81255296  0.74930471  1
  Sr  Sr3  1  0.20240943  0.31385449  0.78450415  1
  Si  Si4  1  0.37397864  0.40139287  0.21434936  1
  Si  Si5  1  0.57912972  0.64615570  0.40617484  1
  Si  Si6  1  0.98959963  0.55412137  0.41473400  1
  Si  Si7  1  0.78679617  0.30429372  0.21664628  1
  Si  Si8  1  0.27888659  0.80745378  0.21489203  1
  Si  Si9  1  0.08350716  0.14664855  0.41393415  1
  Si  Si10  1  0.87793253  0.89865034  0.21927811  1
  Si  Si11  1  0.48627140  0.05634947  0.41110950  1
  N  N12  1  0.20562457  0.59020049  0.27402190  1
  N  N13  1  0.30841753  0.21957113  0.36729225  1
  N  N14  1  0.43084967  0.83953192  0.36165630  1
  N  N15  1  0.58379077  0.46360769  0.26177506  1
  N  N16  1  0.80698815  0.71476215  0.37117543  1
  N  N17  1  0.92903259  0.33692141  0.37283172  1
  N  N18  1  0.70606108  0.08804366  0.27232590  1
  N  N19  1  0.07799973  0.96275866  0.27901497  1
  O  O20  1  0.99633015  0.56012607  0.63496696  1
  O  O21  1  0.90358971  0.31451927  0.00603148  1
  O  O22  1  0.37660117  0.82357179  0.99891459  1
  O  O23  1  0.47910012  0.06579398  0.63361322  1
  O  O24  1  0.50709760  0.59025360  0.62486370  1
  O  O25  1  0.92581035  0.83770706  0.00616807  1
  O  O26  1  0.39943979  0.34243935  0.00288122  1
  O  O27  1  0.03016151  0.08836199  0.63393232  1
