# generated using pymatgen
data_BaSr3Yb2(ReO6)2
_symmetry_space_group_name_H-M   'P 1'
_cell_length_a   5.88859279
_cell_length_b   5.88859279
_cell_length_c   10.20739077
_cell_angle_alpha   73.23496682
_cell_angle_beta   90.00000000
_cell_angle_gamma   120.00000000
_symmetry_Int_Tables_number   1
_chemical_formula_structural   BaSr3Yb2(ReO6)2
_chemical_formula_sum   'Ba1 Sr3 Yb2 Re2 O12'
_cell_volume   289.02468907
_cell_formula_units_Z   1
loop_
 _symmetry_equiv_pos_site_id
 _symmetry_equiv_pos_as_xyz
  1  'x, y, z'
loop_
 _atom_site_type_symbol
 _atom_site_label
 _atom_site_symmetry_multiplicity
 _atom_site_fract_x
 _atom_site_fract_y
 _atom_site_fract_z
 _atom_site_occupancy
  Ba  Ba0  1  0.62497645  0.24995290  0.12507066  1
  Sr  Sr1  1  0.12500117  0.25000235  0.62499648  1
  Sr  Sr2  1  0.87481744  0.74963488  0.37554768  1
  Sr  Sr3  1  0.37518474  0.75036949  0.87444577  1
  Yb  Yb4  1  0.24988177  0.49976353  0.25035470  1
  Yb  Yb5  1  0.75011264  0.50022529  0.74966207  1
  Re  Re6  1  0.00021655  0.00043310  0.99935035  1
  Re  Re7  1  0.49977334  0.99954668  0.50067998  1
  O  O8  1  0.11607106  0.23214213  0.11585902  1
  O  O9  1  0.61614112  0.23228225  0.61636027  1
  O  O10  1  0.38294095  0.23211909  0.38493996  1
  O  O11  1  0.88485491  0.23234023  0.88280486  1
  O  O12  1  0.65199885  0.76806991  0.11585902  1
  O  O13  1  0.15135749  0.76749861  0.61636027  1
  O  O14  1  0.38294095  0.76588190  0.38493996  1
  O  O15  1  0.88485491  0.76970983  0.88280486  1
  O  O16  1  0.11607106  0.76806991  0.11585902  1
  O  O17  1  0.61614112  0.76749861  0.61636027  1
  O  O18  1  0.84917814  0.23211909  0.38493996  1
  O  O19  1  0.34748531  0.23234023  0.88280486  1
