# generated using pymatgen
data_CaLaGa3S7
_symmetry_space_group_name_H-M   'P 1'
_cell_length_a   6.25553321
_cell_length_b   9.65721287
_cell_length_c   9.66408539
_cell_angle_alpha   90.00000000
_cell_angle_beta   90.00000000
_cell_angle_gamma   89.68810662
_symmetry_Int_Tables_number   1
_chemical_formula_structural   CaLaGa3S7
_chemical_formula_sum   'Ca2 La2 Ga6 S14'
_cell_volume   583.80856518
_cell_formula_units_Z   2
loop_
 _symmetry_equiv_pos_site_id
 _symmetry_equiv_pos_as_xyz
  1  'x, y, z'
loop_
 _atom_site_type_symbol
 _atom_site_label
 _atom_site_symmetry_multiplicity
 _atom_site_fract_x
 _atom_site_fract_y
 _atom_site_fract_z
 _atom_site_occupancy
  Ca  Ca0  1  0.51372919  0.34177081  0.84453245  1
  Ca  Ca1  1  0.48627081  0.15822919  0.34453245  1
  La  La2  1  0.51357426  0.65275089  0.15569337  1
  La  La3  1  0.48642574  0.84724911  0.65569337  1
  Ga  Ga4  1  0.00026104  0.49675266  0.49982038  1
  Ga  Ga5  1  0.99973896  0.00324734  0.99982038  1
  Ga  Ga6  1  0.95662666  0.85084503  0.35033592  1
  Ga  Ga7  1  0.04337334  0.64915497  0.85033592  1
  Ga  Ga8  1  0.95894129  0.15060790  0.65022617  1
  Ga  Ga9  1  0.04105871  0.34939210  0.15022617  1
  S  S10  1  0.31326304  0.13883921  0.64209134  1
  S  S11  1  0.68673696  0.36116079  0.14209134  1
  S  S12  1  0.31193574  0.85567567  0.35847164  1
  S  S13  1  0.68806426  0.64432433  0.85847164  1
  S  S14  1  0.20799637  0.49763237  0.99764050  1
  S  S15  1  0.79200363  0.00236763  0.49764050  1
  S  S16  1  0.23868143  0.42080184  0.33915587  1
  S  S17  1  0.76131857  0.07919816  0.83915587  1
  S  S18  1  0.23499530  0.58452084  0.65764824  1
  S  S19  1  0.76500470  0.91547916  0.15764824  1
  S  S20  1  0.76202577  0.65987897  0.42045187  1
  S  S21  1  0.23797423  0.84012103  0.92045187  1
  S  S22  1  0.76453518  0.34149943  0.58393226  1
  S  S23  1  0.23546482  0.15850057  0.08393226  1
