# generated using pymatgen
data_BaSrPdF6
_symmetry_space_group_name_H-M   'P 1'
_cell_length_a   6.09348698
_cell_length_b   6.06589023
_cell_length_c   9.10617862
_cell_angle_alpha   90.00000000
_cell_angle_beta   70.45301170
_cell_angle_gamma   90.00000000
_symmetry_Int_Tables_number   1
_chemical_formula_structural   BaSrPdF6
_chemical_formula_sum   'Ba2 Sr2 Pd2 F12'
_cell_volume   317.18808268
_cell_formula_units_Z   2
loop_
 _symmetry_equiv_pos_site_id
 _symmetry_equiv_pos_as_xyz
  1  'x, y, z'
loop_
 _atom_site_type_symbol
 _atom_site_label
 _atom_site_symmetry_multiplicity
 _atom_site_fract_x
 _atom_site_fract_y
 _atom_site_fract_z
 _atom_site_occupancy
  Ba  Ba0  1  0.66386592  0.50000000  0.67226817  1
  Ba  Ba1  1  0.16386592  0.00000000  0.67226817  1
  Sr  Sr2  1  0.33970053  0.50000000  0.32059894  1
  Sr  Sr3  1  0.83970053  -0.00000000  0.32059894  1
  Pd  Pd4  1  0.99585132  0.50000000  0.00829736  1
  Pd  Pd5  1  0.49585132  0.00000000  0.00829736  1
  F  F6  1  0.50274475  0.75277321  0.48622878  1
  F  F7  1  0.01102647  0.24722679  0.48622878  1
  F  F8  1  0.51102647  0.25277321  0.48622878  1
  F  F9  1  0.00274475  0.74722679  0.48622878  1
  F  F10  1  0.91880854  0.65891424  0.83817414  1
  F  F11  1  0.24301732  0.34108576  0.83817414  1
  F  F12  1  0.74301732  0.15891424  0.83817414  1
  F  F13  1  0.41880854  0.84108576  0.83817414  1
  F  F14  1  0.07991868  0.33880429  0.17501484  1
  F  F15  1  0.74506647  0.66119571  0.17501484  1
  F  F16  1  0.24506647  0.83880429  0.17501484  1
  F  F17  1  0.57991868  0.16119571  0.17501484  1
