# generated using pymatgen
data_Fe3O5F
_symmetry_space_group_name_H-M   'P 1'
_cell_length_a   4.63895523
_cell_length_b   7.59296164
_cell_length_c   5.53528087
_cell_angle_alpha   94.56376976
_cell_angle_beta   90.00000000
_cell_angle_gamma   90.00000000
_symmetry_Int_Tables_number   1
_chemical_formula_structural   Fe3O5F
_chemical_formula_sum   'Fe6 O10 F2'
_cell_volume   194.35328471
_cell_formula_units_Z   2
loop_
 _symmetry_equiv_pos_site_id
 _symmetry_equiv_pos_as_xyz
  1  'x, y, z'
loop_
 _atom_site_type_symbol
 _atom_site_label
 _atom_site_symmetry_multiplicity
 _atom_site_fract_x
 _atom_site_fract_y
 _atom_site_fract_z
 _atom_site_occupancy
  Fe  Fe0  1  0.52034488  0.67002091  0.15865909  1
  Fe  Fe1  1  0.49023031  0.99662552  0.49142656  1
  Fe  Fe2  1  0.48697269  0.34367893  0.83083563  1
  Fe  Fe3  1  0.99023031  0.67004148  0.67524044  1
  Fe  Fe4  1  0.98697269  0.32298707  0.33583137  1
  Fe  Fe5  1  0.02034488  0.99664509  0.00800791  1
  O  O6  1  0.80840585  0.43643928  0.62791692  1
  O  O7  1  0.80926023  0.78211092  0.96389033  1
  O  O8  1  0.80366993  0.09284935  0.29218784  1
  O  O9  1  0.69160674  0.76437177  0.46200227  1
  O  O10  1  0.69189833  0.44047280  0.12741775  1
  O  O11  1  0.30366993  0.57381765  0.87447916  1
  O  O12  1  0.30840585  0.23022672  0.53875008  1
  O  O13  1  0.30926023  0.88455508  0.20277667  1
  O  O14  1  0.19189833  0.22619420  0.03924925  1
  O  O15  1  0.19160674  0.90229523  0.70466373  1
  F  F16  1  0.69761002  0.10382873  0.79808172  1
  F  F17  1  0.19761002  0.56283727  0.36858428  1
