# generated using pymatgen
data_BaSr4(FeO2)5
_symmetry_space_group_name_H-M   'P 1'
_cell_length_a   4.07347702
_cell_length_b   4.07347702
_cell_length_c   17.78713980
_cell_angle_alpha   90.00000000
_cell_angle_beta   90.00000000
_cell_angle_gamma   90.00000000
_symmetry_Int_Tables_number   1
_chemical_formula_structural   BaSr4(FeO2)5
_chemical_formula_sum   'Ba1 Sr4 Fe5 O10'
_cell_volume   295.14583551
_cell_formula_units_Z   1
loop_
 _symmetry_equiv_pos_site_id
 _symmetry_equiv_pos_as_xyz
  1  'x, y, z'
loop_
 _atom_site_type_symbol
 _atom_site_label
 _atom_site_symmetry_multiplicity
 _atom_site_fract_x
 _atom_site_fract_y
 _atom_site_fract_z
 _atom_site_occupancy
  Ba  Ba0  1  0.50000000  0.50000000  0.10000000  1
  Sr  Sr1  1  0.50000000  0.50000000  0.30503813  1
  Sr  Sr2  1  0.50000000  0.50000000  0.50105546  1
  Sr  Sr3  1  0.50000000  0.50000000  0.69894454  1
  Sr  Sr4  1  0.50000000  0.50000000  0.89496187  1
  Fe  Fe5  1  -0.00000000  0.00000000  0.99024624  1
  Fe  Fe6  1  0.00000000  -0.00000000  0.20975376  1
  Fe  Fe7  1  0.00000000  0.00000000  0.40264710  1
  Fe  Fe8  1  0.00000000  0.00000000  0.60000000  1
  Fe  Fe9  1  -0.00000000  -0.00000000  0.79735290  1
  O  O10  1  -0.00000000  0.50000000  0.99051375  1
  O  O11  1  0.00000000  0.50000000  0.20948625  1
  O  O12  1  0.00000000  0.50000000  0.40355662  1
  O  O13  1  -0.00000000  0.50000000  0.60000000  1
  O  O14  1  -0.00000000  0.50000000  0.79644338  1
  O  O15  1  0.50000000  -0.00000000  0.99051375  1
  O  O16  1  0.50000000  0.00000000  0.20948625  1
  O  O17  1  0.50000000  0.00000000  0.40355662  1
  O  O18  1  0.50000000  0.00000000  0.60000000  1
  O  O19  1  0.50000000  0.00000000  0.79644338  1
