# generated using pymatgen
data_Cd8Cu7P30
_symmetry_space_group_name_H-M   'P 1'
_cell_length_a   7.42472869
_cell_length_b   7.43878502
_cell_length_c   18.23281774
_cell_angle_alpha   89.98257617
_cell_angle_beta   89.67620284
_cell_angle_gamma   119.94056202
_symmetry_Int_Tables_number   1
_chemical_formula_structural   Cd8Cu7P30
_chemical_formula_sum   'Cd8 Cu7 P30'
_cell_volume   872.60372643
_cell_formula_units_Z   1
loop_
 _symmetry_equiv_pos_site_id
 _symmetry_equiv_pos_as_xyz
  1  'x, y, z'
loop_
 _atom_site_type_symbol
 _atom_site_label
 _atom_site_symmetry_multiplicity
 _atom_site_fract_x
 _atom_site_fract_y
 _atom_site_fract_z
 _atom_site_occupancy
  Cd  Cd0  1  0.12919264  0.25634519  0.46416123  1
  Cd  Cd1  1  0.79521598  0.58869100  0.80403870  1
  Cd  Cd2  1  0.34689775  0.68514691  0.25534112  1
  Cd  Cd3  1  0.00101973  0.00074003  0.59477347  1
  Cd  Cd4  1  0.65971625  0.31993728  0.93215044  1
  Cd  Cd5  1  0.08287363  0.54143671  0.13351642  1
  Cd  Cd6  1  0.74588592  0.87262820  0.46769575  1
  Cd  Cd7  1  0.41300812  0.20581654  0.80224011  1
  Cu  Cu8  1  0.33202931  0.66809127  0.66742353  1
  Cu  Cu9  1  0.99742297  0.99990586  0.00067930  1
  Cu  Cu10  1  0.66505869  0.33376233  0.33326722  1
  Cu  Cu11  1  0.48344401  0.50347809  0.12886083  1
  Cu  Cu12  1  0.14881739  0.85227046  0.46255349  1
  Cu  Cu13  1  0.81413959  0.18556350  0.79686467  1
  Cu  Cu14  1  0.48008203  0.97334303  0.13098904  1
  P  P15  1  0.16894370  0.34061717  0.95759239  1
  P  P16  1  0.83808329  0.67544413  0.29081170  1
  P  P17  1  0.50394433  0.00901811  0.62420196  1
  P  P18  1  0.65499072  0.82915926  0.96029301  1
  P  P19  1  0.32485674  0.16135895  0.28898942  1
  P  P20  1  0.99093683  0.49580634  0.62422097  1
  P  P21  1  0.33398291  0.66830270  0.79588535  1
  P  P22  1  0.99402338  0.99631876  0.12784793  1
  P  P23  1  0.66696998  0.33399899  0.46136078  1
  P  P24  1  0.17080270  0.82992857  0.96039118  1
  P  P25  1  0.83525358  0.16354421  0.28830252  1
  P  P26  1  0.50284433  0.49650252  0.62467519  1
  P  P27  1  0.48723458  0.50720771  0.00271235  1
  P  P28  1  0.15736004  0.84394498  0.33551175  1
  P  P29  1  0.82250076  0.17626927  0.66959684  1
  P  P30  1  0.65571558  0.84500974  0.83851032  1
  P  P31  1  0.32133107  0.15852436  0.16751479  1
  P  P32  1  0.99020282  0.51037555  0.50251104  1
  P  P33  1  0.15632214  0.34390946  0.83619678  1
  P  P34  1  0.82159944  0.67422262  0.16977820  1
  P  P35  1  0.49000027  0.01075803  0.50281770  1
  P  P36  1  0.17575003  0.82729211  0.83990085  1
  P  P37  1  0.82027165  0.14696380  0.16786047  1
  P  P38  1  0.50703022  0.49263370  0.50414424  1
  P  P39  1  0.48661424  0.97737092  0.00609642  1
  P  P40  1  0.16056746  0.32334800  0.32449180  1
  P  P41  1  0.82489089  0.65191250  0.66380851  1
  P  P42  1  0.01183079  0.50565854  0.99642387  1
  P  P43  1  0.68318021  0.84326836  0.32939537  1
  P  P44  1  0.34716129  0.17417423  0.66360095  1
