# generated using pymatgen
data_Ba4NdY(CuO2)8
_symmetry_space_group_name_H-M   'P 1'
_cell_length_a   3.92689401
_cell_length_b   3.92237393
_cell_length_c   27.54331395
_cell_angle_alpha   90.00000000
_cell_angle_beta   90.00000000
_cell_angle_gamma   90.00000000
_symmetry_Int_Tables_number   1
_chemical_formula_structural   Ba4NdY(CuO2)8
_chemical_formula_sum   'Ba4 Nd1 Y1 Cu8 O16'
_cell_volume   424.24268779
_cell_formula_units_Z   1
loop_
 _symmetry_equiv_pos_site_id
 _symmetry_equiv_pos_as_xyz
  1  'x, y, z'
loop_
 _atom_site_type_symbol
 _atom_site_label
 _atom_site_symmetry_multiplicity
 _atom_site_fract_x
 _atom_site_fract_y
 _atom_site_fract_z
 _atom_site_occupancy
  Ba  Ba0  1  0.50000000  0.50000000  0.13648636  1
  Ba  Ba1  1  0.50000000  -0.00000000  0.63660130  1
  Ba  Ba2  1  0.50000000  -0.00000000  0.36339870  1
  Ba  Ba3  1  0.50000000  0.50000000  0.86351364  1
  Nd  Nd4  1  0.50000000  -0.00000000  0.50000000  1
  Y  Y5  1  0.50000000  0.50000000  0.00000000  1
  Cu  Cu6  1  -0.00000000  0.00000000  0.06237634  1
  Cu  Cu7  1  -0.00000000  0.50000000  0.56315002  1
  Cu  Cu8  1  0.00000000  0.50000000  0.43684998  1
  Cu  Cu9  1  -0.00000000  0.00000000  0.93762366  1
  Cu  Cu10  1  -0.00000000  0.00000000  0.21257113  1
  Cu  Cu11  1  0.00000000  0.50000000  0.71258014  1
  Cu  Cu12  1  -0.00000000  0.50000000  0.28741986  1
  Cu  Cu13  1  -0.00000000  -0.00000000  0.78742887  1
  O  O14  1  0.00000000  0.50000000  0.21855082  1
  O  O15  1  0.00000000  -0.00000000  0.71858828  1
  O  O16  1  -0.00000000  -0.00000000  0.28141172  1
  O  O17  1  -0.00000000  0.50000000  0.78144918  1
  O  O18  1  0.00000000  0.50000000  0.05262966  1
  O  O19  1  0.00000000  -0.00000000  0.55497310  1
  O  O20  1  0.00000000  -0.00000000  0.44502690  1
  O  O21  1  -0.00000000  0.50000000  0.94737034  1
  O  O22  1  0.00000000  -0.00000000  0.14552937  1
  O  O23  1  0.00000000  0.50000000  0.64567504  1
  O  O24  1  -0.00000000  0.50000000  0.35432496  1
  O  O25  1  -0.00000000  -0.00000000  0.85447063  1
  O  O26  1  0.50000000  -0.00000000  0.05270003  1
  O  O27  1  0.50000000  0.50000000  0.55500099  1
  O  O28  1  0.50000000  0.50000000  0.44499901  1
  O  O29  1  0.50000000  -0.00000000  0.94729997  1
