# generated using pymatgen
data_BaLaNdMn3O9
_symmetry_space_group_name_H-M   'P 1'
_cell_length_a   5.62321632
_cell_length_b   13.54033446
_cell_length_c   5.62321688
_cell_angle_alpha   90.00000000
_cell_angle_beta   60.00000291
_cell_angle_gamma   90.00000000
_symmetry_Int_Tables_number   1
_chemical_formula_structural   BaLaNdMn3O9
_chemical_formula_sum   'Ba2 La2 Nd2 Mn6 O18'
_cell_volume   370.79140706
_cell_formula_units_Z   2
loop_
 _symmetry_equiv_pos_site_id
 _symmetry_equiv_pos_as_xyz
  1  'x, y, z'
loop_
 _atom_site_type_symbol
 _atom_site_label
 _atom_site_symmetry_multiplicity
 _atom_site_fract_x
 _atom_site_fract_y
 _atom_site_fract_z
 _atom_site_occupancy
  Ba  Ba0  1  -0.00000000  0.25000000  -0.00000000  1
  Ba  Ba1  1  -0.00000000  0.75000000  -0.00000000  1
  La  La2  1  0.66666700  0.08155158  0.66666700  1
  La  La3  1  0.33333300  0.41844842  0.33333300  1
  Nd  Nd4  1  0.66666700  0.58140773  0.66666700  1
  Nd  Nd5  1  0.33333300  0.91859227  0.33333300  1
  Mn  Mn6  1  0.66666700  0.83286705  0.66666700  1
  Mn  Mn7  1  -0.00000000  0.50085594  -0.00000000  1
  Mn  Mn8  1  0.33333300  0.16651689  0.33333300  1
  Mn  Mn9  1  0.66666700  0.33348311  0.66666700  1
  Mn  Mn10  1  -0.00000000  0.99914406  -0.00000000  1
  Mn  Mn11  1  0.33333300  0.66713295  0.33333300  1
  O  O12  1  0.65781795  0.57713104  0.23816668  1
  O  O13  1  0.34218205  0.92286896  0.89598363  1
  O  O14  1  1.00000000  0.25000000  0.52237020  1
  O  O15  1  0.10401637  0.57713104  0.65781795  1
  O  O16  1  0.76183332  0.92286896  0.34218205  1
  O  O17  1  0.47762980  0.25000000  1.00000000  1
  O  O18  1  0.23816668  0.57713104  0.10401637  1
  O  O19  1  0.89598363  0.92286896  0.76183332  1
  O  O20  1  0.52237020  0.25000000  0.47762980  1
  O  O21  1  0.88813129  0.42461522  0.34308310  1
  O  O22  1  0.52457080  0.75000000  0.00000000  1
  O  O23  1  0.23121540  0.07538478  0.65691690  1
  O  O24  1  0.76878460  0.42461522  0.88813129  1
  O  O25  1  0.47542920  0.75000000  0.52457080  1
  O  O26  1  0.11186871  0.07538478  0.23121540  1
  O  O27  1  0.34308310  0.42461522  0.76878460  1
  O  O28  1  0.00000000  0.75000000  0.47542920  1
  O  O29  1  0.65691690  0.07538478  0.11186871  1
