# generated using pymatgen
data_Cd15As9Cl2O37
_symmetry_space_group_name_H-M   'P 1'
_cell_length_a   12.20608983
_cell_length_b   12.20588954
_cell_length_c   12.20601926
_cell_angle_alpha   93.61693604
_cell_angle_beta   86.38165153
_cell_angle_gamma   86.38231021
_symmetry_Int_Tables_number   1
_chemical_formula_structural   Cd15As9Cl2O37
_chemical_formula_sum   'Cd30 As18 Cl4 O74'
_cell_volume   1807.17560128
_cell_formula_units_Z   2
loop_
 _symmetry_equiv_pos_site_id
 _symmetry_equiv_pos_as_xyz
  1  'x, y, z'
loop_
 _atom_site_type_symbol
 _atom_site_label
 _atom_site_symmetry_multiplicity
 _atom_site_fract_x
 _atom_site_fract_y
 _atom_site_fract_z
 _atom_site_occupancy
  Cd  Cd0  1  0.50077873  0.83462149  0.16548526  1
  Cd  Cd1  1  0.16538201  0.16548832  0.49922086  1
  Cd  Cd2  1  0.83451337  0.49922628  0.83461333  1
  Cd  Cd3  1  0.66875565  0.00168269  0.66642338  1
  Cd  Cd4  1  0.33357939  0.33124424  0.00168630  1
  Cd  Cd5  1  0.99831881  0.66641832  0.33124809  1
  Cd  Cd6  1  0.83215263  0.83410772  0.49872067  1
  Cd  Cd7  1  0.50128499  0.16784468  0.83411214  1
  Cd  Cd8  1  0.16588827  0.49871151  0.16784774  1
  Cd  Cd9  1  0.66834819  0.66691468  0.00208491  1
  Cd  Cd10  1  0.33308661  0.00208976  0.33164770  1
  Cd  Cd11  1  0.99791135  0.33165031  0.66690962  1
  Cd  Cd12  1  0.74234377  0.01570058  0.97916814  1
  Cd  Cd13  1  0.43074728  0.35520108  0.32425144  1
  Cd  Cd14  1  0.07690468  0.68059463  0.64472319  1
  Cd  Cd15  1  0.35527400  0.92309303  0.68059772  1
  Cd  Cd16  1  0.02082707  0.25764980  0.01569884  1
  Cd  Cd17  1  0.67574175  0.56924651  0.35520492  1
  Cd  Cd18  1  0.64479044  0.32425898  0.56923941  1
  Cd  Cd19  1  0.31940072  0.64472895  0.92308634  1
  Cd  Cd20  1  0.98429525  0.97917414  0.25764692  1
  Cd  Cd21  1  0.92432223  0.31763342  0.35416586  1
  Cd  Cd22  1  0.58976232  0.65273837  0.68860981  1
  Cd  Cd23  1  0.23591972  0.97813192  0.00908156  1
  Cd  Cd24  1  0.31139300  0.41023997  0.65273528  1
  Cd  Cd25  1  0.99092525  0.76408649  0.97812808  1
  Cd  Cd26  1  0.64583893  0.07568420  0.31763516  1
  Cd  Cd27  1  0.02187656  0.00907402  0.76409359  1
  Cd  Cd28  1  0.68237075  0.35415986  0.07568708  1
  Cd  Cd29  1  0.34726628  0.68860405  0.41024666  1
  As  As30  1  0.10747464  0.86997648  0.49049145  1
  As  As31  1  0.77442504  0.20198908  0.81961195  1
  As  As32  1  0.44111764  0.53576802  0.15558512  1
  As  As33  1  0.84441448  0.55887891  0.53577157  1
  As  As34  1  0.50950815  0.89252361  0.86997723  1
  As  As35  1  0.18038681  0.22557229  0.20198827  1
  As  As36  1  0.79801176  0.81961226  0.22557582  1
  As  As37  1  0.46423159  0.15558449  0.55888285  1
  As  As38  1  0.13002295  0.49049389  0.89252531  1
  As  As39  1  0.22554936  0.79756498  0.17774788  1
  As  As40  1  0.89224196  0.13134392  0.51372105  1
  As  As41  1  0.55919136  0.46335752  0.84284255  1
  As  As42  1  0.48628019  0.10776071  0.13134473  1
  As  As43  1  0.15715785  0.44081039  0.46335677  1
  As  As44  1  0.82225252  0.77445409  0.79756143  1
  As  As45  1  0.53664305  0.84284011  0.44080869  1
  As  As46  1  0.20243541  0.17774851  0.77445015  1
  As  As47  1  0.86865524  0.51372074  0.10775718  1
  Cl  Cl48  1  0.24147323  0.75852033  0.75851578  1
  Cl  Cl49  1  0.92531797  0.07467464  0.07467562  1
  Cl  Cl50  1  0.74134903  0.25865836  0.25865738  1
  Cl  Cl51  1  0.42519377  0.57481267  0.57481722  1
  O  O52  1  0.51906047  0.64279890  0.12700309  1
  O  O53  1  0.18715531  0.97549587  0.46058445  1
  O  O54  1  0.85392761  0.30919343  0.79511763  1
  O  O55  1  0.53942535  0.81284967  0.97549971  1
  O  O56  1  0.20489071  0.14607761  0.30919548  1
  O  O57  1  0.87300515  0.48094486  0.64280078  1
  O  O58  1  0.69080895  0.79511923  0.14607264  1
  O  O59  1  0.35720338  0.12700363  0.48094037  1
  O  O60  1  0.02450432  0.46058536  0.81284243  1
  O  O61  1  0.81273939  0.02413957  0.53821537  1
  O  O62  1  0.47951169  0.35783713  0.87274855  1
  O  O63  1  0.14760553  0.69053510  0.20633091  1
  O  O64  1  0.79366085  0.85238914  0.69053322  1
  O  O65  1  0.46177629  0.18725539  0.02413752  1
  O  O66  1  0.12724165  0.52048333  0.35783329  1
  O  O67  1  0.64216268  0.87274764  0.52049057  1
  O  O68  1  0.30946262  0.20633037  0.85239363  1
  O  O69  1  0.97585805  0.53821377  0.18726036  1
  O  O70  1  0.04006521  0.87818852  0.61993876  1
  O  O71  1  0.70750808  0.21022592  0.95003149  1
  O  O72  1  0.37566163  0.54339426  0.28600895  1
  O  O73  1  0.71399264  0.62433354  0.54340088  1
  O  O74  1  0.38006454  0.95993037  0.87819556  1
  O  O75  1  0.04996935  0.29248785  0.21023027  1
  O  O76  1  0.78977002  0.95003178  0.29248834  1
  O  O77  1  0.45659909  0.28600938  0.62433534  1
  O  O78  1  0.12180525  0.61993642  0.95992896  1
  O  O79  1  0.15506723  0.92553480  0.18318395  1
  O  O80  1  0.82212853  0.25985386  0.51918040  1
  O  O81  1  0.49008287  0.59222113  0.85101982  1
  O  O82  1  0.48081642  0.17787412  0.25984823  1
  O  O83  1  0.14897738  0.50992129  0.59221495  1
  O  O84  1  0.81681311  0.84493795  0.92553135  1
  O  O85  1  0.40778252  0.85102127  0.50992411  1
  O  O86  1  0.07446904  0.18318671  0.84493615  1
  O  O87  1  0.74014908  0.51918275  0.17787603  1
  O  O88  1  0.29100537  0.78993874  0.04732405  1
  O  O89  1  0.95915792  0.12310808  0.38330251  1
  O  O90  1  0.62660179  0.45514448  0.71339424  1
  O  O91  1  0.61669665  0.04084615  0.12310373  1
  O  O92  1  0.28660246  0.37340263  0.45513744  1
  O  O93  1  0.95267436  0.70899946  0.78993212  1
  O  O94  1  0.54486175  0.71339658  0.37340404  1
  O  O95  1  0.21006791  0.04732362  0.70899766  1
  O  O96  1  0.87689598  0.38330222  0.04084566  1
  O  O97  1  0.17658413  0.74111187  0.48231318  1
  O  O98  1  0.84453847  0.07347914  0.81415260  1
  O  O99  1  0.51159877  0.40779920  0.15015005  1
  O  O100  1  0.84985289  0.48839605  0.40780265  1
  O  O101  1  0.51768962  0.82341171  0.74111805  1
  O  O102  1  0.18585058  0.15545888  0.07348477  1
  O  O103  1  0.92651792  0.81415025  0.15545697  1
  O  O104  1  0.59219696  0.15014729  0.48839785  1
  O  O105  1  0.25888448  0.48231173  0.82340889  1
  O  O106  1  0.00408708  0.85641379  0.39820250  1
  O  O107  1  0.67037936  0.19117145  0.72846563  1
  O  O108  1  0.33708018  0.52292386  0.06453454  1
  O  O109  1  0.93546009  0.66291777  0.52292009  1
  O  O110  1  0.60179473  0.99591213  0.85641119  1
  O  O111  1  0.27153172  0.32962017  0.19116731  1
  O  O112  1  0.80883370  0.72846442  0.32962434  1
  O  O113  1  0.47708070  0.06453422  0.66292402  1
  O  O114  1  0.14358919  0.39820170  0.99591432  1
  O  O115  1  0.32958682  0.81040914  0.26879846  1
  O  O116  1  0.99628664  0.14216255  0.60486837  1
  O  O117  1  0.66257992  0.47691921  0.93513050  1
  O  O118  1  0.39513428  0.00371383  0.14216669  1
  O  O119  1  0.06487227  0.33742087  0.47692181  1
  O  O120  1  0.73120691  0.67041523  0.81041291  1
  O  O121  1  0.52307781  0.93513130  0.33741868  1
  O  O122  1  0.18958630  0.26879878  0.67040898  1
  O  O123  1  0.85783230  0.60486958  0.00370966  1
  O  O124  1  0.58332899  0.41666787  0.41667056  1
  O  O125  1  0.08333701  0.91666613  0.91666344  1
