# generated using pymatgen
data_Ca9Si4O17F
_symmetry_space_group_name_H-M   'P 1'
_cell_length_a   5.11797200
_cell_length_b   11.47362075
_cell_length_c   15.51805481
_cell_angle_alpha   100.70937198
_cell_angle_beta   90.00000000
_cell_angle_gamma   90.00000000
_symmetry_Int_Tables_number   1
_chemical_formula_structural   Ca9Si4O17F
_chemical_formula_sum   'Ca18 Si8 O34 F2'
_cell_volume   895.37438203
_cell_formula_units_Z   2
loop_
 _symmetry_equiv_pos_site_id
 _symmetry_equiv_pos_as_xyz
  1  'x, y, z'
loop_
 _atom_site_type_symbol
 _atom_site_label
 _atom_site_symmetry_multiplicity
 _atom_site_fract_x
 _atom_site_fract_y
 _atom_site_fract_z
 _atom_site_occupancy
  Ca  Ca0  1  0.00706307  0.37316299  0.04147724  1
  Ca  Ca1  1  0.98984585  0.62931899  0.95417435  1
  Ca  Ca2  1  0.50706307  0.12683701  0.95852276  1
  Ca  Ca3  1  0.48984585  0.87068101  0.04582565  1
  Ca  Ca4  1  0.00731534  0.44600657  0.27274155  1
  Ca  Ca5  1  0.99724913  0.55343260  0.72561311  1
  Ca  Ca6  1  0.50731534  0.05399343  0.72725845  1
  Ca  Ca7  1  0.49724913  0.94656740  0.27438689  1
  Ca  Ca8  1  0.99458744  0.75363753  0.38923048  1
  Ca  Ca9  1  0.00617629  0.24618370  0.61125533  1
  Ca  Ca10  1  0.49458744  0.74636247  0.61076952  1
  Ca  Ca11  1  0.50617629  0.25381630  0.38874467  1
  Ca  Ca12  1  0.99965583  0.49986312  0.49977746  1
  Ca  Ca13  1  0.49965583  0.00013688  0.50022254  1
  Ca  Ca14  1  0.50187233  0.63507967  0.17321976  1
  Ca  Ca15  1  0.50357449  0.36471279  0.82907476  1
  Ca  Ca16  1  0.00187233  0.86492033  0.82678024  1
  Ca  Ca17  1  0.00357449  0.13528721  0.17092524  1
  Si  Si18  1  0.42823254  0.56786734  0.38949310  1
  Si  Si19  1  0.57193315  0.43178707  0.61066849  1
  Si  Si20  1  0.92823254  0.93213266  0.61050690  1
  Si  Si21  1  0.07193315  0.06821293  0.38933151  1
  Si  Si22  1  0.42892753  0.67975813  0.83262811  1
  Si  Si23  1  0.57739662  0.32045587  0.16503243  1
  Si  Si24  1  0.92892753  0.82024187  0.16737189  1
  Si  Si25  1  0.07739662  0.17954413  0.83496757  1
  O  O26  1  0.29707663  0.61280796  0.30325932  1
  O  O27  1  0.70209534  0.38713737  0.69722854  1
  O  O28  1  0.79707663  0.88719204  0.69674068  1
  O  O29  1  0.20209534  0.11286263  0.30277146  1
  O  O30  1  0.29722210  0.65441871  0.47642736  1
  O  O31  1  0.70293284  0.34527816  0.52375253  1
  O  O32  1  0.79722210  0.84558129  0.52357264  1
  O  O33  1  0.20293284  0.15472184  0.47624747  1
  O  O34  1  0.80238662  0.72793014  0.08198093  1
  O  O35  1  0.21262262  0.26839241  0.92004892  1
  O  O36  1  0.30238662  0.77206986  0.91801907  1
  O  O37  1  0.71262262  0.23160759  0.07995108  1
  O  O38  1  0.79719764  0.78074823  0.25534581  1
  O  O39  1  0.20583497  0.21989308  0.74648259  1
  O  O40  1  0.29719764  0.71925177  0.74465419  1
  O  O41  1  0.70583497  0.28010692  0.25351741  1
  O  O42  1  0.24929091  0.82136922  0.16618403  1
  O  O43  1  0.75650717  0.18052911  0.83771554  1
  O  O44  1  0.74929091  0.67863078  0.83381597  1
  O  O45  1  0.25650717  0.31947089  0.16228446  1
  O  O46  1  0.70597602  0.45300868  0.16155006  1
  O  O47  1  0.29680999  0.54880956  0.83854111  1
  O  O48  1  0.20597602  0.04699132  0.83844994  1
  O  O49  1  0.79680999  0.95119044  0.16145889  1
  O  O50  1  0.20224773  0.93417257  0.38806311  1
  O  O51  1  0.79788510  0.06614219  0.61210804  1
  O  O52  1  0.70224773  0.56582743  0.61193689  1
  O  O53  1  0.29788510  0.43385781  0.38789196  1
  O  O54  1  0.74928101  0.56589301  0.38788922  1
  O  O55  1  0.25089398  0.43371219  0.61181324  1
  O  O56  1  0.24928101  0.93410699  0.61211078  1
  O  O57  1  0.75089398  0.06628781  0.38818676  1
  O  O58  1  0.22247600  0.55524410  0.05941573  1
  O  O59  1  0.72247600  0.94475590  0.94058427  1
  F  F60  1  0.77083373  0.45323640  0.94002346  1
  F  F61  1  0.27083373  0.04676360  0.05997654  1
