# generated using pymatgen
data_Ba4Ce2In2O11
_symmetry_space_group_name_H-M   'P 1'
_cell_length_a   6.15228597
_cell_length_b   6.12935261
_cell_length_c   8.86220117
_cell_angle_alpha   90.00000000
_cell_angle_beta   90.00000000
_cell_angle_gamma   89.92049357
_symmetry_Int_Tables_number   1
_chemical_formula_structural   Ba4Ce2In2O11
_chemical_formula_sum   'Ba4 Ce2 In2 O11'
_cell_volume   334.18911953
_cell_formula_units_Z   1
loop_
 _symmetry_equiv_pos_site_id
 _symmetry_equiv_pos_as_xyz
  1  'x, y, z'
loop_
 _atom_site_type_symbol
 _atom_site_label
 _atom_site_symmetry_multiplicity
 _atom_site_fract_x
 _atom_site_fract_y
 _atom_site_fract_z
 _atom_site_occupancy
  Ba  Ba0  1  0.50696652  0.50912850  0.25000000  1
  Ba  Ba1  1  0.97569617  0.99809001  0.25000000  1
  Ba  Ba2  1  0.49350937  0.49362693  0.75000000  1
  Ba  Ba3  1  0.01220340  0.99477954  0.75000000  1
  Ce  Ce4  1  0.00153719  0.49503808  0.50440405  1
  Ce  Ce5  1  0.00153719  0.49503808  0.99559595  1
  In  In6  1  0.48682557  0.99524296  0.02075545  1
  In  In7  1  0.48682557  0.99524296  0.47924455  1
  O  O8  1  0.74367093  0.75027769  0.03045917  1
  O  O9  1  0.74601081  0.23417838  0.48782444  1
  O  O10  1  0.25903020  0.23979388  0.55539373  1
  O  O11  1  0.26116537  0.74991318  0.94950528  1
  O  O12  1  0.25903020  0.23979388  0.94460627  1
  O  O13  1  0.26116537  0.74991318  0.55049472  1
  O  O14  1  0.74367093  0.75027769  0.46954083  1
  O  O15  1  0.74601081  0.23417838  0.01217556  1
  O  O16  1  0.40851918  0.98517379  0.25000000  1
  O  O17  1  0.05796251  0.48079427  0.25000000  1
  O  O18  1  0.93206270  0.51141860  0.75000000  1
