# generated using pymatgen
data_Ba4Ga5AgSe12
_symmetry_space_group_name_H-M   'P 1'
_cell_length_a   6.62830487
_cell_length_b   13.94887927
_cell_length_c   13.94887927
_cell_angle_alpha   90.00000000
_cell_angle_beta   90.00000000
_cell_angle_gamma   90.00000000
_symmetry_Int_Tables_number   1
_chemical_formula_structural   Ba4Ga5AgSe12
_chemical_formula_sum   'Ba8 Ga10 Ag2 Se24'
_cell_volume   1289.67745052
_cell_formula_units_Z   2
loop_
 _symmetry_equiv_pos_site_id
 _symmetry_equiv_pos_as_xyz
  1  'x, y, z'
loop_
 _atom_site_type_symbol
 _atom_site_label
 _atom_site_symmetry_multiplicity
 _atom_site_fract_x
 _atom_site_fract_y
 _atom_site_fract_z
 _atom_site_occupancy
  Ba  Ba0  1  0.95586151  0.52572380  0.78732022  1
  Ba  Ba1  1  0.53940295  0.02569474  0.71262610  1
  Ba  Ba2  1  0.95586151  0.47427620  0.21267978  1
  Ba  Ba3  1  0.53940295  0.97430526  0.28737390  1
  Ba  Ba4  1  0.04413849  0.78732022  0.47427620  1
  Ba  Ba5  1  0.46059705  0.71262610  0.97430526  1
  Ba  Ba6  1  0.04413849  0.21267978  0.52572380  1
  Ba  Ba7  1  0.46059705  0.28737390  0.02569474  1
  Ga  Ga8  1  0.55350579  0.74284942  0.63803230  1
  Ga  Ga9  1  0.94901027  0.24293946  0.86185731  1
  Ga  Ga10  1  0.55350579  0.25715058  0.36196770  1
  Ga  Ga11  1  0.94901027  0.75706054  0.13814269  1
  Ga  Ga12  1  0.44649421  0.63803230  0.25715058  1
  Ga  Ga13  1  0.05098973  0.86185731  0.75706054  1
  Ga  Ga14  1  0.44649421  0.36196770  0.74284942  1
  Ga  Ga15  1  0.05098973  0.13814269  0.24293946  1
  Ga  Ga16  1  0.50000000  0.50000000  0.50000000  1
  Ga  Ga17  1  0.00000000  0.00000000  0.00000000  1
  Ag  Ag18  1  0.79057693  0.00000000  0.50000000  1
  Ag  Ag19  1  0.20942307  0.50000000  0.00000000  1
  Se  Se20  1  0.70723592  0.80685031  0.78539388  1
  Se  Se21  1  0.79213440  0.30722851  0.71472909  1
  Se  Se22  1  0.70723592  0.19314969  0.21460612  1
  Se  Se23  1  0.79213440  0.69277149  0.28527091  1
  Se  Se24  1  0.29276408  0.78539388  0.19314969  1
  Se  Se25  1  0.20786560  0.71472909  0.69277149  1
  Se  Se26  1  0.29276408  0.21460612  0.80685031  1
  Se  Se27  1  0.20786560  0.28527091  0.30722851  1
  Se  Se28  1  0.53633402  0.85311666  0.50408193  1
  Se  Se29  1  0.95803552  0.35223803  0.99672364  1
  Se  Se30  1  0.53633402  0.14688334  0.49591807  1
  Se  Se31  1  0.95803552  0.64776197  0.00327636  1
  Se  Se32  1  0.46366598  0.50408193  0.14688334  1
  Se  Se33  1  0.04196448  0.99672364  0.64776197  1
  Se  Se34  1  0.46366598  0.49591807  0.85311666  1
  Se  Se35  1  0.04196448  0.00327636  0.35223803  1
  Se  Se36  1  0.74025734  0.60378033  0.58378792  1
  Se  Se37  1  0.75994870  0.10453491  0.91650355  1
  Se  Se38  1  0.74025734  0.39621967  0.41621208  1
  Se  Se39  1  0.75994870  0.89546509  0.08349645  1
  Se  Se40  1  0.25974266  0.58378792  0.39621967  1
  Se  Se41  1  0.24005130  0.91650355  0.89546509  1
  Se  Se42  1  0.25974266  0.41621208  0.60378033  1
  Se  Se43  1  0.24005130  0.08349645  0.10453491  1
