# generated using pymatgen
data_BaSr2Tm6O12
_symmetry_space_group_name_H-M   'P 1'
_cell_length_a   3.40787745
_cell_length_b   10.28239864
_cell_length_c   10.28238744
_cell_angle_alpha   120.00011609
_cell_angle_beta   90.00000000
_cell_angle_gamma   90.00000000
_symmetry_Int_Tables_number   1
_chemical_formula_structural   BaSr2Tm6O12
_chemical_formula_sum   'Ba1 Sr2 Tm6 O12'
_cell_volume   312.03441342
_cell_formula_units_Z   1
loop_
 _symmetry_equiv_pos_site_id
 _symmetry_equiv_pos_as_xyz
  1  'x, y, z'
loop_
 _atom_site_type_symbol
 _atom_site_label
 _atom_site_symmetry_multiplicity
 _atom_site_fract_x
 _atom_site_fract_y
 _atom_site_fract_z
 _atom_site_occupancy
  Ba  Ba0  1  0.75000000  0.00000271  0.00000376  1
  Sr  Sr1  1  0.75000000  0.66667149  0.33333663  1
  Sr  Sr2  1  0.25000000  0.33333684  0.66667105  1
  Tm  Tm3  1  0.25000000  0.34716455  0.00088776  1
  Tm  Tm4  1  0.25000000  0.99911031  0.34627454  1
  Tm  Tm5  1  0.25000000  0.65372226  0.65283558  1
  Tm  Tm6  1  0.75000000  0.65081811  0.99985842  1
  Tm  Tm7  1  0.75000000  0.00014373  0.65096296  1
  Tm  Tm8  1  0.75000000  0.34904005  0.34917921  1
  O  O9  1  0.75000000  0.30772268  0.11424667  1
  O  O10  1  0.75000000  0.88575146  0.19347267  1
  O  O11  1  0.75000000  0.80652576  0.69228025  1
  O  O12  1  0.25000000  0.70992752  0.89461131  1
  O  O13  1  0.25000000  0.10538847  0.81532421  1
  O  O14  1  0.25000000  0.18467415  0.29005507  1
  O  O15  1  0.75000000  0.39599596  0.87514124  1
  O  O16  1  0.75000000  0.12485922  0.52085693  1
  O  O17  1  0.75000000  0.47914302  0.60400111  1
  O  O18  1  0.25000000  0.60167541  0.12194111  1
  O  O19  1  0.25000000  0.87806202  0.47973571  1
  O  O20  1  0.25000000  0.52026428  0.39832380  1
