# generated using pymatgen
data_BaLiMg2AlSi3(O5F)2
_symmetry_space_group_name_H-M   'P 1'
_cell_length_a   5.30747532
_cell_length_b   10.29598399
_cell_length_c   5.32682562
_cell_angle_alpha   79.76485603
_cell_angle_beta   60.01298112
_cell_angle_gamma   85.33939602
_symmetry_Int_Tables_number   1
_chemical_formula_structural   BaLiMg2AlSi3(O5F)2
_chemical_formula_sum   'Ba1 Li1 Mg2 Al1 Si3 O10 F2'
_cell_volume   248.10075646
_cell_formula_units_Z   1
loop_
 _symmetry_equiv_pos_site_id
 _symmetry_equiv_pos_as_xyz
  1  'x, y, z'
loop_
 _atom_site_type_symbol
 _atom_site_label
 _atom_site_symmetry_multiplicity
 _atom_site_fract_x
 _atom_site_fract_y
 _atom_site_fract_z
 _atom_site_occupancy
  Ba  Ba0  1  0.99970538  0.02649509  0.99139861  1
  Li  Li1  1  0.99334415  0.49424237  0.49894483  1
  Mg  Mg2  1  0.33315578  0.49704561  0.83495766  1
  Mg  Mg3  1  0.66845593  0.49784851  0.17056351  1
  Al  Al4  1  0.66675694  0.23246592  0.59165116  1
  Si  Si5  1  0.33654842  0.22144863  0.25916696  1
  Si  Si6  1  0.33378257  0.77075380  0.40817351  1
  Si  Si7  1  0.66332181  0.77063822  0.74570199  1
  O  O8  1  0.00963646  0.15550745  0.47764330  1
  O  O9  1  0.99959915  0.83565320  0.53592201  1
  O  O10  1  0.52806674  0.15332725  0.41434428  1
  O  O11  1  0.46343143  0.15255898  0.96098466  1
  O  O12  1  0.48339711  0.83789965  0.56986798  1
  O  O13  1  0.51719872  0.83967376  0.05244972  1
  O  O14  1  0.65846055  0.40024629  0.53575854  1
  O  O15  1  0.34472699  0.38081145  0.19666114  1
  O  O16  1  0.34027510  0.61448384  0.45873172  1
  O  O17  1  0.65304424  0.61419093  0.81190771  1
  F  F18  1  0.99814077  0.39640261  0.87583430  1
  F  F19  1  0.00895176  0.60830644  0.10933641  1
