# generated using pymatgen
data_Ca3LaTi2Cr2O12
_symmetry_space_group_name_H-M   'P 1'
_cell_length_a   5.46754324
_cell_length_b   5.49221032
_cell_length_c   7.71921158
_cell_angle_alpha   89.95683996
_cell_angle_beta   90.11648539
_cell_angle_gamma   90.36917272
_symmetry_Int_Tables_number   1
_chemical_formula_structural   Ca3LaTi2Cr2O12
_chemical_formula_sum   'Ca3 La1 Ti2 Cr2 O12'
_cell_volume   231.79405844
_cell_formula_units_Z   1
loop_
 _symmetry_equiv_pos_site_id
 _symmetry_equiv_pos_as_xyz
  1  'x, y, z'
loop_
 _atom_site_type_symbol
 _atom_site_label
 _atom_site_symmetry_multiplicity
 _atom_site_fract_x
 _atom_site_fract_y
 _atom_site_fract_z
 _atom_site_occupancy
  Ca  Ca0  1  0.50577761  0.53000189  0.24769544  1
  Ca  Ca1  1  0.99458634  0.03198918  0.24759182  1
  Ca  Ca2  1  0.49407109  0.46825040  0.75241961  1
  La  La3  1  0.00580473  0.97124869  0.75241883  1
  Ti  Ti4  1  0.99906712  0.49980267  0.49345359  1
  Ti  Ti5  1  0.50157770  0.00005082  0.00733683  1
  Cr  Cr6  1  -0.00001050  0.49949323  0.00168407  1
  Cr  Cr7  1  0.50035698  0.00029631  0.49764028  1
  O  O8  1  0.29014182  0.71956406  0.53950121  1
  O  O9  1  0.21676598  0.21097993  0.96650028  1
  O  O10  1  0.70993814  0.28230898  0.03721586  1
  O  O11  1  0.78962338  0.78747816  0.46192820  1
  O  O12  1  0.71015984  0.27999964  0.46284022  1
  O  O13  1  0.78613325  0.79213378  0.03513551  1
  O  O14  1  0.28952066  0.71803757  0.95988081  1
  O  O15  1  0.21528263  0.21574169  0.53660054  1
  O  O16  1  0.42687872  0.98141803  0.25539286  1
  O  O17  1  0.07316271  0.48422121  0.25402687  1
  O  O18  1  0.56380692  0.01643600  0.74482612  1
  O  O19  1  0.92735488  0.51054775  0.74591103  1
