# generated using pymatgen
data_Ba2TaCu2Pb2ClO8
_symmetry_space_group_name_H-M   'P 1'
_cell_length_a   3.98710939
_cell_length_b   3.98710939
_cell_length_c   16.03831500
_cell_angle_alpha   90.00000000
_cell_angle_beta   90.00000000
_cell_angle_gamma   89.99524402
_symmetry_Int_Tables_number   1
_chemical_formula_structural   Ba2TaCu2Pb2ClO8
_chemical_formula_sum   'Ba2 Ta1 Cu2 Pb2 Cl1 O8'
_cell_volume   254.96175530
_cell_formula_units_Z   1
loop_
 _symmetry_equiv_pos_site_id
 _symmetry_equiv_pos_as_xyz
  1  'x, y, z'
loop_
 _atom_site_type_symbol
 _atom_site_label
 _atom_site_symmetry_multiplicity
 _atom_site_fract_x
 _atom_site_fract_y
 _atom_site_fract_z
 _atom_site_occupancy
  Ba  Ba0  1  0.49201308  0.50798692  0.65064292  1
  Ba  Ba1  1  0.49201308  0.50798692  0.34935708  1
  Ta  Ta2  1  0.98638001  0.01361999  0.50000000  1
  Cu  Cu3  1  0.99832263  0.00167737  0.77849404  1
  Cu  Cu4  1  0.99832263  0.00167737  0.22150596  1
  Pb  Pb5  1  0.49973638  0.50026362  0.88081018  1
  Pb  Pb6  1  0.49973638  0.50026362  0.11918982  1
  Cl  Cl7  1  0.99943199  0.00056801  0.00000000  1
  O  O8  1  0.98724455  0.01275545  0.62376830  1
  O  O9  1  0.98724455  0.01275545  0.37623170  1
  O  O10  1  0.49875071  0.00073394  0.78934974  1
  O  O11  1  0.99926606  0.50124929  0.78934974  1
  O  O12  1  0.49875071  0.00073394  0.21065026  1
  O  O13  1  0.99926606  0.50124929  0.21065026  1
  O  O14  1  0.48365021  0.02312903  0.50000000  1
  O  O15  1  0.97687097  0.51634979  0.50000000  1
