# generated using pymatgen
data_Ba4Ge2Pb(Se4Br)2
_symmetry_space_group_name_H-M   'P 1'
_cell_length_a   9.19744463
_cell_length_b   9.65670417
_cell_length_c   12.62917585
_cell_angle_alpha   90.00000000
_cell_angle_beta   90.00000000
_cell_angle_gamma   90.00000000
_symmetry_Int_Tables_number   1
_chemical_formula_structural   Ba4Ge2Pb(Se4Br)2
_chemical_formula_sum   'Ba8 Ge4 Pb2 Se16 Br4'
_cell_volume   1121.68553561
_cell_formula_units_Z   2
loop_
 _symmetry_equiv_pos_site_id
 _symmetry_equiv_pos_as_xyz
  1  'x, y, z'
loop_
 _atom_site_type_symbol
 _atom_site_label
 _atom_site_symmetry_multiplicity
 _atom_site_fract_x
 _atom_site_fract_y
 _atom_site_fract_z
 _atom_site_occupancy
  Ba  Ba0  1  0.39518618  0.00974584  0.32975496  1
  Ba  Ba1  1  0.10062133  0.49346341  0.82268009  1
  Ba  Ba2  1  0.60062133  0.50653659  0.67731991  1
  Ba  Ba3  1  0.89518618  0.99025416  0.17024504  1
  Ba  Ba4  1  0.60062133  0.99346341  0.67731991  1
  Ba  Ba5  1  0.89518618  0.50974584  0.17024504  1
  Ba  Ba6  1  0.39518618  0.49025416  0.32975496  1
  Ba  Ba7  1  0.10062133  0.00653659  0.82268009  1
  Ge  Ge8  1  0.69052268  0.75000000  0.39829216  1
  Ge  Ge9  1  0.80451524  0.75000000  0.90827420  1
  Ge  Ge10  1  0.30451524  0.25000000  0.59172580  1
  Ge  Ge11  1  0.19052268  0.25000000  0.10170784  1
  Pb  Pb12  1  0.04398650  0.75000000  0.50284925  1
  Pb  Pb13  1  0.54398650  0.25000000  0.99715075  1
  Se  Se14  1  0.62724102  0.75000000  0.21554934  1
  Se  Se15  1  0.87070637  0.75000000  0.71893944  1
  Se  Se16  1  0.37070637  0.25000000  0.78106056  1
  Se  Se17  1  0.12724102  0.25000000  0.28445066  1
  Se  Se18  1  0.47334435  0.75000000  0.50024139  1
  Se  Se19  1  0.02897297  0.75000000  0.00302950  1
  Se  Se20  1  0.52897297  0.25000000  0.49697050  1
  Se  Se21  1  0.97334435  0.25000000  0.99975861  1
  Se  Se22  1  0.82749116  0.95305864  0.43972198  1
  Se  Se23  1  0.69009286  0.53667502  0.93811224  1
  Se  Se24  1  0.19009286  0.46332498  0.56188776  1
  Se  Se25  1  0.32749116  0.04694136  0.06027802  1
  Se  Se26  1  0.19009286  0.03667502  0.56188776  1
  Se  Se27  1  0.32749116  0.45305864  0.06027802  1
  Se  Se28  1  0.82749116  0.54694136  0.43972198  1
  Se  Se29  1  0.69009286  0.96332498  0.93811224  1
  Br  Br30  1  0.14987410  0.75000000  0.27180555  1
  Br  Br31  1  0.34970371  0.75000000  0.77926483  1
  Br  Br32  1  0.84970371  0.25000000  0.72073517  1
  Br  Br33  1  0.64987410  0.25000000  0.22819445  1
