# generated using pymatgen
data_CaTeO3
_symmetry_space_group_name_H-M   'P 1'
_cell_length_a   10.50670675
_cell_length_b   11.45506324
_cell_length_c   14.27644901
_cell_angle_alpha   77.99911803
_cell_angle_beta   84.79612939
_cell_angle_gamma   72.86985692
_symmetry_Int_Tables_number   1
_chemical_formula_structural   CaTeO3
_chemical_formula_sum   'Ca18 Te18 O54'
_cell_volume   1605.33260538
_cell_formula_units_Z   18
loop_
 _symmetry_equiv_pos_site_id
 _symmetry_equiv_pos_as_xyz
  1  'x, y, z'
loop_
 _atom_site_type_symbol
 _atom_site_label
 _atom_site_symmetry_multiplicity
 _atom_site_fract_x
 _atom_site_fract_y
 _atom_site_fract_z
 _atom_site_occupancy
  Ca  Ca0  1  0.27607453  0.88083844  0.24172138  1
  Ca  Ca1  1  0.72392547  0.11916156  0.75827862  1
  Ca  Ca2  1  0.25021185  0.41601996  0.26181061  1
  Ca  Ca3  1  0.74978815  0.58398004  0.73818939  1
  Ca  Ca4  1  0.60537031  0.36806985  0.92265082  1
  Ca  Ca5  1  0.39462969  0.63193015  0.07734918  1
  Ca  Ca6  1  0.93589220  0.86296058  0.59385669  1
  Ca  Ca7  1  0.06410780  0.13703942  0.40614331  1
  Ca  Ca8  1  0.57061600  0.86716404  0.92776971  1
  Ca  Ca9  1  0.42938400  0.13283596  0.07223029  1
  Ca  Ca10  1  0.91685001  0.36925608  0.57181007  1
  Ca  Ca11  1  0.08314999  0.63074392  0.42818993  1
  Ca  Ca12  1  0.81445579  0.03668581  0.02245378  1
  Ca  Ca13  1  0.18554421  0.96331419  0.97754622  1
  Ca  Ca14  1  0.46177674  0.06583626  0.34191583  1
  Ca  Ca15  1  0.53822326  0.93416374  0.65808417  1
  Ca  Ca16  1  0.13017945  0.03716114  0.67508287  1
  Ca  Ca17  1  0.86982055  0.96283886  0.32491713  1
  Te  Te18  1  0.28740581  0.25378793  0.52554353  1
  Te  Te19  1  0.71259419  0.74621207  0.47445647  1
  Te  Te20  1  0.46336345  0.53849718  0.35501976  1
  Te  Te21  1  0.53663655  0.46150282  0.64498024  1
  Te  Te22  1  0.60317032  0.83389423  0.16475183  1
  Te  Te23  1  0.39682968  0.16610577  0.83524817  1
  Te  Te24  1  0.60644050  0.26553857  0.19176621  1
  Te  Te25  1  0.39355950  0.73446143  0.80823379  1
  Te  Te26  1  0.10685513  0.56081437  0.67521955  1
  Te  Te27  1  0.89314487  0.43918563  0.32478045  1
  Te  Te28  1  0.96548655  0.26348981  0.85502367  1
  Te  Te29  1  0.03451345  0.73651019  0.14497633  1
  Te  Te30  1  0.94304054  0.82359854  0.86286583  1
  Te  Te31  1  0.05695946  0.17640146  0.13713417  1
  Te  Te32  1  0.77907888  0.52184801  0.02350923  1
  Te  Te33  1  0.22092112  0.47815199  0.97649077  1
  Te  Te34  1  0.25319383  0.84593939  0.47344043  1
  Te  Te35  1  0.74680617  0.15406061  0.52655957  1
  O  O36  1  0.64648343  0.21133919  0.07204884  1
  O  O37  1  0.35351657  0.78866081  0.92795116  1
  O  O38  1  0.74555681  0.69478743  0.99895754  1
  O  O39  1  0.25444319  0.30521257  0.00104246  1
  O  O40  1  0.81115364  0.20162308  0.87418241  1
  O  O41  1  0.18884636  0.79837692  0.12581759  1
  O  O42  1  0.00533298  0.89329043  0.95309260  1
  O  O43  1  0.99466702  0.10670957  0.04690740  1
  O  O44  1  0.99288351  0.90966159  0.74353289  1
  O  O45  1  0.00711649  0.09033841  0.25646711  1
  O  O46  1  0.12053624  0.95178300  0.54143113  1
  O  O47  1  0.87946376  0.04821700  0.45856887  1
  O  O48  1  0.67274476  0.11399714  0.27812081  1
  O  O49  1  0.32725524  0.88600286  0.72187919  1
  O  O50  1  0.30536291  0.50954398  0.41501776  1
  O  O51  1  0.69463709  0.49045602  0.58498224  1
  O  O52  1  0.14184796  0.82028532  0.38586626  1
  O  O53  1  0.85815204  0.17971468  0.61413374  1
  O  O54  1  0.11836240  0.21877244  0.54047194  1
  O  O55  1  0.88163760  0.78122756  0.45952806  1
  O  O56  1  0.32116817  0.24574174  0.39431692  1
  O  O57  1  0.67883183  0.75425826  0.60568308  1
  O  O58  1  0.43455863  0.71196008  0.33395115  1
  O  O59  1  0.56544137  0.28803992  0.66604885  1
  O  O60  1  0.42724014  0.51431986  0.23399925  1
  O  O61  1  0.57275986  0.48568014  0.76600075  1
  O  O62  1  0.27992872  0.98511384  0.38018487  1
  O  O63  1  0.72007128  0.01488616  0.61981513  1
  O  O64  1  0.09637460  0.12430405  0.81658922  1
  O  O65  1  0.90362540  0.87569595  0.18341078  1
  O  O66  1  0.42857197  0.25246886  0.20022169  1
  O  O67  1  0.57142803  0.74753114  0.79977831  1
  O  O68  1  0.76786517  0.92834854  0.86741094  1
  O  O69  1  0.23213483  0.07165146  0.13258906  1
  O  O70  1  0.47526202  0.79042222  0.10530078  1
  O  O71  1  0.52473798  0.20957778  0.89469922  1
  O  O72  1  0.92198568  0.37372816  0.73633314  1
  O  O73  1  0.07801432  0.62627184  0.26366686  1
  O  O74  1  0.60927210  0.49779301  0.05434598  1
  O  O75  1  0.39072790  0.50220699  0.94565402  1
  O  O76  1  0.63499135  0.94975272  0.05575067  1
  O  O77  1  0.36500865  0.05024728  0.94424933  1
  O  O78  1  0.14733001  0.69378501  0.58677862  1
  O  O79  1  0.85266999  0.30621499  0.41322138  1
  O  O80  1  0.47583429  0.96040559  0.21681286  1
  O  O81  1  0.52416571  0.03959441  0.78318714  1
  O  O82  1  0.06707001  0.48842586  0.57968883  1
  O  O83  1  0.93292999  0.51157414  0.42031117  1
  O  O84  1  0.93887454  0.65978247  0.71255005  1
  O  O85  1  0.06112546  0.34021753  0.28744995  1
  O  O86  1  0.78580506  0.48005851  0.90114244  1
  O  O87  1  0.21419494  0.51994149  0.09885756  1
  O  O88  1  0.38017103  0.08945827  0.57631879  1
  O  O89  1  0.61982897  0.91054173  0.42368121  1
