# generated using pymatgen
data_Ba8Ta2Ru3(BrO9)2
_symmetry_space_group_name_H-M   'P 1'
_cell_length_a   5.93921917
_cell_length_b   5.93921945
_cell_length_c   20.18111242
_cell_angle_alpha   81.53831679
_cell_angle_beta   98.46168232
_cell_angle_gamma   120.00000151
_symmetry_Int_Tables_number   1
_chemical_formula_structural   Ba8Ta2Ru3(BrO9)2
_chemical_formula_sum   'Ba8 Ta2 Ru3 Br2 O18'
_cell_volume   607.53755591
_cell_formula_units_Z   1
loop_
 _symmetry_equiv_pos_site_id
 _symmetry_equiv_pos_as_xyz
  1  'x, y, z'
loop_
 _atom_site_type_symbol
 _atom_site_label
 _atom_site_symmetry_multiplicity
 _atom_site_fract_x
 _atom_site_fract_y
 _atom_site_fract_z
 _atom_site_occupancy
  Ba  Ba0  1  0.55919159  0.44080841  0.67757478  1
  Ba  Ba1  1  0.44080841  0.55919159  0.32242522  1
  Ba  Ba2  1  0.63104708  0.36895292  0.89314125  1
  Ba  Ba3  1  0.36895292  0.63104708  0.10685875  1
  Ba  Ba4  1  0.81182105  0.18817895  0.43546316  1
  Ba  Ba5  1  0.18817895  0.81182105  0.56453684  1
  Ba  Ba6  1  0.74180529  0.25819471  0.22541588  1
  Ba  Ba7  1  0.25819471  0.74180529  0.77458412  1
  Ta  Ta8  1  0.91864387  0.08135613  0.75593162  1
  Ta  Ta9  1  0.08135613  0.91864387  0.24406838  1
  Ru  Ru10  1  0.50000000  0.50000000  0.50000000  1
  Ru  Ru11  1  0.87051814  0.12948186  0.61155442  1
  Ru  Ru12  1  0.12948186  0.87051814  0.38844558  1
  Br  Br13  1  0.68688565  0.31311435  0.06065695  1
  Br  Br14  1  0.31311435  0.68688565  0.93934305  1
  O  O15  1  0.95742895  0.04257105  0.32135552  1
  O  O16  1  0.40649762  0.04257105  0.32135552  1
  O  O17  1  0.95742895  0.59350238  0.32135552  1
  O  O18  1  0.04257105  0.95742895  0.67864448  1
  O  O19  1  0.59350238  0.95742895  0.67864448  1
  O  O20  1  0.04257105  0.40649762  0.67864448  1
  O  O21  1  0.22986730  0.77013270  0.20032289  1
  O  O22  1  0.74058830  0.77013270  0.20032289  1
  O  O23  1  0.22986730  0.25941170  0.20032289  1
  O  O24  1  0.77013270  0.22986730  0.79967711  1
  O  O25  1  0.25941170  0.22986730  0.79967711  1
  O  O26  1  0.77013270  0.74058830  0.79967711  1
  O  O27  1  0.68339571  0.31660429  0.55810377  1
  O  O28  1  0.19131236  0.31660429  0.55810377  1
  O  O29  1  0.68339571  0.80868764  0.55810377  1
  O  O30  1  0.31660429  0.68339571  0.44189623  1
  O  O31  1  0.80868764  0.68339571  0.44189623  1
  O  O32  1  0.31660429  0.19131236  0.44189623  1
