# generated using pymatgen
data_Ba10Co7(IrO10)3
_symmetry_space_group_name_H-M   'P 1'
_cell_length_a   5.77551580
_cell_length_b   5.77802328
_cell_length_c   23.95196757
_cell_angle_alpha   90.00000000
_cell_angle_beta   90.79321665
_cell_angle_gamma   59.98563715
_symmetry_Int_Tables_number   1
_chemical_formula_structural   Ba10Co7(IrO10)3
_chemical_formula_sum   'Ba10 Co7 Ir3 O30'
_cell_volume   692.02774188
_cell_formula_units_Z   1
loop_
 _symmetry_equiv_pos_site_id
 _symmetry_equiv_pos_as_xyz
  1  'x, y, z'
loop_
 _atom_site_type_symbol
 _atom_site_label
 _atom_site_symmetry_multiplicity
 _atom_site_fract_x
 _atom_site_fract_y
 _atom_site_fract_z
 _atom_site_occupancy
  Ba  Ba0  1  0.99916749  0.00041625  0.74985888  1
  Ba  Ba1  1  0.00312712  0.99843644  0.25377029  1
  Ba  Ba2  1  0.33249776  0.33375112  0.04304782  1
  Ba  Ba3  1  0.66592125  0.66703937  0.95891830  1
  Ba  Ba4  1  0.66857398  0.66571301  0.54045966  1
  Ba  Ba5  1  0.32951520  0.33524240  0.45390327  1
  Ba  Ba6  1  0.33368709  0.33315646  0.63680578  1
  Ba  Ba7  1  0.66748946  0.66625527  0.35575460  1
  Ba  Ba8  1  0.66849790  0.66575105  0.14304562  1
  Ba  Ba9  1  0.33124037  0.33437981  0.86233001  1
  Co  Co10  1  0.33291814  0.33354093  0.30989427  1
  Co  Co11  1  0.00494806  0.99752597  0.60264842  1
  Co  Co12  1  0.99542615  0.00228693  0.39396209  1
  Co  Co13  1  0.99556029  0.00221985  0.10400261  1
  Co  Co14  1  0.00111386  0.99944307  0.89677981  1
  Co  Co15  1  0.99935089  0.00032456  0.49923212  1
  Co  Co16  1  0.00015045  -0.00007523  0.00041365  1
  Ir  Ir17  1  0.33244226  0.33377887  0.19728525  1
  Ir  Ir18  1  0.66676469  0.66661765  0.80340360  1
  Ir  Ir19  1  0.66557583  0.66721209  0.69656209  1
  O  O20  1  0.33062157  0.83468922  0.65003788  1
  O  O21  1  0.82589477  0.82789214  0.65105485  1
  O  O22  1  0.82589477  0.34621309  0.65105485  1
  O  O23  1  0.68690136  0.15654932  0.35225265  1
  O  O24  1  0.17204696  0.16752342  0.35007871  1
  O  O25  1  0.17204696  0.66042962  0.35007871  1
  O  O26  1  0.65551775  0.17224112  0.15187974  1
  O  O27  1  0.17119285  0.16760031  0.15010210  1
  O  O28  1  0.17119285  0.66120684  0.15010210  1
  O  O29  1  0.34680836  0.82659582  0.84897205  1
  O  O30  1  0.83022628  0.83214842  0.84944529  1
  O  O31  1  0.83022628  0.33762531  0.84944529  1
  O  O32  1  0.70630641  0.14684680  0.55125904  1
  O  O33  1  0.15366565  0.14849175  0.54754438  1
  O  O34  1  0.15366565  0.69784260  0.54754438  1
  O  O35  1  0.28707232  0.85646384  0.44725499  1
  O  O36  1  0.84880465  0.85310133  0.45106619  1
  O  O37  1  0.84880465  0.29809402  0.45106619  1
  O  O38  1  0.29860002  0.85069999  0.04767579  1
  O  O39  1  0.84833923  0.85288954  0.05009632  1
  O  O40  1  0.84833923  0.29877123  0.05009632  1
  O  O41  1  0.70016852  0.14991574  0.95240509  1
  O  O42  1  0.15064521  0.14795411  0.95029343  1
  O  O43  1  0.15064521  0.70140068  0.95029343  1
  O  O44  1  0.50869972  0.98233402  0.74946887  1
  O  O45  1  0.98157206  0.50921397  0.75117981  1
  O  O46  1  0.50869972  0.50896626  0.74946887  1
  O  O47  1  0.48350183  0.03374134  0.25021158  1
  O  O48  1  0.02642906  0.48678547  0.24628135  1
  O  O49  1  0.48350183  0.48275682  0.25021158  1
