# generated using pymatgen
data_Ba3FeRu2O9
_symmetry_space_group_name_H-M   'P 1'
_cell_length_a   5.80262869
_cell_length_b   5.80262869
_cell_length_c   14.20295363
_cell_angle_alpha   90.00000000
_cell_angle_beta   90.00000000
_cell_angle_gamma   120.00937527
_symmetry_Int_Tables_number   1
_chemical_formula_structural   Ba3FeRu2O9
_chemical_formula_sum   'Ba6 Fe2 Ru4 O18'
_cell_volume   414.11201102
_cell_formula_units_Z   2
loop_
 _symmetry_equiv_pos_site_id
 _symmetry_equiv_pos_as_xyz
  1  'x, y, z'
loop_
 _atom_site_type_symbol
 _atom_site_label
 _atom_site_symmetry_multiplicity
 _atom_site_fract_x
 _atom_site_fract_y
 _atom_site_fract_z
 _atom_site_occupancy
  Ba  Ba0  1  0.66667537  0.33332463  0.59276601  1
  Ba  Ba1  1  0.33334769  0.66665231  0.40589685  1
  Ba  Ba2  1  0.33332463  0.66667537  0.09276601  1
  Ba  Ba3  1  0.66665231  0.33334769  0.90589685  1
  Ba  Ba4  1  0.99998299  0.00001701  0.75256575  1
  Ba  Ba5  1  0.00001701  0.99998299  0.25256575  1
  Fe  Fe6  1  0.66669816  0.33330184  0.34891722  1
  Fe  Fe7  1  0.33330184  0.66669816  0.84891722  1
  Ru  Ru8  1  0.00000783  0.99999217  0.50257251  1
  Ru  Ru9  1  0.99999217  0.00000783  0.00257251  1
  Ru  Ru10  1  0.33331352  0.66668648  0.65688693  1
  Ru  Ru11  1  0.66668648  0.33331352  0.15688693  1
  O  O12  1  0.48526794  0.97058168  0.74650545  1
  O  O13  1  0.48526184  0.51473816  0.74647942  1
  O  O14  1  0.02941832  0.51473206  0.74650545  1
  O  O15  1  0.51473206  0.02941832  0.24650545  1
  O  O16  1  0.51473816  0.48526184  0.24647942  1
  O  O17  1  0.97058168  0.48526794  0.24650545  1
  O  O18  1  0.16555497  0.33106632  0.58002246  1
  O  O19  1  0.16555729  0.83444271  0.58003118  1
  O  O20  1  0.66893368  0.83444503  0.58002246  1
  O  O21  1  0.83740060  0.67476228  0.42027782  1
  O  O22  1  0.83740499  0.16259501  0.42027269  1
  O  O23  1  0.32523772  0.16259940  0.42027782  1
  O  O24  1  0.83444503  0.66893368  0.08002246  1
  O  O25  1  0.83444271  0.16555729  0.08003118  1
  O  O26  1  0.33106632  0.16555497  0.08002246  1
  O  O27  1  0.16259940  0.32523772  0.92027782  1
  O  O28  1  0.16259501  0.83740499  0.92027269  1
  O  O29  1  0.67476228  0.83740060  0.92027782  1
