# generated using pymatgen
data_Ca8P6H12O29
_symmetry_space_group_name_H-M   'P 1'
_cell_length_a   6.87854402
_cell_length_b   9.66644873
_cell_length_c   19.22839805
_cell_angle_alpha   80.42262035
_cell_angle_beta   87.34651382
_cell_angle_gamma   89.87909901
_symmetry_Int_Tables_number   1
_chemical_formula_structural   Ca8P6H12O29
_chemical_formula_sum   'Ca16 P12 H24 O58'
_cell_volume   1259.32494462
_cell_formula_units_Z   2
loop_
 _symmetry_equiv_pos_site_id
 _symmetry_equiv_pos_as_xyz
  1  'x, y, z'
loop_
 _atom_site_type_symbol
 _atom_site_label
 _atom_site_symmetry_multiplicity
 _atom_site_fract_x
 _atom_site_fract_y
 _atom_site_fract_z
 _atom_site_occupancy
  Ca  Ca0  1  0.76269430  0.65173789  0.89184551  1
  Ca  Ca1  1  0.23730570  0.34826211  0.10815449  1
  Ca  Ca2  1  0.02242246  0.32414862  0.63230756  1
  Ca  Ca3  1  0.97757754  0.67585138  0.36769244  1
  Ca  Ca4  1  0.00612148  0.27592140  0.92830983  1
  Ca  Ca5  1  0.99387852  0.72407860  0.07169017  1
  Ca  Ca6  1  0.53045351  0.53117334  0.63382700  1
  Ca  Ca7  1  0.46954649  0.46882666  0.36617300  1
  Ca  Ca8  1  0.26085238  0.90842802  0.88535482  1
  Ca  Ca9  1  0.73914762  0.09157198  0.11464518  1
  Ca  Ca10  1  0.76981488  0.09091020  0.78064494  1
  Ca  Ca11  1  0.23018512  0.90908980  0.21935506  1
  Ca  Ca12  1  0.50449246  0.26151769  0.92924335  1
  Ca  Ca13  1  0.49550754  0.73848231  0.07075665  1
  Ca  Ca14  1  0.27601246  0.53796545  0.79698781  1
  Ca  Ca15  1  0.72398754  0.46203455  0.20301219  1
  P  P16  1  0.25802202  0.59592297  0.95690207  1
  P  P17  1  0.74197798  0.40407703  0.04309793  1
  P  P18  1  0.24144366  0.82364965  0.70096800  1
  P  P19  1  0.75855634  0.17635035  0.29903200  1
  P  P20  1  0.27830756  0.22608664  0.76507234  1
  P  P21  1  0.72169244  0.77391336  0.23492766  1
  P  P22  1  0.26962437  0.61378800  0.50808127  1
  P  P23  1  0.73037563  0.38621200  0.49191873  1
  P  P24  1  0.75826842  0.98596372  0.94377916  1
  P  P25  1  0.24173158  0.01403628  0.05622084  1
  P  P26  1  0.77636009  0.43227058  0.79277020  1
  P  P27  1  0.22363991  0.56772942  0.20722980  1
  H  H28  1  0.86015149  0.77684821  0.64981961  1
  H  H29  1  0.13984851  0.22315179  0.35018039  1
  H  H30  1  0.93828054  0.01811971  0.65387315  1
  H  H31  1  0.06171946  0.98188029  0.34612685  1
  H  H32  1  0.31293129  0.09795133  0.59897060  1
  H  H33  1  0.68706871  0.90204867  0.40102940  1
  H  H34  1  0.75501543  0.07028545  0.61457497  1
  H  H35  1  0.24498457  0.92971455  0.38542503  1
  H  H36  1  0.93678441  0.82664258  0.77552618  1
  H  H37  1  0.06321559  0.17335742  0.22447382  1
  H  H38  1  0.41780849  0.01572758  0.70778760  1
  H  H39  1  0.58219151  0.98427242  0.29221240  1
  H  H40  1  0.99097274  0.69854126  0.54436738  1
  H  H41  1  0.00902726  0.30145874  0.45563262  1
  H  H42  1  0.37376275  0.23790385  0.54566176  1
  H  H43  1  0.62623725  0.76209615  0.45433824  1
  H  H44  1  0.79509025  0.07866876  0.49900554  1
  H  H45  1  0.20490975  0.92133124  0.50099446  1
  H  H46  1  0.75499660  0.91740855  0.51024536  1
  H  H47  1  0.24500340  0.08259145  0.48975464  1
  H  H48  1  0.73755489  0.78961462  0.74606752  1
  H  H49  1  0.26244511  0.21038538  0.25393248  1
  H  H50  1  0.63659486  0.81328400  0.64066953  1
  H  H51  1  0.36340514  0.18671600  0.35933047  1
  O  O52  1  0.26707604  0.24742815  0.84432831  1
  O  O53  1  0.73292396  0.75257185  0.15567169  1
  O  O54  1  0.46681478  0.67920569  0.51723857  1
  O  O55  1  0.53318522  0.32079431  0.48276143  1
  O  O56  1  0.32181803  0.68157863  0.68739676  1
  O  O57  1  0.67818197  0.31842137  0.31260324  1
  O  O58  1  0.41054848  0.93782852  0.67619778  1
  O  O59  1  0.58945152  0.06217148  0.32380222  1
  O  O60  1  0.08391223  0.16974771  0.74408047  1
  O  O61  1  0.91608777  0.83025229  0.25591953  1
  O  O62  1  0.22538138  0.49415156  0.56969764  1
  O  O63  1  0.77461862  0.50584844  0.43030236  1
  O  O64  1  0.94141243  0.00111679  0.89227910  1
  O  O65  1  0.05858757  0.99888321  0.10772090  1
  O  O66  1  0.05996874  0.86923695  0.66073244  1
  O  O67  1  0.94003126  0.13076305  0.33926756  1
  O  O68  1  0.43449836  0.68951719  0.92481947  1
  O  O69  1  0.56550164  0.31048281  0.07518053  1
  O  O70  1  0.20015804  0.81060080  0.78277397  1
  O  O71  1  0.79984196  0.18939920  0.21722603  1
  O  O72  1  0.44184411  0.11808607  0.75600868  1
  O  O73  1  0.55815589  0.88191393  0.24399132  1
  O  O74  1  0.75365426  0.84213314  0.99354228  1
  O  O75  1  0.24634574  0.15786686  0.00645772  1
  O  O76  1  0.79227724  0.41904160  0.71428115  1
  O  O77  1  0.20772276  0.58095840  0.28571885  1
  O  O78  1  0.31862767  0.37185203  0.71839103  1
  O  O79  1  0.68137233  0.62814797  0.28160897  1
  O  O80  1  0.73844704  0.00065585  0.53282083  1
  O  O81  1  0.26155296  0.99934415  0.46717917  1
  O  O82  1  0.10085025  0.73330084  0.51224131  1
  O  O83  1  0.89914975  0.26669916  0.48775869  1
  O  O84  1  0.24631847  0.57796210  0.43361391  1
  O  O85  1  0.75368153  0.42203790  0.56638609  1
  O  O86  1  0.83569357  0.09390184  0.65235285  1
  O  O87  1  0.16430643  0.90609816  0.34764715  1
  O  O88  1  0.60015922  0.52173041  0.81207065  1
  O  O89  1  0.39984078  0.47826959  0.18792935  1
  O  O90  1  0.26434313  0.18922616  0.57678975  1
  O  O91  1  0.73565687  0.81077384  0.42321025  1
  O  O92  1  0.26191830  0.45313776  0.93021992  1
  O  O93  1  0.73808170  0.54686224  0.06978008  1
  O  O94  1  0.07088276  0.67991754  0.93625689  1
  O  O95  1  0.92911724  0.32008246  0.06374311  1
  O  O96  1  0.95485500  0.50189210  0.82047800  1
  O  O97  1  0.04514500  0.49810790  0.17952200  1
  O  O98  1  0.57493516  0.00637617  0.89859863  1
  O  O99  1  0.42506484  0.99362383  0.10140137  1
  O  O100  1  0.76074218  0.10943595  0.98712580  1
  O  O101  1  0.23925782  0.89056405  0.01287420  1
  O  O102  1  0.26371934  0.57246768  0.03893612  1
  O  O103  1  0.73628066  0.42753232  0.96106388  1
  O  O104  1  0.79239462  0.82992364  0.78535019  1
  O  O105  1  0.20760538  0.17007636  0.21464981  1
  O  O106  1  0.75605341  0.28251807  0.83938594  1
  O  O107  1  0.24394659  0.71748193  0.16061406  1
  O  O108  1  0.72517121  0.73505703  0.65483059  1
  O  O109  1  0.27482879  0.26494297  0.34516941  1
