# generated using pymatgen
data_Al2H30Se3O28
_symmetry_space_group_name_H-M   'P 1'
_cell_length_a   6.21353612
_cell_length_b   7.63034860
_cell_length_c   27.53152164
_cell_angle_alpha   90.00000000
_cell_angle_beta   90.00000000
_cell_angle_gamma   97.82740203
_symmetry_Int_Tables_number   1
_chemical_formula_structural   Al2H30Se3O28
_chemical_formula_sum   'Al4 H60 Se6 O56'
_cell_volume   1293.14746896
_cell_formula_units_Z   2
loop_
 _symmetry_equiv_pos_site_id
 _symmetry_equiv_pos_as_xyz
  1  'x, y, z'
loop_
 _atom_site_type_symbol
 _atom_site_label
 _atom_site_symmetry_multiplicity
 _atom_site_fract_x
 _atom_site_fract_y
 _atom_site_fract_z
 _atom_site_occupancy
  Al  Al0  1  0.51325842  0.26745651  0.86214748  1
  Al  Al1  1  0.48674158  0.73254349  0.36214748  1
  Al  Al2  1  0.52093309  0.82272174  0.06064073  1
  Al  Al3  1  0.47906691  0.17727826  0.56064073  1
  H  H4  1  0.81103919  0.29142319  0.92798390  1
  H  H5  1  0.18896081  0.70857681  0.42798390  1
  H  H6  1  0.49151866  0.96224553  0.82097447  1
  H  H7  1  0.50848134  0.03775447  0.32097447  1
  H  H8  1  0.46066661  0.45153585  0.20240336  1
  H  H9  1  0.53933339  0.54846415  0.70240336  1
  H  H10  1  0.66931725  0.84745756  0.97349357  1
  H  H11  1  0.33068275  0.15254244  0.47349357  1
  H  H12  1  0.68371795  0.57612556  0.19913511  1
  H  H13  1  0.31628205  0.42387444  0.69913511  1
  H  H14  1  0.13214857  0.67298578  0.04232841  1
  H  H15  1  0.86785143  0.32701422  0.54232841  1
  H  H16  1  0.41528187  0.89070653  0.74370862  1
  H  H17  1  0.58471813  0.10929347  0.24370862  1
  H  H18  1  0.32626221  0.10154876  0.07529776  1
  H  H19  1  0.67373779  0.89845124  0.57529776  1
  H  H20  1  0.47566934  0.63309788  0.14183341  1
  H  H21  1  0.52433066  0.36690212  0.64183341  1
  H  H22  1  0.21354971  0.80862318  0.99841349  1
  H  H23  1  0.78645029  0.19137682  0.49841349  1
  H  H24  1  0.31793380  0.06176760  0.92794655  1
  H  H25  1  0.68206620  0.93823240  0.42794655  1
  H  H26  1  0.69889694  0.04678209  0.99569228  1
  H  H27  1  0.30110306  0.95321791  0.49569228  1
  H  H28  1  0.70936977  0.99401707  0.85466192  1
  H  H29  1  0.29063023  0.00598293  0.35466192  1
  H  H30  1  0.89910539  0.41845395  0.88283683  1
  H  H31  1  0.10089461  0.58154605  0.38283683  1
  H  H32  1  0.60995155  0.71385890  0.76551189  1
  H  H33  1  0.39004845  0.28614110  0.26551189  1
  H  H34  1  0.90049251  0.98742527  0.07333051  1
  H  H35  1  0.09950749  0.01257473  0.57333051  1
  H  H36  1  0.68317315  0.45614553  0.78646258  1
  H  H37  1  0.31682685  0.54385447  0.28646258  1
  H  H38  1  0.34043426  0.26331039  0.94911773  1
  H  H39  1  0.65956574  0.73668961  0.44911773  1
  H  H40  1  0.87667812  0.84283928  0.11561402  1
  H  H41  1  0.12332188  0.15716072  0.61561402  1
  H  H42  1  0.52432131  0.09460261  0.11434340  1
  H  H43  1  0.47567869  0.90539739  0.61434340  1
  H  H44  1  0.46968055  0.51094559  0.02228220  1
  H  H45  1  0.53031945  0.48905441  0.52228220  1
  H  H46  1  0.31822194  0.54559644  0.87488075  1
  H  H47  1  0.68177806  0.45440356  0.37488075  1
  H  H48  1  0.72298316  0.55062868  0.04269527  1
  H  H49  1  0.27701684  0.44937132  0.54269527  1
  H  H50  1  0.56815434  0.58708478  0.89572082  1
  H  H51  1  0.43184566  0.41291522  0.39572082  1
  H  H52  1  0.68001783  0.24510360  0.77691212  1
  H  H53  1  0.31998217  0.75489640  0.27691212  1
  H  H54  1  0.83764373  0.72272665  0.73932220  1
  H  H55  1  0.16235627  0.27727335  0.23932220  1
  H  H56  1  0.12873249  0.11766763  0.84541930  1
  H  H57  1  0.87126751  0.88233237  0.34541930  1
  H  H58  1  0.28060384  0.75920750  0.13618081  1
  H  H59  1  0.71939616  0.24079250  0.63618081  1
  H  H60  1  0.23482238  0.81221987  0.77901229  1
  H  H61  1  0.76517762  0.18778013  0.27901229  1
  H  H62  1  0.20347391  0.23543581  0.79737664  1
  H  H63  1  0.79652609  0.76456419  0.29737664  1
  Se  Se64  1  0.02888124  0.88816719  0.21254130  1
  Se  Se65  1  0.97111876  0.11183281  0.71254130  1
  Se  Se66  1  0.99017291  0.78019076  0.89983884  1
  Se  Se67  1  0.00982709  0.21980924  0.39983884  1
  Se  Se68  1  0.03942156  0.31864801  0.02398553  1
  Se  Se69  1  0.96057844  0.68135199  0.52398553  1
  O  O70  1  0.80544923  0.87796612  0.08463349  1
  O  O71  1  0.19455077  0.12203388  0.58463349  1
  O  O72  1  0.39071632  0.18640550  0.92289896  1
  O  O73  1  0.60928368  0.81359450  0.42289896  1
  O  O74  1  0.41318519  0.72329795  0.12031255  1
  O  O75  1  0.58681481  0.27670205  0.62031255  1
  O  O76  1  0.06794170  0.60126178  0.87282887  1
  O  O77  1  0.93205830  0.39873822  0.37282887  1
  O  O78  1  0.84735588  0.74006904  0.24084405  1
  O  O79  1  0.15264412  0.25993096  0.74084405  1
  O  O80  1  0.46798375  0.05623910  0.08157479  1
  O  O81  1  0.53201625  0.94376090  0.58157479  1
  O  O82  1  0.23232007  0.22069903  0.83332448  1
  O  O83  1  0.76767993  0.77930097  0.33332448  1
  O  O84  1  0.57211876  0.50514251  0.17895287  1
  O  O85  1  0.42788124  0.49485749  0.67895287  1
  O  O86  1  0.95223544  0.09249705  0.21329174  1
  O  O87  1  0.04776456  0.90750295  0.71329174  1
  O  O88  1  0.39236435  0.84368678  0.77728335  1
  O  O89  1  0.60763565  0.15631322  0.27728335  1
  O  O90  1  0.46546317  0.50513863  0.87509192  1
  O  O91  1  0.53453683  0.49486137  0.37509192  1
  O  O92  1  0.04930941  0.81590111  0.15528892  1
  O  O93  1  0.95069059  0.18409889  0.65528892  1
  O  O94  1  0.75242768  0.71838631  0.92803362  1
  O  O95  1  0.24757232  0.28161369  0.42803362  1
  O  O96  1  0.71327572  0.63973546  0.75143673  1
  O  O97  1  0.28672428  0.36026454  0.25143673  1
  O  O98  1  0.56161026  0.03049915  0.84982389  1
  O  O99  1  0.43838974  0.96950085  0.34982389  1
  O  O100  1  0.84177172  0.23683231  0.98554058  1
  O  O101  1  0.15822828  0.76316769  0.48554058  1
  O  O102  1  0.96584191  0.49541096  0.05243641  1
  O  O103  1  0.03415809  0.50458904  0.55243641  1
  O  O104  1  0.64163068  0.33628392  0.80103488  1
  O  O105  1  0.35836932  0.66371608  0.30103488  1
  O  O106  1  0.27285877  0.90345565  0.23879742  1
  O  O107  1  0.72714123  0.09654435  0.73879742  1
  O  O108  1  0.79118102  0.31381013  0.89243261  1
  O  O109  1  0.20881898  0.68618987  0.39243261  1
  O  O110  1  0.58145328  0.59859689  0.03853528  1
  O  O111  1  0.41854672  0.40140311  0.53853528  1
  O  O112  1  0.95731556  0.93111729  0.85705517  1
  O  O113  1  0.04268444  0.06888271  0.35705517  1
  O  O114  1  0.08115505  0.16254713  0.06427580  1
  O  O115  1  0.91884495  0.83745287  0.56427580  1
  O  O116  1  0.23775171  0.78097688  0.03331067  1
  O  O117  1  0.76224829  0.21902312  0.53331067  1
  O  O118  1  0.61660815  0.92425585  0.99917079  1
  O  O119  1  0.38339185  0.07574415  0.49917079  1
  O  O120  1  0.26970017  0.38445235  0.99322908  1
  O  O121  1  0.73029983  0.61554765  0.49322908  1
  O  O122  1  0.17815932  0.86663709  0.93984128  1
  O  O123  1  0.82184068  0.13336291  0.43984128  1
  O  O124  1  0.60191734  0.12532809  0.17762372  1
  O  O125  1  0.39808266  0.87467191  0.67762372  1
