# generated using pymatgen
data_Ba3CaRu2O9
_symmetry_space_group_name_H-M   'P 1'
_cell_length_a   5.90190639
_cell_length_b   5.90190638
_cell_length_c   7.28604080
_cell_angle_alpha   90.00000000
_cell_angle_beta   90.00000000
_cell_angle_gamma   119.99999998
_symmetry_Int_Tables_number   1
_chemical_formula_structural   Ba3CaRu2O9
_chemical_formula_sum   'Ba3 Ca1 Ru2 O9'
_cell_volume   219.78946098
_cell_formula_units_Z   1
loop_
 _symmetry_equiv_pos_site_id
 _symmetry_equiv_pos_as_xyz
  1  'x, y, z'
loop_
 _atom_site_type_symbol
 _atom_site_label
 _atom_site_symmetry_multiplicity
 _atom_site_fract_x
 _atom_site_fract_y
 _atom_site_fract_z
 _atom_site_occupancy
  O  O0  1  0.82160759  0.17839241  0.68645828  1
  O  O1  1  0.82160759  0.64321517  0.68645828  1
  O  O2  1  0.35678483  0.17839241  0.68645828  1
  O  O3  1  0.64321517  0.82160759  0.31354172  1
  O  O4  1  0.17839241  0.35678483  0.31354172  1
  O  O5  1  0.17839241  0.82160759  0.31354172  1
  O  O6  1  0.50000000  0.00000000  0.00000000  1
  O  O7  1  0.00000000  0.50000000  0.00000000  1
  O  O8  1  0.50000000  0.50000000  0.00000000  1
  Ca  Ca9  1  0.00000000  0.00000000  0.50000000  1
  Ru  Ru10  1  0.33333333  0.66666667  0.16581216  1
  Ru  Ru11  1  0.66666667  0.33333333  0.83418784  1
  Ba  Ba12  1  0.66666667  0.33333333  0.32296050  1
  Ba  Ba13  1  0.33333333  0.66666667  0.67703950  1
  Ba  Ba14  1  0.00000000  0.00000000  0.00000000  1
