# generated using pymatgen
data_Fe4O7F
_symmetry_space_group_name_H-M   'P 1'
_cell_length_a   6.00754469
_cell_length_b   6.43377439
_cell_length_c   7.32424361
_cell_angle_alpha   90.00000000
_cell_angle_beta   114.21197484
_cell_angle_gamma   90.00000000
_symmetry_Int_Tables_number   1
_chemical_formula_structural   Fe4O7F
_chemical_formula_sum   'Fe8 O14 F2'
_cell_volume   258.18847261
_cell_formula_units_Z   2
loop_
 _symmetry_equiv_pos_site_id
 _symmetry_equiv_pos_as_xyz
  1  'x, y, z'
loop_
 _atom_site_type_symbol
 _atom_site_label
 _atom_site_symmetry_multiplicity
 _atom_site_fract_x
 _atom_site_fract_y
 _atom_site_fract_z
 _atom_site_occupancy
  Fe  Fe0  1  0.49867361  0.00000000  0.00846491  1
  Fe  Fe1  1  0.00979030  0.00000000  0.00846491  1
  Fe  Fe2  1  0.75266624  0.50000000  0.00533348  1
  Fe  Fe3  1  0.24166753  0.50000000  0.98333606  1
  Fe  Fe4  1  0.49312871  0.00000000  0.48625741  1
  Fe  Fe5  1  0.00037637  0.00000000  0.50075275  1
  Fe  Fe6  1  0.75869133  0.50000000  0.50782111  1
  Fe  Fe7  1  0.24912977  0.50000000  0.50782111  1
  O  O8  1  0.34824261  0.00000000  0.19648422  1
  O  O9  1  0.84302027  0.00000000  0.18604155  1
  O  O10  1  0.50330071  0.30791708  0.00000755  1
  O  O11  1  0.99670684  0.30791708  0.00000755  1
  O  O12  1  0.50330071  0.69208292  0.00000755  1
  O  O13  1  0.74691093  0.19367287  0.49950728  1
  O  O14  1  0.25259635  0.19367287  0.49950728  1
  O  O15  1  0.99670684  0.69208292  0.00000755  1
  O  O16  1  0.15741760  0.00000000  0.81483519  1
  O  O17  1  0.90729233  0.50000000  0.31458466  1
  O  O18  1  0.09774738  0.50000000  0.69549477  1
  O  O19  1  0.59340742  0.50000000  0.68681483  1
  O  O20  1  0.74691093  0.80632713  0.49950728  1
  O  O21  1  0.25259635  0.80632713  0.49950728  1
  F  F22  1  0.65085598  0.00000000  0.80171195  1
  F  F23  1  0.39886088  0.50000000  0.29772177  1
