# generated using pymatgen
data_Cr2S3
_symmetry_space_group_name_H-M   'P 1'
_cell_length_a   6.02587949
_cell_length_b   6.02587949
_cell_length_c   11.26503427
_cell_angle_alpha   90.00000000
_cell_angle_beta   90.00000000
_cell_angle_gamma   120.00000003
_symmetry_Int_Tables_number   1
_chemical_formula_structural   Cr2S3
_chemical_formula_sum   'Cr8 S12'
_cell_volume   354.24524808
_cell_formula_units_Z   4
loop_
 _symmetry_equiv_pos_site_id
 _symmetry_equiv_pos_as_xyz
  1  'x, y, z'
loop_
 _atom_site_type_symbol
 _atom_site_label
 _atom_site_symmetry_multiplicity
 _atom_site_fract_x
 _atom_site_fract_y
 _atom_site_fract_z
 _atom_site_occupancy
  S  S0  1  0.67543641  0.65378476  0.88349506  1
  S  S1  1  0.34621524  0.02165165  0.88349506  1
  S  S2  1  0.97834835  0.32456359  0.88349506  1
  S  S3  1  0.34621524  0.32456359  0.61650494  1
  S  S4  1  0.97834835  0.65378476  0.61650494  1
  S  S5  1  0.67543641  0.02165165  0.61650494  1
  S  S6  1  0.32456359  0.34621524  0.11650494  1
  S  S7  1  0.65378476  0.97834835  0.11650494  1
  S  S8  1  0.32456359  0.97834835  0.38349506  1
  S  S9  1  0.02165165  0.34621524  0.38349506  1
  S  S10  1  0.65378476  0.67543641  0.38349506  1
  S  S11  1  0.02165165  0.67543641  0.11650494  1
  Cr  Cr12  1  0.66666667  0.33333333  0.48251367  1
  Cr  Cr13  1  0.66666667  0.33333333  0.01748633  1
  Cr  Cr14  1  0.33333333  0.66666667  0.51748633  1
  Cr  Cr15  1  0.33333333  0.66666667  0.98251367  1
  Cr  Cr16  1  0.00000000  0.00000000  0.50000000  1
  Cr  Cr17  1  0.00000000  0.00000000  0.00000000  1
  Cr  Cr18  1  0.66666667  0.33333333  0.75000000  1
  Cr  Cr19  1  0.33333333  0.66666667  0.25000000  1
