# generated using pymatgen
data_Bi26Mo10O69
_symmetry_space_group_name_H-M   'P 1'
_cell_length_a   5.89305374
_cell_length_b   11.98479322
_cell_length_c   25.51203464
_cell_angle_alpha   101.97243098
_cell_angle_beta   90.59270529
_cell_angle_gamma   89.34247801
_symmetry_Int_Tables_number   1
_chemical_formula_structural   Bi26Mo10O69
_chemical_formula_sum   'Bi26 Mo10 O69'
_cell_volume   1762.47031092
_cell_formula_units_Z   1
loop_
 _symmetry_equiv_pos_site_id
 _symmetry_equiv_pos_as_xyz
  1  'x, y, z'
loop_
 _atom_site_type_symbol
 _atom_site_label
 _atom_site_symmetry_multiplicity
 _atom_site_fract_x
 _atom_site_fract_y
 _atom_site_fract_z
 _atom_site_occupancy
  Bi  Bi0  1  0.90727968  0.65249810  0.23958735  1
  Bi  Bi1  1  0.91717119  0.33942028  0.25087388  1
  Bi  Bi2  1  0.09155102  0.34615837  0.75707626  1
  Bi  Bi3  1  0.08487578  0.66086458  0.74877032  1
  Bi  Bi4  1  0.49355419  0.85672658  0.31403715  1
  Bi  Bi5  1  0.51222738  0.13635934  0.17389049  1
  Bi  Bi6  1  0.50997139  0.14514615  0.68288340  1
  Bi  Bi7  1  0.49355037  0.86199543  0.82508258  1
  Bi  Bi8  1  0.02069990  0.41783742  0.40433776  1
  Bi  Bi9  1  0.99965921  0.56584019  0.09000440  1
  Bi  Bi10  1  0.97877645  0.58316642  0.59619252  1
  Bi  Bi11  1  0.99446508  0.41879695  0.90785315  1
  Bi  Bi12  1  0.49598223  0.76198473  0.15225794  1
  Bi  Bi13  1  0.51348553  0.23270651  0.33847882  1
  Bi  Bi14  1  0.49439719  0.23488891  0.84495547  1
  Bi  Bi15  1  0.48797527  0.77138070  0.66213451  1
  Bi  Bi16  1  0.01102421  0.73853807  0.39293789  1
  Bi  Bi17  1  0.01607056  0.23820066  0.10354866  1
  Bi  Bi18  1  0.98889263  0.26505171  0.60520694  1
  Bi  Bi19  1  0.98031503  0.74294460  0.89992625  1
  Bi  Bi20  1  0.41992625  0.53758274  0.32121847  1
  Bi  Bi21  1  0.40617495  0.45674125  0.17218174  1
  Bi  Bi22  1  0.58179861  0.46448877  0.67790650  1
  Bi  Bi23  1  0.59130951  0.53900634  0.82732283  1
  Bi  Bi24  1  0.48070802  0.99240262  0.48988068  1
  Bi  Bi25  1  0.60858153  0.99775351  0.00659909  1
  Mo  Mo26  1  0.00830731  0.07926030  0.42484672  1
  Mo  Mo27  1  0.06058880  0.93837966  0.07531256  1
  Mo  Mo28  1  0.98801150  0.93064085  0.57647008  1
  Mo  Mo29  1  0.02696255  0.07544251  0.91970319  1
  Mo  Mo30  1  0.98440442  0.00105089  0.25516954  1
  Mo  Mo31  1  0.01545025  0.99648001  0.74572492  1
  Mo  Mo32  1  0.50437111  0.66912434  0.48897411  1
  Mo  Mo33  1  0.50095544  0.32661295  0.01103167  1
  Mo  Mo34  1  0.49229987  0.32371444  0.51348678  1
  Mo  Mo35  1  0.49277403  0.65421441  0.98527806  1
  O  O36  1  0.07201638  0.56073547  0.36468256  1
  O  O37  1  0.06272138  0.43519102  0.13299467  1
  O  O38  1  0.93277425  0.44330953  0.63764536  1
  O  O39  1  0.93940763  0.56103742  0.86596289  1
  O  O40  1  0.72924485  0.01442836  0.42447693  1
  O  O41  1  0.77176608  0.04666827  0.08458479  1
  O  O42  1  0.27551139  0.97597121  0.56697345  1
  O  O43  1  0.30479144  0.01444491  0.92270303  1
  O  O44  1  0.76626340  0.73601840  0.33001319  1
  O  O45  1  0.76587408  0.26899923  0.16650370  1
  O  O46  1  0.23176205  0.26541530  0.66818161  1
  O  O47  1  0.22889229  0.74172929  0.83654888  1
  O  O48  1  0.00266920  0.20154811  0.39510653  1
  O  O49  1  0.00249919  0.82545382  0.10776999  1
  O  O50  1  0.99743947  0.80205907  0.60099655  1
  O  O51  1  0.03485981  0.19678370  0.88785220  1
  O  O52  1  0.77713987  0.98195341  0.20265445  1
  O  O53  1  0.83289454  0.01073979  0.31684766  1
  O  O54  1  0.18807515  0.00932908  0.80471910  1
  O  O55  1  0.20651105  0.97979474  0.69005100  1
  O  O56  1  0.24750689  0.63647352  0.15599128  1
  O  O57  1  0.26096719  0.36266171  0.33801975  1
  O  O58  1  0.74563751  0.36258317  0.84138582  1
  O  O59  1  0.73915452  0.64028866  0.66205391  1
  O  O60  1  0.39355386  0.79690368  0.46699032  1
  O  O61  1  0.43696140  0.19797760  0.03491546  1
  O  O62  1  0.59059513  0.18891890  0.52966395  1
  O  O63  1  0.57967585  0.77581273  0.95920973  1
  O  O64  1  0.27450457  0.72506710  0.33157469  1
  O  O65  1  0.27401772  0.27914850  0.17111760  1
  O  O66  1  0.72454006  0.28096726  0.66900675  1
  O  O67  1  0.72898798  0.72570419  0.83338707  1
  O  O68  1  0.74921624  0.62854907  0.15217236  1
  O  O69  1  0.75123000  0.37117544  0.34506513  1
  O  O70  1  0.25745593  0.37467808  0.84574770  1
  O  O71  1  0.24126959  0.63588170  0.65708332  1
  O  O72  1  0.56210721  0.69489532  0.55970075  1
  O  O73  1  0.55195225  0.29794026  0.93953621  1
  O  O74  1  0.43396307  0.30554093  0.44321338  1
  O  O75  1  0.47812045  0.67421435  0.05727877  1
  O  O76  1  0.22594394  0.97222126  0.40088870  1
  O  O77  1  0.15886906  0.07122198  0.12527041  1
  O  O78  1  0.84288034  0.04328665  0.61993831  1
  O  O79  1  0.83591290  0.96157250  0.88963253  1
  O  O80  1  0.75075791  0.61893033  0.44960379  1
  O  O81  1  0.73412637  0.39593527  0.05015037  1
  O  O82  1  0.25150966  0.37664140  0.55533051  1
  O  O83  1  0.22535075  0.60930834  0.95258985  1
  O  O84  1  0.22415548  0.50069930  0.24787810  1
  O  O85  1  0.77386742  0.50255680  0.75207550  1
  O  O86  1  0.10543059  0.12496954  0.49226795  1
  O  O87  1  0.94292498  0.89894860  0.00587712  1
  O  O88  1  0.81720756  0.90812218  0.51473545  1
  O  O89  1  0.91466828  0.12876409  0.98564745  1
  O  O90  1  0.71276745  0.49896761  0.24832498  1
  O  O91  1  0.28651608  0.50246536  0.75155551  1
  O  O92  1  0.17441322  0.87821373  0.24816977  1
  O  O93  1  0.15189496  0.12724736  0.25843721  1
  O  O94  1  0.83475718  0.12153582  0.74889212  1
  O  O95  1  0.83502987  0.87347053  0.73943919  1
  O  O96  1  0.28727846  0.56595974  0.47453768  1
  O  O97  1  0.25815859  0.41768253  0.02360187  1
  O  O98  1  0.71709854  0.42277761  0.53051073  1
  O  O99  1  0.70097137  0.54657328  0.96319185  1
  O  O100  1  0.58995158  0.75858914  0.23729277  1
  O  O101  1  0.60847617  0.23005698  0.25721695  1
  O  O102  1  0.40384688  0.23700788  0.75993355  1
  O  O103  1  0.39917243  0.76760103  0.74452725  1
  O  O104  1  0.35698265  0.91127960  0.05315733  1
