# generated using pymatgen
data_RbMo6Se7
_symmetry_space_group_name_H-M   'P 1'
_cell_length_a   10.02450151
_cell_length_b   10.02450151
_cell_length_c   10.02450151
_cell_angle_alpha   58.24037811
_cell_angle_beta   58.24037807
_cell_angle_gamma   58.24037806
_symmetry_Int_Tables_number   1
_chemical_formula_structural   RbMo6Se7
_chemical_formula_sum   'Rb2 Mo12 Se14'
_cell_volume   683.60290541
_cell_formula_units_Z   2
loop_
 _symmetry_equiv_pos_site_id
 _symmetry_equiv_pos_as_xyz
  1  'x, y, z'
loop_
 _atom_site_type_symbol
 _atom_site_label
 _atom_site_symmetry_multiplicity
 _atom_site_fract_x
 _atom_site_fract_y
 _atom_site_fract_z
 _atom_site_occupancy
  Se  Se0  1  0.08021333  0.33121117  0.69754127  1
  Se  Se1  1  0.30245873  0.91978667  0.66878883  1
  Se  Se2  1  0.71957213  0.71957213  0.71957213  1
  Se  Se3  1  0.28042787  0.28042787  0.28042787  1
  Se  Se4  1  0.48397476  0.12912581  0.74493533  1
  Se  Se5  1  0.12912581  0.74493533  0.48397476  1
  Se  Se6  1  0.74493533  0.48397476  0.12912581  1
  Se  Se7  1  0.51602524  0.87087419  0.25506467  1
  Se  Se8  1  0.87087419  0.25506467  0.51602524  1
  Se  Se9  1  0.25506467  0.51602524  0.87087419  1
  Se  Se10  1  0.91978667  0.66878883  0.30245873  1
  Se  Se11  1  0.66878883  0.30245873  0.91978667  1
  Se  Se12  1  0.69754127  0.08021333  0.33121117  1
  Se  Se13  1  0.33121117  0.69754127  0.08021333  1
  Rb  Rb14  1  0.86856436  0.86856436  0.86856436  1
  Rb  Rb15  1  0.13143564  0.13143564  0.13143564  1
  Mo  Mo16  1  0.56049822  0.37816037  0.69531798  1
  Mo  Mo17  1  0.37816037  0.69531798  0.56049822  1
  Mo  Mo18  1  0.69531798  0.56049822  0.37816037  1
  Mo  Mo19  1  0.43950178  0.62183963  0.30468202  1
  Mo  Mo20  1  0.62183963  0.30468202  0.43950178  1
  Mo  Mo21  1  0.30468202  0.43950178  0.62183963  1
  Mo  Mo22  1  0.49244668  0.61633894  0.80594172  1
  Mo  Mo23  1  0.61633894  0.80594172  0.49244668  1
  Mo  Mo24  1  0.80594172  0.49244668  0.61633894  1
  Mo  Mo25  1  0.50755332  0.38366106  0.19405828  1
  Mo  Mo26  1  0.38366106  0.19405828  0.50755332  1
  Mo  Mo27  1  0.19405828  0.50755332  0.38366106  1
