# generated using pymatgen
data_BaGd2ZnO5
_symmetry_space_group_name_H-M   'P 1'
_cell_length_a   5.81990542
_cell_length_b   7.23504262
_cell_length_c   12.58583251
_cell_angle_alpha   90.00000000
_cell_angle_beta   90.00000000
_cell_angle_gamma   90.00000000
_symmetry_Int_Tables_number   1
_chemical_formula_structural   BaGd2ZnO5
_chemical_formula_sum   'Ba4 Gd8 Zn4 O20'
_cell_volume   529.95496911
_cell_formula_units_Z   4
loop_
 _symmetry_equiv_pos_site_id
 _symmetry_equiv_pos_as_xyz
  1  'x, y, z'
loop_
 _atom_site_type_symbol
 _atom_site_label
 _atom_site_symmetry_multiplicity
 _atom_site_fract_x
 _atom_site_fract_y
 _atom_site_fract_z
 _atom_site_occupancy
  O  O0  1  0.25000000  0.42901030  0.59916292  1
  O  O1  1  0.75000000  0.57098970  0.40083708  1
  O  O2  1  0.75000000  0.92901030  0.90083708  1
  O  O3  1  0.25000000  0.07098970  0.09916292  1
  O  O4  1  0.00233530  0.85508400  0.27530628  1
  O  O5  1  0.50233530  0.14491600  0.72469372  1
  O  O6  1  0.99766470  0.35508400  0.22469372  1
  O  O7  1  0.49766470  0.64491600  0.77530628  1
  O  O8  1  0.99766470  0.14491600  0.72469372  1
  O  O9  1  0.49766470  0.85508400  0.27530628  1
  O  O10  1  0.00233530  0.64491600  0.77530628  1
  O  O11  1  0.50233530  0.35508400  0.22469372  1
  O  O12  1  0.49640078  0.66525195  0.06582897  1
  O  O13  1  0.99640078  0.33474805  0.93417103  1
  O  O14  1  0.50359922  0.16525195  0.43417103  1
  O  O15  1  0.00359922  0.83474805  0.56582897  1
  O  O16  1  0.99640078  0.16525195  0.43417103  1
  O  O17  1  0.49640078  0.83474805  0.56582897  1
  O  O18  1  0.00359922  0.66525195  0.06582897  1
  O  O19  1  0.50359922  0.33474805  0.93417103  1
  Zn  Zn20  1  0.25000000  0.80811032  0.14964652  1
  Zn  Zn21  1  0.75000000  0.19188968  0.85035348  1
  Zn  Zn22  1  0.75000000  0.30811032  0.35035348  1
  Zn  Zn23  1  0.25000000  0.69188968  0.64964652  1
  Ba  Ba24  1  0.75000000  0.07681537  0.10098033  1
  Ba  Ba25  1  0.75000000  0.42318463  0.60098033  1
  Ba  Ba26  1  0.25000000  0.57681537  0.39901967  1
  Ba  Ba27  1  0.25000000  0.92318463  0.89901967  1
  Gd  Gd28  1  0.25000000  0.39829659  0.07446607  1
  Gd  Gd29  1  0.75000000  0.61756119  0.20784454  1
  Gd  Gd30  1  0.75000000  0.88243881  0.70784454  1
  Gd  Gd31  1  0.25000000  0.11756119  0.29215546  1
  Gd  Gd32  1  0.75000000  0.60170341  0.92553393  1
  Gd  Gd33  1  0.75000000  0.89829659  0.42553393  1
  Gd  Gd34  1  0.25000000  0.10170341  0.57446607  1
  Gd  Gd35  1  0.25000000  0.38243881  0.79215546  1
