# generated using pymatgen
data_Tm2ZnS4
_symmetry_space_group_name_H-M   'P 1'
_cell_length_a   6.29319216
_cell_length_b   7.79425018
_cell_length_c   13.39512059
_cell_angle_alpha   90.00000000
_cell_angle_beta   90.00000000
_cell_angle_gamma   90.00000000
_symmetry_Int_Tables_number   1
_chemical_formula_structural   Tm2ZnS4
_chemical_formula_sum   'Tm8 Zn4 S16'
_cell_volume   657.04023074
_cell_formula_units_Z   4
loop_
 _symmetry_equiv_pos_site_id
 _symmetry_equiv_pos_as_xyz
  1  'x, y, z'
loop_
 _atom_site_type_symbol
 _atom_site_label
 _atom_site_symmetry_multiplicity
 _atom_site_fract_x
 _atom_site_fract_y
 _atom_site_fract_z
 _atom_site_occupancy
  S  S0  1  0.24247504  0.51160753  0.83166951  1
  S  S1  1  0.74247504  0.48839247  0.66833049  1
  S  S2  1  0.75752496  0.01160753  0.16833049  1
  S  S3  1  0.25752496  0.98839247  0.33166951  1
  S  S4  1  0.75752496  0.48839247  0.16833049  1
  S  S5  1  0.25752496  0.51160753  0.33166951  1
  S  S6  1  0.24247504  0.98839247  0.83166951  1
  S  S7  1  0.74247504  0.01160753  0.66833049  1
  S  S8  1  0.25476365  0.75000000  0.07098938  1
  S  S9  1  0.75476365  0.25000000  0.42901062  1
  S  S10  1  0.74523635  0.25000000  0.92901062  1
  S  S11  1  0.24523635  0.75000000  0.57098938  1
  S  S12  1  0.77724004  0.75000000  0.90967860  1
  S  S13  1  0.27724004  0.25000000  0.59032140  1
  S  S14  1  0.22275996  0.25000000  0.09032140  1
  S  S15  1  0.72275996  0.75000000  0.40967860  1
  Zn  Zn16  1  0.08858525  0.75000000  0.40842516  1
  Zn  Zn17  1  0.58858525  0.25000000  0.09157484  1
  Zn  Zn18  1  0.91141475  0.25000000  0.59157484  1
  Zn  Zn19  1  0.41141475  0.75000000  0.90842516  1
  Tm  Tm20  1  0.50295321  0.75000000  0.23488530  1
  Tm  Tm21  1  0.00295321  0.25000000  0.26511470  1
  Tm  Tm22  1  0.49704679  0.25000000  0.76511470  1
  Tm  Tm23  1  0.99704679  0.75000000  0.73488530  1
  Tm  Tm24  1  0.50000000  0.50000000  0.50000000  1
  Tm  Tm25  1  0.00000000  0.50000000  0.00000000  1
  Tm  Tm26  1  0.50000000  0.00000000  0.50000000  1
  Tm  Tm27  1  0.00000000  0.00000000  0.00000000  1
