# generated using pymatgen
data_Ba4Tb2Cd3S10
_symmetry_space_group_name_H-M   'P 1'
_cell_length_a   4.19091323
_cell_length_b   9.37230764
_cell_length_c   26.94282492
_cell_angle_alpha   90.00000000
_cell_angle_beta   90.00000000
_cell_angle_gamma   102.91936650
_symmetry_Int_Tables_number   1
_chemical_formula_structural   Ba4Tb2Cd3S10
_chemical_formula_sum   'Ba8 Tb4 Cd6 S20'
_cell_volume   1031.48500409
_cell_formula_units_Z   2
loop_
 _symmetry_equiv_pos_site_id
 _symmetry_equiv_pos_as_xyz
  1  'x, y, z'
loop_
 _atom_site_type_symbol
 _atom_site_label
 _atom_site_symmetry_multiplicity
 _atom_site_fract_x
 _atom_site_fract_y
 _atom_site_fract_z
 _atom_site_occupancy
  S  S0  1  0.57634048  0.15268095  0.32051920  1
  S  S1  1  0.42365952  0.84731905  0.82051920  1
  S  S2  1  0.58940217  0.17880435  0.18432308  1
  S  S3  1  0.41059783  0.82119565  0.68432308  1
  S  S4  1  0.65014591  0.30029182  0.48920129  1
  S  S5  1  0.34985409  0.69970818  0.98920129  1
  S  S6  1  0.65303615  0.30607230  0.01879353  1
  S  S7  1  0.34696385  0.69392770  0.51879353  1
  S  S8  1  0.76995261  0.53990523  0.76599918  1
  S  S9  1  0.23004739  0.46009477  0.26599918  1
  S  S10  1  0.78891498  0.57782996  0.37799970  1
  S  S11  1  0.21108502  0.42217004  0.87799970  1
  S  S12  1  0.79256994  0.58513988  0.13114639  1
  S  S13  1  0.20743006  0.41486012  0.63114639  1
  S  S14  1  0.92666622  0.85333244  0.24717067  1
  S  S15  1  0.07333378  0.14666756  0.74717067  1
  S  S16  1  0.98420762  0.96841524  0.43333707  1
  S  S17  1  0.01579238  0.03158476  0.93333707  1
  S  S18  1  0.01127678  0.02255356  0.57064830  1
  S  S19  1  0.98872322  0.97744644  0.07064830  1
  Cd  Cd20  1  0.78268394  0.56536788  0.23173834  1
  Cd  Cd21  1  0.21731606  0.43463212  0.73173834  1
  Cd  Cd22  1  0.84099914  0.68199828  0.46200418  1
  Cd  Cd23  1  0.15900086  0.31800172  0.96200418  1
  Cd  Cd24  1  0.84629555  0.69259110  0.04397183  1
  Cd  Cd25  1  0.15370445  0.30740890  0.54397183  1
  Ba  Ba26  1  0.40523327  0.81046654  0.33932604  1
  Ba  Ba27  1  0.59476673  0.18953346  0.83932604  1
  Ba  Ba28  1  0.42438155  0.84876310  0.15620097  1
  Ba  Ba29  1  0.57561845  0.15123690  0.65620097  1
  Ba  Ba30  1  0.83738593  0.67477187  0.61122372  1
  Ba  Ba31  1  0.16261407  0.32522813  0.11122372  1
  Ba  Ba32  1  0.83811323  0.67622646  0.89010896  1
  Ba  Ba33  1  0.16188677  0.32377354  0.39010896  1
  Tb  Tb34  1  0.49717859  0.99435718  0.49990512  1
  Tb  Tb35  1  0.50282141  0.00564282  0.99990512  1
  Tb  Tb36  1  0.92123421  0.84246843  0.75330242  1
  Tb  Tb37  1  0.07876579  0.15753157  0.25330242  1
