# generated using pymatgen
data_Er2Cu(B2O5)2
_symmetry_space_group_name_H-M   'P 1'
_cell_length_a   4.59348269
_cell_length_b   7.26863399
_cell_length_c   9.34457777
_cell_angle_alpha   90.00000000
_cell_angle_beta   90.38821443
_cell_angle_gamma   90.00000000
_symmetry_Int_Tables_number   1
_chemical_formula_structural   Er2Cu(B2O5)2
_chemical_formula_sum   'Er4 Cu2 B8 O20'
_cell_volume   311.99281920
_cell_formula_units_Z   2
loop_
 _symmetry_equiv_pos_site_id
 _symmetry_equiv_pos_as_xyz
  1  'x, y, z'
loop_
 _atom_site_type_symbol
 _atom_site_label
 _atom_site_symmetry_multiplicity
 _atom_site_fract_x
 _atom_site_fract_y
 _atom_site_fract_z
 _atom_site_occupancy
  B  B0  1  0.46058686  0.73166291  0.08036096  1
  B  B1  1  0.53941314  0.23166291  0.41963904  1
  B  B2  1  0.53941314  0.26833709  0.91963904  1
  B  B3  1  0.46058686  0.76833709  0.58036096  1
  B  B4  1  0.47179236  0.40162054  0.66237117  1
  B  B5  1  0.52820764  0.90162054  0.83762883  1
  B  B6  1  0.47179236  0.09837946  0.16237117  1
  B  B7  1  0.52820764  0.59837946  0.33762883  1
  O  O8  1  0.64146849  0.77734802  0.95222713  1
  O  O9  1  0.35853151  0.27734802  0.54777287  1
  O  O10  1  0.34200590  0.16483063  0.30075972  1
  O  O11  1  0.65799410  0.66483063  0.19924028  1
  O  O12  1  0.65799410  0.83516937  0.69924028  1
  O  O13  1  0.34200590  0.33516937  0.80075972  1
  O  O14  1  0.32263237  0.91214072  0.13822403  1
  O  O15  1  0.67736763  0.41214072  0.36177597  1
  O  O16  1  0.67736763  0.08785928  0.86177597  1
  O  O17  1  0.32263237  0.58785928  0.63822403  1
  O  O18  1  0.78576294  0.08944397  0.16644637  1
  O  O19  1  0.21423706  0.58944397  0.33355363  1
  O  O20  1  0.21423706  0.91055603  0.83355363  1
  O  O21  1  0.78576294  0.41055603  0.66644637  1
  O  O22  1  0.22872334  0.88913804  0.54176847  1
  O  O23  1  0.77127666  0.38913804  0.95823153  1
  O  O24  1  0.77127666  0.11086196  0.45823153  1
  O  O25  1  0.22872334  0.61086196  0.04176847  1
  O  O26  1  0.35853151  0.22265198  0.04777287  1
  O  O27  1  0.64146849  0.72265198  0.45222713  1
  Cu  Cu28  1  0.00000000  0.00000000  0.00000000  1
  Cu  Cu29  1  0.00000000  0.50000000  0.50000000  1
  Er  Er30  1  0.99628403  0.60398627  0.83495350  1
  Er  Er31  1  0.00371597  0.10398627  0.66504650  1
  Er  Er32  1  0.99628403  0.89601373  0.33495350  1
  Er  Er33  1  0.00371597  0.39601373  0.16504650  1
