# generated using pymatgen
data_Hg5Au6
_symmetry_space_group_name_H-M   'P 1'
_cell_length_a   7.20417795
_cell_length_b   7.20417795
_cell_length_c   10.41049253
_cell_angle_alpha   90.00000000
_cell_angle_beta   90.00000000
_cell_angle_gamma   120.00000003
_symmetry_Int_Tables_number   1
_chemical_formula_structural   Hg5Au6
_chemical_formula_sum   'Hg10 Au12'
_cell_volume   467.91909913
_cell_formula_units_Z   2
loop_
 _symmetry_equiv_pos_site_id
 _symmetry_equiv_pos_as_xyz
  1  'x, y, z'
loop_
 _atom_site_type_symbol
 _atom_site_label
 _atom_site_symmetry_multiplicity
 _atom_site_fract_x
 _atom_site_fract_y
 _atom_site_fract_z
 _atom_site_occupancy
  Au  Au0  1  0.23860248  0.00000000  0.11074121  1
  Au  Au1  1  0.23860248  0.23860248  0.61074121  1
  Au  Au2  1  0.00000000  0.76139752  0.61074121  1
  Au  Au3  1  0.00000000  0.23860248  0.11074121  1
  Au  Au4  1  0.76139752  0.76139752  0.11074121  1
  Au  Au5  1  0.23860248  0.00000000  0.38925879  1
  Au  Au6  1  0.76139752  0.76139752  0.38925879  1
  Au  Au7  1  0.76139752  0.00000000  0.61074121  1
  Au  Au8  1  0.00000000  0.23860248  0.38925879  1
  Au  Au9  1  0.00000000  0.76139752  0.88925879  1
  Au  Au10  1  0.76139752  0.00000000  0.88925879  1
  Au  Au11  1  0.23860248  0.23860248  0.88925879  1
  Hg  Hg12  1  0.58505644  0.00000000  0.25000000  1
  Hg  Hg13  1  0.58505644  0.58505644  0.75000000  1
  Hg  Hg14  1  0.00000000  0.41494356  0.75000000  1
  Hg  Hg15  1  0.00000000  0.58505644  0.25000000  1
  Hg  Hg16  1  0.41494356  0.41494356  0.25000000  1
  Hg  Hg17  1  0.41494356  0.00000000  0.75000000  1
  Hg  Hg18  1  0.33333333  0.66666667  0.00000000  1
  Hg  Hg19  1  0.66666667  0.33333333  0.50000000  1
  Hg  Hg20  1  0.66666667  0.33333333  0.00000000  1
  Hg  Hg21  1  0.33333333  0.66666667  0.50000000  1
