# generated using pymatgen
data_Ca3Mn2O7
_symmetry_space_group_name_H-M   'P 1'
_cell_length_a   5.38662608
_cell_length_b   5.34003136
_cell_length_c   10.10010128
_cell_angle_alpha   105.32865040
_cell_angle_beta   90.00000000
_cell_angle_gamma   90.00000000
_symmetry_Int_Tables_number   1
_chemical_formula_structural   Ca3Mn2O7
_chemical_formula_sum   'Ca6 Mn4 O14'
_cell_volume   280.19151704
_cell_formula_units_Z   2
loop_
 _symmetry_equiv_pos_site_id
 _symmetry_equiv_pos_as_xyz
  1  'x, y, z'
loop_
 _atom_site_type_symbol
 _atom_site_label
 _atom_site_symmetry_multiplicity
 _atom_site_fract_x
 _atom_site_fract_y
 _atom_site_fract_z
 _atom_site_occupancy
  O  O0  1  0.73849863  -0.00003380  0.60791562  1
  O  O1  1  0.23849863  1.00003380  0.39208438  1
  O  O2  1  0.23849863  0.60794942  0.60791562  1
  O  O3  1  0.73849863  0.39205058  0.39208438  1
  O  O4  1  0.03965353  0.34626805  0.77563311  1
  O  O5  1  0.53965353  0.65373195  0.22436689  1
  O  O6  1  0.53965353  0.42936507  0.77563311  1
  O  O7  1  0.03965353  0.57063493  0.22436689  1
  O  O8  1  0.95705496  0.87348712  0.83305313  1
  O  O9  1  0.45705496  0.12651288  0.16694687  1
  O  O10  1  0.76703958  0.32337683  0.00000000  1
  O  O11  1  0.26703958  0.67662317  0.00000000  1
  O  O12  1  0.95705496  0.04043399  0.16694687  1
  O  O13  1  0.45705496  0.95956601  0.83305313  1
  Ca  Ca14  1  0.70635810  0.75548537  0.00000000  1
  Ca  Ca15  1  0.20635810  0.24451463  0.00000000  1
  Ca  Ca16  1  0.78858807  0.56913062  0.62546620  1
  Ca  Ca17  1  0.28858807  0.43086938  0.37453380  1
  Ca  Ca18  1  0.78858807  0.94366442  0.37453380  1
  Ca  Ca19  1  0.28858807  0.05633558  0.62546620  1
  Mn  Mn20  1  0.74950597  0.34852010  0.19653137  1
  Mn  Mn21  1  0.24950597  0.65147990  0.80346863  1
  Mn  Mn22  1  0.24950597  0.84801127  0.19653137  1
  Mn  Mn23  1  0.74950597  0.15198873  0.80346863  1
