# generated using pymatgen
data_BaDy2CoO5
_symmetry_space_group_name_H-M   'P 1'
_cell_length_a   3.77953069
_cell_length_b   5.82997639
_cell_length_c   6.74931797
_cell_angle_alpha   115.58581869
_cell_angle_beta   106.25934560
_cell_angle_gamma   89.99798367
_symmetry_Int_Tables_number   1
_chemical_formula_structural   BaDy2CoO5
_chemical_formula_sum   'Ba1 Dy2 Co1 O5'
_cell_volume   127.50908217
_cell_formula_units_Z   1
loop_
 _symmetry_equiv_pos_site_id
 _symmetry_equiv_pos_as_xyz
  1  'x, y, z'
loop_
 _atom_site_type_symbol
 _atom_site_label
 _atom_site_symmetry_multiplicity
 _atom_site_fract_x
 _atom_site_fract_y
 _atom_site_fract_z
 _atom_site_occupancy
  Ba  Ba0  1  0.99999888  0.99999975  0.99999979  1
  Dy  Dy1  1  0.79652866  0.29654424  0.59308496  1
  Dy  Dy2  1  0.20347225  0.70345568  0.40691526  1
  Co  Co3  1  0.50000481  0.49999997  0.00000012  1
  O  O4  1  0.65140992  0.40983718  0.30266087  1
  O  O5  1  0.34861172  0.10712456  0.69735053  1
  O  O6  1  0.34859014  0.59016298  0.69733964  1
  O  O7  1  0.65138967  0.89287568  0.30264959  1
  O  O8  1  -0.00000405  0.49999995  0.00000023  1
