# generated using pymatgen
data_Fe4O7F
_symmetry_space_group_name_H-M   'P 1'
_cell_length_a   5.51444172
_cell_length_b   9.72168811
_cell_length_c   5.51444172
_cell_angle_alpha   78.67628603
_cell_angle_beta   66.01391825
_cell_angle_gamma   98.06469659
_symmetry_Int_Tables_number   1
_chemical_formula_structural   Fe4O7F
_chemical_formula_sum   'Fe8 O14 F2'
_cell_volume   256.72211609
_cell_formula_units_Z   2
loop_
 _symmetry_equiv_pos_site_id
 _symmetry_equiv_pos_as_xyz
  1  'x, y, z'
loop_
 _atom_site_type_symbol
 _atom_site_label
 _atom_site_symmetry_multiplicity
 _atom_site_fract_x
 _atom_site_fract_y
 _atom_site_fract_z
 _atom_site_occupancy
  Fe  Fe0  1  0.63631579  0.25739020  0.87892560  1
  Fe  Fe1  1  0.89193447  0.76089847  0.63103500  1
  Fe  Fe2  1  0.23999225  0.49595896  0.75225578  1
  Fe  Fe3  1  0.74821474  0.49595896  0.24403329  1
  Fe  Fe4  1  0.50303135  0.99581202  0.48876599  1
  Fe  Fe5  1  0.36938592  0.74669211  0.12269380  1
  Fe  Fe6  1  0.12344628  0.24914112  0.37430616  1
  Fe  Fe7  1  0.98457901  0.99581202  0.00721833  1
  O  O8  1  0.85315855  0.40228172  0.95087584  1
  O  O9  1  0.92138398  0.15269890  0.77032800  1
  O  O10  1  0.57488773  0.84604146  0.73209661  1
  O  O11  1  0.32920968  0.34665133  0.97849960  1
  O  O12  1  0.82515093  0.34665133  0.48255835  1
  O  O13  1  0.88892646  0.09191363  0.29701283  1
  O  O14  1  0.11427370  0.91137954  0.70289416  1
  O  O15  1  0.36077646  0.40509455  0.45568191  1
  O  O16  1  0.59705696  0.89807972  0.19897824  1
  O  O17  1  0.67024375  0.65402561  0.02257547  1
  O  O18  1  0.17660208  0.65402561  0.51621813  1
  O  O19  1  0.42302690  0.15269890  0.26868508  1
  O  O20  1  0.07813807  0.84604146  0.22884627  1
  O  O21  1  0.13859889  0.59390559  0.04469330  1
  F  F22  1  0.65177927  0.59892553  0.55285374  1
  F  F23  1  0.39988477  0.10191625  0.79796852  1
