# generated using pymatgen
data_Li2WO4
_symmetry_space_group_name_H-M   'P 1'
_cell_length_a   9.07018096
_cell_length_b   9.07018095
_cell_length_c   9.07018096
_cell_angle_alpha   107.82709311
_cell_angle_beta   107.82709310
_cell_angle_gamma   107.82709310
_symmetry_Int_Tables_number   1
_chemical_formula_structural   Li2WO4
_chemical_formula_sum   'Li12 W6 O24'
_cell_volume   606.86537016
_cell_formula_units_Z   6
loop_
 _symmetry_equiv_pos_site_id
 _symmetry_equiv_pos_as_xyz
  1  'x, y, z'
loop_
 _atom_site_type_symbol
 _atom_site_label
 _atom_site_symmetry_multiplicity
 _atom_site_fract_x
 _atom_site_fract_y
 _atom_site_fract_z
 _atom_site_occupancy
  Li  Li0  1  0.06756467  0.29624538  0.89277661  1
  Li  Li1  1  0.29624440  0.89277637  0.06756481  1
  Li  Li2  1  0.89277689  0.06756465  0.29624477  1
  Li  Li3  1  0.93243438  0.70375453  0.10722330  1
  Li  Li4  1  0.70375465  0.10722355  0.93243509  1
  Li  Li5  1  0.10722332  0.93243526  0.70375549  1
  Li  Li6  1  0.22349780  0.39395808  0.62874929  1
  Li  Li7  1  0.60604273  0.37125111  0.77650252  1
  Li  Li8  1  0.37125066  0.77650228  0.60604190  1
  Li  Li9  1  0.77650241  0.60604183  0.37125097  1
  Li  Li10  1  0.39395748  0.62874880  0.22349663  1
  Li  Li11  1  0.62874955  0.22349764  0.39395836  1
  O  O12  1  0.57530285  0.24909200  0.92072031  1
  O  O13  1  0.92072066  0.57530314  0.24909175  1
  O  O14  1  0.24909230  0.92072089  0.57530339  1
  O  O15  1  0.42469736  0.75090791  0.07927995  1
  O  O16  1  0.07927955  0.42469677  0.75090851  1
  O  O17  1  0.86180074  0.84604850  0.54067260  1
  O  O18  1  0.22075010  0.18098413  0.88377958  1
  O  O19  1  0.88377850  0.22074956  0.18098341  1
  O  O20  1  0.18098331  0.88377945  0.22075008  1
  O  O21  1  0.84604800  0.54067247  0.86180102  1
  O  O22  1  0.11622055  0.77925035  0.81901649  1
  O  O23  1  0.81901574  0.11622046  0.77924982  1
  O  O24  1  0.52909874  0.49162126  0.19036550  1
  O  O25  1  0.19036436  0.52909763  0.49162011  1
  O  O26  1  0.49162106  0.19036499  0.52909808  1
  O  O27  1  0.47090147  0.50837866  0.80963476  1
  O  O28  1  0.80963585  0.47090229  0.50837905  1
  O  O29  1  0.50837915  0.80963493  0.47090218  1
  O  O30  1  0.54067241  0.86180101  0.84604814  1
  O  O31  1  0.13819947  0.15395141  0.45932766  1
  O  O32  1  0.15395221  0.45932745  0.13819924  1
  O  O33  1  0.45932664  0.13819891  0.15395177  1
  O  O34  1  0.75090791  0.07927902  0.42469687  1
  O  O35  1  0.77925011  0.81901578  0.11622068  1
  W  W36  1  0.73250974  0.96360126  0.55478921  1
  W  W37  1  0.96360147  0.55478921  0.73250960  1
  W  W38  1  0.55479041  0.73251037  0.96360210  1
  W  W39  1  0.26749047  0.03639865  0.44520995  1
  W  W40  1  0.03639874  0.44521070  0.26749066  1
  W  W41  1  0.44521038  0.26749084  0.03639873  1
