# generated using pymatgen
data_KEr(PO3)4
_symmetry_space_group_name_H-M   'P 1'
_cell_length_a   7.32614382
_cell_length_b   7.91906441
_cell_length_c   8.39209018
_cell_angle_alpha   90.00000000
_cell_angle_beta   90.00000000
_cell_angle_gamma   91.44959086
_symmetry_Int_Tables_number   1
_chemical_formula_structural   KEr(PO3)4
_chemical_formula_sum   'K2 Er2 P8 O24'
_cell_volume   486.72140709
_cell_formula_units_Z   2
loop_
 _symmetry_equiv_pos_site_id
 _symmetry_equiv_pos_as_xyz
  1  'x, y, z'
loop_
 _atom_site_type_symbol
 _atom_site_label
 _atom_site_symmetry_multiplicity
 _atom_site_fract_x
 _atom_site_fract_y
 _atom_site_fract_z
 _atom_site_occupancy
  O  O0  1  0.09182171  0.17067597  0.74869139  1
  O  O1  1  0.90817829  0.82932403  0.24869139  1
  O  O2  1  0.01517448  0.92423914  0.55397923  1
  O  O3  1  0.98482552  0.07576086  0.05397923  1
  O  O4  1  0.03595992  0.46089991  0.94517376  1
  O  O5  1  0.96404008  0.53910009  0.44517376  1
  O  O6  1  0.83951404  0.61762769  0.74414810  1
  O  O7  1  0.16048596  0.38237231  0.24414810  1
  O  O8  1  0.00972141  0.77908770  0.96498922  1
  O  O9  1  0.99027859  0.22091230  0.46498922  1
  O  O10  1  0.47966746  0.64563646  0.59950258  1
  O  O11  1  0.52033254  0.35436354  0.09950258  1
  O  O12  1  0.53432515  0.27465335  0.39368199  1
  O  O13  1  0.46567485  0.72534665  0.89368199  1
  O  O14  1  0.69247373  0.89834000  0.03159763  1
  O  O15  1  0.30752627  0.10166000  0.53159763  1
  O  O16  1  0.57173329  0.95578279  0.40533240  1
  O  O17  1  0.42826671  0.04421721  0.90533240  1
  O  O18  1  0.32288088  0.07139901  0.22786857  1
  O  O19  1  0.67711912  0.92860099  0.72786857  1
  O  O20  1  0.60912623  0.57684646  0.31326018  1
  O  O21  1  0.39087377  0.42315354  0.81326018  1
  O  O22  1  0.81975329  0.33853296  0.23944907  1
  O  O23  1  0.18024671  0.66146704  0.73944907  1
  P  P24  1  0.09680325  0.09701159  0.58483057  1
  P  P25  1  0.90319675  0.90298841  0.08483057  1
  P  P26  1  0.00521646  0.61799045  0.84944077  1
  P  P27  1  0.99478354  0.38200955  0.34944077  1
  P  P28  1  0.38790711  0.60132924  0.75388653  1
  P  P29  1  0.61209289  0.39867076  0.25388653  1
  P  P30  1  0.56465953  0.90929013  0.87618424  1
  P  P31  1  0.43534047  0.09070987  0.37618424  1
  K  K32  1  0.73259580  0.28306865  0.81096300  1
  K  K33  1  0.26740420  0.71693135  0.31096300  1
  Er  Er34  1  0.76138750  0.75776123  0.50232077  1
  Er  Er35  1  0.23861250  0.24223877  0.00232077  1
