# generated using pymatgen
data_Mn3Fe2(SiO4)3
_symmetry_space_group_name_H-M   'P 1'
_cell_length_a   10.36266419
_cell_length_b   10.36266419
_cell_length_c   10.36266419
_cell_angle_alpha   109.47122065
_cell_angle_beta   109.47122066
_cell_angle_gamma   109.47122063
_symmetry_Int_Tables_number   1
_chemical_formula_structural   Mn3Fe2(SiO4)3
_chemical_formula_sum   'Mn12 Fe8 Si12 O48'
_cell_volume   856.62823183
_cell_formula_units_Z   4
loop_
 _symmetry_equiv_pos_site_id
 _symmetry_equiv_pos_as_xyz
  1  'x, y, z'
loop_
 _atom_site_type_symbol
 _atom_site_label
 _atom_site_symmetry_multiplicity
 _atom_site_fract_x
 _atom_site_fract_y
 _atom_site_fract_z
 _atom_site_occupancy
  O  O0  1  0.70849068  0.69309733  0.08785876  1
  O  O1  1  0.69309680  0.10523794  0.98460630  1
  O  O2  1  0.62063131  0.70849035  0.51539309  1
  O  O3  1  0.51539276  0.62063130  0.70849016  1
  O  O4  1  0.08785860  0.87936850  0.39476157  1
  O  O5  1  0.39476134  0.08785906  0.87936819  1
  O  O6  1  0.10523792  0.98460643  0.69309693  1
  O  O7  1  0.62063188  0.41214127  0.10523841  1
  O  O8  1  0.51539317  0.39476119  0.80690219  1
  O  O9  1  0.87936851  0.98460643  0.79150982  1
  O  O10  1  0.41214057  0.10523794  0.62063121  1
  O  O11  1  0.80690347  0.51539336  0.39476191  1
  O  O12  1  0.98460715  0.79150944  0.87936871  1
  O  O13  1  0.08785905  0.70849035  0.69309758  1
  O  O14  1  0.69309715  0.08785906  0.70849045  1
  O  O15  1  0.10523854  0.62063130  0.41214146  1
  O  O16  1  0.80690277  0.79150944  0.41214099  1
  O  O17  1  0.39476144  0.80690247  0.51539280  1
  O  O18  1  0.41214102  0.80690247  0.79150998  1
  O  O19  1  0.79150989  0.87936850  0.98460724  1
  O  O20  1  0.29150968  0.48460730  0.37936874  1
  O  O21  1  0.87936850  0.39476119  0.08785828  1
  O  O22  1  0.98460713  0.69309733  0.10523819  1
  O  O23  1  0.70849037  0.51539336  0.62063171  1
  O  O24  1  0.29151041  0.30690334  0.91214106  1
  O  O25  1  0.30690265  0.89476152  0.01539257  1
  O  O26  1  0.37936874  0.29151031  0.48460736  1
  O  O27  1  0.48460669  0.37936816  0.29150969  1
  O  O28  1  0.91214084  0.12063097  0.60523828  1
  O  O29  1  0.60523871  0.91214161  0.12063128  1
  O  O30  1  0.89476153  0.01539303  0.30690292  1
  O  O31  1  0.37936921  0.58785939  0.89476239  1
  O  O32  1  0.48460732  0.60523827  0.19309702  1
  O  O33  1  0.12063094  0.01539303  0.20849003  1
  O  O34  1  0.58785888  0.89476152  0.37936864  1
  O  O35  1  0.19309762  0.48460730  0.60523888  1
  O  O36  1  0.01539334  0.20849002  0.12063148  1
  O  O37  1  0.91214100  0.29151031  0.30690287  1
  O  O38  1  0.30690290  0.91214161  0.29151000  1
  O  O39  1  0.89476195  0.37936816  0.58785874  1
  O  O40  1  0.19309668  0.20849002  0.58785886  1
  O  O41  1  0.60523800  0.19309699  0.48460705  1
  O  O42  1  0.58785843  0.19309699  0.20848987  1
  O  O43  1  0.20848956  0.12063097  0.01539261  1
  O  O44  1  0.20849018  0.58785939  0.19309732  1
  O  O45  1  0.12063095  0.60523827  0.91214059  1
  O  O46  1  0.01539292  0.30690334  0.89476226  1
  O  O47  1  0.79150987  0.41214127  0.80690313  1
  Si  Si48  1  0.24999951  0.12499948  0.87499965  1
  Si  Si49  1  0.62500063  0.75000050  0.37500081  1
  Si  Si50  1  0.25000033  0.62499981  0.37499961  1
  Si  Si51  1  0.37499948  0.62499981  0.74999954  1
  Si  Si52  1  0.75000016  0.37499965  0.62499960  1
  Si  Si53  1  0.87499941  0.12499948  0.74999941  1
  Si  Si54  1  0.12500004  0.87499998  0.25000044  1
  Si  Si55  1  0.12499987  0.75000050  0.87500000  1
  Si  Si56  1  0.62499997  0.37499965  0.25000031  1
  Si  Si57  1  0.37500046  0.25000017  0.62499998  1
  Si  Si58  1  0.74999994  0.87499998  0.12500020  1
  Si  Si59  1  0.87500018  0.25000017  0.12500045  1
  Mn  Mn60  1  0.87500024  0.62499981  0.25000035  1
  Mn  Mn61  1  0.62499975  0.87499998  0.74999958  1
  Mn  Mn62  1  0.87499997  0.75000050  0.62499972  1
  Mn  Mn63  1  0.62499980  0.25000017  0.87499987  1
  Mn  Mn64  1  0.75000005  0.62499981  0.87499973  1
  Mn  Mn65  1  0.74999922  0.12499948  0.37499913  1
  Mn  Mn66  1  0.12500025  0.37499965  0.74999985  1
  Mn  Mn67  1  0.37499969  0.12499948  0.24999929  1
  Mn  Mn68  1  0.12500008  0.25000017  0.37499975  1
  Mn  Mn69  1  0.37500025  0.75000050  0.12500058  1
  Mn  Mn70  1  0.25000023  0.87499998  0.62499974  1
  Mn  Mn71  1  0.24999940  0.37499965  0.12500012  1
  Fe  Fe72  1  0.50000055  0.50000033  0.50000040  1
  Fe  Fe73  1  0.50000055  0.50000033  0.00000008  1
  Fe  Fe74  1  0.49999972  0.00000000  0.50000012  1
  Fe  Fe75  1  0.49999972  0.00000000  0.99999980  1
  Fe  Fe76  1  0.00000000  0.00000000  0.50000032  1
  Fe  Fe77  1  0.99999979  0.50000033  0.99999993  1
  Fe  Fe78  1  0.00000000  0.00000000  0.00000000  1
  Fe  Fe79  1  0.99999979  0.50000033  0.50000025  1
