# generated using pymatgen
data_Na9Fe2O7
_symmetry_space_group_name_H-M   'P 1'
_cell_length_a   9.60031545
_cell_length_b   10.07572779
_cell_length_c   10.48403899
_cell_angle_alpha   90.00000000
_cell_angle_beta   90.00000000
_cell_angle_gamma   90.00000000
_symmetry_Int_Tables_number   1
_chemical_formula_structural   Na9Fe2O7
_chemical_formula_sum   'Na36 Fe8 O28'
_cell_volume   1014.12282318
_cell_formula_units_Z   4
loop_
 _symmetry_equiv_pos_site_id
 _symmetry_equiv_pos_as_xyz
  1  'x, y, z'
loop_
 _atom_site_type_symbol
 _atom_site_label
 _atom_site_symmetry_multiplicity
 _atom_site_fract_x
 _atom_site_fract_y
 _atom_site_fract_z
 _atom_site_occupancy
  O  O0  1  0.80385838  0.71375299  0.33625264  1
  O  O1  1  0.19614144  0.28624625  0.83625241  1
  O  O2  1  0.69614186  0.71375299  0.83625241  1
  O  O3  1  0.30385899  0.28624625  0.33625264  1
  O  O4  1  0.84539516  0.16566104  0.16719897  1
  O  O5  1  0.15460465  0.83433920  0.66719874  1
  O  O6  1  0.65460507  0.16566104  0.66719874  1
  O  O7  1  0.34539578  0.83433920  0.16719897  1
  O  O8  1  0.54188328  0.22238820  0.04883925  1
  O  O9  1  0.45811654  0.77761203  0.54883902  1
  O  O10  1  0.95811696  0.22238820  0.54883902  1
  O  O11  1  0.04188285  0.77761203  0.04883925  1
  O  O12  1  0.66118092  0.41746937  0.40939307  1
  O  O13  1  0.33881889  0.58253087  0.90939283  1
  O  O14  1  0.83881932  0.41746937  0.90939283  1
  O  O15  1  0.16118153  0.58253087  0.40939307  1
  O  O16  1  0.59441040  0.07323677  0.31872968  1
  O  O17  1  0.40559045  0.92676248  0.81872945  1
  O  O18  1  0.90558984  0.07323677  0.81872945  1
  O  O19  1  0.09440997  0.92676248  0.31872968  1
  O  O20  1  0.58339042  0.58027072  0.14900172  1
  O  O21  1  0.41660939  0.41972852  0.64900245  1
  O  O22  1  0.91660878  0.58027072  0.64900245  1
  O  O23  1  0.08339103  0.41972852  0.14900172  1
  O  O24  1  0.66678056  0.93466479  0.06112659  1
  O  O25  1  0.33322030  0.06533545  0.56112636  1
  O  O26  1  0.83321968  0.93466479  0.56112636  1
  O  O27  1  0.16678013  0.06533545  0.06112659  1
  Na  Na28  1  0.56949533  0.83490064  0.24958435  1
  Na  Na29  1  0.43050448  0.16509960  0.74958412  1
  Na  Na30  1  0.93050491  0.83490064  0.74958412  1
  Na  Na31  1  0.06949594  0.16509960  0.24958435  1
  Na  Na32  1  0.92289929  0.45341949  0.47224657  1
  Na  Na33  1  0.07710052  0.54658075  0.97224730  1
  Na  Na34  1  0.57709991  0.45341949  0.97224730  1
  Na  Na35  1  0.42289991  0.54658075  0.47224657  1
  Na  Na36  1  0.01322046  0.24295456  0.98772326  1
  Na  Na37  1  0.98677935  0.75704468  0.48772349  1
  Na  Na38  1  0.48677996  0.24295456  0.48772349  1
  Na  Na39  1  0.51322089  0.75704468  0.98772326  1
  Na  Na40  1  0.51384656  0.34061430  0.23916042  1
  Na  Na41  1  0.48615429  0.65938594  0.73916019  1
  Na  Na42  1  0.98615368  0.34061430  0.73916019  1
  Na  Na43  1  0.01384613  0.65938594  0.23916042  1
  Na  Na44  1  0.71234411  0.72873916  0.55479564  1
  Na  Na45  1  0.28765570  0.27126108  0.05479491  1
  Na  Na46  1  0.78765613  0.72873916  0.05479491  1
  Na  Na47  1  0.21234473  0.27126108  0.55479564  1
  Na  Na48  1  0.41084151  0.01419261  0.02238845  1
  Na  Na49  1  0.58915831  0.98580763  0.52238822  1
  Na  Na50  1  0.08915892  0.01419261  0.52238822  1
  Na  Na51  1  0.91084089  0.98580763  0.02238845  1
  Na  Na52  1  0.77800274  0.21638095  0.38728415  1
  Na  Na53  1  0.22199707  0.78361928  0.88728392  1
  Na  Na54  1  0.72199645  0.21638095  0.88728392  1
  Na  Na55  1  0.27800336  0.78361928  0.38728415  1
  Na  Na56  1  0.84837148  0.93920892  0.32854630  1
  Na  Na57  1  0.15162833  0.06079132  0.82854607  1
  Na  Na58  1  0.65162876  0.93920892  0.82854607  1
  Na  Na59  1  0.34837105  0.06079132  0.32854630  1
  Na  Na60  1  0.84230170  0.39122019  0.12992186  1
  Na  Na61  1  0.15769811  0.60878004  0.62992163  1
  Na  Na62  1  0.65769854  0.39122019  0.62992163  1
  Na  Na63  1  0.34230231  0.60878004  0.12992186  1
  Fe  Fe64  1  0.68628788  0.56882394  0.30294214  1
  Fe  Fe65  1  0.31371194  0.43117630  0.80294287  1
  Fe  Fe66  1  0.81371132  0.56882394  0.80294287  1
  Fe  Fe67  1  0.18628849  0.43117630  0.30294214  1
  Fe  Fe68  1  0.65936522  0.10160048  0.14739530  1
  Fe  Fe69  1  0.34063459  0.89839976  0.64739603  1
  Fe  Fe70  1  0.84063502  0.10160048  0.64739603  1
  Fe  Fe71  1  0.15936479  0.89839976  0.14739530  1
