# generated using pymatgen
data_BaV4O9
_symmetry_space_group_name_H-M   'P 1'
_cell_length_a   5.09330014
_cell_length_b   7.93985379
_cell_length_c   9.45394352
_cell_angle_alpha   110.46671531
_cell_angle_beta   90.00000000
_cell_angle_gamma   90.00000000
_symmetry_Int_Tables_number   1
_chemical_formula_structural   BaV4O9
_chemical_formula_sum   'Ba2 V8 O18'
_cell_volume   358.18438494
_cell_formula_units_Z   2
loop_
 _symmetry_equiv_pos_site_id
 _symmetry_equiv_pos_as_xyz
  1  'x, y, z'
loop_
 _atom_site_type_symbol
 _atom_site_label
 _atom_site_symmetry_multiplicity
 _atom_site_fract_x
 _atom_site_fract_y
 _atom_site_fract_z
 _atom_site_occupancy
  O  O0  1  0.04307238  0.50000026  0.25000050  1
  O  O1  1  0.95692851  0.50000013  0.74999974  1
  O  O2  1  0.90476608  0.33466884  0.96852247  1
  O  O3  1  0.90476608  0.66533144  0.53147807  1
  O  O4  1  0.09523481  0.66533155  0.03147777  1
  O  O5  1  0.09523481  0.33466761  0.46852176  1
  O  O6  1  0.42195967  0.42372376  0.85773027  1
  O  O7  1  0.42195967  0.57627517  0.64226880  1
  O  O8  1  0.57804122  0.57627529  0.14226956  1
  O  O9  1  0.57804122  0.42372387  0.35772997  1
  O  O10  1  0.14623304  0.11294152  0.65699856  1
  O  O11  1  0.14623304  0.88705876  0.84300198  1
  O  O12  1  0.85376786  0.88705887  0.34300168  1
  O  O13  1  0.85376786  0.11294029  0.15699784  1
  O  O14  1  0.40583579  0.23884020  0.06004567  1
  O  O15  1  0.59416511  0.76116019  0.93995457  1
  O  O16  1  0.40583579  0.76116030  0.43995426  1
  O  O17  1  0.59416511  0.23884009  0.56004597  1
  V  V18  1  0.75152990  0.31177141  0.15533865  1
  V  V19  1  0.75152990  0.68822910  0.34466128  1
  V  V20  1  0.24847099  0.68822899  0.84466158  1
  V  V21  1  0.24847099  0.31177128  0.65533789  1
  V  V22  1  0.24751004  0.43513101  0.05155169  1
  V  V23  1  0.75248883  0.43513090  0.55155199  1
  V  V24  1  0.75248883  0.56486804  0.94844814  1
  V  V25  1  0.24751004  0.56486815  0.44844784  1
  Ba  Ba26  1  0.31092204  0.00000061  0.25000036  1
  Ba  Ba27  1  0.68907885  0.00000050  0.75000066  1
