# generated using pymatgen
data_GdSnAu
_symmetry_space_group_name_H-M   'P 1'
_cell_length_a   4.74203807
_cell_length_b   4.74203807
_cell_length_c   7.51092516
_cell_angle_alpha   90.00000000
_cell_angle_beta   90.00000000
_cell_angle_gamma   120.00000008
_symmetry_Int_Tables_number   1
_chemical_formula_structural   GdSnAu
_chemical_formula_sum   'Gd2 Sn2 Au2'
_cell_volume   146.26962177
_cell_formula_units_Z   2
loop_
 _symmetry_equiv_pos_site_id
 _symmetry_equiv_pos_as_xyz
  1  'x, y, z'
loop_
 _atom_site_type_symbol
 _atom_site_label
 _atom_site_symmetry_multiplicity
 _atom_site_fract_x
 _atom_site_fract_y
 _atom_site_fract_z
 _atom_site_occupancy
  Sn  Sn0  1  0.66666667  0.33333333  0.12464095  1
  Sn  Sn1  1  0.33333333  0.66666667  0.62464095  1
  Gd  Gd2  1  0.00000000  0.00000000  0.90093440  1
  Gd  Gd3  1  0.00000000  0.00000000  0.40093440  1
  Au  Au4  1  0.33333333  0.66666667  0.21952465  1
  Au  Au5  1  0.66666667  0.33333333  0.71952465  1
