# generated using pymatgen
data_Cu3TeO6
_symmetry_space_group_name_H-M   'P 1'
_cell_length_a   8.37871848
_cell_length_b   8.37871848
_cell_length_c   8.37871848
_cell_angle_alpha   109.47122064
_cell_angle_beta   109.47122063
_cell_angle_gamma   109.47122064
_symmetry_Int_Tables_number   1
_chemical_formula_structural   Cu3TeO6
_chemical_formula_sum   'Cu12 Te4 O24'
_cell_volume   452.80467808
_cell_formula_units_Z   4
loop_
 _symmetry_equiv_pos_site_id
 _symmetry_equiv_pos_as_xyz
  1  'x, y, z'
loop_
 _atom_site_type_symbol
 _atom_site_label
 _atom_site_symmetry_multiplicity
 _atom_site_fract_x
 _atom_site_fract_y
 _atom_site_fract_z
 _atom_site_occupancy
  O  O0  1  0.07146969  0.53185978  0.80414598  1
  O  O1  1  0.22771380  0.26732371  0.69585402  1
  O  O2  1  0.27228620  0.96814022  0.03960990  1
  O  O3  1  0.23267629  0.46039010  0.42853031  1
  O  O4  1  0.46039010  0.42853031  0.23267629  1
  O  O5  1  0.80414598  0.07146969  0.53185978  1
  O  O6  1  0.26732371  0.69585402  0.22771380  1
  O  O7  1  0.03960990  0.27228620  0.96814022  1
  O  O8  1  0.53185978  0.80414598  0.07146969  1
  O  O9  1  0.69585402  0.22771380  0.26732371  1
  O  O10  1  0.96814022  0.03960990  0.27228620  1
  O  O11  1  0.42853031  0.23267629  0.46039010  1
  O  O12  1  0.92853031  0.46814022  0.19585402  1
  O  O13  1  0.77228620  0.73267629  0.30414598  1
  O  O14  1  0.72771380  0.03185978  0.96039010  1
  O  O15  1  0.76732371  0.53960990  0.57146969  1
  O  O16  1  0.57146969  0.76732371  0.53960990  1
  O  O17  1  0.03185978  0.96039010  0.72771380  1
  O  O18  1  0.30414598  0.77228620  0.73267629  1
  O  O19  1  0.46814022  0.19585402  0.92853031  1
  O  O20  1  0.96039010  0.72771380  0.03185978  1
  O  O21  1  0.73267629  0.30414598  0.77228620  1
  O  O22  1  0.19585402  0.92853031  0.46814022  1
  O  O23  1  0.53960990  0.57146969  0.76732371  1
  Cu  Cu24  1  0.25000000  0.72055098  0.47055098  1
  Cu  Cu25  1  0.02944902  0.75000000  0.77944902  1
  Cu  Cu26  1  0.77944902  0.02944902  0.75000000  1
  Cu  Cu27  1  0.47055098  0.25000000  0.72055098  1
  Cu  Cu28  1  0.72055098  0.47055098  0.25000000  1
  Cu  Cu29  1  0.75000000  0.77944902  0.02944902  1
  Cu  Cu30  1  0.75000000  0.27944902  0.52944902  1
  Cu  Cu31  1  0.97055098  0.25000000  0.22055098  1
  Cu  Cu32  1  0.22055098  0.97055098  0.25000000  1
  Cu  Cu33  1  0.52944902  0.75000000  0.27944902  1
  Cu  Cu34  1  0.27944902  0.52944902  0.75000000  1
  Cu  Cu35  1  0.25000000  0.22055098  0.97055098  1
  Te  Te36  1  0.00000000  0.50000000  0.00000000  1
  Te  Te37  1  0.50000000  0.00000000  0.00000000  1
  Te  Te38  1  0.00000000  0.00000000  0.50000000  1
  Te  Te39  1  0.50000000  0.50000000  0.50000000  1
