# generated using pymatgen
data_Co6O5F7
_symmetry_space_group_name_H-M   'P 1'
_cell_length_a   4.62862808
_cell_length_b   7.65434790
_cell_length_c   5.52889086
_cell_angle_alpha   93.57467289
_cell_angle_beta   93.23552743
_cell_angle_gamma   88.06430186
_symmetry_Int_Tables_number   1
_chemical_formula_structural   Co6O5F7
_chemical_formula_sum   'Co6 O5 F7'
_cell_volume   195.10102305
_cell_formula_units_Z   1
loop_
 _symmetry_equiv_pos_site_id
 _symmetry_equiv_pos_as_xyz
  1  'x, y, z'
loop_
 _atom_site_type_symbol
 _atom_site_label
 _atom_site_symmetry_multiplicity
 _atom_site_fract_x
 _atom_site_fract_y
 _atom_site_fract_z
 _atom_site_occupancy
  Co  Co0  1  0.53554329  0.01256808  0.47918881  1
  Co  Co1  1  0.46776685  0.34585762  0.82216998  1
  Co  Co2  1  0.51830802  0.64904281  0.16950618  1
  Co  Co3  1  0.00328222  0.67279820  0.66142046  1
  Co  Co4  1  0.98745417  0.32744354  0.33941464  1
  Co  Co5  1  0.99305466  0.00067757  0.01302911  1
  O  O6  1  0.80717153  0.11101110  0.31085020  1
  O  O7  1  0.71029893  0.75776091  0.45657742  1
  O  O8  1  0.69179477  0.43190685  0.13379874  1
  O  O9  1  0.30378881  0.57423708  0.87446528  1
  O  O10  1  0.28992577  0.23460105  0.53751698  1
  F  F11  1  0.80536896  0.42674860  0.62583239  1
  F  F12  1  0.79964243  0.77061598  0.95678841  1
  F  F13  1  0.68800123  0.10895600  0.80345973  1
  F  F14  1  0.31564778  0.88163206  0.19834291  1
  F  F15  1  0.19178223  0.23638213  0.05502678  1
  F  F16  1  0.20497563  0.90698995  0.69631512  1
  F  F17  1  0.18619074  0.55077046  0.36629585  1
