# generated using pymatgen
data_Ba2SmCu3O7
_symmetry_space_group_name_H-M   'P 1'
_cell_length_a   3.87767835
_cell_length_b   3.93909446
_cell_length_c   11.85357638
_cell_angle_alpha   90.00000000
_cell_angle_beta   90.00000000
_cell_angle_gamma   90.00000000
_symmetry_Int_Tables_number   1
_chemical_formula_structural   Ba2SmCu3O7
_chemical_formula_sum   'Ba2 Sm1 Cu3 O7'
_cell_volume   181.05794204
_cell_formula_units_Z   1
loop_
 _symmetry_equiv_pos_site_id
 _symmetry_equiv_pos_as_xyz
  1  'x, y, z'
loop_
 _atom_site_type_symbol
 _atom_site_label
 _atom_site_symmetry_multiplicity
 _atom_site_fract_x
 _atom_site_fract_y
 _atom_site_fract_z
 _atom_site_occupancy
  O  O0  1  0.00000000  0.00000000  0.84139862  1
  O  O1  1  0.00000000  0.00000000  0.15860138  1
  O  O2  1  0.00000000  0.50000000  0.62557166  1
  O  O3  1  0.00000000  0.50000000  0.37442834  1
  O  O4  1  0.50000000  0.00000000  0.62538870  1
  O  O5  1  0.50000000  0.00000000  0.37461130  1
  O  O6  1  0.00000000  0.50000000  0.00000000  1
  Cu  Cu7  1  0.00000000  0.00000000  0.65059953  1
  Cu  Cu8  1  0.00000000  0.00000000  0.34940047  1
  Cu  Cu9  1  0.00000000  0.00000000  0.00000000  1
  Ba  Ba10  1  0.50000000  0.50000000  0.82012308  1
  Ba  Ba11  1  0.50000000  0.50000000  0.17987692  1
  Sm  Sm12  1  0.50000000  0.50000000  0.50000000  1
