# generated using pymatgen
data_CeMg6Cu
_symmetry_space_group_name_H-M   'P 1'
_cell_length_a   6.72746186
_cell_length_b   6.72746163
_cell_length_c   4.93925062
_cell_angle_alpha   90.00000000
_cell_angle_beta   90.00000000
_cell_angle_gamma   123.73083605
_symmetry_Int_Tables_number   1
_chemical_formula_structural   CeMg6Cu
_chemical_formula_sum   'Ce1 Mg6 Cu1'
_cell_volume   185.91179440
_cell_formula_units_Z   1
loop_
 _symmetry_equiv_pos_site_id
 _symmetry_equiv_pos_as_xyz
  1  'x, y, z'
loop_
 _atom_site_type_symbol
 _atom_site_label
 _atom_site_symmetry_multiplicity
 _atom_site_fract_x
 _atom_site_fract_y
 _atom_site_fract_z
 _atom_site_occupancy
  Ce  Ce0  1  0.31043971  0.18956029  0.75000000  1
  Mg  Mg1  1  0.17799387  0.81111334  0.25000000  1
  Mg  Mg2  1  0.68888666  0.32200613  0.25000000  1
  Mg  Mg3  1  0.68082947  0.81917053  0.25000000  1
  Mg  Mg4  1  0.31979380  0.67228057  0.75000000  1
  Mg  Mg5  1  0.82771943  0.18020620  0.75000000  1
  Mg  Mg6  1  0.84083631  0.65916369  0.75000000  1
  Cu  Cu7  1  0.15350074  0.34649926  0.25000000  1
