# generated using pymatgen
data_BaCe2CoS5
_symmetry_space_group_name_H-M   'P 1'
_cell_length_a   7.75923636
_cell_length_b   7.75923636
_cell_length_c   8.66299862
_cell_angle_alpha   116.60504338
_cell_angle_beta   116.60504337
_cell_angle_gamma   89.99999999
_symmetry_Int_Tables_number   1
_chemical_formula_structural   BaCe2CoS5
_chemical_formula_sum   'Ba2 Ce4 Co2 S10'
_cell_volume   403.62407593
_cell_formula_units_Z   2
loop_
 _symmetry_equiv_pos_site_id
 _symmetry_equiv_pos_as_xyz
  1  'x, y, z'
loop_
 _atom_site_type_symbol
 _atom_site_label
 _atom_site_symmetry_multiplicity
 _atom_site_fract_x
 _atom_site_fract_y
 _atom_site_fract_z
 _atom_site_occupancy
  S  S0  1  0.48872912  0.98872912  0.26808902  1
  S  S1  1  0.22064010  0.72064010  0.73191098  1
  S  S2  1  0.51127088  0.01127088  0.73191098  1
  S  S3  1  0.72064010  0.51127088  0.73191098  1
  S  S4  1  0.01127088  0.22064010  0.73191098  1
  S  S5  1  0.27935990  0.48872912  0.26808902  1
  S  S6  1  0.98872912  0.77935990  0.26808902  1
  S  S7  1  0.77935990  0.27935990  0.26808902  1
  S  S8  1  0.00000000  0.00000000  0.00000000  1
  S  S9  1  0.50000000  0.50000000  0.00000000  1
  Co  Co10  1  0.75000000  0.25000000  0.50000000  1
  Co  Co11  1  0.25000000  0.75000000  0.50000000  1
  Ba  Ba12  1  0.75000000  0.75000000  0.50000000  1
  Ba  Ba13  1  0.25000000  0.25000000  0.50000000  1
  Ce  Ce14  1  0.66204426  0.83795574  0.00000000  1
  Ce  Ce15  1  0.16204426  0.66204426  0.00000000  1
  Ce  Ce16  1  0.83795574  0.33795574  0.00000000  1
  Ce  Ce17  1  0.33795574  0.16204426  0.00000000  1
