# generated using pymatgen
data_BeAlH5
_symmetry_space_group_name_H-M   'P 1'
_cell_length_a   4.30623438
_cell_length_b   4.77009170
_cell_length_c   6.25391385
_cell_angle_alpha   90.59292532
_cell_angle_beta   90.00000000
_cell_angle_gamma   90.00000000
_symmetry_Int_Tables_number   1
_chemical_formula_structural   BeAlH5
_chemical_formula_sum   'Be2 Al2 H10'
_cell_volume   128.45559678
_cell_formula_units_Z   2
loop_
 _symmetry_equiv_pos_site_id
 _symmetry_equiv_pos_as_xyz
  1  'x, y, z'
loop_
 _atom_site_type_symbol
 _atom_site_label
 _atom_site_symmetry_multiplicity
 _atom_site_fract_x
 _atom_site_fract_y
 _atom_site_fract_z
 _atom_site_occupancy
  H  H0  1  0.46582280  0.88970344  0.48495434  1
  H  H1  1  0.96582280  0.11029656  0.51504566  1
  H  H2  1  0.32069461  0.24044571  0.74844422  1
  H  H3  1  0.82069461  0.75955429  0.25155578  1
  H  H4  1  0.16182997  0.75298570  0.74890247  1
  H  H5  1  0.66182997  0.24701430  0.25109753  1
  H  H6  1  0.73986921  0.99875085  0.90159455  1
  H  H7  1  0.23986921  0.00124915  0.09840545  1
  H  H8  1  0.73988933  0.49893212  0.91338732  1
  H  H9  1  0.23988933  0.50106788  0.08661268  1
  Be  Be10  1  0.22987460  0.99801745  0.62325625  1
  Be  Be11  1  0.72987460  0.00198255  0.37674375  1
  Al  Al12  1  0.99001950  0.75699486  0.99980444  1
  Al  Al13  1  0.49001950  0.24300514  0.00019556  1
