# generated using pymatgen
data_Ca2Al3Si3HO13
_symmetry_space_group_name_H-M   'P 1'
_cell_length_a   5.60632649
_cell_length_b   10.11876537
_cell_length_c   16.37346236
_cell_angle_alpha   90.00000000
_cell_angle_beta   90.00000000
_cell_angle_gamma   90.00000000
_symmetry_Int_Tables_number   1
_chemical_formula_structural   Ca2Al3Si3HO13
_chemical_formula_sum   'Ca8 Al12 Si12 H4 O52'
_cell_volume   928.85182188
_cell_formula_units_Z   4
loop_
 _symmetry_equiv_pos_site_id
 _symmetry_equiv_pos_as_xyz
  1  'x, y, z'
loop_
 _atom_site_type_symbol
 _atom_site_label
 _atom_site_symmetry_multiplicity
 _atom_site_fract_x
 _atom_site_fract_y
 _atom_site_fract_z
 _atom_site_occupancy
  H  H0  1  0.25000000  0.52420088  0.76869369  1
  H  H1  1  0.75000000  0.47579912  0.23130631  1
  H  H2  1  0.75000000  0.02420088  0.73130631  1
  H  H3  1  0.25000000  0.97579912  0.26869369  1
  O  O4  1  0.25000000  0.42601022  0.76630651  1
  O  O5  1  0.75000000  0.57398978  0.23369349  1
  O  O6  1  0.75000000  0.92601022  0.73369349  1
  O  O7  1  0.25000000  0.07398978  0.26630651  1
  O  O8  1  0.75000000  0.05613218  0.91956410  1
  O  O9  1  0.25000000  0.94386782  0.08043590  1
  O  O10  1  0.25000000  0.55613218  0.58043590  1
  O  O11  1  0.75000000  0.44386782  0.41956410  1
  O  O12  1  0.75000000  0.20604642  0.49690730  1
  O  O13  1  0.25000000  0.79395358  0.50309270  1
  O  O14  1  0.25000000  0.70604642  0.00309270  1
  O  O15  1  0.75000000  0.29395358  0.99690730  1
  O  O16  1  0.25000000  0.33644251  0.49089964  1
  O  O17  1  0.75000000  0.66355749  0.50910036  1
  O  O18  1  0.75000000  0.83644251  0.00910036  1
  O  O19  1  0.25000000  0.16355749  0.99089964  1
  O  O20  1  0.75000000  0.44060131  0.77135568  1
  O  O21  1  0.25000000  0.55939869  0.22864432  1
  O  O22  1  0.25000000  0.94060131  0.72864432  1
  O  O23  1  0.75000000  0.05939869  0.27135568  1
  O  O24  1  0.25000000  0.18850307  0.72824478  1
  O  O25  1  0.75000000  0.81149693  0.27175522  1
  O  O26  1  0.75000000  0.68850307  0.77175522  1
  O  O27  1  0.25000000  0.31149693  0.22824478  1
  O  O28  1  0.75000000  0.19899099  0.71892825  1
  O  O29  1  0.25000000  0.80100901  0.28107175  1
  O  O30  1  0.25000000  0.69899099  0.78107175  1
  O  O31  1  0.75000000  0.30100901  0.21892825  1
  O  O32  1  0.49096513  0.74335572  0.14100123  1
  O  O33  1  0.99096513  0.25664428  0.85899877  1
  O  O34  1  0.50903487  0.24335572  0.35899877  1
  O  O35  1  0.00903487  0.75664428  0.64100123  1
  O  O36  1  0.50903487  0.25664428  0.85899877  1
  O  O37  1  0.00903487  0.74335572  0.14100123  1
  O  O38  1  0.49096513  0.75664428  0.64100123  1
  O  O39  1  0.99096513  0.24335572  0.35899877  1
  O  O40  1  0.51225477  0.93004115  0.39838643  1
  O  O41  1  0.01225477  0.06995885  0.60161357  1
  O  O42  1  0.48774523  0.43004115  0.10161357  1
  O  O43  1  0.98774523  0.56995885  0.89838643  1
  O  O44  1  0.48774523  0.06995885  0.60161357  1
  O  O45  1  0.98774523  0.93004115  0.39838643  1
  O  O46  1  0.51225477  0.56995885  0.89838643  1
  O  O47  1  0.01225477  0.43004115  0.10161357  1
  O  O48  1  0.49743673  0.64690899  0.36994458  1
  O  O49  1  0.99743673  0.35309101  0.63005542  1
  O  O50  1  0.50256327  0.14690899  0.13005542  1
  O  O51  1  0.00256327  0.85309101  0.86994458  1
  O  O52  1  0.50256327  0.35309101  0.63005542  1
  O  O53  1  0.00256327  0.64690899  0.36994458  1
  O  O54  1  0.49743673  0.85309101  0.86994458  1
  O  O55  1  0.99743673  0.14690899  0.13005542  1
  Al  Al56  1  0.75000000  0.19950665  0.60621122  1
  Al  Al57  1  0.25000000  0.80049335  0.39378878  1
  Al  Al58  1  0.25000000  0.69950665  0.89378878  1
  Al  Al59  1  0.75000000  0.30049335  0.10621122  1
  Al  Al60  1  0.49669816  0.68918472  0.25070525  1
  Al  Al61  1  0.99669816  0.31081528  0.74929475  1
  Al  Al62  1  0.50330184  0.18918472  0.24929475  1
  Al  Al63  1  0.00330184  0.81081528  0.75070525  1
  Al  Al64  1  0.50330184  0.31081528  0.74929475  1
  Al  Al65  1  0.00330184  0.68918472  0.25070525  1
  Al  Al66  1  0.49669816  0.81081528  0.75070525  1
  Al  Al67  1  0.99669816  0.18918472  0.24929475  1
  Si  Si68  1  0.25000000  0.06507016  0.66029227  1
  Si  Si69  1  0.75000000  0.93492984  0.33970773  1
  Si  Si70  1  0.75000000  0.56507016  0.83970773  1
  Si  Si71  1  0.25000000  0.43492984  0.16029227  1
  Si  Si72  1  0.75000000  0.21797938  0.91076782  1
  Si  Si73  1  0.25000000  0.78202062  0.08923218  1
  Si  Si74  1  0.25000000  0.71797938  0.58923218  1
  Si  Si75  1  0.75000000  0.28202062  0.41076782  1
  Si  Si76  1  0.25000000  0.39311634  0.58157769  1
  Si  Si77  1  0.75000000  0.60688366  0.41842231  1
  Si  Si78  1  0.75000000  0.89311634  0.91842231  1
  Si  Si79  1  0.25000000  0.10688366  0.08157769  1
  Ca  Ca80  1  0.25000000  0.38390465  0.95086075  1
  Ca  Ca81  1  0.75000000  0.61609535  0.04913925  1
  Ca  Ca82  1  0.75000000  0.88390465  0.54913925  1
  Ca  Ca83  1  0.25000000  0.11609535  0.45086075  1
  Ca  Ca84  1  0.25000000  0.06431193  0.86697233  1
  Ca  Ca85  1  0.75000000  0.93568807  0.13302767  1
  Ca  Ca86  1  0.75000000  0.56431193  0.63302767  1
  Ca  Ca87  1  0.25000000  0.43568807  0.36697233  1
