# generated using pymatgen
data_Tb(HO)3
_symmetry_space_group_name_H-M   'P 1'
_cell_length_a   6.34241871
_cell_length_b   6.34241871
_cell_length_c   3.59023683
_cell_angle_alpha   90.00000000
_cell_angle_beta   90.00000000
_cell_angle_gamma   119.99999997
_symmetry_Int_Tables_number   1
_chemical_formula_structural   Tb(HO)3
_chemical_formula_sum   'Tb2 H6 O6'
_cell_volume   125.07299476
_cell_formula_units_Z   2
loop_
 _symmetry_equiv_pos_site_id
 _symmetry_equiv_pos_as_xyz
  1  'x, y, z'
loop_
 _atom_site_type_symbol
 _atom_site_label
 _atom_site_symmetry_multiplicity
 _atom_site_fract_x
 _atom_site_fract_y
 _atom_site_fract_z
 _atom_site_occupancy
  H  H0  1  0.72501230  0.85967782  0.75000000  1
  H  H1  1  0.86533448  0.72501230  0.25000000  1
  H  H2  1  0.13466552  0.27498770  0.75000000  1
  H  H3  1  0.27498770  0.14032218  0.25000000  1
  H  H4  1  0.85967782  0.13466552  0.25000000  1
  H  H5  1  0.14032218  0.86533448  0.75000000  1
  O  O6  1  0.91719386  0.60427870  0.25000000  1
  O  O7  1  0.60427870  0.68708483  0.75000000  1
  O  O8  1  0.08280614  0.39572130  0.75000000  1
  O  O9  1  0.39572130  0.31291517  0.25000000  1
  O  O10  1  0.68708483  0.08280614  0.25000000  1
  O  O11  1  0.31291517  0.91719386  0.75000000  1
  Tb  Tb12  1  0.66666667  0.33333333  0.75000000  1
  Tb  Tb13  1  0.33333333  0.66666667  0.25000000  1
