# generated using pymatgen
data_GaHO2
_symmetry_space_group_name_H-M   'P 1'
_cell_length_a   3.00395142
_cell_length_b   4.39104437
_cell_length_c   4.98845581
_cell_angle_alpha   90.00000000
_cell_angle_beta   90.00000000
_cell_angle_gamma   90.00000000
_symmetry_Int_Tables_number   1
_chemical_formula_structural   GaHO2
_chemical_formula_sum   'Ga2 H2 O4'
_cell_volume   65.80014640
_cell_formula_units_Z   2
loop_
 _symmetry_equiv_pos_site_id
 _symmetry_equiv_pos_as_xyz
  1  'x, y, z'
loop_
 _atom_site_type_symbol
 _atom_site_label
 _atom_site_symmetry_multiplicity
 _atom_site_fract_x
 _atom_site_fract_y
 _atom_site_fract_z
 _atom_site_occupancy
  H  H0  1  0.50000000  0.30880849  0.01889945  1
  H  H1  1  0.00000000  0.69119151  0.51889945  1
  O  O2  1  0.00000000  0.50239406  0.64136164  1
  O  O3  1  0.50000000  0.49760594  0.14136164  1
  O  O4  1  0.00000000  0.99113639  0.35115921  1
  O  O5  1  0.50000000  0.00886361  0.85115921  1
  Ga  Ga6  1  0.50000000  0.22199650  0.50187970  1
  Ga  Ga7  1  0.00000000  0.77800350  0.00187970  1
