# generated using pymatgen
data_Li2Cr(FeO3)2
_symmetry_space_group_name_H-M   'P 1'
_cell_length_a   6.68527651
_cell_length_b   6.69244157
_cell_length_c   8.37387619
_cell_angle_alpha   71.30169254
_cell_angle_beta   108.76776985
_cell_angle_gamma   97.01403956
_symmetry_Int_Tables_number   1
_chemical_formula_structural   Li2Cr(FeO3)2
_chemical_formula_sum   'Li6 Cr3 Fe6 O18'
_cell_volume   335.93578064
_cell_formula_units_Z   3
loop_
 _symmetry_equiv_pos_site_id
 _symmetry_equiv_pos_as_xyz
  1  'x, y, z'
loop_
 _atom_site_type_symbol
 _atom_site_label
 _atom_site_symmetry_multiplicity
 _atom_site_fract_x
 _atom_site_fract_y
 _atom_site_fract_z
 _atom_site_occupancy
  Li  Li0  1  0.99676044  0.66559679  0.83450858  1
  Li  Li1  1  0.99549486  0.33144218  0.16513701  1
  Li  Li2  1  0.33375337  0.33350822  0.49715753  1
  Li  Li3  1  0.33291263  0.99982478  0.83617647  1
  Li  Li4  1  0.66990656  0.66773721  0.49882442  1
  Li  Li5  1  0.67117114  0.00189182  0.16819599  1
  Cr  Cr6  1  0.33333300  0.66666700  0.66666700  1
  Cr  Cr7  1  0.33292500  0.33502855  0.00014976  1
  Cr  Cr8  1  0.33374200  -0.00169555  0.33318324  1
  Fe  Fe9  1  0.66704877  0.00327395  0.66680751  1
  Fe  Fe10  1  0.66534394  0.66599981  0.00166677  1
  Fe  Fe11  1  0.66632533  0.33290371  0.33281662  1
  Fe  Fe12  1  0.00132206  0.66733419  0.33166623  1
  Fe  Fe13  1  0.99961823  0.33005905  0.66652549  1
  Fe  Fe14  1  0.00034167  0.00042929  0.00051738  1
  O  O15  1  0.01064600  0.99073260  0.23151928  1
  O  O16  1  0.02154171  0.64864717  0.58967964  1
  O  O17  1  0.01962608  0.31192776  0.92335696  1
  O  O18  1  0.35208478  0.98288077  0.58451512  1
  O  O19  1  0.34446611  0.65521212  0.89983116  1
  O  O20  1  0.68696257  0.98118701  0.92277232  1
  O  O21  1  0.32220089  0.67812088  0.43350184  1
  O  O22  1  0.31458222  0.35045323  0.74881788  1
  O  O23  1  0.64512529  0.68468583  0.74365336  1
  O  O24  1  0.35371580  0.31289068  0.25312059  1
  O  O25  1  0.68420252  0.64702607  0.25587704  1
  O  O26  1  0.67470619  0.32482331  0.56293018  1
  O  O27  1  0.31295120  0.02044332  0.08021241  1
  O  O28  1  0.65602100  0.34260040  0.10181372  1
  O  O29  1  0.64704092  0.02140524  0.40997704  1
  O  O30  1  0.98246448  0.68630693  0.07745596  1
  O  O31  1  0.97970343  0.35214699  0.41056068  1
  O  O32  1  0.99195981  0.00850969  0.77040282  1
