# generated using pymatgen
data_KHCO3
_symmetry_space_group_name_H-M   'P 1'
_cell_length_a   4.41724710
_cell_length_b   5.63077279
_cell_length_c   7.02280355
_cell_angle_alpha   109.73117167
_cell_angle_beta   104.78503113
_cell_angle_gamma   94.50126142
_symmetry_Int_Tables_number   1
_chemical_formula_structural   KHCO3
_chemical_formula_sum   'K2 H2 C2 O6'
_cell_volume   156.35250426
_cell_formula_units_Z   2
loop_
 _symmetry_equiv_pos_site_id
 _symmetry_equiv_pos_as_xyz
  1  'x, y, z'
loop_
 _atom_site_type_symbol
 _atom_site_label
 _atom_site_symmetry_multiplicity
 _atom_site_fract_x
 _atom_site_fract_y
 _atom_site_fract_z
 _atom_site_occupancy
  H  H0  1  0.45453008  0.29799172  0.92627541  1
  H  H1  1  0.54546992  0.70200828  0.07372459  1
  C  C2  1  0.09991657  0.42690785  0.77334809  1
  C  C3  1  0.90008343  0.57309215  0.22665191  1
  O  O4  1  0.16622764  0.63747421  0.36683415  1
  O  O5  1  0.83377236  0.36252579  0.63316585  1
  O  O6  1  0.24797382  0.23099671  0.79974745  1
  O  O7  1  0.75202618  0.76900329  0.20025255  1
  O  O8  1  0.24160539  0.65867936  0.89093746  1
  O  O9  1  0.75839461  0.34132064  0.10906254  1
  K  K10  1  0.29163010  0.14086317  0.30448916  1
  K  K11  1  0.70836990  0.85913683  0.69551084  1
