# generated using pymatgen
data_Li2Cu(PO3)4
_symmetry_space_group_name_H-M   'P 1'
_cell_length_a   8.26966104
_cell_length_b   8.26966103
_cell_length_c   7.52399090
_cell_angle_alpha   88.02399524
_cell_angle_beta   91.97600477
_cell_angle_gamma   67.18182719
_symmetry_Int_Tables_number   1
_chemical_formula_structural   Li2Cu(PO3)4
_chemical_formula_sum   'Li4 Cu2 P8 O24'
_cell_volume   473.35516587
_cell_formula_units_Z   2
loop_
 _symmetry_equiv_pos_site_id
 _symmetry_equiv_pos_as_xyz
  1  'x, y, z'
loop_
 _atom_site_type_symbol
 _atom_site_label
 _atom_site_symmetry_multiplicity
 _atom_site_fract_x
 _atom_site_fract_y
 _atom_site_fract_z
 _atom_site_occupancy
  Li  Li0  1  0.48615690  0.82171654  0.80823486  1
  Li  Li1  1  0.51384310  0.17828346  0.19176514  1
  Li  Li2  1  0.82171654  0.48615690  0.69176514  1
  Li  Li3  1  0.17828346  0.51384310  0.30823486  1
  O  O4  1  0.12189976  0.12189976  0.25000000  1
  O  O5  1  0.82897913  0.10367654  0.32652385  1
  O  O6  1  0.17102087  0.89632346  0.67347615  1
  O  O7  1  0.10367654  0.82897913  0.17347615  1
  O  O8  1  0.06456579  0.67546704  0.52471711  1
  O  O9  1  0.32453296  0.93543421  0.02471711  1
  O  O10  1  0.15594314  0.64524209  0.85803832  1
  O  O11  1  0.35475791  0.84405686  0.35803832  1
  O  O12  1  0.08603595  0.37470945  0.81908809  1
  O  O13  1  0.62529055  0.91396405  0.31908809  1
  O  O14  1  0.61158624  0.69856653  0.57399985  1
  O  O15  1  0.38269581  0.38269581  0.75000000  1
  O  O16  1  0.87810024  0.87810024  0.75000000  1
  O  O17  1  0.93543421  0.32453296  0.47528289  1
  O  O18  1  0.69856653  0.61158624  0.92600015  1
  O  O19  1  0.30143347  0.38841376  0.07399985  1
  O  O20  1  0.61730419  0.61730419  0.25000000  1
  O  O21  1  0.38841376  0.30143347  0.42600015  1
  O  O22  1  0.37470945  0.08603595  0.68091191  1
  O  O23  1  0.91396405  0.62529055  0.18091191  1
  O  O24  1  0.64524209  0.15594314  0.64196168  1
  O  O25  1  0.84405686  0.35475791  0.14196168  1
  O  O26  1  0.67546704  0.06456579  0.97528289  1
  O  O27  1  0.89632346  0.17102087  0.82652385  1
  P  P28  1  0.77295733  0.56277384  0.11302815  1
  P  P29  1  0.77531909  0.07312296  0.81632470  1
  P  P30  1  0.07312296  0.77531909  0.68367530  1
  P  P31  1  0.22468091  0.92687704  0.18367530  1
  P  P32  1  0.22704267  0.43722616  0.88697185  1
  P  P33  1  0.92687704  0.22468091  0.31632470  1
  P  P34  1  0.43722616  0.22704267  0.61302815  1
  P  P35  1  0.56277384  0.77295733  0.38697185  1
  Cu  Cu36  1  0.86889073  0.86889073  0.25000000  1
  Cu  Cu37  1  0.13110927  0.13110927  0.75000000  1
