# generated using pymatgen
data_NaAl6Fe3Si6B3O30F
_symmetry_space_group_name_H-M   'P 1'
_cell_length_a   9.56705357
_cell_length_b   9.56705357
_cell_length_c   9.56705357
_cell_angle_alpha   113.73276066
_cell_angle_beta   113.73276067
_cell_angle_gamma   113.73276068
_symmetry_Int_Tables_number   1
_chemical_formula_structural   NaAl6Fe3Si6B3O30F
_chemical_formula_sum   'Na1 Al6 Fe3 Si6 B3 O30 F1'
_cell_volume   542.38775130
_cell_formula_units_Z   1
loop_
 _symmetry_equiv_pos_site_id
 _symmetry_equiv_pos_as_xyz
  1  'x, y, z'
loop_
 _atom_site_type_symbol
 _atom_site_label
 _atom_site_symmetry_multiplicity
 _atom_site_fract_x
 _atom_site_fract_y
 _atom_site_fract_z
 _atom_site_occupancy
  B  B0  1  0.56490872  0.56490872  0.23234087  1
  B  B1  1  0.56490872  0.23234087  0.56490872  1
  B  B2  1  0.23234087  0.56490872  0.56490872  1
  O  O3  1  0.65082477  0.17089764  0.50117766  1
  O  O4  1  0.17089764  0.50117766  0.65082477  1
  O  O5  1  0.50117766  0.65082477  0.17089764  1
  O  O6  1  0.50117766  0.17089764  0.65082477  1
  O  O7  1  0.17089764  0.65082477  0.50117766  1
  O  O8  1  0.65082477  0.50117766  0.17089764  1
  O  O9  1  0.36125234  0.78849361  0.07526490  1
  O  O10  1  0.78849361  0.07526490  0.36125234  1
  O  O11  1  0.07526490  0.36125234  0.78849361  1
  O  O12  1  0.07526490  0.78849361  0.36125234  1
  O  O13  1  0.78849361  0.36125234  0.07526490  1
  O  O14  1  0.36125234  0.07526490  0.78849361  1
  O  O15  1  0.96902379  0.58521463  0.77007712  1
  O  O16  1  0.58521463  0.77007712  0.96902379  1
  O  O17  1  0.77007712  0.96902379  0.58521463  1
  O  O18  1  0.77007712  0.58521463  0.96902379  1
  O  O19  1  0.58521463  0.96902379  0.77007712  1
  O  O20  1  0.54567395  0.54567395  0.36238007  1
  O  O21  1  0.36238007  0.54567395  0.54567395  1
  O  O22  1  0.54567395  0.36238007  0.54567395  1
  O  O23  1  0.79188877  0.39194645  0.39194645  1
  O  O24  1  0.39194645  0.79188877  0.39194645  1
  O  O25  1  0.39194645  0.39194645  0.79188877  1
  O  O26  1  0.16643538  0.16643538  0.88670620  1
  O  O27  1  0.88670620  0.16643538  0.16643538  1
  O  O28  1  0.16643538  0.88670620  0.16643538  1
  O  O29  1  0.26146476  0.98762924  0.98762924  1
  O  O30  1  0.98762924  0.26146476  0.98762924  1
  O  O31  1  0.98762924  0.98762924  0.26146476  1
  O  O32  1  0.96902379  0.77007712  0.58521463  1
  F  F33  1  0.76971808  0.76971808  0.76971808  1
  Na  Na34  1  0.21835742  0.21835742  0.21835742  1
  Al  Al35  1  0.56372957  0.90451443  0.34574576  1
  Al  Al36  1  0.34574576  0.56372957  0.90451443  1
  Al  Al37  1  0.56372957  0.34574576  0.90451443  1
  Al  Al38  1  0.34574576  0.90451443  0.56372957  1
  Al  Al39  1  0.90451443  0.34574576  0.56372957  1
  Al  Al40  1  0.90451443  0.56372957  0.34574576  1
  Si  Si41  1  0.80600536  0.99656454  0.18926919  1
  Si  Si42  1  0.18926919  0.80600536  0.99656454  1
  Si  Si43  1  0.99656454  0.80600536  0.18926919  1
  Si  Si44  1  0.80600536  0.18926919  0.99656454  1
  Si  Si45  1  0.18926919  0.99656454  0.80600536  1
  Si  Si46  1  0.99656454  0.18926919  0.80600536  1
  Fe  Fe47  1  0.54906665  0.75478240  0.54906665  1
  Fe  Fe48  1  0.75478240  0.54906665  0.54906665  1
  Fe  Fe49  1  0.54906665  0.54906665  0.75478240  1
