# generated using pymatgen
data_La2(WO4)3
_symmetry_space_group_name_H-M   'P 1'
_cell_length_a   7.21561315
_cell_length_b   7.21561314
_cell_length_c   11.85025574
_cell_angle_alpha   100.92739151
_cell_angle_beta   100.92739154
_cell_angle_gamma   112.12684651
_symmetry_Int_Tables_number   1
_chemical_formula_structural   La2(WO4)3
_chemical_formula_sum   'La4 W6 O24'
_cell_volume   537.58731450
_cell_formula_units_Z   2
loop_
 _symmetry_equiv_pos_site_id
 _symmetry_equiv_pos_as_xyz
  1  'x, y, z'
loop_
 _atom_site_type_symbol
 _atom_site_label
 _atom_site_symmetry_multiplicity
 _atom_site_fract_x
 _atom_site_fract_y
 _atom_site_fract_z
 _atom_site_occupancy
  O  O0  1  0.02863413  0.94907239  0.11225295  1
  O  O1  1  0.05092761  0.97136587  0.38774705  1
  O  O2  1  0.97136587  0.05092761  0.88774705  1
  O  O3  1  0.94907239  0.02863413  0.61225295  1
  O  O4  1  0.40138062  0.32653139  0.05955879  1
  O  O5  1  0.67346861  0.59861938  0.44044121  1
  O  O6  1  0.59861938  0.67346861  0.94044121  1
  O  O7  1  0.32653139  0.40138062  0.55955879  1
  O  O8  1  0.01274569  0.60465259  0.21778644  1
  O  O9  1  0.39534741  0.98725431  0.28221356  1
  O  O10  1  0.09714059  0.67305088  0.56995969  1
  O  O11  1  0.32694912  0.90285941  0.93004031  1
  O  O12  1  0.90285941  0.32694912  0.43004031  1
  O  O13  1  0.67305088  0.09714059  0.06995969  1
  O  O14  1  0.62484124  0.22990170  0.53784724  1
  O  O15  1  0.77009830  0.37515876  0.96215276  1
  O  O16  1  0.37515876  0.77009830  0.46215276  1
  O  O17  1  0.22990170  0.62484124  0.03784724  1
  O  O18  1  0.35546008  0.19374522  0.80756952  1
  O  O19  1  0.80625478  0.64453992  0.69243048  1
  O  O20  1  0.64453992  0.80625478  0.19243048  1
  O  O21  1  0.19374522  0.35546008  0.30756952  1
  O  O22  1  0.60465259  0.01274569  0.71778644  1
  O  O23  1  0.98725431  0.39534741  0.78221356  1
  La  La24  1  0.30890828  0.05568050  0.59575466  1
  La  La25  1  0.94431950  0.69109172  0.90424534  1
  La  La26  1  0.69109172  0.94431950  0.40424534  1
  La  La27  1  0.05568050  0.30890828  0.09575466  1
  W  W28  1  0.79993409  0.50443412  0.54481493  1
  W  W29  1  0.49556588  0.20006591  0.95518507  1
  W  W30  1  0.50443412  0.79993409  0.04481493  1
  W  W31  1  0.20006591  0.49556588  0.45518507  1
  W  W32  1  0.88376359  0.11623641  0.75000000  1
  W  W33  1  0.11623641  0.88376359  0.25000000  1
