# generated using pymatgen
data_VMoO5
_symmetry_space_group_name_H-M   'P 1'
_cell_length_a   4.65537694
_cell_length_b   6.72160371
_cell_length_c   6.72160371
_cell_angle_alpha   90.00000000
_cell_angle_beta   90.00000000
_cell_angle_gamma   90.00000000
_symmetry_Int_Tables_number   1
_chemical_formula_structural   VMoO5
_chemical_formula_sum   'V2 Mo2 O10'
_cell_volume   210.32972733
_cell_formula_units_Z   2
loop_
 _symmetry_equiv_pos_site_id
 _symmetry_equiv_pos_as_xyz
  1  'x, y, z'
loop_
 _atom_site_type_symbol
 _atom_site_label
 _atom_site_symmetry_multiplicity
 _atom_site_fract_x
 _atom_site_fract_y
 _atom_site_fract_z
 _atom_site_occupancy
  O  O0  1  0.72296548  0.21546339  0.96465916  1
  O  O1  1  0.72296548  0.53534084  0.21546339  1
  O  O2  1  0.72296548  0.96465916  0.28453661  1
  O  O3  1  0.72296548  0.28453661  0.53534084  1
  O  O4  1  0.18045041  0.25000000  0.25000000  1
  O  O5  1  0.81954959  0.75000000  0.75000000  1
  O  O6  1  0.27703452  0.71546339  0.46465916  1
  O  O7  1  0.27703452  0.03534084  0.71546339  1
  O  O8  1  0.27703452  0.46465916  0.78453661  1
  O  O9  1  0.27703452  0.78453661  0.03534084  1
  V  V10  1  0.82981264  0.25000000  0.25000000  1
  V  V11  1  0.17018736  0.75000000  0.75000000  1
  Mo  Mo12  1  0.50000000  0.25000000  0.75000000  1
  Mo  Mo13  1  0.50000000  0.75000000  0.25000000  1
