# generated using pymatgen
data_P(HO)4
_symmetry_space_group_name_H-M   'P 1'
_cell_length_a   6.70418411
_cell_length_b   9.57072248
_cell_length_c   11.72238903
_cell_angle_alpha   90.00000000
_cell_angle_beta   90.00000000
_cell_angle_gamma   90.00000000
_symmetry_Int_Tables_number   1
_chemical_formula_structural   P(HO)4
_chemical_formula_sum   'P8 H32 O32'
_cell_volume   752.15402835
_cell_formula_units_Z   8
loop_
 _symmetry_equiv_pos_site_id
 _symmetry_equiv_pos_as_xyz
  1  'x, y, z'
loop_
 _atom_site_type_symbol
 _atom_site_label
 _atom_site_symmetry_multiplicity
 _atom_site_fract_x
 _atom_site_fract_y
 _atom_site_fract_z
 _atom_site_occupancy
  H  H0  1  0.62845695  0.09795065  0.10285159  1
  H  H1  1  0.12845695  0.40204935  0.89714841  1
  H  H2  1  0.87154305  0.09795065  0.39714841  1
  H  H3  1  0.37154305  0.40204935  0.60285159  1
  H  H4  1  0.37154305  0.90204935  0.89714841  1
  H  H5  1  0.87154305  0.59795065  0.10285159  1
  H  H6  1  0.12845695  0.90204935  0.60285159  1
  H  H7  1  0.62845695  0.59795065  0.39714841  1
  H  H8  1  0.65269146  0.17851664  0.97455510  1
  H  H9  1  0.15269146  0.32148336  0.02544490  1
  H  H10  1  0.84730854  0.17851664  0.52544490  1
  H  H11  1  0.34730854  0.32148336  0.47455510  1
  H  H12  1  0.34730854  0.82148336  0.02544490  1
  H  H13  1  0.84730854  0.67851664  0.97455510  1
  H  H14  1  0.15269146  0.82148336  0.47455510  1
  H  H15  1  0.65269146  0.67851664  0.52544490  1
  H  H16  1  0.85282086  0.15483344  0.05947660  1
  H  H17  1  0.35282086  0.34516656  0.94052340  1
  H  H18  1  0.64717914  0.15483344  0.44052340  1
  H  H19  1  0.14717914  0.34516656  0.55947660  1
  H  H20  1  0.14717914  0.84516656  0.94052340  1
  H  H21  1  0.64717914  0.65483344  0.05947660  1
  H  H22  1  0.35282086  0.84516656  0.55947660  1
  H  H23  1  0.85282086  0.65483344  0.44052340  1
  H  H24  1  -0.00468296  0.06605625  0.76644876  1
  H  H25  1  0.49531704  0.43394375  0.23355124  1
  H  H26  1  0.50468296  0.06605625  0.73355124  1
  H  H27  1  1.00468296  0.43394375  0.26644876  1
  H  H28  1  1.00468296  0.93394375  0.23355124  1
  H  H29  1  0.50468296  0.56605625  0.76644876  1
  H  H30  1  0.49531704  0.93394375  0.26644876  1
  H  H31  1  -0.00468296  0.56605625  0.73355124  1
  O  O32  1  0.72041441  0.11171662  0.03213209  1
  O  O33  1  0.22041441  0.38828338  0.96786791  1
  O  O34  1  0.77958559  0.11171662  0.46786791  1
  O  O35  1  0.27958559  0.38828338  0.53213209  1
  O  O36  1  0.27958559  0.88828338  0.96786791  1
  O  O37  1  0.77958559  0.61171662  0.03213209  1
  O  O38  1  0.22041441  0.88828338  0.53213209  1
  O  O39  1  0.72041441  0.61171662  0.46786791  1
  O  O40  1  0.00027091  0.42092548  0.79263078  1
  O  O41  1  0.50027091  0.07907452  0.20736922  1
  O  O42  1  0.49972909  0.42092548  0.70736922  1
  O  O43  1  0.99972909  0.07907452  0.29263078  1
  O  O44  1  0.99972909  0.57907452  0.20736922  1
  O  O45  1  0.49972909  0.92092548  0.79263078  1
  O  O46  1  0.50027091  0.57907452  0.29263078  1
  O  O47  1  0.00027091  0.92092548  0.70736922  1
  O  O48  1  0.95307232  0.27748497  0.60835212  1
  O  O49  1  0.45307232  0.22251503  0.39164788  1
  O  O50  1  0.54692768  0.27748497  0.89164788  1
  O  O51  1  0.04692768  0.22251503  0.10835212  1
  O  O52  1  0.04692768  0.72251503  0.39164788  1
  O  O53  1  0.54692768  0.77748497  0.60835212  1
  O  O54  1  0.45307232  0.72251503  0.10835212  1
  O  O55  1  0.95307232  0.77748497  0.89164788  1
  O  O56  1  0.99459764  0.16122847  0.80686782  1
  O  O57  1  0.49459764  0.33877153  0.19313218  1
  O  O58  1  0.50540236  0.16122847  0.69313218  1
  O  O59  1  0.00540236  0.33877153  0.30686782  1
  O  O60  1  0.00540236  0.83877153  0.19313218  1
  O  O61  1  0.50540236  0.66122847  0.80686782  1
  O  O62  1  0.49459764  0.83877153  0.30686782  1
  O  O63  1  0.99459764  0.66122847  0.69313218  1
  P  P64  1  0.91314470  0.28973009  0.73663193  1
  P  P65  1  0.41314470  0.21026991  0.26336807  1
  P  P66  1  0.58685530  0.28973009  0.76336807  1
  P  P67  1  0.08685530  0.21026991  0.23663193  1
  P  P68  1  0.08685530  0.71026991  0.26336807  1
  P  P69  1  0.58685530  0.78973009  0.73663193  1
  P  P70  1  0.41314470  0.71026991  0.23663193  1
  P  P71  1  0.91314470  0.78973009  0.76336807  1
