# generated using pymatgen
data_CaAs(HO)7
_symmetry_space_group_name_H-M   'P 1'
_cell_length_a   10.85382218
_cell_length_b   11.37086002
_cell_length_c   11.11791336
_cell_angle_alpha   90.00000000
_cell_angle_beta   90.00000000
_cell_angle_gamma   90.00000000
_symmetry_Int_Tables_number   1
_chemical_formula_structural   CaAs(HO)7
_chemical_formula_sum   'Ca8 As8 H56 O56'
_cell_volume   1372.14276726
_cell_formula_units_Z   8
loop_
 _symmetry_equiv_pos_site_id
 _symmetry_equiv_pos_as_xyz
  1  'x, y, z'
loop_
 _atom_site_type_symbol
 _atom_site_label
 _atom_site_symmetry_multiplicity
 _atom_site_fract_x
 _atom_site_fract_y
 _atom_site_fract_z
 _atom_site_occupancy
  H  H0  1  0.84296364  0.33986010  0.32612629  1
  H  H1  1  0.34296364  0.16013990  0.67387371  1
  H  H2  1  0.15703636  0.83986010  0.17387371  1
  H  H3  1  0.65703636  0.66013990  0.82612629  1
  H  H4  1  0.15703636  0.66013990  0.67387371  1
  H  H5  1  0.65703636  0.83986010  0.32612629  1
  H  H6  1  0.84296364  0.16013990  0.82612629  1
  H  H7  1  0.34296364  0.33986010  0.17387371  1
  H  H8  1  0.95245440  0.41655240  0.27498811  1
  H  H9  1  0.45245440  0.08344760  0.72501189  1
  H  H10  1  0.04754560  0.91655240  0.22501189  1
  H  H11  1  0.54754560  0.58344760  0.77498811  1
  H  H12  1  0.04754560  0.58344760  0.72501189  1
  H  H13  1  0.54754560  0.91655240  0.27498811  1
  H  H14  1  0.95245440  0.08344760  0.77498811  1
  H  H15  1  0.45245440  0.41655240  0.22501189  1
  H  H16  1  0.87046203  0.13145255  0.10534397  1
  H  H17  1  0.37046203  0.36854745  0.89465603  1
  H  H18  1  0.12953797  0.63145255  0.39465603  1
  H  H19  1  0.62953797  0.86854745  0.60534397  1
  H  H20  1  0.12953797  0.86854745  0.89465603  1
  H  H21  1  0.62953797  0.63145255  0.10534397  1
  H  H22  1  0.87046203  0.36854745  0.60534397  1
  H  H23  1  0.37046203  0.13145255  0.39465603  1
  H  H24  1  0.96117116  0.14261390  0.99474967  1
  H  H25  1  0.46117116  0.35738610  0.00525033  1
  H  H26  1  0.03882884  0.64261390  0.50525033  1
  H  H27  1  0.53882884  0.85738610  0.49474967  1
  H  H28  1  0.03882884  0.85738610  0.00525033  1
  H  H29  1  0.53882884  0.64261390  0.99474967  1
  H  H30  1  0.96117116  0.35738610  0.49474967  1
  H  H31  1  0.46117116  0.14261390  0.50525033  1
  H  H32  1  0.18662615  0.21237949  0.50602062  1
  H  H33  1  0.68662615  0.28762051  0.49397938  1
  H  H34  1  0.81337385  0.71237949  0.99397938  1
  H  H35  1  0.31337385  0.78762051  0.00602062  1
  H  H36  1  0.81337385  0.78762051  0.49397938  1
  H  H37  1  0.31337385  0.71237949  0.50602062  1
  H  H38  1  0.18662615  0.28762051  0.00602062  1
  H  H39  1  0.68662615  0.21237949  0.99397938  1
  H  H40  1  0.23648869  0.32829447  0.44308570  1
  H  H41  1  0.73648869  0.17170553  0.55691430  1
  H  H42  1  0.76351131  0.82829447  0.05691430  1
  H  H43  1  0.26351131  0.67170553  0.94308570  1
  H  H44  1  0.76351131  0.67170553  0.55691430  1
  H  H45  1  0.26351131  0.82829447  0.44308570  1
  H  H46  1  0.23648869  0.17170553  0.94308570  1
  H  H47  1  0.73648869  0.32829447  0.05691430  1
  H  H48  1  0.60624667  0.51824365  0.57323945  1
  H  H49  1  0.10624667  0.98175635  0.42676055  1
  H  H50  1  0.39375333  0.01824365  0.92676055  1
  H  H51  1  0.89375333  0.48175635  0.07323945  1
  H  H52  1  0.39375333  0.48175635  0.42676055  1
  H  H53  1  0.89375333  0.01824365  0.57323945  1
  H  H54  1  0.60624667  0.98175635  0.07323945  1
  H  H55  1  0.10624667  0.51824365  0.92676055  1
  O  O56  1  0.93486474  0.34383607  0.32192141  1
  O  O57  1  0.43486474  0.15616393  0.67807859  1
  O  O58  1  0.06513526  0.84383607  0.17807859  1
  O  O59  1  0.56513526  0.65616393  0.82192141  1
  O  O60  1  0.06513526  0.65616393  0.67807859  1
  O  O61  1  0.56513526  0.84383607  0.32192141  1
  O  O62  1  0.93486474  0.15616393  0.82192141  1
  O  O63  1  0.43486474  0.34383607  0.17807859  1
  O  O64  1  0.95732955  0.14133874  0.08347714  1
  O  O65  1  0.45732955  0.35866126  0.91652286  1
  O  O66  1  0.04267045  0.64133874  0.41652286  1
  O  O67  1  0.54267045  0.85866126  0.58347714  1
  O  O68  1  0.04267045  0.85866126  0.91652286  1
  O  O69  1  0.54267045  0.64133874  0.08347714  1
  O  O70  1  0.95732955  0.35866126  0.58347714  1
  O  O71  1  0.45732955  0.14133874  0.41652286  1
  O  O72  1  0.18862391  0.25559613  0.42807791  1
  O  O73  1  0.68862391  0.24440387  0.57192209  1
  O  O74  1  0.81137609  0.75559613  0.07192209  1
  O  O75  1  0.31137609  0.74440387  0.92807791  1
  O  O76  1  0.81137609  0.74440387  0.57192209  1
  O  O77  1  0.31137609  0.75559613  0.42807791  1
  O  O78  1  0.18862391  0.24440387  0.92807791  1
  O  O79  1  0.68862391  0.25559613  0.07192209  1
  O  O80  1  0.67779612  0.54396636  0.51915246  1
  O  O81  1  0.17779612  0.95603364  0.48084754  1
  O  O82  1  0.32220388  0.04396636  0.98084754  1
  O  O83  1  0.82220388  0.45603364  0.01915246  1
  O  O84  1  0.32220388  0.45603364  0.48084754  1
  O  O85  1  0.82220388  0.04396636  0.51915246  1
  O  O86  1  0.67779612  0.95603364  0.01915246  1
  O  O87  1  0.17779612  0.54396636  0.98084754  1
  O  O88  1  0.74120242  0.59051843  0.28319719  1
  O  O89  1  0.24120242  0.90948157  0.71680281  1
  O  O90  1  0.25879758  0.09051843  0.21680281  1
  O  O91  1  0.75879758  0.40948157  0.78319719  1
  O  O92  1  0.25879758  0.40948157  0.71680281  1
  O  O93  1  0.75879758  0.09051843  0.28319719  1
  O  O94  1  0.74120242  0.90948157  0.78319719  1
  O  O95  1  0.24120242  0.59051843  0.21680281  1
  O  O96  1  0.68362598  0.35602262  0.35472093  1
  O  O97  1  0.18362598  0.14397738  0.64527907  1
  O  O98  1  0.31637402  0.85602262  0.14527907  1
  O  O99  1  0.81637402  0.64397738  0.85472093  1
  O  O100  1  0.31637402  0.64397738  0.64527907  1
  O  O101  1  0.81637402  0.85602262  0.35472093  1
  O  O102  1  0.68362598  0.14397738  0.85472093  1
  O  O103  1  0.18362598  0.35602262  0.14527907  1
  O  O104  1  0.49658484  0.52627623  0.33671883  1
  O  O105  1  0.99658484  0.97372377  0.66328117  1
  O  O106  1  0.50341516  0.02627623  0.16328117  1
  O  O107  1  0.00341516  0.47372377  0.83671883  1
  O  O108  1  0.50341516  0.47372377  0.66328117  1
  O  O109  1  0.00341516  0.02627623  0.33671883  1
  O  O110  1  0.49658484  0.97372377  0.83671883  1
  O  O111  1  0.99658484  0.52627623  0.16328117  1
  Ca  Ca112  1  0.08603591  0.19956833  0.24856452  1
  Ca  Ca113  1  0.58603591  0.30043167  0.75143548  1
  Ca  Ca114  1  0.91396409  0.69956833  0.25143548  1
  Ca  Ca115  1  0.41396409  0.80043167  0.74856452  1
  Ca  Ca116  1  0.91396409  0.80043167  0.75143548  1
  Ca  Ca117  1  0.41396409  0.69956833  0.24856452  1
  Ca  Ca118  1  0.08603591  0.30043167  0.74856452  1
  Ca  Ca119  1  0.58603591  0.19956833  0.25143548  1
  As  As120  1  0.65067117  0.50356386  0.36708934  1
  As  As121  1  0.15067117  0.99643614  0.63291066  1
  As  As122  1  0.34932883  0.00356386  0.13291066  1
  As  As123  1  0.84932883  0.49643614  0.86708934  1
  As  As124  1  0.34932883  0.49643614  0.63291066  1
  As  As125  1  0.84932883  0.00356386  0.36708934  1
  As  As126  1  0.65067117  0.99643614  0.86708934  1
  As  As127  1  0.15067117  0.50356386  0.13291066  1
