# generated using pymatgen
data_CaPH5O6
_symmetry_space_group_name_H-M   'P 1'
_cell_length_a   5.89979574
_cell_length_b   6.24275752
_cell_length_c   8.22536240
_cell_angle_alpha   102.82949189
_cell_angle_beta   101.07249654
_cell_angle_gamma   116.03854928
_symmetry_Int_Tables_number   1
_chemical_formula_structural   CaPH5O6
_chemical_formula_sum   'Ca2 P2 H10 O12'
_cell_volume   250.49080237
_cell_formula_units_Z   2
loop_
 _symmetry_equiv_pos_site_id
 _symmetry_equiv_pos_as_xyz
  1  'x, y, z'
loop_
 _atom_site_type_symbol
 _atom_site_label
 _atom_site_symmetry_multiplicity
 _atom_site_fract_x
 _atom_site_fract_y
 _atom_site_fract_z
 _atom_site_occupancy
  H  H0  1  0.18016607  0.32657166  0.86638631  1
  H  H1  1  0.81377976  0.46018535  0.13361369  1
  H  H2  1  0.24303303  0.23994818  0.02553333  1
  H  H3  1  0.71749970  0.21441485  0.97446667  1
  H  H4  1  0.34832753  0.73654212  0.98352173  1
  H  H5  1  0.86480580  0.75302039  0.01647827  1
  H  H6  1  0.67264049  0.03793607  0.65506701  1
  H  H7  1  0.51757348  0.38286906  0.34493299  1
  H  H8  1  0.45155654  0.66431595  0.82582745  1
  H  H9  1  0.12572908  0.83848850  0.17417255  1
  O  O10  1  0.69653358  0.59829955  0.78801462  1
  O  O11  1  0.71263704  0.36519358  0.50386461  1
  O  O12  1  0.94594058  0.82439280  0.14748436  1
  O  O13  1  0.29845622  0.67690844  0.85251564  1
  O  O14  1  0.77017665  0.28187828  0.10419666  1
  O  O15  1  0.16597998  0.17768161  0.89580334  1
  O  O16  1  0.26582941  0.19932664  0.56315561  1
  O  O17  1  0.20267380  0.63617103  0.43684439  1
  O  O18  1  0.63017775  0.15321245  0.73663076  1
  O  O19  1  0.39354699  0.41658169  0.26336924  1
  O  O20  1  0.70877244  0.86132898  0.49613539  1
  O  O21  1  0.40851896  0.81028493  0.21198538  1
  P  P22  1  0.57027482  0.33622016  0.64507217  1
  P  P23  1  0.42520264  0.69114798  0.35492783  1
  Ca  Ca24  1  0.07183906  0.82239512  0.65691049  1
  Ca  Ca25  1  0.91492857  0.16548463  0.34308951  1
