# generated using pymatgen
data_LiSbP2O7
_symmetry_space_group_name_H-M   'P 1'
_cell_length_a   4.96257172
_cell_length_b   9.00189769
_cell_length_c   7.54757681
_cell_angle_alpha   90.00000000
_cell_angle_beta   106.06906337
_cell_angle_gamma   90.00000000
_symmetry_Int_Tables_number   1
_chemical_formula_structural   LiSbP2O7
_chemical_formula_sum   'Li2 Sb2 P4 O14'
_cell_volume   323.99596181
_cell_formula_units_Z   2
loop_
 _symmetry_equiv_pos_site_id
 _symmetry_equiv_pos_as_xyz
  1  'x, y, z'
loop_
 _atom_site_type_symbol
 _atom_site_label
 _atom_site_symmetry_multiplicity
 _atom_site_fract_x
 _atom_site_fract_y
 _atom_site_fract_z
 _atom_site_occupancy
  Li  Li0  1  0.20353474  0.78134401  0.65390262  1
  Li  Li1  1  0.79646526  0.28134401  0.34609738  1
  O  O2  1  0.06640008  0.25982879  0.88044188  1
  O  O3  1  0.19808402  0.69296939  0.88582223  1
  O  O4  1  0.22730222  0.25686629  0.54039715  1
  O  O5  1  0.24309219  0.97253487  0.55385758  1
  O  O6  1  0.38993836  0.61926133  0.55415711  1
  O  O7  1  0.61172243  0.39020519  0.86633658  1
  O  O8  1  0.60549062  0.11537653  0.78460788  1
  O  O9  1  0.39450938  0.61537653  0.21539212  1
  O  O10  1  0.38827757  0.89020519  0.13366342  1
  O  O11  1  0.61006164  0.11926133  0.44584289  1
  O  O12  1  0.75690781  0.47253487  0.44614242  1
  O  O13  1  0.77269778  0.75686629  0.45960285  1
  O  O14  1  0.80191598  0.19296939  0.11417777  1
  O  O15  1  0.93359992  0.75982879  0.11955812  1
  P  P16  1  0.41607133  0.11322358  0.57121669  1
  P  P17  1  0.21973987  0.74299102  0.07965142  1
  P  P18  1  0.78026013  0.24299102  0.92034858  1
  P  P19  1  0.58392867  0.61322358  0.42878331  1
  Sb  Sb20  1  0.19968487  0.43205297  0.72281992  1
  Sb  Sb21  1  0.80031513  0.93205297  0.27718008  1
