# generated using pymatgen
data_In3Sb5O12
_symmetry_space_group_name_H-M   'P 1'
_cell_length_a   9.29691314
_cell_length_b   9.29691314
_cell_length_c   9.29691314
_cell_angle_alpha   109.53222039
_cell_angle_beta   109.53222042
_cell_angle_gamma   109.53222041
_symmetry_Int_Tables_number   1
_chemical_formula_structural   In3Sb5O12
_chemical_formula_sum   'In6 Sb10 O24'
_cell_volume   617.17695842
_cell_formula_units_Z   2
loop_
 _symmetry_equiv_pos_site_id
 _symmetry_equiv_pos_as_xyz
  1  'x, y, z'
loop_
 _atom_site_type_symbol
 _atom_site_label
 _atom_site_symmetry_multiplicity
 _atom_site_fract_x
 _atom_site_fract_y
 _atom_site_fract_z
 _atom_site_occupancy
  O  O0  1  0.52125881  0.99538324  0.79492125  1
  O  O1  1  0.99538324  0.79492125  0.52125881  1
  O  O2  1  0.79492125  0.52125881  0.99538324  1
  O  O3  1  0.79492125  0.99538324  0.52125881  1
  O  O4  1  0.99538324  0.52125881  0.79492125  1
  O  O5  1  0.52125881  0.79492125  0.99538324  1
  O  O6  1  0.72338797  0.19998275  0.19998275  1
  O  O7  1  0.19998275  0.19998275  0.72338797  1
  O  O8  1  0.19998275  0.72338797  0.19998275  1
  O  O9  1  0.27197216  0.47472633  0.47472633  1
  O  O10  1  0.47472633  0.47472633  0.27197216  1
  O  O11  1  0.47472633  0.27197216  0.47472633  1
  O  O12  1  0.50372254  0.29626454  0.99735952  1
  O  O13  1  0.29626454  0.99735952  0.50372254  1
  O  O14  1  0.99735952  0.50372254  0.29626454  1
  O  O15  1  0.99735952  0.29626454  0.50372254  1
  O  O16  1  0.49253250  0.49253250  0.78931042  1
  O  O17  1  0.78931042  0.49253250  0.49253250  1
  O  O18  1  0.49253250  0.78931042  0.49253250  1
  O  O19  1  0.70015192  0.20390963  0.70015192  1
  O  O20  1  0.70015192  0.70015192  0.20390963  1
  O  O21  1  0.20390963  0.70015192  0.70015192  1
  O  O22  1  0.50372254  0.99735952  0.29626454  1
  O  O23  1  0.29626454  0.50372254  0.99735952  1
  In  In24  1  0.24902541  0.49919898  0.74780038  1
  In  In25  1  0.49919898  0.74780038  0.24902541  1
  In  In26  1  0.74780038  0.24902541  0.49919898  1
  In  In27  1  0.74780038  0.49919898  0.24902541  1
  In  In28  1  0.49919898  0.24902541  0.74780038  1
  In  In29  1  0.24902541  0.74780038  0.49919898  1
  Sb  Sb30  1  0.51372931  0.51372931  0.51372931  1
  Sb  Sb31  1  0.48164385  0.99706263  0.99706263  1
  Sb  Sb32  1  0.99706263  0.99706263  0.48164385  1
  Sb  Sb33  1  0.99706263  0.48164385  0.99706263  1
  Sb  Sb34  1  0.99702684  0.71433752  0.71433752  1
  Sb  Sb35  1  0.71433752  0.71433752  0.99702684  1
  Sb  Sb36  1  0.71433752  0.99702684  0.71433752  1
  Sb  Sb37  1  0.99642743  0.28196788  0.28196788  1
  Sb  Sb38  1  0.28196788  0.28196788  0.99642743  1
  Sb  Sb39  1  0.28196788  0.99642743  0.28196788  1
