# generated using pymatgen
data_Te2OsCl12
_symmetry_space_group_name_H-M   'P 1'
_cell_length_a   6.77100926
_cell_length_b   7.15383545
_cell_length_c   11.31523956
_cell_angle_alpha   71.43708164
_cell_angle_beta   87.61177908
_cell_angle_gamma   62.76057079
_symmetry_Int_Tables_number   1
_chemical_formula_structural   Te2OsCl12
_chemical_formula_sum   'Te2 Os1 Cl12'
_cell_volume   458.42686006
_cell_formula_units_Z   1
loop_
 _symmetry_equiv_pos_site_id
 _symmetry_equiv_pos_as_xyz
  1  'x, y, z'
loop_
 _atom_site_type_symbol
 _atom_site_label
 _atom_site_symmetry_multiplicity
 _atom_site_fract_x
 _atom_site_fract_y
 _atom_site_fract_z
 _atom_site_occupancy
  Cl  Cl0  1  0.97181656  0.72352360  0.59156987  1
  Cl  Cl1  1  0.02818344  0.27647640  0.40843013  1
  Cl  Cl2  1  0.42698368  0.73309958  0.69979093  1
  Cl  Cl3  1  0.61009542  0.21591436  0.98226237  1
  Cl  Cl4  1  0.38990458  0.78408564  0.01773763  1
  Cl  Cl5  1  -0.00913775  0.76537060  0.19693579  1
  Cl  Cl6  1  1.00913775  0.23462940  0.80306421  1
  Cl  Cl7  1  0.94804196  0.77677319  0.90378487  1
  Cl  Cl8  1  0.05195804  0.22322681  0.09621513  1
  Cl  Cl9  1  0.51507128  0.74006457  0.34997186  1
  Cl  Cl10  1  0.48492872  0.25993543  0.65002814  1
  Cl  Cl11  1  0.57301632  0.26690042  0.30020907  1
  Te  Te12  1  0.26155771  0.49552265  0.76041475  1
  Te  Te13  1  0.73844229  0.50447735  0.23958525  1
  Os  Os14  1  0.00000000  0.00000000  0.00000000  1
