# generated using pymatgen
data_H5IO6
_symmetry_space_group_name_H-M   'P 1'
_cell_length_a   5.01494194
_cell_length_b   5.41116652
_cell_length_c   18.56454117
_cell_angle_alpha   90.00000000
_cell_angle_beta   90.00000000
_cell_angle_gamma   108.54539760
_symmetry_Int_Tables_number   1
_chemical_formula_structural   H5IO6
_chemical_formula_sum   'H20 I4 O24'
_cell_volume   477.61980109
_cell_formula_units_Z   4
loop_
 _symmetry_equiv_pos_site_id
 _symmetry_equiv_pos_as_xyz
  1  'x, y, z'
loop_
 _atom_site_type_symbol
 _atom_site_label
 _atom_site_symmetry_multiplicity
 _atom_site_fract_x
 _atom_site_fract_y
 _atom_site_fract_z
 _atom_site_occupancy
  H  H0  1  1.00596359  0.17124907  0.05929570  1
  H  H1  1  0.49403641  0.32875093  0.55929570  1
  H  H2  1  -0.00596359  0.82875093  0.94070430  1
  H  H3  1  0.50596359  0.67124907  0.44070430  1
  H  H4  1  0.91050148  0.45198996  0.18865234  1
  H  H5  1  0.58949852  0.04801004  0.68865234  1
  H  H6  1  0.08949852  0.54801004  0.81134766  1
  H  H7  1  0.41050148  0.95198996  0.31134766  1
  H  H8  1  0.46842362  0.87629368  0.13149480  1
  H  H9  1  0.03157638  0.62370632  0.63149480  1
  H  H10  1  0.53157638  0.12370632  0.86850520  1
  H  H11  1  0.96842362  0.37629368  0.36850520  1
  H  H12  1  0.67394218  0.34303444  -0.00062060  1
  H  H13  1  0.82605782  0.15696556  0.49937940  1
  H  H14  1  0.32605782  0.65696556  1.00062060  1
  H  H15  1  0.17394218  0.84303444  0.50062060  1
  H  H16  1  0.21117865  0.21795128  0.23765594  1
  H  H17  1  0.28882135  0.28204872  0.73765594  1
  H  H18  1  0.78882135  0.78204872  0.76234406  1
  H  H19  1  0.71117865  0.71795128  0.26234406  1
  O  O20  1  0.26154138  0.03780780  0.31750916  1
  O  O21  1  0.73341886  0.30696810  0.04985494  1
  O  O22  1  0.23845862  0.46219220  0.81750916  1
  O  O23  1  0.73845862  0.96219220  0.68249084  1
  O  O24  1  0.83334070  0.90054116  0.93614855  1
  O  O25  1  0.76658114  0.19303190  0.54985494  1
  O  O26  1  0.26658114  0.69303190  0.95014506  1
  O  O27  1  0.23341886  0.80696810  0.45014506  1
  O  O28  1  0.41164723  0.62455501  0.08340039  1
  O  O29  1  0.08835277  0.87544499  0.58340039  1
  O  O30  1  0.58835277  0.37544499  0.91659961  1
  O  O31  1  0.91164723  0.12455501  0.41659961  1
  O  O32  1  0.16665930  0.09945884  0.06385145  1
  O  O33  1  0.33334070  0.40054116  0.56385145  1
  O  O34  1  0.01435461  0.53301024  0.33394645  1
  O  O35  1  0.66665930  0.59945884  0.43614855  1
  O  O36  1  0.20048285  0.33980154  0.19805867  1
  O  O37  1  0.29951715  0.16019846  0.69805867  1
  O  O38  1  0.79951715  0.66019846  0.80194133  1
  O  O39  1  0.70048285  0.83980154  0.30194133  1
  O  O40  1  0.51435461  0.03301024  0.16605355  1
  O  O41  1  0.98564539  0.46698976  0.66605355  1
  O  O42  1  0.48564539  0.96698976  0.83394645  1
  O  O43  1  0.76154138  0.53780780  0.18249084  1
  I  I44  1  0.46053819  0.32981853  0.12097544  1
  I  I45  1  0.96053819  0.82981853  0.37902456  1
  I  I46  1  0.53946181  0.67018147  0.87902456  1
  I  I47  1  0.03946181  0.17018147  0.62097544  1
