# generated using pymatgen
data_RePCl9
_symmetry_space_group_name_H-M   'P 1'
_cell_length_a   7.21133660
_cell_length_b   9.35416989
_cell_length_c   9.87288730
_cell_angle_alpha   102.10553448
_cell_angle_beta   96.70293946
_cell_angle_gamma   94.79377329
_symmetry_Int_Tables_number   1
_chemical_formula_structural   RePCl9
_chemical_formula_sum   'Re2 P2 Cl18'
_cell_volume   642.70989923
_cell_formula_units_Z   2
loop_
 _symmetry_equiv_pos_site_id
 _symmetry_equiv_pos_as_xyz
  1  'x, y, z'
loop_
 _atom_site_type_symbol
 _atom_site_label
 _atom_site_symmetry_multiplicity
 _atom_site_fract_x
 _atom_site_fract_y
 _atom_site_fract_z
 _atom_site_occupancy
  P  P0  1  0.05103072  0.19036826  0.77959316  1
  P  P1  1  0.94896928  0.80963174  0.22040684  1
  Cl  Cl2  1  0.37157701  0.57078334  0.22297500  1
  Cl  Cl3  1  0.62842299  0.42921666  0.77702500  1
  Cl  Cl4  1  0.42110850  0.17190411  0.44249889  1
  Cl  Cl5  1  0.57889150  0.82809589  0.55750111  1
  Cl  Cl6  1  0.07963124  0.28502418  0.24567126  1
  Cl  Cl7  1  0.92036876  0.71497582  0.75432874  1
  Cl  Cl8  1  0.51594026  0.23967552  0.14184962  1
  Cl  Cl9  1  0.48405974  0.76032448  0.85815038  1
  Cl  Cl10  1  0.29421785  0.51750736  0.54592739  1
  Cl  Cl11  1  0.70578215  0.48249264  0.45407261  1
  Cl  Cl12  1  0.83894229  0.61636556  0.11109582  1
  Cl  Cl13  1  0.16105771  0.38363444  0.88890418  1
  Cl  Cl14  1  0.94609621  0.20311022  0.59137121  1
  Cl  Cl15  1  0.05390379  0.79688978  0.40862879  1
  Cl  Cl16  1  0.24639954  0.05543068  0.76777809  1
  Cl  Cl17  1  0.75360046  0.94456932  0.23222191  1
  Cl  Cl18  1  0.85058262  0.11296550  0.87160270  1
  Cl  Cl19  1  0.14941738  0.88703450  0.12839730  1
  Re  Re20  1  0.60862921  0.63026842  0.66797303  1
  Re  Re21  1  0.39137079  0.36973158  0.33202697  1
