# generated using pymatgen
data_Li3VOF4
_symmetry_space_group_name_H-M   'P 1'
_cell_length_a   7.68066405
_cell_length_b   10.22067891
_cell_length_c   10.77929398
_cell_angle_alpha   90.52018213
_cell_angle_beta   70.88577120
_cell_angle_gamma   89.35987124
_symmetry_Int_Tables_number   1
_chemical_formula_structural   Li3VOF4
_chemical_formula_sum   'Li24 V8 O8 F32'
_cell_volume   799.41671504
_cell_formula_units_Z   8
loop_
 _symmetry_equiv_pos_site_id
 _symmetry_equiv_pos_as_xyz
  1  'x, y, z'
loop_
 _atom_site_type_symbol
 _atom_site_label
 _atom_site_symmetry_multiplicity
 _atom_site_fract_x
 _atom_site_fract_y
 _atom_site_fract_z
 _atom_site_occupancy
  Li  Li0  1  0.11002792  0.22073147  0.13381320  1
  Li  Li1  1  0.18668968  0.60813879  0.08828330  1
  Li  Li2  1  0.09176938  0.93637037  0.33799228  1
  Li  Li3  1  0.09800730  0.55829315  0.35026152  1
  Li  Li4  1  0.40725356  0.05357036  0.15782740  1
  Li  Li5  1  0.41373837  0.42751350  0.15965268  1
  Li  Li6  1  0.38126398  0.24619852  0.38129710  1
  Li  Li7  1  0.83841684  0.56006577  0.09072903  1
  Li  Li8  1  0.84896375  0.93973175  0.09634006  1
  Li  Li9  1  0.38776112  0.77516067  0.37145689  1
  Li  Li10  1  0.34656902  0.94403644  0.59591472  1
  Li  Li11  1  0.35738204  0.55639618  0.58381055  1
  Li  Li12  1  0.67310439  0.04587073  0.39876600  1
  Li  Li13  1  0.66519367  0.43727692  0.40563319  1
  Li  Li14  1  0.61463827  0.24904215  0.62546549  1
  Li  Li15  1  0.15555551  0.05307354  0.90392190  1
  Li  Li16  1  0.15567146  0.42655428  0.89724502  1
  Li  Li17  1  0.63574979  0.73204760  0.61633053  1
  Li  Li18  1  0.90104262  0.05717709  0.65784015  1
  Li  Li19  1  0.89391484  0.44619118  0.66193198  1
  Li  Li20  1  0.59268353  0.94715017  0.84157917  1
  Li  Li21  1  0.58858803  0.56439465  0.84479263  1
  Li  Li22  1  0.86627941  0.24847142  0.87779290  1
  Li  Li23  1  0.87525650  0.76927826  0.87135375  1
  V  V24  1  0.50575782  0.74597476  0.09665141  1
  V  V25  1  0.99679800  0.24950545  0.40329053  1
  V  V26  1  0.74329928  0.25170854  0.15486545  1
  V  V27  1  0.76377216  0.74742190  0.34135543  1
  V  V28  1  0.24294170  0.24820703  0.65318219  1
  V  V29  1  0.25138804  0.74717341  0.84759467  1
  V  V30  1  0.00873900  0.75123659  0.59545353  1
  V  V31  1  0.48892565  0.25833956  0.90637397  1
  O  O32  1  0.61389167  0.25843639  0.03220618  1
  O  O33  1  0.63981711  0.74337520  0.21635962  1
  O  O34  1  0.12703705  0.24569455  0.52341970  1
  O  O35  1  0.12732914  0.74979438  0.72260045  1
  O  O36  1  0.86561751  0.25061313  0.28189666  1
  O  O37  1  0.89234208  0.74979243  0.46513528  1
  O  O38  1  0.35783943  0.25602321  0.78422741  1
  O  O39  1  0.37879981  0.73464342  0.97215630  1
  F  F40  1  0.17683570  0.11565936  0.28362907  1
  F  F41  1  0.18456918  0.37639200  0.28875958  1
  F  F42  1  0.67230229  0.89408789  0.99225849  1
  F  F43  1  0.69513845  0.61301425  0.98125245  1
  F  F44  1  0.32796376  0.87786120  0.21949424  1
  F  F45  1  0.32648699  0.60769251  0.20589328  1
  F  F46  1  0.93444715  0.11950852  0.04088449  1
  F  F47  1  0.93411008  0.37727301  0.04023727  1
  F  F48  1  0.18177628  0.89525717  0.49304319  1
  F  F49  1  0.19531260  0.61204011  0.48796443  1
  F  F50  1  0.56136650  0.11325895  0.26229798  1
  F  F51  1  0.56604430  0.39203203  0.26596970  1
  F  F52  1  0.44106065  0.11815376  0.54276597  1
  F  F53  1  0.43908646  0.37493785  0.54073100  1
  F  F54  1  0.05277854  0.38604372  0.75890000  1
  F  F55  1  0.06356958  0.10878087  0.75938663  1
  F  F56  1  0.94490806  0.59897002  0.23442960  1
  F  F57  1  0.89009437  0.92139681  0.26445185  1
  F  F58  1  0.58661621  0.61335277  0.45788911  1
  F  F59  1  0.55741160  0.87007060  0.46103310  1
  F  F60  1  0.42256598  0.89526216  0.74907248  1
  F  F61  1  0.43632535  0.61065518  0.73187121  1
  F  F62  1  0.81401411  0.11428906  0.51491867  1
  F  F63  1  0.82345184  0.39423827  0.51112391  1
  F  F64  1  0.05612725  0.87857741  0.95485816  1
  F  F65  1  0.07464837  0.60655207  0.95408313  1
  F  F66  1  0.67927288  0.12379670  0.79444831  1
  F  F67  1  0.67529461  0.38402347  0.78959320  1
  F  F68  1  0.32045903  0.41390751  0.00771438  1
  F  F69  1  0.31486401  0.11307277  0.01148218  1
  F  F70  1  0.81491180  0.88174105  0.71113350  1
  F  F71  1  0.81050159  0.62440705  0.70311322  1
