# generated using pymatgen
data_K2Zr7Cl18
_symmetry_space_group_name_H-M   'P 1'
_cell_length_a   10.39084081
_cell_length_b   10.39084082
_cell_length_c   10.39084082
_cell_angle_alpha   55.56984973
_cell_angle_beta   55.56984969
_cell_angle_gamma   55.56984974
_symmetry_Int_Tables_number   1
_chemical_formula_structural   K2Zr7Cl18
_chemical_formula_sum   'K2 Zr7 Cl18'
_cell_volume   711.72505028
_cell_formula_units_Z   1
loop_
 _symmetry_equiv_pos_site_id
 _symmetry_equiv_pos_as_xyz
  1  'x, y, z'
loop_
 _atom_site_type_symbol
 _atom_site_label
 _atom_site_symmetry_multiplicity
 _atom_site_fract_x
 _atom_site_fract_y
 _atom_site_fract_z
 _atom_site_occupancy
  Cl  Cl0  1  0.52432109  0.35970250  0.78131786  1
  Cl  Cl1  1  0.35970250  0.78131786  0.52432109  1
  Cl  Cl2  1  0.78131786  0.52432109  0.35970250  1
  Cl  Cl3  1  0.47567891  0.64029750  0.21868214  1
  Cl  Cl4  1  0.64029750  0.21868214  0.47567891  1
  Cl  Cl5  1  0.21868214  0.47567891  0.64029750  1
  Cl  Cl6  1  0.28418289  0.13292820  0.57577850  1
  Cl  Cl7  1  0.13292820  0.57577850  0.28418289  1
  Cl  Cl8  1  0.57577850  0.28418289  0.13292820  1
  Cl  Cl9  1  0.34802528  0.05676353  0.93138299  1
  Cl  Cl10  1  0.93138299  0.34802528  0.05676353  1
  Cl  Cl11  1  0.05676353  0.93138299  0.34802528  1
  Cl  Cl12  1  0.65197472  0.94323647  0.06861701  1
  Cl  Cl13  1  0.06861701  0.65197472  0.94323647  1
  Cl  Cl14  1  0.94323647  0.06861701  0.65197472  1
  Cl  Cl15  1  0.42422150  0.71581711  0.86707180  1
  Cl  Cl16  1  0.86707180  0.42422150  0.71581711  1
  Cl  Cl17  1  0.71581711  0.86707180  0.42422150  1
  K  K18  1  0.77648299  0.77648299  0.77648299  1
  K  K19  1  0.22351701  0.22351701  0.22351701  1
  Zr  Zr20  1  0.50000000  0.50000000  0.50000000  1
  Zr  Zr21  1  0.78964449  0.16281599  0.90136905  1
  Zr  Zr22  1  0.16281599  0.90136905  0.78964449  1
  Zr  Zr23  1  0.90136905  0.78964449  0.16281599  1
  Zr  Zr24  1  0.21035551  0.83718401  0.09863095  1
  Zr  Zr25  1  0.83718401  0.09863095  0.21035551  1
  Zr  Zr26  1  0.09863095  0.21035551  0.83718401  1
