# generated using pymatgen
data_USeO5
_symmetry_space_group_name_H-M   'P 1'
_cell_length_a   4.27748190
_cell_length_b   5.83507720
_cell_length_c   9.55621958
_cell_angle_alpha   90.00000000
_cell_angle_beta   90.00000000
_cell_angle_gamma   98.99483552
_symmetry_Int_Tables_number   1
_chemical_formula_structural   USeO5
_chemical_formula_sum   'U2 Se2 O10'
_cell_volume   235.58467314
_cell_formula_units_Z   2
loop_
 _symmetry_equiv_pos_site_id
 _symmetry_equiv_pos_as_xyz
  1  'x, y, z'
loop_
 _atom_site_type_symbol
 _atom_site_label
 _atom_site_symmetry_multiplicity
 _atom_site_fract_x
 _atom_site_fract_y
 _atom_site_fract_z
 _atom_site_occupancy
  U  U0  1  -0.00000000  -0.00000000  0.50000000  1
  U  U1  1  -0.00000000  -0.00000000  -0.00000000  1
  Se  Se2  1  0.63595248  0.29147671  0.75000000  1
  Se  Se3  1  0.36404752  0.70852329  0.25000000  1
  O  O4  1  0.05433453  0.27649634  0.41312918  1
  O  O5  1  0.94566547  0.72350366  0.91312918  1
  O  O6  1  0.94566547  0.72350366  0.58687082  1
  O  O7  1  0.05433453  0.27649634  0.08687082  1
  O  O8  1  0.99394466  0.79732661  0.25000000  1
  O  O9  1  0.00605534  0.20267339  0.75000000  1
  O  O10  1  0.48911932  0.88282742  0.10617285  1
  O  O11  1  0.51088068  0.11717258  0.60617285  1
  O  O12  1  0.51088068  0.11717258  0.89382715  1
  O  O13  1  0.48911932  0.88282742  0.39382715  1
