# generated using pymatgen
data_Tl4PbI6
_symmetry_space_group_name_H-M   'P 1'
_cell_length_a   4.68031729
_cell_length_b   10.12358088
_cell_length_c   19.54354882
_cell_angle_alpha   90.00000000
_cell_angle_beta   90.00000000
_cell_angle_gamma   90.00000000
_symmetry_Int_Tables_number   1
_chemical_formula_structural   Tl4PbI6
_chemical_formula_sum   'Tl8 Pb2 I12'
_cell_volume   926.00403876
_cell_formula_units_Z   2
loop_
 _symmetry_equiv_pos_site_id
 _symmetry_equiv_pos_as_xyz
  1  'x, y, z'
loop_
 _atom_site_type_symbol
 _atom_site_label
 _atom_site_symmetry_multiplicity
 _atom_site_fract_x
 _atom_site_fract_y
 _atom_site_fract_z
 _atom_site_occupancy
  I  I0  1  0.00000000  0.59286053  0.21318636  1
  I  I1  1  0.00000000  0.40713947  0.78681364  1
  I  I2  1  0.00000000  0.09286053  0.28681364  1
  I  I3  1  0.00000000  0.90713947  0.71318636  1
  I  I4  1  0.50000000  0.43858907  0.38702801  1
  I  I5  1  0.50000000  0.56141093  0.61297199  1
  I  I6  1  0.50000000  0.93858907  0.11297199  1
  I  I7  1  0.50000000  0.06141093  0.88702801  1
  I  I8  1  0.00000000  0.80429261  0.44656332  1
  I  I9  1  0.00000000  0.19570739  0.55343668  1
  I  I10  1  0.00000000  0.69570739  0.94656332  1
  I  I11  1  0.00000000  0.30429261  0.05343668  1
  Tl  Tl12  1  0.50000000  0.39341525  0.91933684  1
  Tl  Tl13  1  0.50000000  0.60658475  0.08066316  1
  Tl  Tl14  1  0.50000000  0.79073410  0.29474917  1
  Tl  Tl15  1  0.50000000  0.20926590  0.70525083  1
  Tl  Tl16  1  0.50000000  0.29073410  0.20525083  1
  Tl  Tl17  1  0.50000000  0.70926590  0.79474917  1
  Tl  Tl18  1  0.50000000  0.10658475  0.41933684  1
  Tl  Tl19  1  0.50000000  0.89341525  0.58066316  1
  Pb  Pb20  1  0.00000000  0.00000000  0.00000000  1
  Pb  Pb21  1  0.00000000  0.50000000  0.50000000  1
