# generated using pymatgen
data_MgTi2O4
_symmetry_space_group_name_H-M   'P 1'
_cell_length_a   6.03247204
_cell_length_b   6.03247261
_cell_length_c   6.04427175
_cell_angle_alpha   119.93544221
_cell_angle_beta   119.93544479
_cell_angle_gamma   89.99999260
_symmetry_Int_Tables_number   1
_chemical_formula_structural   MgTi2O4
_chemical_formula_sum   'Mg2 Ti4 O8'
_cell_volume   155.83500977
_cell_formula_units_Z   2
loop_
 _symmetry_equiv_pos_site_id
 _symmetry_equiv_pos_as_xyz
  1  'x, y, z'
loop_
 _atom_site_type_symbol
 _atom_site_label
 _atom_site_symmetry_multiplicity
 _atom_site_fract_x
 _atom_site_fract_y
 _atom_site_fract_z
 _atom_site_occupancy
  Mg  Mg0  1  0.37500000  0.62500000  0.75000000  1
  Mg  Mg1  1  0.62500000  0.37500000  0.25000000  1
  Ti  Ti2  1  -0.00000000  -0.00000000  0.50000000  1
  Ti  Ti3  1  -0.00000000  0.50000000  -0.00000000  1
  Ti  Ti4  1  0.50000000  -0.00000000  0.50000000  1
  Ti  Ti5  1  -0.00000000  -0.00000000  -0.00000000  1
  O  O6  1  0.75906431  0.77477690  0.51812762  1
  O  O7  1  0.75664929  0.24093569  0.98187238  1
  O  O8  1  0.22522310  0.24093569  0.98187238  1
  O  O9  1  0.24093569  0.22522310  0.48187238  1
  O  O10  1  0.24093569  0.75664929  0.48187238  1
  O  O11  1  0.24335071  0.75906431  0.01812762  1
  O  O12  1  0.75906431  0.24335071  0.51812762  1
  O  O13  1  0.77477690  0.75906431  0.01812762  1
