# generated using pymatgen
data_Ca21(Mn2Sb9)2
_symmetry_space_group_name_H-M   'P 1'
_cell_length_a   12.15947702
_cell_length_b   12.15947724
_cell_length_c   16.85025873
_cell_angle_alpha   88.08667986
_cell_angle_beta   88.08667980
_cell_angle_gamma   90.14561238
_symmetry_Int_Tables_number   1
_chemical_formula_structural   Ca21(Mn2Sb9)2
_chemical_formula_sum   'Ca42 Mn8 Sb36'
_cell_volume   2488.56549552
_cell_formula_units_Z   2
loop_
 _symmetry_equiv_pos_site_id
 _symmetry_equiv_pos_as_xyz
  1  'x, y, z'
loop_
 _atom_site_type_symbol
 _atom_site_label
 _atom_site_symmetry_multiplicity
 _atom_site_fract_x
 _atom_site_fract_y
 _atom_site_fract_z
 _atom_site_occupancy
  Ca  Ca0  1  0.08900002  0.57755876  0.24040671  1
  Ca  Ca1  1  0.42244124  0.91099998  0.25959329  1
  Ca  Ca2  1  0.91099998  0.42244124  0.75959329  1
  Ca  Ca3  1  0.57755876  0.08900002  0.74040671  1
  Ca  Ca4  1  0.31652464  0.48779535  0.06420144  1
  Ca  Ca5  1  0.51220465  0.68347536  0.43579856  1
  Ca  Ca6  1  0.68347536  0.51220465  0.93579856  1
  Ca  Ca7  1  0.48779535  0.31652464  0.56420144  1
  Ca  Ca8  1  0.74778072  0.26347045  0.42219934  1
  Ca  Ca9  1  0.73652955  0.25221928  0.07780066  1
  Ca  Ca10  1  0.25221928  0.73652955  0.57780066  1
  Ca  Ca11  1  0.26347045  0.74778072  0.92219934  1
  Ca  Ca12  1  0.40571374  0.23024785  0.15612513  1
  Ca  Ca13  1  0.76975215  0.59428626  0.34387487  1
  Ca  Ca14  1  0.59428626  0.76975215  0.84387487  1
  Ca  Ca15  1  0.23024785  0.40571374  0.65612513  1
  Ca  Ca16  1  0.42321318  0.18908103  0.37762845  1
  Ca  Ca17  1  0.81091897  0.57678682  0.12237155  1
  Ca  Ca18  1  0.57678682  0.81091897  0.62237155  1
  Ca  Ca19  1  0.18908103  0.42321318  0.87762845  1
  Ca  Ca20  1  0.08020178  0.25780909  0.34098922  1
  Ca  Ca21  1  0.74219091  0.91979822  0.15901078  1
  Ca  Ca22  1  0.91979822  0.74219091  0.65901078  1
  Ca  Ca23  1  0.25780909  0.08020178  0.84098922  1
  Ca  Ca24  1  0.31522833  0.06058776  0.61846579  1
  Ca  Ca25  1  0.93941224  0.68477167  0.88153421  1
  Ca  Ca26  1  0.68477167  0.93941224  0.38153421  1
  Ca  Ca27  1  0.06058776  0.31522833  0.11846579  1
  Ca  Ca28  1  0.24237030  0.48080189  0.43284468  1
  Ca  Ca29  1  0.51919811  0.75762970  0.06715532  1
  Ca  Ca30  1  0.75762970  0.51919811  0.56715532  1
  Ca  Ca31  1  0.48080189  0.24237030  0.93284468  1
  Ca  Ca32  1  0.99834109  0.26588082  0.56277735  1
  Ca  Ca33  1  0.73411918  0.00165891  0.93722265  1
  Ca  Ca34  1  0.00165891  0.73411918  0.43722265  1
  Ca  Ca35  1  0.26588082  0.99834109  0.06277735  1
  Ca  Ca36  1  0.17663809  0.99526888  0.42906895  1
  Ca  Ca37  1  0.00473112  0.82336191  0.07093105  1
  Ca  Ca38  1  0.82336191  0.00473112  0.57093105  1
  Ca  Ca39  1  0.99526888  0.17663809  0.92906895  1
  Ca  Ca40  1  0.42770924  0.57229076  0.25000000  1
  Ca  Ca41  1  0.57229076  0.42770924  0.75000000  1
  Mn  Mn42  1  0.64003495  0.35996505  0.25000000  1
  Mn  Mn43  1  0.35996505  0.64003495  0.75000000  1
  Mn  Mn44  1  0.84240470  0.15759530  0.25000000  1
  Mn  Mn45  1  0.15759530  0.84240470  0.75000000  1
  Mn  Mn46  1  0.00114494  0.99885506  0.25000000  1
  Mn  Mn47  1  0.99885506  0.00114494  0.75000000  1
  Mn  Mn48  1  0.16158418  0.83841582  0.25000000  1
  Mn  Mn49  1  0.83841582  0.16158418  0.75000000  1
  Sb  Sb50  1  0.55354875  0.43327168  0.39368099  1
  Sb  Sb51  1  0.56672832  0.44645125  0.10631901  1
  Sb  Sb52  1  0.44645125  0.56672832  0.60631901  1
  Sb  Sb53  1  0.43327168  0.55354875  0.89368099  1
  Sb  Sb54  1  0.86909927  0.38255865  0.24308896  1
  Sb  Sb55  1  0.61744135  0.13090073  0.25691104  1
  Sb  Sb56  1  0.13090073  0.61744135  0.75691104  1
  Sb  Sb57  1  0.38255865  0.86909927  0.74308896  1
  Sb  Sb58  1  0.91934780  0.06840236  0.39742550  1
  Sb  Sb59  1  0.93159764  0.08065220  0.10257450  1
  Sb  Sb60  1  0.08065220  0.93159764  0.60257450  1
  Sb  Sb61  1  0.06840236  0.91934780  0.89742550  1
  Sb  Sb62  1  0.21910824  0.06684607  0.24692419  1
  Sb  Sb63  1  0.93315393  0.78089176  0.25307581  1
  Sb  Sb64  1  0.78089176  0.93315393  0.75307581  1
  Sb  Sb65  1  0.06684607  0.21910824  0.74692419  1
  Sb  Sb66  1  0.25375454  0.72918378  0.37555030  1
  Sb  Sb67  1  0.27081622  0.74624546  0.12444970  1
  Sb  Sb68  1  0.74624546  0.27081622  0.62444970  1
  Sb  Sb69  1  0.72918378  0.25375454  0.87555030  1
  Sb  Sb70  1  0.07708686  0.57553695  0.03578653  1
  Sb  Sb71  1  0.42446305  0.92291314  0.46421347  1
  Sb  Sb72  1  0.92291314  0.42446305  0.96421347  1
  Sb  Sb73  1  0.57553695  0.07708686  0.53578653  1
  Sb  Sb74  1  0.96063030  0.46178699  0.42322723  1
  Sb  Sb75  1  0.53821301  0.03936970  0.07677277  1
  Sb  Sb76  1  0.03936970  0.53821301  0.57677277  1
  Sb  Sb77  1  0.46178699  0.96063030  0.92322723  1
  Sb  Sb78  1  0.23977190  0.24269107  0.50002843  1
  Sb  Sb79  1  0.75730893  0.76022810  0.99997157  1
  Sb  Sb80  1  0.76022810  0.75730893  0.49997157  1
  Sb  Sb81  1  0.24269107  0.23977190  0.00002843  1
  Sb  Sb82  1  0.60957112  0.74484313  0.25384679  1
  Sb  Sb83  1  0.25515687  0.39042888  0.24615321  1
  Sb  Sb84  1  0.39042888  0.25515687  0.74615321  1
  Sb  Sb85  1  0.74484313  0.60957112  0.75384679  1
