# generated using pymatgen
data_Sr2AuN
_symmetry_space_group_name_H-M   'P 1'
_cell_length_a   3.79201019
_cell_length_b   5.30453785
_cell_length_c   9.79152056
_cell_angle_alpha   90.00000000
_cell_angle_beta   101.16513837
_cell_angle_gamma   90.00000000
_symmetry_Int_Tables_number   1
_chemical_formula_structural   Sr2AuN
_chemical_formula_sum   'Sr4 Au2 N2'
_cell_volume   193.22734239
_cell_formula_units_Z   2
loop_
 _symmetry_equiv_pos_site_id
 _symmetry_equiv_pos_as_xyz
  1  'x, y, z'
loop_
 _atom_site_type_symbol
 _atom_site_label
 _atom_site_symmetry_multiplicity
 _atom_site_fract_x
 _atom_site_fract_y
 _atom_site_fract_z
 _atom_site_occupancy
  N  N0  1  0.19292431  0.25000000  0.38584862  1
  N  N1  1  0.80707569  0.75000000  0.61415138  1
  Sr  Sr2  1  0.21427275  0.75000000  0.42854551  1
  Sr  Sr3  1  0.78572725  0.25000000  0.57145449  1
  Sr  Sr4  1  0.60096448  0.25000000  0.20192895  1
  Sr  Sr5  1  0.39903552  0.75000000  0.79807105  1
  Au  Au6  1  0.03985799  0.75000000  0.07971598  1
  Au  Au7  1  0.96014201  0.25000000  0.92028402  1
