# generated using pymatgen
data_LiMn(PO3)4
_symmetry_space_group_name_H-M   'P 1'
_cell_length_a   8.31215502
_cell_length_b   8.31215501
_cell_length_c   7.75780554
_cell_angle_alpha   84.24046793
_cell_angle_beta   95.75953215
_cell_angle_gamma   68.93508573
_symmetry_Int_Tables_number   1
_chemical_formula_structural   LiMn(PO3)4
_chemical_formula_sum   'Li2 Mn2 P8 O24'
_cell_volume   492.25626868
_cell_formula_units_Z   2
loop_
 _symmetry_equiv_pos_site_id
 _symmetry_equiv_pos_as_xyz
  1  'x, y, z'
loop_
 _atom_site_type_symbol
 _atom_site_label
 _atom_site_symmetry_multiplicity
 _atom_site_fract_x
 _atom_site_fract_y
 _atom_site_fract_z
 _atom_site_occupancy
  Li  Li0  1  0.51480857  0.18240206  0.20663043  1
  Li  Li1  1  0.81759685  0.48519274  0.70663095  1
  O  O2  1  0.35081484  0.41487721  0.68284151  1
  O  O3  1  0.89323253  0.64167419  0.18752216  1
  O  O4  1  0.11985324  0.12391165  0.28108835  1
  O  O5  1  0.10099116  0.36649340  0.81693893  1
  O  O6  1  0.00022726  0.73081829  0.52793417  1
  O  O7  1  0.16265186  0.63856393  0.84137195  1
  O  O8  1  0.35832652  0.10676725  0.68752172  1
  O  O9  1  0.07981821  0.85702843  0.17433633  1
  O  O10  1  0.14297194  0.92018208  0.67433709  1
  O  O11  1  0.37336778  0.35821950  0.01845224  1
  O  O12  1  0.87608881  0.88014604  0.78108923  1
  O  O13  1  0.42119567  0.26832035  0.41244921  1
  O  O14  1  0.36143540  0.83734820  0.34137113  1
  O  O15  1  0.26918212  0.99977302  0.02793471  1
  O  O16  1  0.71480020  0.03730259  0.01055857  1
  O  O17  1  0.63601399  0.16912484  0.68550926  1
  O  O18  1  0.96269788  0.28520007  0.51055935  1
  O  O19  1  0.64178123  0.62663257  0.51845174  1
  O  O20  1  0.83805997  0.08954201  0.34849724  1
  O  O21  1  0.73167949  0.57880445  0.91244993  1
  O  O22  1  0.91045789  0.16194105  0.84849660  1
  O  O23  1  0.63350748  0.89900908  0.31693824  1
  O  O24  1  0.83087545  0.36398551  0.18550987  1
  O  O25  1  0.58512245  0.64918517  0.18284201  1
  P  P26  1  0.93443179  0.21529746  0.34509195  1
  P  P27  1  0.76556920  0.56715832  0.10429741  1
  P  P28  1  0.04674648  0.79613788  0.69029794  1
  P  P29  1  0.25184307  0.43170054  0.85376110  1
  P  P30  1  0.43284289  0.23443048  0.60429703  1
  P  P31  1  0.56829963  0.74815596  0.35376046  1
  P  P32  1  0.78470274  0.06556735  0.84509281  1
  P  P33  1  0.20386096  0.95325444  0.19029826  1
  Mn  Mn34  1  0.13584683  0.13108257  0.76494228  1
  Mn  Mn35  1  0.86891737  0.86415353  0.26494149  1
