# generated using pymatgen
data_Li3Cr2(PO4)3
_symmetry_space_group_name_H-M   'P 1'
_cell_length_a   8.76540796
_cell_length_b   8.57378163
_cell_length_c   8.76540797
_cell_angle_alpha   59.67084927
_cell_angle_beta   120.61054216
_cell_angle_gamma   120.32915070
_symmetry_Int_Tables_number   1
_chemical_formula_structural   Li3Cr2(PO4)3
_chemical_formula_sum   'Li6 Cr4 P6 O24'
_cell_volume   461.31642615
_cell_formula_units_Z   2
loop_
 _symmetry_equiv_pos_site_id
 _symmetry_equiv_pos_as_xyz
  1  'x, y, z'
loop_
 _atom_site_type_symbol
 _atom_site_label
 _atom_site_symmetry_multiplicity
 _atom_site_fract_x
 _atom_site_fract_y
 _atom_site_fract_z
 _atom_site_occupancy
  Li  Li0  1  0.31722848  0.56588932  0.94224013  1
  Li  Li1  1  0.69116589  0.41955914  0.05995914  1
  Li  Li2  1  0.94004158  0.91955979  0.30883473  1
  Li  Li3  1  0.36466492  0.23956155  0.37537426  1
  Li  Li4  1  0.62462550  0.73956077  0.63533567  1
  Li  Li5  1  0.05775918  0.06588867  0.68277089  1
  O  O6  1  0.29300111  0.96428725  0.37710796  1
  O  O7  1  0.94164573  0.26400455  0.46729744  1
  O  O8  1  0.98534958  0.55816653  0.11134824  1
  O  O9  1  0.88865200  0.05816732  0.01465049  1
  O  O10  1  0.11303269  0.93290521  0.98352616  1
  O  O11  1  0.01647417  0.43290456  0.88696830  1
  O  O12  1  0.06101465  0.72650899  0.53131129  1
  O  O13  1  0.40228565  0.74764618  0.72268334  1
  O  O14  1  0.47368731  0.87776422  0.24154205  1
  O  O15  1  0.75853947  0.72336225  0.93510928  1
  O  O16  1  0.24484501  0.61309191  0.47215313  1
  O  O17  1  0.70899968  0.02634564  0.62149648  1
  O  O18  1  0.27731619  0.24764696  0.59771404  1
  O  O19  1  0.62289278  0.46428660  0.70699930  1
  O  O20  1  0.60153602  0.24210662  0.27523729  1
  O  O21  1  0.06489083  0.22336304  0.24146080  1
  O  O22  1  0.93724094  0.76696347  0.75694379  1
  O  O23  1  0.52784657  0.11309270  0.75515460  1
  O  O24  1  0.37850376  0.52634629  0.29100104  1
  O  O25  1  0.72476311  0.74210583  0.39846392  1
  O  O26  1  0.53270356  0.76400519  0.05835379  1
  O  O27  1  0.75845775  0.37776357  0.52631310  1
  O  O28  1  0.24305659  0.26696425  0.06275817  1
  O  O29  1  0.46868984  0.22650978  0.93898632  1
  P  P30  1  0.95639247  0.74566256  0.95421480  1
  P  P31  1  0.47581293  0.25965231  0.75218769  1
  P  P32  1  0.52580860  0.73074590  0.24556678  1
  P  P33  1  0.04578522  0.24566334  0.04360679  1
  P  P34  1  0.24781207  0.75965296  0.52418589  1
  P  P35  1  0.75443269  0.23074525  0.47419166  1
  Cr  Cr36  1  0.35857556  0.06847616  0.14607720  1
  Cr  Cr37  1  0.85392390  0.56847681  0.64142477  1
  Cr  Cr38  1  0.14764587  0.42275564  0.35609619  1
  Cr  Cr39  1  0.64390346  0.92275485  0.85235387  1
