# generated using pymatgen
data_Co10Ge3O16
_symmetry_space_group_name_H-M   'P 1'
_cell_length_a   10.33178829
_cell_length_b   10.33178829
_cell_length_c   10.33178830
_cell_angle_alpha   33.87203620
_cell_angle_beta   33.87203620
_cell_angle_gamma   33.87203622
_symmetry_Int_Tables_number   1
_chemical_formula_structural   Co10Ge3O16
_chemical_formula_sum   'Co10 Ge3 O16'
_cell_volume   305.30611835
_cell_formula_units_Z   1
loop_
 _symmetry_equiv_pos_site_id
 _symmetry_equiv_pos_as_xyz
  1  'x, y, z'
loop_
 _atom_site_type_symbol
 _atom_site_label
 _atom_site_symmetry_multiplicity
 _atom_site_fract_x
 _atom_site_fract_y
 _atom_site_fract_z
 _atom_site_occupancy
  O  O0  1  0.37249783  0.87851723  0.37249871  1
  O  O1  1  0.87851628  0.37249888  0.37249863  1
  O  O2  1  0.37249778  0.37249888  0.87851690  1
  O  O3  1  0.62750212  0.12148334  0.62750129  1
  O  O4  1  0.12148367  0.62750169  0.62750137  1
  O  O5  1  0.62750218  0.62750169  0.12148310  1
  O  O6  1  0.66209731  0.11190203  0.11190405  1
  O  O7  1  0.11190342  0.11190203  0.66209805  1
  O  O8  1  0.11190407  0.66209678  0.11190279  1
  O  O9  1  0.88809743  0.88809658  0.33790284  1
  O  O10  1  0.88809677  0.33790183  0.88809810  1
  O  O11  1  0.33790179  0.88809658  0.88809829  1
  O  O12  1  0.62333606  0.62333670  0.62333786  1
  O  O13  1  0.12686212  0.12686218  0.12686097  1
  O  O14  1  0.37666214  0.37666388  0.37666360  1
  O  O15  1  0.87313784  0.87313839  0.87313806  1
  Co  Co16  1  0.75111940  0.75111752  0.24098610  1
  Co  Co17  1  0.75111788  0.24098718  0.75111823  1
  Co  Co18  1  0.24098696  0.75111752  0.75111871  1
  Co  Co19  1  0.75901389  0.24888108  0.24888218  1
  Co  Co20  1  0.24888145  0.24888108  0.75901479  1
  Co  Co21  1  0.24888208  0.75901339  0.24888177  1
  Co  Co22  1  0.50000042  0.49999930  0.50000045  1
  Co  Co23  1  0.99999956  0.50000001  0.49999994  1
  Co  Co24  1  0.49999971  0.50000001  0.00000052  1
  Co  Co25  1  0.49999893  0.00000055  0.50000002  1
  Ge  Ge26  1  0.81079210  0.81079340  0.81079281  1
  Ge  Ge27  1  0.18920785  0.18920717  0.18920719  1
  Ge  Ge28  1  0.00000000  0.00000000  0.00000000  1
