# generated using pymatgen
data_V2NiO6
_symmetry_space_group_name_H-M   'P 1'
_cell_length_a   4.86693624
_cell_length_b   7.26081956
_cell_length_c   8.94472678
_cell_angle_alpha   102.13496237
_cell_angle_beta   90.13140776
_cell_angle_gamma   94.32197087
_symmetry_Int_Tables_number   1
_chemical_formula_structural   V2NiO6
_chemical_formula_sum   'V6 Ni3 O18'
_cell_volume   308.09322666
_cell_formula_units_Z   3
loop_
 _symmetry_equiv_pos_site_id
 _symmetry_equiv_pos_as_xyz
  1  'x, y, z'
loop_
 _atom_site_type_symbol
 _atom_site_label
 _atom_site_symmetry_multiplicity
 _atom_site_fract_x
 _atom_site_fract_y
 _atom_site_fract_z
 _atom_site_occupancy
  O  O0  1  0.78957174  0.47058224  0.24546791  1
  O  O1  1  0.21042826  0.52941776  0.75453209  1
  O  O2  1  0.29577113  0.52691429  0.42257058  1
  O  O3  1  0.70422887  0.47308571  0.57742942  1
  O  O4  1  0.29577811  0.52426086  0.08566223  1
  O  O5  1  0.70422189  0.47573914  0.91433777  1
  O  O6  1  0.36497843  0.21124717  0.20025371  1
  O  O7  1  0.63502157  0.78875283  0.79974629  1
  O  O8  1  0.65736018  0.83242144  0.10703211  1
  O  O9  1  0.34296789  0.16564366  0.48971311  1
  O  O10  1  0.65703211  0.83435634  0.51028689  1
  O  O11  1  0.16978810  0.84975950  0.64063972  1
  O  O12  1  0.83021190  0.15024050  0.35936028  1
  O  O13  1  0.89344305  0.17739355  0.69875747  1
  O  O14  1  0.10655695  0.82260645  0.30124253  1
  O  O15  1  0.83168296  0.15298972  0.01907671  1
  O  O16  1  0.16831704  0.84701028  0.98092329  1
  O  O17  1  0.34263982  0.16757856  0.89296789  1
  V  V18  1  0.88368831  0.41811317  0.73673374  1
  V  V19  1  0.11631169  0.58188683  0.26326626  1
  V  V20  1  0.54876133  0.28605797  0.39173807  1
  V  V21  1  0.45123867  0.71394203  0.60826193  1
  V  V22  1  0.54720373  0.28701152  0.03302156  1
  V  V23  1  0.45279627  0.71298848  0.96697844  1
  Ni  Ni24  1  0.99297679  0.98745095  0.83322846  1
  Ni  Ni25  1  0.00702321  0.01254905  0.16677154  1
  Ni  Ni26  1  0.00000000  0.00000000  0.50000000  1
