# generated using pymatgen
data_SiH21C6N2OF5
_symmetry_space_group_name_H-M   'P 1'
_cell_length_a   7.95850445
_cell_length_b   13.61601991
_cell_length_c   11.14519199
_cell_angle_alpha   90.00000930
_cell_angle_beta   96.63105132
_cell_angle_gamma   90.00000842
_symmetry_Int_Tables_number   1
_chemical_formula_structural   SiH21C6N2OF5
_chemical_formula_sum   'Si4 H84 C24 N8 O4 F20'
_cell_volume   1199.64886499
_cell_formula_units_Z   4
loop_
 _symmetry_equiv_pos_site_id
 _symmetry_equiv_pos_as_xyz
  1  'x, y, z'
loop_
 _atom_site_type_symbol
 _atom_site_label
 _atom_site_symmetry_multiplicity
 _atom_site_fract_x
 _atom_site_fract_y
 _atom_site_fract_z
 _atom_site_occupancy
  Si  Si0  1  0.31485002  0.57052904  0.80825288  1
  Si  Si1  1  0.31485002  0.92947096  0.30825288  1
  Si  Si2  1  0.68514998  0.07052904  0.69174712  1
  Si  Si3  1  0.68514998  0.42947096  0.19174712  1
  H  H4  1  0.02480212  0.39855953  0.63029382  1
  H  H5  1  0.07388403  0.45546381  0.84912564  1
  H  H6  1  0.10578009  0.79046053  0.89436865  1
  H  H7  1  0.09895358  0.05194906  0.82201389  1
  H  H8  1  0.15636232  0.51749171  0.98223957  1
  H  H9  1  0.02480212  0.10144047  0.13029382  1
  H  H10  1  0.07314663  0.18117694  0.51774604  1
  H  H11  1  0.10767743  0.61706251  0.51051542  1
  H  H12  1  0.07388403  0.04453619  0.34912564  1
  H  H13  1  0.10578009  0.70953947  0.39436865  1
  H  H14  1  0.16864038  0.28477759  0.82081328  1
  H  H15  1  0.09895358  0.44805094  0.32201389  1
  H  H16  1  0.22943729  0.04929964  0.96473133  1
  H  H17  1  0.15636232  0.98250829  0.48223957  1
  H  H18  1  0.07314663  0.31882306  0.01774604  1
  H  H19  1  0.22809972  0.89834181  0.76951035  1
  H  H20  1  0.20583264  0.10788850  0.62413412  1
  H  H21  1  0.10767743  0.88293749  0.01051542  1
  H  H22  1  0.23741523  0.75791992  0.67244459  1
  H  H23  1  0.16864038  0.21522241  0.32081328  1
  H  H24  1  0.22943729  0.45070036  0.46473133  1
  H  H25  1  0.26293150  0.83780542  0.57428982  1
  H  H26  1  0.27924552  0.22478800  0.58048701  1
  H  H27  1  0.32579427  0.06218142  0.82678847  1
  H  H28  1  0.22809972  0.60165819  0.26951035  1
  H  H29  1  0.20583264  0.39211150  0.12413412  1
  H  H30  1  0.23741523  0.74208008  0.17244459  1
  H  H31  1  0.34796110  0.35054884  0.77657644  1
  H  H32  1  0.40463722  0.40512993  0.98289950  1
  H  H33  1  0.38006148  0.25427926  0.88572498  1
  H  H34  1  0.26293150  0.66219458  0.07428982  1
  H  H35  1  0.27924552  0.27521200  0.08048701  1
  H  H36  1  0.32579427  0.43781858  0.32678847  1
  H  H37  1  0.41237207  0.80554739  0.90107629  1
  H  H38  1  0.34796110  0.14945116  0.27657644  1
  H  H39  1  0.40463722  0.09487007  0.48289950  1
  H  H40  1  0.38006148  0.24572074  0.38572498  1
  H  H41  1  0.41294279  0.60184396  0.51588465  1
  H  H42  1  0.41237207  0.69445261  0.40107629  1
  H  H43  1  0.50375551  0.92449003  0.87774346  1
  H  H44  1  0.49624449  0.42449003  0.62225654  1
  H  H45  1  0.41294279  0.89815604  0.01588465  1
  H  H46  1  0.58705721  0.10184396  0.98411535  1
  H  H47  1  0.50375551  0.57550997  0.37774346  1
  H  H48  1  0.49624449  0.07550997  0.12225654  1
  H  H49  1  0.58762793  0.30554739  0.59892371  1
  H  H50  1  0.58705721  0.39815604  0.48411535  1
  H  H51  1  0.61993852  0.75427926  0.61427502  1
  H  H52  1  0.59536278  0.90512993  0.51710050  1
  H  H53  1  0.65203890  0.85054884  0.72342356  1
  H  H54  1  0.58762793  0.19445261  0.09892371  1
  H  H55  1  0.67420573  0.56218142  0.67321153  1
  H  H56  1  0.72075448  0.72478800  0.91951299  1
  H  H57  1  0.73706850  0.33780542  0.92571018  1
  H  H58  1  0.61993852  0.74572074  0.11427502  1
  H  H59  1  0.59536278  0.59487007  0.01710050  1
  H  H60  1  0.65203890  0.64945116  0.22342456  1
  H  H61  1  0.76258477  0.25791992  0.82755541  1
  H  H62  1  0.79416736  0.60788850  0.87586588  1
  H  H63  1  0.77190028  0.39834181  0.73048965  1
  H  H64  1  0.67420573  0.93781858  0.17321153  1
  H  H65  1  0.72075448  0.77521200  0.41951299  1
  H  H66  1  0.73706850  0.16219458  0.42571018  1
  H  H67  1  0.77056271  0.54929964  0.53526867  1
  H  H68  1  0.83135962  0.78477759  0.67918672  1
  H  H69  1  0.76258477  0.24208008  0.32755541  1
  H  H70  1  0.89232257  0.11706251  0.98948458  1
  H  H71  1  0.79416736  0.89211150  0.37586588  1
  H  H72  1  0.77190028  0.10165819  0.23048965  1
  H  H73  1  0.92685337  0.68117694  0.98225396  1
  H  H74  1  0.84363768  0.01749171  0.51776043  1
  H  H75  1  0.77056271  0.95070036  0.03526867  1
  H  H76  1  0.90104642  0.55194906  0.67798611  1
  H  H77  1  0.83135962  0.71522241  0.17918672  1
  H  H78  1  0.89421991  0.29046053  0.60563135  1
  H  H79  1  0.92611597  0.95546381  0.65087436  1
  H  H80  1  0.89232257  0.38293749  0.48948458  1
  H  H81  1  0.92685337  0.81882306  0.48225396  1
  H  H82  1  0.97519788  0.89855953  0.86970618  1
  H  H83  1  0.84363768  0.48250829  0.01776043  1
  H  H84  1  0.90104642  0.94805094  0.17798611  1
  H  H85  1  0.89421991  0.20953947  0.10563135  1
  H  H86  1  0.92611597  0.54453619  0.15087436  1
  H  H87  1  0.97519788  0.60144047  0.36970618  1
  C  C88  1  0.09543449  0.86914485  0.91292470  1
  C  C89  1  0.09543449  0.63085515  0.41292470  1
  C  C90  1  0.19165735  0.47914495  0.90239321  1
  C  C91  1  0.22153046  0.02915780  0.86891339  1
  C  C92  1  0.20349637  0.16038481  0.54984577  1
  C  C93  1  0.19165735  0.02085505  0.40239321  1
  C  C94  1  0.29532859  0.31356269  0.85069449  1
  C  C95  1  0.22153046  0.47084220  0.36891339  1
  C  C96  1  0.20349637  0.33961519  0.04984577  1
  C  C97  1  0.29532859  0.18643731  0.35069449  1
  C  C98  1  0.40486523  0.88464182  0.91835961  1
  C  C99  1  0.40486523  0.61535818  0.41835961  1
  C  C100  1  0.59513477  0.38464182  0.58164039  1
  C  C101  1  0.59513477  0.11535818  0.08164039  1
  C  C102  1  0.70467141  0.81356269  0.64930551  1
  C  C103  1  0.79650363  0.66038481  0.95015423  1
  C  C104  1  0.77846954  0.52915780  0.63108661  1
  C  C105  1  0.70467141  0.68643731  0.14930551  1
  C  C106  1  0.80834265  0.97914495  0.59760679  1
  C  C107  1  0.79650363  0.83961519  0.45015423  1
  C  C108  1  0.77846954  0.97084220  0.13108661  1
  C  C109  1  0.80834265  0.52085505  0.09760679  1
  C  C110  1  0.90456551  0.36914485  0.58707530  1
  C  C111  1  0.90456551  0.13085515  0.08707530  1
  N  N112  1  0.23679124  0.92021644  0.86117682  1
  N  N113  1  0.28137594  0.38657443  0.94869718  1
  N  N114  1  0.23679124  0.57978356  0.36117682  1
  N  N115  1  0.28137594  0.11342557  0.44869718  1
  N  N116  1  0.71862406  0.88657443  0.55130282  1
  N  N117  1  0.76320876  0.42021644  0.63882318  1
  N  N118  1  0.71862406  0.61342557  0.05130282  1
  N  N119  1  0.76320876  0.07978356  0.13882318  1
  O  O120  1  0.19698167  0.82272197  0.64162952  1
  O  O121  1  0.19698167  0.67727803  0.14162952  1
  O  O122  1  0.80301833  0.32272197  0.85837048  1
  O  O123  1  0.80301833  0.17727803  0.35837048  1
  F  F124  1  0.13162698  0.63956971  0.78231581  1
  F  F125  1  0.13162698  0.86043029  0.28231581  1
  F  F126  1  0.26198370  0.50487588  0.67540117  1
  F  F127  1  0.37685373  0.64167167  0.94117113  1
  F  F128  1  0.26198370  0.99512412  0.17540117  1
  F  F129  1  0.41519049  0.65660648  0.72732909  1
  F  F130  1  0.37685373  0.85832833  0.44117113  1
  F  F131  1  0.50337757  0.50667457  0.83712335  1
  F  F132  1  0.41519049  0.84339352  0.22732909  1
  F  F133  1  0.49662243  0.00667457  0.66287665  1
  F  F134  1  0.50337757  0.99332543  0.33712335  1
  F  F135  1  0.58480951  0.15660648  0.77267091  1
  F  F136  1  0.49662243  0.49332543  0.16287665  1
  F  F137  1  0.62314627  0.14167167  0.55882887  1
  F  F138  1  0.58480951  0.34339352  0.27267091  1
  F  F139  1  0.73801630  0.00487588  0.82459883  1
  F  F140  1  0.62314627  0.35832833  0.05882887  1
  F  F141  1  0.73801630  0.49512412  0.32459883  1
  F  F142  1  0.86837302  0.13956971  0.71768419  1
  F  F143  1  0.86837302  0.36043029  0.21768419  1
