# generated using pymatgen
data_Ba(NdSe2)2
_symmetry_space_group_name_H-M   'P 1'
_cell_length_a   7.98922308
_cell_length_b   7.98922286
_cell_length_c   7.98922261
_cell_angle_alpha   109.40696815
_cell_angle_beta   109.40696769
_cell_angle_gamma   109.59979815
_symmetry_Int_Tables_number   1
_chemical_formula_structural   Ba(NdSe2)2
_chemical_formula_sum   'Ba2 Nd4 Se8'
_cell_volume   392.54558645
_cell_formula_units_Z   2
loop_
 _symmetry_equiv_pos_site_id
 _symmetry_equiv_pos_as_xyz
  1  'x, y, z'
loop_
 _atom_site_type_symbol
 _atom_site_label
 _atom_site_symmetry_multiplicity
 _atom_site_fract_x
 _atom_site_fract_y
 _atom_site_fract_z
 _atom_site_occupancy
  Ba  Ba0  1  0.62500000  0.37500000  0.25000000  1
  Ba  Ba1  1  0.87500000  0.12500000  0.75000000  1
  Nd  Nd2  1  0.12645866  0.75000000  0.87645866  1
  Nd  Nd3  1  0.25000000  0.62645866  0.37645866  1
  Nd  Nd4  1  0.37354134  0.25000000  0.62354134  1
  Nd  Nd5  1  0.75000000  0.87354134  0.12354134  1
  Se  Se6  1  0.01699245  0.85645830  0.49571090  1
  Se  Se7  1  0.02128156  0.36074741  0.50428910  1
  Se  Se8  1  0.47871844  0.98300755  0.33946585  1
  Se  Se9  1  0.14354170  0.13925259  0.16053415  1
  Se  Se10  1  0.35645830  0.51699245  0.99571090  1
  Se  Se11  1  0.63925259  0.64354170  0.66053415  1
  Se  Se12  1  0.48300755  0.97871844  0.83946585  1
  Se  Se13  1  0.86074741  0.52128156  0.00428910  1
