# generated using pymatgen
data_Sm2S3
_symmetry_space_group_name_H-M   'P 1'
_cell_length_a   22.04272535
_cell_length_b   8.49323175
_cell_length_c   8.49323151
_cell_angle_alpha   90.00000511
_cell_angle_beta   54.69270729
_cell_angle_gamma   54.69270844
_symmetry_Int_Tables_number   1
_chemical_formula_structural   Sm2S3
_chemical_formula_sum   'Sm16 S24'
_cell_volume   916.06981237
_cell_formula_units_Z   8
loop_
 _symmetry_equiv_pos_site_id
 _symmetry_equiv_pos_as_xyz
  1  'x, y, z'
loop_
 _atom_site_type_symbol
 _atom_site_label
 _atom_site_symmetry_multiplicity
 _atom_site_fract_x
 _atom_site_fract_y
 _atom_site_fract_z
 _atom_site_occupancy
  S  S0  1  0.04987192  0.99845524  0.35487544  1
  S  S1  1  0.12667162  0.48738442  0.99190201  1
  S  S2  1  0.04987192  0.35192802  0.49550782  1
  S  S3  1  0.28346108  0.14807198  0.14512456  1
  S  S4  1  0.28346108  0.50154476  0.00449218  1
  S  S5  1  0.20666138  0.01261558  0.87191786  1
  S  S6  1  0.12667162  0.63259973  0.62808214  1
  S  S7  1  0.38363423  0.00413640  0.34441838  1
  S  S8  1  0.20666138  0.86740027  0.50809799  1
  S  S9  1  0.44969977  0.49532007  0.99586360  1
  S  S10  1  0.38363423  0.34496190  0.50467993  1
  S  S11  1  0.62667162  0.12808214  0.13259973  1
  S  S12  1  0.62667162  0.49190201  0.98738442  1
  S  S13  1  0.44969977  0.65558162  0.65503810  1
  S  S14  1  0.54987192  0.99550782  0.85192802  1
  S  S15  1  0.70666138  0.00809799  0.36740027  1
  S  S16  1  0.54987192  0.85487544  0.49845524  1
  S  S17  1  0.78346108  0.50449218  0.00154476  1
  S  S18  1  0.70666138  0.37191786  0.51261558  1
  S  S19  1  0.94969977  0.15503810  0.15558162  1
  S  S20  1  0.94969977  0.49586360  0.99532007  1
  S  S21  1  0.78346108  0.64512456  0.64807198  1
  S  S22  1  0.88363423  0.00467993  0.84496190  1
  S  S23  1  0.88363423  0.84441838  0.50413640  1
  Sm  Sm24  1  0.08495344  0.62256934  0.37256934  1
  Sm  Sm25  1  0.16666700  0.25000000  0.63049270  1
  Sm  Sm26  1  0.24837956  0.87743066  0.12743066  1
  Sm  Sm27  1  0.33831954  0.38012200  0.25081939  1
  Sm  Sm28  1  0.33831954  0.10491837  0.73422099  1
  Sm  Sm29  1  0.16666700  0.75000000  0.86950730  1
  Sm  Sm30  1  0.49501346  0.26577901  0.61987800  1
  Sm  Sm31  1  0.66666700  0.36950730  0.25000000  1
  Sm  Sm32  1  0.58495344  0.87256934  0.12256934  1
  Sm  Sm33  1  0.66666700  0.13049270  0.75000000  1
  Sm  Sm34  1  0.49501346  0.74918061  0.89508163  1
  Sm  Sm35  1  0.74837956  0.62743066  0.37743066  1
  Sm  Sm36  1  0.83831954  0.23422099  0.60491837  1
  Sm  Sm37  1  0.99501346  0.39508163  0.24918061  1
  Sm  Sm38  1  0.99501346  0.11987800  0.76577901  1
  Sm  Sm39  1  0.83831954  0.75081939  0.88012200  1
