# generated using pymatgen
data_Sm2Se3
_symmetry_space_group_name_H-M   'P 1'
_cell_length_a   22.98456308
_cell_length_b   8.84747203
_cell_length_c   8.84747227
_cell_angle_alpha   89.99999832
_cell_angle_beta   54.73235766
_cell_angle_gamma   54.73235656
_symmetry_Int_Tables_number   1
_chemical_formula_structural   Sm2Se3
_chemical_formula_sum   'Sm16 Se24'
_cell_volume   1038.59036239
_cell_formula_units_Z   8
loop_
 _symmetry_equiv_pos_site_id
 _symmetry_equiv_pos_as_xyz
  1  'x, y, z'
loop_
 _atom_site_type_symbol
 _atom_site_label
 _atom_site_symmetry_multiplicity
 _atom_site_fract_x
 _atom_site_fract_y
 _atom_site_fract_z
 _atom_site_occupancy
  Se  Se0  1  0.05004814  0.99928271  0.35396291  1
  Se  Se1  1  0.12461313  0.49039036  0.99351309  1
  Se  Se2  1  0.05004814  0.35057287  0.49589267  1
  Se  Se3  1  0.28328486  0.14942713  0.14603709  1
  Se  Se4  1  0.28328486  0.50071729  0.00410733  1
  Se  Se5  1  0.20872087  0.00960964  0.86735147  1
  Se  Se6  1  0.12461313  0.63577126  0.63264853  1
  Se  Se7  1  0.38410902  1.00015822  0.34384160  1
  Se  Se8  1  0.20872087  0.86422874  0.50648691  1
  Se  Se9  1  0.44922398  0.49616966  -0.00015822  1
  Se  Se10  1  0.38410902  0.34751373  0.50383034  1
  Se  Se11  1  0.62461313  0.13264853  0.13577126  1
  Se  Se12  1  0.62461313  0.49351309  0.99039036  1
  Se  Se13  1  0.55004814  0.99589267  0.85057287  1
  Se  Se14  1  0.44922398  0.65615840  0.65248627  1
  Se  Se15  1  0.70872087  0.00648691  0.36422874  1
  Se  Se16  1  0.55004814  0.85396291  0.49928271  1
  Se  Se17  1  0.78328486  0.50410733  0.00071729  1
  Se  Se18  1  0.70872087  0.36735147  0.50960964  1
  Se  Se19  1  0.94922398  0.15248627  0.15615840  1
  Se  Se20  1  0.94922398  0.49984178  0.99616966  1
  Se  Se21  1  0.88410902  0.00383034  0.84751373  1
  Se  Se22  1  0.78328486  0.64603709  0.64942713  1
  Se  Se23  1  0.88410902  0.84384160  0.50015822  1
  Sm  Sm24  1  0.99620800  0.38902026  0.24778100  1
  Sm  Sm25  1  0.99620800  0.12235574  0.76359499  1
  Sm  Sm26  1  0.08292438  0.62561293  0.37561293  1
  Sm  Sm27  1  0.16666700  0.25000000  0.63100158  1
  Sm  Sm28  1  0.33712500  0.37764426  0.25221900  1
  Sm  Sm29  1  0.25040862  0.87438707  0.12438707  1
  Sm  Sm30  1  0.33712500  0.11097974  0.73640501  1
  Sm  Sm31  1  0.16666700  0.75000000  0.86899842  1
  Sm  Sm32  1  0.49620800  0.26359499  0.62235574  1
  Sm  Sm33  1  0.58292438  0.87561293  0.12561293  1
  Sm  Sm34  1  0.66666700  0.36899842  0.25000000  1
  Sm  Sm35  1  0.66666700  0.13100158  0.75000000  1
  Sm  Sm36  1  0.49620800  0.74778100  0.88902026  1
  Sm  Sm37  1  0.75040862  0.62438707  0.37438707  1
  Sm  Sm38  1  0.83712500  0.23640501  0.61097974  1
  Sm  Sm39  1  0.83712500  0.75221900  0.87764426  1
