# generated using pymatgen
data_Fe7(Ni3O8)2
_symmetry_space_group_name_H-M   'P 1'
_cell_length_a   6.00498786
_cell_length_b   6.00498786
_cell_length_c   10.29724764
_cell_angle_alpha   106.54293025
_cell_angle_beta   73.45706975
_cell_angle_gamma   119.50983719
_symmetry_Int_Tables_number   1
_chemical_formula_structural   Fe7(Ni3O8)2
_chemical_formula_sum   'Fe7 Ni6 O16'
_cell_volume   305.08977445
_cell_formula_units_Z   1
loop_
 _symmetry_equiv_pos_site_id
 _symmetry_equiv_pos_as_xyz
  1  'x, y, z'
loop_
 _atom_site_type_symbol
 _atom_site_label
 _atom_site_symmetry_multiplicity
 _atom_site_fract_x
 _atom_site_fract_y
 _atom_site_fract_z
 _atom_site_occupancy
  Fe  Fe0  1  0.31250000  0.68750000  0.06250000  1
  Fe  Fe1  1  -0.00011483  0.00011483  0.98903036  1
  Fe  Fe2  1  0.57212537  0.93908759  0.31417651  1
  Fe  Fe3  1  0.06091241  0.42787463  0.31417651  1
  Fe  Fe4  1  0.62511483  0.37488517  0.13596964  1
  Fe  Fe5  1  0.56408759  0.94712537  0.81082349  1
  Fe  Fe6  1  0.05287463  0.43591241  0.81082349  1
  Ni  Ni7  1  0.06116737  0.93883263  0.31015384  1
  Ni  Ni8  1  0.31250000  0.68750000  0.56250000  1
  Ni  Ni9  1  0.81250000  0.68750000  0.56250000  1
  Ni  Ni10  1  0.31250000  0.18750000  0.56250000  1
  Ni  Ni11  1  0.81250000  0.18750000  0.56250000  1
  Ni  Ni12  1  0.56383263  0.43616737  0.81484616  1
  O  O13  1  0.42819748  0.57180252  0.20029019  1
  O  O14  1  0.18979709  0.81020291  0.43655864  1
  O  O15  1  0.68959849  0.82776332  0.44030413  1
  O  O16  1  0.17223668  0.31040151  0.44030413  1
  O  O17  1  0.95123891  0.56620110  0.19681466  1
  O  O18  1  0.43379890  0.04876109  0.19681466  1
  O  O19  1  0.69426072  0.30573928  0.43703566  1
  O  O20  1  0.93206663  0.06793337  0.19374442  1
  O  O21  1  0.19680252  0.80319748  0.92470981  1
  O  O22  1  0.43520291  0.56479709  0.68844136  1
  O  O23  1  0.67376109  0.80879890  0.92818534  1
  O  O24  1  0.19120110  0.32623891  0.92818534  1
  O  O25  1  0.93540151  0.54723668  0.68469587  1
  O  O26  1  0.45276332  0.06459849  0.68469587  1
  O  O27  1  0.93073928  0.06926072  0.68796434  1
  O  O28  1  0.69293337  0.30706663  0.93125558  1
