# generated using pymatgen
data_V2(PO4)3
_symmetry_space_group_name_H-M   'P 1'
_cell_length_a   8.50327448
_cell_length_b   8.58097679
_cell_length_c   11.90760741
_cell_angle_alpha   90.00000000
_cell_angle_beta   89.52261300
_cell_angle_gamma   90.00000000
_symmetry_Int_Tables_number   1
_chemical_formula_structural   V2(PO4)3
_chemical_formula_sum   'V8 P12 O48'
_cell_volume   868.82509879
_cell_formula_units_Z   4
loop_
 _symmetry_equiv_pos_site_id
 _symmetry_equiv_pos_as_xyz
  1  'x, y, z'
loop_
 _atom_site_type_symbol
 _atom_site_label
 _atom_site_symmetry_multiplicity
 _atom_site_fract_x
 _atom_site_fract_y
 _atom_site_fract_z
 _atom_site_occupancy
  O  O0  1  0.06732814  0.60564812  0.12688649  1
  O  O1  1  0.06537187  0.82456545  0.40081027  1
  O  O2  1  0.07370104  0.64673584  0.57282200  1
  O  O3  1  0.07326758  0.91239780  0.84004752  1
  O  O4  1  0.11394347  0.13418047  0.42615507  1
  O  O5  1  0.13148235  0.29286650  0.16115677  1
  O  O6  1  0.15076251  0.07212934  0.02191428  1
  O  O7  1  0.15525278  0.21449406  0.82334831  1
  O  O8  1  0.16017271  0.49305900  0.75746819  1
  O  O9  1  0.15887311  0.35195933  0.55830137  1
  O  O10  1  0.19914940  0.01635339  0.22549695  1
  O  O11  1  0.20582249  0.43320504  0.95831277  1
  O  O12  1  0.30085010  0.51635329  0.27450302  1
  O  O13  1  0.29417752  0.93320494  0.54168772  1
  O  O14  1  0.34112690  0.85195923  0.94169911  1
  O  O15  1  0.34923699  0.57212925  0.47808569  1
  O  O16  1  0.33982730  0.99305909  0.74253145  1
  O  O17  1  0.93267203  0.39435168  0.87311344  1
  O  O18  1  0.34474723  0.71449396  0.67665133  1
  O  O19  1  0.38605720  0.63418154  0.07384489  1
  O  O20  1  0.43462880  0.32456554  0.09918969  1
  O  O21  1  0.43267254  0.10564822  0.37311347  1
  O  O22  1  0.42673243  0.41239789  0.65995296  1
  O  O23  1  0.42629897  0.14673594  0.92717764  1
  O  O24  1  0.57370120  0.85326387  0.07282230  1
  O  O25  1  0.57326774  0.58760191  0.34004697  1
  O  O26  1  0.56732763  0.89435159  0.62688646  1
  O  O27  1  0.56537137  0.67543427  0.90081024  1
  O  O28  1  0.61394297  0.36581943  0.92615504  1
  O  O29  1  0.65525294  0.28550585  0.32334860  1
  O  O30  1  0.63148185  0.20713340  0.66115674  1
  O  O31  1  0.66017287  0.00694072  0.25746848  1
  O  O32  1  0.65076318  0.42787056  0.52191424  1
  O  O33  1  0.65887326  0.14804058  0.05830082  1
  O  O34  1  0.70582147  0.06679487  0.45831307  1
  O  O35  1  0.69915007  0.48364652  0.72549691  1
  O  O36  1  0.79417768  0.56679477  0.04168716  1
  O  O37  1  0.80085077  0.98364642  0.77450298  1
  O  O38  1  0.84112706  0.64804048  0.44169856  1
  O  O39  1  0.83982746  0.50694081  0.24253175  1
  O  O40  1  0.84474739  0.78550575  0.17665162  1
  O  O41  1  0.84923648  0.92787047  0.97808566  1
  O  O42  1  0.86851782  0.70713331  0.83884316  1
  O  O43  1  0.88605670  0.86581934  0.57384486  1
  O  O44  1  0.92673259  0.08760201  0.15995241  1
  O  O45  1  0.92629913  0.35326397  0.42717793  1
  O  O46  1  0.93462830  0.17543436  0.59918966  1
  O  O47  1  0.36851832  0.79286641  0.33884319  1
  P  P48  1  0.02946887  0.25106943  0.50431219  1
  P  P49  1  0.10625809  0.11550577  0.14345154  1
  P  P50  1  0.10989045  0.38422888  0.85695260  1
  P  P51  1  0.39374141  0.61550568  0.35654843  1
  P  P52  1  0.39010956  0.88422878  0.64304704  1
  P  P53  1  0.47053114  0.75106934  0.99568830  1
  P  P54  1  0.52946902  0.24893047  0.00431163  1
  P  P55  1  0.60988943  0.11577103  0.35695290  1
  P  P56  1  0.60625758  0.38449413  0.64345151  1
  P  P57  1  0.89010972  0.61577093  0.14304733  1
  P  P58  1  0.97053130  0.74893037  0.49568775  1
  P  P59  1  0.89374208  0.88449404  0.85654839  1
  V  V60  1  0.24653463  0.96834749  0.38357958  1
  V  V61  1  0.25346604  0.46834758  0.11642038  1
  V  V62  1  0.24883956  0.03150079  0.88067208  1
  V  V63  1  0.25116045  0.53150070  0.61932756  1
  V  V64  1  0.74883972  0.46849911  0.38067237  1
  V  V65  1  0.75116061  0.96849901  0.11932785  1
  V  V66  1  0.74653413  0.53165223  0.88357955  1
  V  V67  1  0.75346554  0.03165232  0.61642036  1
