# generated using pymatgen
data_La2S3
_symmetry_space_group_name_H-M   'P 1'
_cell_length_a   22.73607209
_cell_length_b   8.76579010
_cell_length_c   8.76579072
_cell_angle_alpha   90.00000486
_cell_angle_beta   54.66765995
_cell_angle_gamma   54.66765718
_symmetry_Int_Tables_number   1
_chemical_formula_structural   La2S3
_chemical_formula_sum   'La16 S24'
_cell_volume   1005.25117698
_cell_formula_units_Z   8
loop_
 _symmetry_equiv_pos_site_id
 _symmetry_equiv_pos_as_xyz
  1  'x, y, z'
loop_
 _atom_site_type_symbol
 _atom_site_label
 _atom_site_symmetry_multiplicity
 _atom_site_fract_x
 _atom_site_fract_y
 _atom_site_fract_z
 _atom_site_occupancy
  La  La0  1  0.08665340  0.62001941  0.37001941  1
  La  La1  1  0.16666700  0.25000000  0.62935802  1
  La  La2  1  0.33915786  0.38158107  0.24990523  1
  La  La3  1  0.24667960  0.87998059  0.12998059  1
  La  La4  1  0.33915786  0.10094435  0.73262020  1
  La  La5  1  0.16666700  0.75000000  0.87064198  1
  La  La6  1  0.49417514  0.26737980  0.61841893  1
  La  La7  1  0.66666700  0.37064198  0.25000000  1
  La  La8  1  0.58665340  0.87001941  0.12001941  1
  La  La9  1  0.66666700  0.12935802  0.75000000  1
  La  La10  1  0.49417514  0.75009477  0.89905565  1
  La  La11  1  0.74667960  0.62998059  0.37998059  1
  La  La12  1  0.83915786  0.23262020  0.60094435  1
  La  La13  1  0.99417514  0.39905565  0.25009477  1
  La  La14  1  0.99417514  0.11841893  0.76737980  1
  La  La15  1  0.83915786  0.74990523  0.88158107  1
  S  S16  1  0.12738345  0.48611425  0.99130568  1
  S  S17  1  0.05030197  0.35102666  0.49559556  1
  S  S18  1  0.28303103  0.14897334  0.14650248  1
  S  S19  1  0.05030197  0.99806642  0.35349752  1
  S  S20  1  0.28303103  0.50193358  0.00440444  1
  S  S21  1  0.20594955  0.01388575  0.87345704  1
  S  S22  1  0.12738345  0.63173439  0.62654296  1
  S  S23  1  0.20594955  0.86826561  0.50869432  1
  S  S24  1  0.44988682  0.49439045  0.99226835  1
  S  S25  1  0.38344718  0.34192780  0.50560955  1
  S  S26  1  0.62738345  0.12654296  0.13173439  1
  S  S27  1  0.38344718  0.00773165  0.34404990  1
  S  S28  1  0.62738345  0.49130568  0.98611425  1
  S  S29  1  0.44988682  0.65595010  0.65807220  1
  S  S30  1  0.55030197  0.99559556  0.85102666  1
  S  S31  1  0.55030197  0.85349752  0.49806642  1
  S  S32  1  0.78303103  0.50440444  0.00193358  1
  S  S33  1  0.70594955  0.37345704  0.51388575  1
  S  S34  1  0.70594955  0.00869432  0.36826561  1
  S  S35  1  0.94988682  0.15807220  0.15595010  1
  S  S36  1  0.94988682  0.49226835  0.99439045  1
  S  S37  1  0.78303103  0.64650248  0.64897334  1
  S  S38  1  0.88344718  0.00560955  0.84192780  1
  S  S39  1  0.88344718  0.84404990  0.50773165  1
