# generated using pymatgen
data_SiO2
_symmetry_space_group_name_H-M   'P 1'
_cell_length_a   17.36890962
_cell_length_b   17.36891060
_cell_length_c   17.36891036
_cell_angle_alpha   59.99999950
_cell_angle_beta   59.99999943
_cell_angle_gamma   59.99999988
_symmetry_Int_Tables_number   1
_chemical_formula_structural   SiO2
_chemical_formula_sum   'Si48 O96'
_cell_volume   3705.12365912
_cell_formula_units_Z   48
loop_
 _symmetry_equiv_pos_site_id
 _symmetry_equiv_pos_as_xyz
  1  'x, y, z'
loop_
 _atom_site_type_symbol
 _atom_site_label
 _atom_site_symmetry_multiplicity
 _atom_site_fract_x
 _atom_site_fract_y
 _atom_site_fract_z
 _atom_site_occupancy
  O  O0  1  0.14756373  0.85904222  0.85904222  1
  O  O1  1  0.50000000  0.21355723  0.78644277  1
  O  O2  1  0.36564817  0.14095778  0.14095778  1
  O  O3  1  0.50000000  0.00000000  0.21355723  1
  O  O4  1  1.00000000  0.21355723  0.50000000  1
  O  O5  1  0.21355723  0.78644277  0.50000000  1
  O  O6  1  0.85904222  0.14756373  0.85904222  1
  O  O7  1  0.85904222  0.85904222  0.14756373  1
  O  O8  1  0.03543363  0.03543363  0.81236783  1
  O  O9  1  0.03543363  0.81236783  0.03543363  1
  O  O10  1  0.21355723  0.50000000  0.00000000  1
  O  O11  1  0.00000000  0.78644277  0.21355723  1
  O  O12  1  0.21355723  0.00000000  0.78644277  1
  O  O13  1  0.03543363  0.03543363  0.61676492  1
  O  O14  1  0.18763217  0.96456637  0.38323508  1
  O  O15  1  0.18763217  0.38323508  0.96456637  1
  O  O16  1  0.03543363  0.61676492  0.03543363  1
  O  O17  1  0.36564817  0.85243627  0.14095778  1
  O  O18  1  0.36564817  0.14095778  0.85243627  1
  O  O19  1  0.50000000  0.78644277  1.00000000  1
  O  O20  1  0.14756373  0.85904222  0.63435183  1
  O  O21  1  0.14095778  0.36564817  0.14095778  1
  O  O22  1  0.14095778  0.14095778  0.36564817  1
  O  O23  1  0.14756373  0.63435183  0.85904222  1
  O  O24  1  0.38323508  0.18763217  0.96456637  1
  O  O25  1  0.38323508  0.96456637  0.18763217  1
  O  O26  1  0.21355723  0.00000000  0.50000000  1
  O  O27  1  0.67852816  0.67852816  0.17950425  1
  O  O28  1  0.67852816  0.17950425  0.67852816  1
  O  O29  1  0.00000000  0.50000000  0.78644277  1
  O  O30  1  0.78644277  0.50000000  0.21355723  1
  O  O31  1  0.81236783  0.03543363  0.03543363  1
  O  O32  1  0.17950425  0.67852816  0.67852816  1
  O  O33  1  0.78644277  0.21355723  1.00000000  1
  O  O34  1  0.67852816  0.67852816  0.96343943  1
  O  O35  1  0.82049575  0.32147184  0.03656057  1
  O  O36  1  0.82049575  0.03656057  0.32147184  1
  O  O37  1  0.67852816  0.96343943  0.67852816  1
  O  O38  1  0.21355723  0.78644277  0.00000000  1
  O  O39  1  0.03656057  0.82049575  0.32147184  1
  O  O40  1  0.03656057  0.32147184  0.82049575  1
  O  O41  1  0.82049575  0.32147184  0.32147184  1
  O  O42  1  0.18763217  0.96456637  0.96456637  1
  O  O43  1  0.96456637  0.18763217  0.38323508  1
  O  O44  1  0.96456637  0.38323508  0.18763217  1
  O  O45  1  0.85904222  0.14756373  0.63435183  1
  O  O46  1  0.32147184  0.82049575  0.03656057  1
  O  O47  1  0.32147184  0.03656057  0.82049575  1
  O  O48  1  0.85904222  0.63435183  0.14756373  1
  O  O49  1  0.14095778  0.36564817  0.85243627  1
  O  O50  1  0.67852816  0.17950425  0.96343943  1
  O  O51  1  0.67852816  0.96343943  0.17950425  1
  O  O52  1  0.03543363  0.61676492  0.81236783  1
  O  O53  1  0.14095778  0.85243627  0.36564817  1
  O  O54  1  0.03543363  0.81236783  0.61676492  1
  O  O55  1  0.38323508  0.96456637  0.96456637  1
  O  O56  1  0.21355723  0.50000000  0.78644277  1
  O  O57  1  1.00000000  0.50000000  0.21355723  1
  O  O58  1  0.03656057  0.32147184  0.32147184  1
  O  O59  1  0.32147184  0.82049575  0.32147184  1
  O  O60  1  0.32147184  0.32147184  0.82049575  1
  O  O61  1  0.32147184  0.03656057  0.32147184  1
  O  O62  1  0.17950425  0.67852816  0.96343943  1
  O  O63  1  0.17950425  0.96343943  0.67852816  1
  O  O64  1  0.32147184  0.32147184  0.03656057  1
  O  O65  1  0.78644277  1.00000000  0.50000000  1
  O  O66  1  0.50000000  0.21355723  0.00000000  1
  O  O67  1  0.96343943  0.67852816  0.67852816  1
  O  O68  1  0.61676492  0.03543363  0.03543363  1
  O  O69  1  0.96343943  0.67852816  0.17950425  1
  O  O70  1  0.96343943  0.17950425  0.67852816  1
  O  O71  1  0.78644277  1.00000000  0.21355723  1
  O  O72  1  1.00000000  0.21355723  0.78644277  1
  O  O73  1  0.78644277  0.50000000  1.00000000  1
  O  O74  1  0.96456637  0.18763217  0.96456637  1
  O  O75  1  0.96456637  0.96456637  0.18763217  1
  O  O76  1  0.85904222  0.85904222  0.63435183  1
  O  O77  1  0.85904222  0.63435183  0.85904222  1
  O  O78  1  0.85243627  0.36564817  0.14095778  1
  O  O79  1  0.85243627  0.14095778  0.36564817  1
  O  O80  1  0.14095778  0.14095778  0.85243627  1
  O  O81  1  0.14095778  0.85243627  0.14095778  1
  O  O82  1  0.81236783  0.03543363  0.61676492  1
  O  O83  1  0.96456637  0.38323508  0.96456637  1
  O  O84  1  0.81236783  0.61676492  0.03543363  1
  O  O85  1  0.96456637  0.96456637  0.38323508  1
  O  O86  1  0.78644277  0.21355723  0.50000000  1
  O  O87  1  0.00000000  0.78644277  0.50000000  1
  O  O88  1  0.50000000  1.00000000  0.78644277  1
  O  O89  1  0.50000000  0.78644277  0.21355723  1
  O  O90  1  0.61676492  0.81236783  0.03543363  1
  O  O91  1  0.61676492  0.03543363  0.81236783  1
  O  O92  1  0.63435183  0.14756373  0.85904222  1
  O  O93  1  0.63435183  0.85904222  0.14756373  1
  O  O94  1  0.85243627  0.14095778  0.14095778  1
  O  O95  1  0.63435183  0.85904222  0.85904222  1
  Si  Si96  1  0.03547642  0.39258451  0.21587764  1
  Si  Si97  1  0.03547642  0.21587764  0.39258451  1
  Si  Si98  1  0.21587764  0.03547642  0.39258451  1
  Si  Si99  1  0.21587764  0.39258451  0.03547642  1
  Si  Si100  1  0.39258451  0.03547642  0.21587764  1
  Si  Si101  1  0.39258451  0.21587764  0.03547642  1
  Si  Si102  1  0.03547642  0.21587764  0.85606143  1
  Si  Si103  1  0.03547642  0.85606143  0.21587764  1
  Si  Si104  1  0.03547642  0.39258451  0.85606143  1
  Si  Si105  1  0.03547642  0.85606143  0.39258451  1
  Si  Si106  1  0.21587764  0.85606143  0.03547642  1
  Si  Si107  1  0.21587764  0.03547642  0.85606143  1
  Si  Si108  1  0.39258451  0.85606143  0.03547642  1
  Si  Si109  1  0.39258451  0.03547642  0.85606143  1
  Si  Si110  1  0.14393857  0.60741549  0.78412236  1
  Si  Si111  1  0.14393857  0.78412236  0.60741549  1
  Si  Si112  1  0.21587764  0.39258451  0.85606143  1
  Si  Si113  1  0.21587764  0.85606143  0.39258451  1
  Si  Si114  1  0.39258451  0.85606143  0.21587764  1
  Si  Si115  1  0.39258451  0.21587764  0.85606143  1
  Si  Si116  1  0.14393857  0.96452358  0.60741549  1
  Si  Si117  1  0.14393857  0.60741549  0.96452358  1
  Si  Si118  1  0.85606143  0.03547642  0.21587764  1
  Si  Si119  1  0.85606143  0.21587764  0.03547642  1
  Si  Si120  1  0.14393857  0.96452358  0.78412236  1
  Si  Si121  1  0.14393857  0.78412236  0.96452358  1
  Si  Si122  1  0.85606143  0.39258451  0.03547642  1
  Si  Si123  1  0.85606143  0.03547642  0.39258451  1
  Si  Si124  1  0.60741549  0.78412236  0.14393857  1
  Si  Si125  1  0.60741549  0.14393857  0.78412236  1
  Si  Si126  1  0.78412236  0.14393857  0.60741549  1
  Si  Si127  1  0.78412236  0.60741549  0.14393857  1
  Si  Si128  1  0.85606143  0.21587764  0.39258451  1
  Si  Si129  1  0.85606143  0.39258451  0.21587764  1
  Si  Si130  1  0.60741549  0.14393857  0.96452358  1
  Si  Si131  1  0.60741549  0.96452358  0.14393857  1
  Si  Si132  1  0.78412236  0.14393857  0.96452358  1
  Si  Si133  1  0.78412236  0.96452358  0.14393857  1
  Si  Si134  1  0.96452358  0.14393857  0.60741549  1
  Si  Si135  1  0.96452358  0.60741549  0.14393857  1
  Si  Si136  1  0.96452358  0.14393857  0.78412236  1
  Si  Si137  1  0.96452358  0.78412236  0.14393857  1
  Si  Si138  1  0.60741549  0.78412236  0.96452358  1
  Si  Si139  1  0.60741549  0.96452358  0.78412236  1
  Si  Si140  1  0.78412236  0.60741549  0.96452358  1
  Si  Si141  1  0.78412236  0.96452358  0.60741549  1
  Si  Si142  1  0.96452358  0.60741549  0.78412236  1
  Si  Si143  1  0.96452358  0.78412236  0.60741549  1
