# generated using pymatgen
data_Ce2Fe14B
_symmetry_space_group_name_H-M   'P 1'
_cell_length_a   8.75092897
_cell_length_b   8.75092897
_cell_length_c   11.94779471
_cell_angle_alpha   90.00000000
_cell_angle_beta   90.00000000
_cell_angle_gamma   90.00000000
_symmetry_Int_Tables_number   1
_chemical_formula_structural   Ce2Fe14B
_chemical_formula_sum   'Ce8 Fe56 B4'
_cell_volume   914.94727780
_cell_formula_units_Z   4
loop_
 _symmetry_equiv_pos_site_id
 _symmetry_equiv_pos_as_xyz
  1  'x, y, z'
loop_
 _atom_site_type_symbol
 _atom_site_label
 _atom_site_symmetry_multiplicity
 _atom_site_fract_x
 _atom_site_fract_y
 _atom_site_fract_z
 _atom_site_occupancy
  B  B0  1  0.62239502  0.37760498  0.00000000  1
  B  B1  1  0.12239502  0.12239502  0.50000000  1
  B  B2  1  0.87760498  0.87760498  0.50000000  1
  B  B3  1  0.37760498  0.62239502  0.00000000  1
  Fe  Fe4  1  0.35915621  0.03822282  0.17539411  1
  Fe  Fe5  1  0.64084379  0.96177718  0.17539411  1
  Fe  Fe6  1  0.03822282  0.35915621  0.82460589  1
  Fe  Fe7  1  0.53822282  0.14084379  0.67539411  1
  Fe  Fe8  1  0.46177718  0.85915621  0.67539411  1
  Fe  Fe9  1  0.14084379  0.53822282  0.32460589  1
  Fe  Fe10  1  0.85915621  0.46177718  0.32460589  1
  Fe  Fe11  1  0.96177718  0.64084379  0.82460589  1
  Fe  Fe12  1  0.64084379  0.96177718  0.82460589  1
  Fe  Fe13  1  0.35915621  0.03822282  0.82460589  1
  Fe  Fe14  1  0.96177718  0.64084379  0.17539411  1
  Fe  Fe15  1  0.46177718  0.85915621  0.32460589  1
  Fe  Fe16  1  0.53822282  0.14084379  0.32460589  1
  Fe  Fe17  1  0.85915621  0.46177718  0.67539411  1
  Fe  Fe18  1  0.14084379  0.53822282  0.67539411  1
  Fe  Fe19  1  0.03822282  0.35915621  0.17539411  1
  Fe  Fe20  1  0.56613040  0.22360301  0.12607113  1
  Fe  Fe21  1  0.43386960  0.77639699  0.12607113  1
  Fe  Fe22  1  0.22360301  0.56613040  0.87392887  1
  Fe  Fe23  1  0.72360301  0.93386960  0.62607113  1
  Fe  Fe24  1  0.27639699  0.06613040  0.62607113  1
  Fe  Fe25  1  0.93386960  0.72360301  0.37392887  1
  Fe  Fe26  1  0.06613040  0.27639699  0.37392887  1
  Fe  Fe27  1  0.77639699  0.43386960  0.87392887  1
  Fe  Fe28  1  0.43386960  0.77639699  0.87392887  1
  Fe  Fe29  1  0.56613040  0.22360301  0.87392887  1
  Fe  Fe30  1  0.77639699  0.43386960  0.12607113  1
  Fe  Fe31  1  0.27639699  0.06613040  0.37392887  1
  Fe  Fe32  1  0.72360301  0.93386960  0.37392887  1
  Fe  Fe33  1  0.06613040  0.27639699  0.62607113  1
  Fe  Fe34  1  0.93386960  0.72360301  0.62607113  1
  Fe  Fe35  1  0.22360301  0.56613040  0.12607113  1
  Fe  Fe36  1  0.68236223  0.68236223  0.75385651  1
  Fe  Fe37  1  0.31763777  0.31763777  0.75385651  1
  Fe  Fe38  1  0.68236223  0.68236223  0.24614349  1
  Fe  Fe39  1  0.18236223  0.81763777  0.25385651  1
  Fe  Fe40  1  0.81763777  0.18236223  0.25385651  1
  Fe  Fe41  1  0.81763777  0.18236223  0.74614349  1
  Fe  Fe42  1  0.18236223  0.81763777  0.74614349  1
  Fe  Fe43  1  0.31763777  0.31763777  0.24614349  1
  Fe  Fe44  1  0.90210709  0.90210709  0.79793020  1
  Fe  Fe45  1  0.09789291  0.09789291  0.79793020  1
  Fe  Fe46  1  0.90210709  0.90210709  0.20206980  1
  Fe  Fe47  1  0.40210709  0.59789291  0.29793020  1
  Fe  Fe48  1  0.59789291  0.40210709  0.29793020  1
  Fe  Fe49  1  0.59789291  0.40210709  0.70206980  1
  Fe  Fe50  1  0.40210709  0.59789291  0.70206980  1
  Fe  Fe51  1  0.09789291  0.09789291  0.20206980  1
  Fe  Fe52  1  0.00000000  0.00000000  0.38393995  1
  Fe  Fe53  1  0.50000000  0.50000000  0.88393995  1
  Fe  Fe54  1  0.50000000  0.50000000  0.11606005  1
  Fe  Fe55  1  0.00000000  0.00000000  0.61606005  1
  Fe  Fe56  1  0.50000000  0.00000000  0.00000000  1
  Fe  Fe57  1  0.50000000  0.00000000  0.50000000  1
  Fe  Fe58  1  0.00000000  0.50000000  0.50000000  1
  Fe  Fe59  1  0.00000000  0.50000000  0.00000000  1
  Ce  Ce60  1  0.85651597  0.14348403  0.00000000  1
  Ce  Ce61  1  0.35651597  0.35651597  0.50000000  1
  Ce  Ce62  1  0.64348403  0.64348403  0.50000000  1
  Ce  Ce63  1  0.14348403  0.85651597  0.00000000  1
  Ce  Ce64  1  0.73147035  0.73147035  0.00000000  1
  Ce  Ce65  1  0.76852965  0.23147035  0.50000000  1
  Ce  Ce66  1  0.23147035  0.76852965  0.50000000  1
  Ce  Ce67  1  0.26852965  0.26852965  0.00000000  1
