# generated using pymatgen
data_FeO2
_symmetry_space_group_name_H-M   'P 1'
_cell_length_a   4.60941193
_cell_length_b   4.60941494
_cell_length_c   2.97710791
_cell_angle_alpha   89.99999809
_cell_angle_beta   90.00013101
_cell_angle_gamma   89.99955500
_symmetry_Int_Tables_number   1
_chemical_formula_structural   FeO2
_chemical_formula_sum   'Fe2 O4'
_cell_volume   63.25369545
_cell_formula_units_Z   2
loop_
 _symmetry_equiv_pos_site_id
 _symmetry_equiv_pos_as_xyz
  1  'x, y, z'
loop_
 _atom_site_type_symbol
 _atom_site_label
 _atom_site_symmetry_multiplicity
 _atom_site_fract_x
 _atom_site_fract_y
 _atom_site_fract_z
 _atom_site_occupancy
  Fe  Fe0  1  -0.00000083  0.00000958  0.99998737  1
  Fe  Fe1  1  0.49999496  0.50000150  0.50000159  1
  O  O2  1  0.19054116  0.80945466  0.49999980  1
  O  O3  1  0.30946207  0.30945988  0.00000430  1
  O  O4  1  0.69053974  0.69053657  0.00000501  1
  O  O5  1  0.80946289  0.19053781  0.50000193  1
