# generated using pymatgen
data_ThTi2O6
_symmetry_space_group_name_H-M   'P 1'
_cell_length_a   5.23574566
_cell_length_b   6.95288403
_cell_length_c   6.95288403
_cell_angle_alpha   76.88737572
_cell_angle_beta   70.74364600
_cell_angle_gamma   70.74364591
_symmetry_Int_Tables_number   1
_chemical_formula_structural   ThTi2O6
_chemical_formula_sum   'Th2 Ti4 O12'
_cell_volume   223.59073382
_cell_formula_units_Z   2
loop_
 _symmetry_equiv_pos_site_id
 _symmetry_equiv_pos_as_xyz
  1  'x, y, z'
loop_
 _atom_site_type_symbol
 _atom_site_label
 _atom_site_symmetry_multiplicity
 _atom_site_fract_x
 _atom_site_fract_y
 _atom_site_fract_z
 _atom_site_occupancy
  O  O0  1  0.46566569  0.88257708  0.39843026  1
  O  O1  1  0.03433431  0.60156974  0.11742292  1
  O  O2  1  0.53433431  0.11742292  0.60156974  1
  O  O3  1  0.96566569  0.39843026  0.88257708  1
  O  O4  1  0.03322698  0.27088368  0.45022892  1
  O  O5  1  0.46677302  0.54977108  0.72911632  1
  O  O6  1  0.65110023  0.82206024  0.90575725  1
  O  O7  1  0.84889977  0.09424275  0.17793976  1
  O  O8  1  0.34889977  0.17793976  0.09424275  1
  O  O9  1  0.15110023  0.90575725  0.82206024  1
  O  O10  1  0.53322698  0.45022892  0.27088368  1
  O  O11  1  0.96677302  0.72911632  0.54977108  1
  Ti  Ti12  1  0.44034935  0.18810150  0.35136540  1
  Ti  Ti13  1  0.05965065  0.64863460  0.81189850  1
  Ti  Ti14  1  0.55965065  0.81189850  0.64863460  1
  Ti  Ti15  1  0.94034935  0.35136540  0.18810150  1
  Th  Th16  1  0.25000000  0.81137883  0.18862117  1
  Th  Th17  1  0.75000000  0.18862117  0.81137883  1
