# generated using pymatgen
data_Ca(Nd2Se3)4
_symmetry_space_group_name_H-M   'P 1'
_cell_length_a   23.24396731
_cell_length_b   8.95632242
_cell_length_c   8.95632801
_cell_angle_alpha   90.03643117
_cell_angle_beta   54.73322633
_cell_angle_gamma   54.73323845
_symmetry_Int_Tables_number   1
_chemical_formula_structural   Ca(Nd2Se3)4
_chemical_formula_sum   'Ca2 Nd16 Se24'
_cell_volume   1075.67647492
_cell_formula_units_Z   2
loop_
 _symmetry_equiv_pos_site_id
 _symmetry_equiv_pos_as_xyz
  1  'x, y, z'
loop_
 _atom_site_type_symbol
 _atom_site_label
 _atom_site_symmetry_multiplicity
 _atom_site_fract_x
 _atom_site_fract_y
 _atom_site_fract_z
 _atom_site_occupancy
  Ca  Ca0  1  0.16672483  0.25010271  0.62487697  1
  Ca  Ca1  1  0.66672472  0.12487713  0.75010293  1
  Nd  Nd2  1  0.08291720  0.62471553  0.37672230  1
  Nd  Nd3  1  0.33326462  0.37815838  0.25027451  1
  Nd  Nd4  1  0.24999476  0.87446634  0.12765899  1
  Nd  Nd5  1  0.33271430  0.12602870  0.74896888  1
  Nd  Nd6  1  0.16664175  0.75015024  0.87227021  1
  Nd  Nd7  1  0.41658840  0.62578265  0.37496750  1
  Nd  Nd8  1  0.50097809  0.24827049  0.62217609  1
  Nd  Nd9  1  0.66664173  0.37227075  0.25015010  1
  Nd  Nd10  1  0.58291749  0.87672203  0.12471503  1
  Nd  Nd11  1  0.49977418  0.74837262  0.87717145  1
  Nd  Nd12  1  0.74999482  0.62765935  0.37446574  1
  Nd  Nd13  1  0.83271395  0.24896869  0.62602873  1
  Nd  Nd14  1  0.99977448  0.37717147  0.24837230  1
  Nd  Nd15  1  0.91658854  0.87496768  0.12578247  1
  Nd  Nd16  1  0.00097815  0.12217565  0.74827033  1
  Nd  Nd17  1  0.83326480  0.75027435  0.87815827  1
  Se  Se18  1  0.04948028  0.99937978  0.35138195  1
  Se  Se19  1  0.11729239  0.50091906  0.00305902  1
  Se  Se20  1  0.04848558  0.35242303  0.49803117  1
  Se  Se21  1  0.28516584  0.14714487  0.14312585  1
  Se  Se22  1  0.28364380  0.50082756  0.00009324  1
  Se  Se23  1  0.21655363  0.99771663  0.85462831  1
  Se  Se24  1  0.11703703  0.64724821  0.65083907  1
  Se  Se25  1  0.38222092  0.00087050  0.35108634  1
  Se  Se26  1  0.21586707  0.85322595  0.50263424  1
  Se  Se27  1  0.45038820  0.49803923  0.99975872  1
  Se  Se28  1  0.38357579  0.34993463  0.49993358  1
  Se  Se29  1  0.61703703  0.15083891  0.14724867  1
  Se  Se30  1  0.61729233  0.50305891  0.00091926  1
  Se  Se31  1  0.45069142  0.64841202  0.64815145  1
  Se  Se32  1  0.54848549  0.99803147  0.85242329  1
  Se  Se33  1  0.71586702  0.00263435  0.35322634  1
  Se  Se34  1  0.54948037  0.85138184  0.49937980  1
  Se  Se35  1  0.78364378  0.50009324  0.00082737  1
  Se  Se36  1  0.71655360  0.35462841  0.49771707  1
  Se  Se37  1  0.95069146  0.14815154  0.14841173  1
  Se  Se38  1  0.95038794  0.49975929  0.99803965  1
  Se  Se39  1  0.88357584  -0.00006652  0.84993468  1
  Se  Se40  1  0.78516593  0.64312552  0.64714461  1
  Se  Se41  1  0.88222042  0.85108683  0.50087180  1
