# generated using pymatgen
data_LiCr6P7O24
_symmetry_space_group_name_H-M   'P 1'
_cell_length_a   5.52120472
_cell_length_b   27.87612563
_cell_length_c   6.48119048
_cell_angle_alpha   90.00000000
_cell_angle_beta   107.41840365
_cell_angle_gamma   90.00000000
_symmetry_Int_Tables_number   1
_chemical_formula_structural   LiCr6P7O24
_chemical_formula_sum   'Li2 Cr12 P14 O48'
_cell_volume   951.77671461
_cell_formula_units_Z   2
loop_
 _symmetry_equiv_pos_site_id
 _symmetry_equiv_pos_as_xyz
  1  'x, y, z'
loop_
 _atom_site_type_symbol
 _atom_site_label
 _atom_site_symmetry_multiplicity
 _atom_site_fract_x
 _atom_site_fract_y
 _atom_site_fract_z
 _atom_site_occupancy
  Li  Li0  1  0.02190155  0.25000000  0.42056715  1
  Li  Li1  1  0.97809845  0.75000000  0.57943385  1
  O  O2  1  0.11056680  0.40973091  0.38432670  1
  O  O3  1  0.84753955  0.44886476  0.00052548  1
  O  O4  1  0.84753955  0.05113524  0.00052548  1
  O  O5  1  0.89895255  0.62210014  0.24819011  1
  O  O6  1  0.84013963  0.75000000  0.27380149  1
  O  O7  1  0.81188160  0.30705927  0.38366372  1
  O  O8  1  0.81188160  0.19294073  0.38366372  1
  O  O9  1  0.88943420  0.90972991  0.61567230  1
  O  O10  1  0.88943420  0.59026909  0.61567230  1
  O  O11  1  0.79628882  0.46631783  0.60972628  1
  O  O12  1  0.89895255  0.87789986  0.24819011  1
  O  O13  1  0.87033836  0.33342353  0.03068365  1
  O  O14  1  0.12966064  0.66657647  0.96931535  1
  O  O15  1  0.12966064  0.83342353  0.96931535  1
  O  O16  1  0.15246145  0.55113524  0.99947352  1
  O  O17  1  0.15246145  0.94886476  0.99947352  1
  O  O18  1  0.10104845  0.12210014  0.75180889  1
  O  O19  1  0.10104845  0.37789986  0.75180889  1
  O  O20  1  0.15985937  0.25000000  0.72619851  1
  O  O21  1  0.18811840  0.69294073  0.61633728  1
  O  O22  1  0.18811840  0.80705927  0.61633728  1
  O  O23  1  0.11056680  0.09026909  0.38432670  1
  O  O24  1  0.87033836  0.16657647  0.03068365  1
  O  O25  1  0.20371118  0.53368217  0.39027272  1
  O  O26  1  0.20371118  0.96631783  0.39027272  1
  O  O27  1  0.45808570  0.62320943  0.82354802  1
  O  O28  1  0.45808570  0.87679057  0.82354802  1
  O  O29  1  0.54565353  0.70559079  0.96726564  1
  O  O30  1  0.54565353  0.79440921  0.96726564  1
  O  O31  1  0.41182793  0.06067623  0.73237848  1
  O  O32  1  0.41182793  0.43932377  0.73237848  1
  O  O33  1  0.35771636  0.75000000  0.23303688  1
  O  O34  1  0.45721596  0.14666191  0.59727583  1
  O  O35  1  0.45721596  0.35333809  0.59727583  1
  O  O36  1  0.58369129  0.52080881  0.82118133  1
  O  O37  1  0.58369129  0.97919119  0.82118133  1
  O  O38  1  0.41630971  0.02080781  0.17881967  1
  O  O39  1  0.41630971  0.47919219  0.17881967  1
  O  O40  1  0.54278504  0.64666191  0.40272417  1
  O  O41  1  0.54278504  0.85333709  0.40272417  1
  O  O42  1  0.64228264  0.25000000  0.76696312  1
  O  O43  1  0.58817307  0.56067623  0.26762052  1
  O  O44  1  0.58817307  0.93932377  0.26762052  1
  O  O45  1  0.45434747  0.20559079  0.03273436  1
  O  O46  1  0.79628882  0.03368217  0.60972628  1
  O  O47  1  0.54191530  0.12320943  0.17645298  1
  O  O48  1  0.54191530  0.37679057  0.17645298  1
  O  O49  1  0.45434747  0.29440921  0.03273436  1
  P  P50  1  0.27255222  0.10832212  0.61011584  1
  P  P51  1  0.27255222  0.39167788  0.61011584  1
  P  P52  1  0.42965464  0.25000000  0.87249697  1
  P  P53  1  0.32866320  0.52984526  0.21329643  1
  P  P54  1  0.32866320  0.97015474  0.21329643  1
  P  P55  1  0.67133780  0.02984526  0.78670357  1
  P  P56  1  0.67133780  0.47015474  0.78670357  1
  P  P57  1  0.31718573  0.83045231  0.83676660  1
  P  P58  1  0.57034636  0.75000000  0.12750403  1
  P  P59  1  0.72744878  0.60832112  0.38988516  1
  P  P60  1  0.72744878  0.89167788  0.38988516  1
  P  P61  1  0.68281227  0.16954769  0.16323340  1
  P  P62  1  0.31718573  0.66954769  0.83676660  1
  P  P63  1  0.68281227  0.33045231  0.16323340  1
  Cr  Cr64  1  0.77769366  0.45129919  0.30096241  1
  Cr  Cr65  1  0.77769366  0.04870081  0.30096241  1
  Cr  Cr66  1  0.82757038  0.32007589  0.70717668  1
  Cr  Cr67  1  0.82757038  0.17992411  0.70717668  1
  Cr  Cr68  1  0.82924178  0.90354769  0.92744031  1
  Cr  Cr69  1  0.82924178  0.59645231  0.92744031  1
  Cr  Cr70  1  0.17075922  0.40354769  0.07255869  1
  Cr  Cr71  1  0.17075922  0.09645231  0.07255869  1
  Cr  Cr72  1  0.17243062  0.82007589  0.29282432  1
  Cr  Cr73  1  0.17243062  0.67992411  0.29282432  1
  Cr  Cr74  1  0.22230634  0.95129919  0.69903759  1
  Cr  Cr75  1  0.22230634  0.54870081  0.69903759  1
