# generated using pymatgen
data_HoAlO3
_symmetry_space_group_name_H-M   'P 1'
_cell_length_a   5.19239163
_cell_length_b   5.37899997
_cell_length_c   7.42251426
_cell_angle_alpha   90.00000000
_cell_angle_beta   90.00000000
_cell_angle_gamma   90.00000000
_symmetry_Int_Tables_number   1
_chemical_formula_structural   HoAlO3
_chemical_formula_sum   'Ho4 Al4 O12'
_cell_volume   207.30989118
_cell_formula_units_Z   4
loop_
 _symmetry_equiv_pos_site_id
 _symmetry_equiv_pos_as_xyz
  1  'x, y, z'
loop_
 _atom_site_type_symbol
 _atom_site_label
 _atom_site_symmetry_multiplicity
 _atom_site_fract_x
 _atom_site_fract_y
 _atom_site_fract_z
 _atom_site_occupancy
  O  O0  1  0.70404963  0.29567085  0.45265258  1
  O  O1  1  0.20404963  0.20432915  0.54734742  1
  O  O2  1  0.79595037  0.79567085  0.04734742  1
  O  O3  1  0.29595037  0.70432915  0.95265258  1
  O  O4  1  0.29595037  0.70432915  0.54734742  1
  O  O5  1  0.79595037  0.79567085  0.45265258  1
  O  O6  1  0.20404963  0.20432915  0.95265258  1
  O  O7  1  0.70404963  0.29567085  0.04734742  1
  O  O8  1  0.09013914  0.47487941  0.25000000  1
  O  O9  1  0.59013914  0.02512059  0.75000000  1
  O  O10  1  0.40986086  0.97487941  0.25000000  1
  O  O11  1  0.90986086  0.52512059  0.75000000  1
  Al  Al12  1  0.50000000  0.00000000  0.50000000  1
  Al  Al13  1  0.00000000  0.50000000  0.50000000  1
  Al  Al14  1  0.00000000  0.50000000  0.00000000  1
  Al  Al15  1  0.50000000  0.00000000  0.00000000  1
  Ho  Ho16  1  0.01419110  0.94258385  0.75000000  1
  Ho  Ho17  1  0.51419110  0.55741615  0.25000000  1
  Ho  Ho18  1  0.48580890  0.44258385  0.75000000  1
  Ho  Ho19  1  0.98580890  0.05741615  0.25000000  1
