# generated using pymatgen
data_K3TaO8
_symmetry_space_group_name_H-M   'P 1'
_cell_length_a   6.33497400
_cell_length_b   6.33497400
_cell_length_c   6.33497400
_cell_angle_alpha   100.79843278
_cell_angle_beta   113.97404572
_cell_angle_gamma   113.97404577
_symmetry_Int_Tables_number   1
_chemical_formula_structural   K3TaO8
_chemical_formula_sum   'K3 Ta1 O8'
_cell_volume   192.42011836
_cell_formula_units_Z   1
loop_
 _symmetry_equiv_pos_site_id
 _symmetry_equiv_pos_as_xyz
  1  'x, y, z'
loop_
 _atom_site_type_symbol
 _atom_site_label
 _atom_site_symmetry_multiplicity
 _atom_site_fract_x
 _atom_site_fract_y
 _atom_site_fract_z
 _atom_site_occupancy
  O  O0  1  0.27955645  0.32504838  0.32504838  1
  O  O1  1  0.00000000  0.67495162  0.95450806  1
  O  O2  1  0.00000000  0.95450806  0.67495162  1
  O  O3  1  0.72044355  0.04549194  0.04549194  1
  O  O4  1  0.42405592  0.23128763  0.23128763  1
  O  O5  1  0.00000000  0.76871237  0.19276829  1
  O  O6  1  0.00000000  0.19276829  0.76871237  1
  O  O7  1  0.57594408  0.80723171  0.80723171  1
  K  K8  1  0.50000000  0.25000000  0.75000000  1
  K  K9  1  0.50000000  0.75000000  0.25000000  1
  K  K10  1  0.00000000  0.50000000  0.50000000  1
  Ta  Ta11  1  0.00000000  0.00000000  0.00000000  1
