# generated using pymatgen
data_Dy2In16Pt7
_symmetry_space_group_name_H-M   'P 1'
_cell_length_a   4.43649389
_cell_length_b   11.94626884
_cell_length_c   11.94626818
_cell_angle_alpha   117.62381378
_cell_angle_beta   90.00000000
_cell_angle_gamma   90.00000000
_symmetry_Int_Tables_number   1
_chemical_formula_structural   Dy2In16Pt7
_chemical_formula_sum   'Dy2 In16 Pt7'
_cell_volume   560.97501365
_cell_formula_units_Z   1
loop_
 _symmetry_equiv_pos_site_id
 _symmetry_equiv_pos_as_xyz
  1  'x, y, z'
loop_
 _atom_site_type_symbol
 _atom_site_label
 _atom_site_symmetry_multiplicity
 _atom_site_fract_x
 _atom_site_fract_y
 _atom_site_fract_z
 _atom_site_occupancy
  Dy  Dy0  1  0.50000000  0.82866468  0.82866468  1
  Dy  Dy1  1  0.50000000  0.17133532  0.17133532  1
  Pt  Pt2  1  0.50000000  0.50000000  0.50000000  1
  Pt  Pt3  1  0.50000000  0.27597160  0.72402840  1
  Pt  Pt4  1  0.50000000  0.72402840  0.27597160  1
  Pt  Pt5  1  0.00000000  0.66934246  0.88370147  1
  Pt  Pt6  1  0.00000000  0.33065754  0.11629853  1
  Pt  Pt7  1  0.00000000  0.88370147  0.66934246  1
  Pt  Pt8  1  0.00000000  0.11629853  0.33065754  1
  In  In9  1  0.00000000  0.63206397  0.63206397  1
  In  In10  1  0.00000000  0.36793603  0.36793603  1
  In  In11  1  0.50000000  0.51709233  0.74276062  1
  In  In12  1  0.50000000  0.48290767  0.25723938  1
  In  In13  1  0.50000000  0.74276062  0.51709233  1
  In  In14  1  0.50000000  0.25723938  0.48290767  1
  In  In15  1  0.00000000  0.41343317  0.85893110  1
  In  In16  1  0.00000000  0.58656683  0.14106890  1
  In  In17  1  0.00000000  0.85893110  0.41343317  1
  In  In18  1  0.00000000  0.14106890  0.58656683  1
  In  In19  1  0.50000000  0.28727019  0.96126306  1
  In  In20  1  0.50000000  0.71272981  0.03873694  1
  In  In21  1  0.50000000  0.96126306  0.28727019  1
  In  In22  1  0.50000000  0.03873694  0.71272981  1
  In  In23  1  0.00000000  0.92697455  0.07302545  1
  In  In24  1  0.00000000  0.07302545  0.92697455  1
