# generated using pymatgen
data_Ni6P7O24
_symmetry_space_group_name_H-M   'P 1'
_cell_length_a   5.28125107
_cell_length_b   26.61355432
_cell_length_c   6.37144447
_cell_angle_alpha   90.00000000
_cell_angle_beta   107.40024732
_cell_angle_gamma   90.00000000
_symmetry_Int_Tables_number   1
_chemical_formula_structural   Ni6P7O24
_chemical_formula_sum   'Ni12 P14 O48'
_cell_volume   854.54468147
_cell_formula_units_Z   2
loop_
 _symmetry_equiv_pos_site_id
 _symmetry_equiv_pos_as_xyz
  1  'x, y, z'
loop_
 _atom_site_type_symbol
 _atom_site_label
 _atom_site_symmetry_multiplicity
 _atom_site_fract_x
 _atom_site_fract_y
 _atom_site_fract_z
 _atom_site_occupancy
  O  O0  1  0.86676095  0.87526654  0.22277293  1
  O  O1  1  0.91952213  0.33549433  0.05612133  1
  O  O2  1  0.91952213  0.16450667  0.05612133  1
  O  O3  1  0.85957084  0.45090051  0.01430594  1
  O  O4  1  0.85957084  0.04909949  0.01430594  1
  O  O5  1  0.86676095  0.62473346  0.22277293  1
  O  O6  1  0.86887934  0.75000000  0.20951268  1
  O  O7  1  0.85859618  0.30619543  0.41666302  1
  O  O8  1  0.85859618  0.19380457  0.41666302  1
  O  O9  1  0.87776624  0.90566179  0.60408554  1
  O  O10  1  0.87776624  0.59433821  0.60408554  1
  O  O11  1  0.82099821  0.46984512  0.61532342  1
  O  O12  1  0.08047887  0.66450567  0.94387967  1
  O  O13  1  0.08047887  0.83549433  0.94387967  1
  O  O14  1  0.14043116  0.54909949  0.98569406  1
  O  O15  1  0.14043116  0.95090051  0.98569406  1
  O  O16  1  0.13324105  0.12473446  0.77722707  1
  O  O17  1  0.13324105  0.37526554  0.77722707  1
  O  O18  1  0.13111966  0.25000000  0.79048632  1
  O  O19  1  0.14140582  0.69380457  0.58333798  1
  O  O20  1  0.14140582  0.80619543  0.58333798  1
  O  O21  1  0.12223276  0.09433821  0.39591346  1
  O  O22  1  0.12223276  0.40566179  0.39591346  1
  O  O23  1  0.17900279  0.53015488  0.38467658  1
  O  O24  1  0.17900279  0.96984512  0.38467658  1
  O  O25  1  0.42058108  0.61997921  0.78917215  1
  O  O26  1  0.42058108  0.88002079  0.78917215  1
  O  O27  1  0.51774567  0.70319601  0.94014548  1
  O  O28  1  0.51774567  0.79680399  0.94014548  1
  O  O29  1  0.40952956  0.05358504  0.73100575  1
  O  O30  1  0.40952956  0.44641496  0.73100575  1
  O  O31  1  0.38101930  0.75000000  0.23739454  1
  O  O32  1  0.60216835  0.52865525  0.82954339  1
  O  O33  1  0.60216835  0.97134475  0.82954339  1
  O  O34  1  0.52672444  0.14175543  0.62914863  1
  O  O35  1  0.52672444  0.35824457  0.62914863  1
  O  O36  1  0.47327456  0.64175543  0.37085137  1
  O  O37  1  0.47327456  0.85824457  0.37085137  1
  O  O38  1  0.39783265  0.02865525  0.17045761  1
  O  O39  1  0.39783265  0.47134475  0.17045761  1
  O  O40  1  0.61898170  0.25000000  0.76260546  1
  O  O41  1  0.59046944  0.55358504  0.26899425  1
  O  O42  1  0.59046944  0.94641496  0.26899425  1
  O  O43  1  0.48225533  0.20319601  0.05985452  1
  O  O44  1  0.48225533  0.29680399  0.05985452  1
  O  O45  1  0.82099821  0.03015488  0.61532342  1
  O  O46  1  0.57941992  0.38002079  0.21082785  1
  O  O47  1  0.57941992  0.11997921  0.21082785  1
  P  P48  1  0.30094922  0.10761034  0.62963152  1
  P  P49  1  0.30094922  0.39238966  0.62963152  1
  P  P50  1  0.42747179  0.25000000  0.89994770  1
  P  P51  1  0.30976292  0.52522088  0.20392719  1
  P  P52  1  0.30976292  0.97477912  0.20392719  1
  P  P53  1  0.69023608  0.02522088  0.79607281  1
  P  P54  1  0.69023608  0.47477912  0.79607281  1
  P  P55  1  0.27044747  0.83064202  0.80186307  1
  P  P56  1  0.57252721  0.75000000  0.10005230  1
  P  P57  1  0.69905178  0.60760934  0.37036848  1
  P  P58  1  0.69905178  0.89239066  0.37036848  1
  P  P59  1  0.72955353  0.16935798  0.19813793  1
  P  P60  1  0.27044747  0.66935798  0.80186307  1
  P  P61  1  0.72955353  0.33064202  0.19813793  1
  Ni  Ni62  1  0.77493973  0.44627213  0.30850733  1
  Ni  Ni63  1  0.77493973  0.05372687  0.30850733  1
  Ni  Ni64  1  0.85815945  0.31397972  0.72941164  1
  Ni  Ni65  1  0.85815945  0.18602028  0.72941164  1
  Ni  Ni66  1  0.82135365  0.90131612  0.90779608  1
  Ni  Ni67  1  0.82135365  0.59868388  0.90779608  1
  Ni  Ni68  1  0.17864735  0.40131612  0.09220392  1
  Ni  Ni69  1  0.17864735  0.09868488  0.09220392  1
  Ni  Ni70  1  0.14184055  0.81397872  0.27058836  1
  Ni  Ni71  1  0.14184055  0.68602128  0.27058836  1
  Ni  Ni72  1  0.22506127  0.94627213  0.69149267  1
  Ni  Ni73  1  0.22506127  0.55372787  0.69149267  1
