# generated using pymatgen
data_Cr6P7O24
_symmetry_space_group_name_H-M   'P 1'
_cell_length_a   5.34800246
_cell_length_b   27.79190132
_cell_length_c   6.45398437
_cell_angle_alpha   90.00000000
_cell_angle_beta   106.85957368
_cell_angle_gamma   90.00000000
_symmetry_Int_Tables_number   1
_chemical_formula_structural   Cr6P7O24
_chemical_formula_sum   'Cr12 P14 O48'
_cell_volume   918.03255059
_cell_formula_units_Z   2
loop_
 _symmetry_equiv_pos_site_id
 _symmetry_equiv_pos_as_xyz
  1  'x, y, z'
loop_
 _atom_site_type_symbol
 _atom_site_label
 _atom_site_symmetry_multiplicity
 _atom_site_fract_x
 _atom_site_fract_y
 _atom_site_fract_z
 _atom_site_occupancy
  O  O0  1  0.89365544  0.87312880  0.25450372  1
  O  O1  1  0.86919138  0.32835411  0.02132417  1
  O  O2  1  0.86919138  0.17164589  0.02132417  1
  O  O3  1  0.84919333  0.44790645  0.99771847  1
  O  O4  1  0.84919333  0.05209355  0.99771847  1
  O  O5  1  0.89365544  0.62687120  0.25450372  1
  O  O6  1  0.91008240  0.75000000  0.23442572  1
  O  O7  1  0.80970947  0.30656759  0.38533375  1
  O  O8  1  0.80970947  0.19343241  0.38533375  1
  O  O9  1  0.88032720  0.90634994  0.61980152  1
  O  O10  1  0.88032720  0.59365006  0.61980152  1
  O  O11  1  0.80385011  0.46654872  0.60910668  1
  O  O12  1  0.13080662  0.67164589  0.97867483  1
  O  O13  1  0.13080662  0.82835411  0.97867483  1
  O  O14  1  0.15080667  0.55209355  0.00228153  1
  O  O15  1  0.15080667  0.94790645  0.00228153  1
  O  O16  1  0.10634456  0.12687120  0.74549828  1
  O  O17  1  0.10634456  0.37312880  0.74549828  1
  O  O18  1  0.08991860  0.25000000  0.76557428  1
  O  O19  1  0.19029153  0.69343241  0.61466725  1
  O  O20  1  0.19029153  0.80656759  0.61466725  1
  O  O21  1  0.11967280  0.09365006  0.38019848  1
  O  O22  1  0.11967280  0.40634994  0.38019848  1
  O  O23  1  0.19615089  0.53345128  0.39089332  1
  O  O24  1  0.19615089  0.96654872  0.39089332  1
  O  O25  1  0.45049042  0.62314719  0.83160221  1
  O  O26  1  0.45049042  0.87685281  0.83160221  1
  O  O27  1  0.40084810  0.05959922  0.72873293  1
  O  O28  1  0.40084810  0.44040078  0.72873293  1
  O  O29  1  0.56692361  0.70513572  0.96271996  1
  O  O30  1  0.56692361  0.79486428  0.96271996  1
  O  O31  1  0.42640449  0.75000000  0.25790555  1
  O  O32  1  0.58614342  0.52133584  0.82267672  1
  O  O33  1  0.58614342  0.97866416  0.82267672  1
  O  O34  1  0.50056746  0.14332289  0.60602809  1
  O  O35  1  0.50056746  0.35667711  0.60602809  1
  O  O36  1  0.49943354  0.64332289  0.39397191  1
  O  O37  1  0.49943354  0.85667711  0.39397191  1
  O  O38  1  0.41385658  0.02133584  0.17732328  1
  O  O39  1  0.41385658  0.47866416  0.17732328  1
  O  O40  1  0.57359351  0.25000000  0.74209345  1
  O  O41  1  0.43307439  0.20513572  0.03727904  1
  O  O42  1  0.43307439  0.29486428  0.03727904  1
  O  O43  1  0.59915290  0.55959922  0.27126607  1
  O  O44  1  0.59915290  0.94040078  0.27126607  1
  O  O45  1  0.80385011  0.03345128  0.60910668  1
  O  O46  1  0.54950958  0.37685281  0.16839779  1
  O  O47  1  0.54950958  0.12314719  0.16839779  1
  P  P48  1  0.28410166  0.10926732  0.60906692  1
  P  P49  1  0.28410166  0.39073268  0.60906692  1
  P  P50  1  0.38404279  0.25000000  0.88127288  1
  P  P51  1  0.32734442  0.52953107  0.21376825  1
  P  P52  1  0.32734442  0.97046893  0.21376825  1
  P  P53  1  0.67265658  0.02953107  0.78623175  1
  P  P54  1  0.67265658  0.47046893  0.78623175  1
  P  P55  1  0.31592374  0.82830913  0.83541647  1
  P  P56  1  0.61595721  0.75000000  0.11872612  1
  P  P57  1  0.71589934  0.60926732  0.39093308  1
  P  P58  1  0.71589934  0.89073268  0.39093308  1
  P  P59  1  0.68407426  0.17169087  0.16458253  1
  P  P60  1  0.31592374  0.67169087  0.83541647  1
  P  P61  1  0.68407426  0.32830913  0.16458253  1
  Cr  Cr62  1  0.78093676  0.44965475  0.30081913  1
  Cr  Cr63  1  0.78093676  0.05034525  0.30081913  1
  Cr  Cr64  1  0.82047382  0.31388525  0.69941444  1
  Cr  Cr65  1  0.82047382  0.18611475  0.69941444  1
  Cr  Cr66  1  0.82946825  0.90082932  0.93585571  1
  Cr  Cr67  1  0.82946825  0.59917068  0.93585571  1
  Cr  Cr68  1  0.17053175  0.40082932  0.06414429  1
  Cr  Cr69  1  0.17053175  0.09917068  0.06414429  1
  Cr  Cr70  1  0.17952618  0.81388525  0.30058556  1
  Cr  Cr71  1  0.17952618  0.68611475  0.30058556  1
  Cr  Cr72  1  0.21906324  0.94965475  0.69918187  1
  Cr  Cr73  1  0.21906324  0.55034525  0.69918187  1
