# generated using pymatgen
data_VBiO4
_symmetry_space_group_name_H-M   'P 1'
_cell_length_a   5.17744742
_cell_length_b   5.19980682
_cell_length_c   6.92556610
_cell_angle_alpha   112.04981560
_cell_angle_beta   111.95006286
_cell_angle_gamma   89.99908636
_symmetry_Int_Tables_number   1
_chemical_formula_structural   VBiO4
_chemical_formula_sum   'V2 Bi2 O8'
_cell_volume   158.13452443
_cell_formula_units_Z   2
loop_
 _symmetry_equiv_pos_site_id
 _symmetry_equiv_pos_as_xyz
  1  'x, y, z'
loop_
 _atom_site_type_symbol
 _atom_site_label
 _atom_site_symmetry_multiplicity
 _atom_site_fract_x
 _atom_site_fract_y
 _atom_site_fract_z
 _atom_site_occupancy
  O  O0  1  0.34144745  0.70370700  0.90453629  1
  O  O1  1  0.06308884  0.20082929  0.90453629  1
  O  O2  1  0.65855255  0.29629300  0.09546371  1
  O  O3  1  0.93691116  0.79917071  0.09546371  1
  O  O4  1  0.29778899  0.93837631  0.58884579  1
  O  O5  1  0.79105681  0.65046948  0.58884579  1
  O  O6  1  0.70221101  0.06162369  0.41115421  1
  O  O7  1  0.20894319  0.34953052  0.41115421  1
  V  V8  1  0.87727415  0.12727415  0.25454830  1
  V  V9  1  0.12272585  0.87272585  0.74545170  1
  Bi  Bi10  1  0.37688212  0.62688212  0.25376425  1
  Bi  Bi11  1  0.62311788  0.37311788  0.74623575  1
