# generated using pymatgen
data_Ca8H3N4
_symmetry_space_group_name_H-M   'P 1'
_cell_length_a   7.18303585
_cell_length_b   7.18130857
_cell_length_c   35.91387295
_cell_angle_alpha   60.05558961
_cell_angle_beta   60.06565807
_cell_angle_gamma   60.05664710
_symmetry_Int_Tables_number   1
_chemical_formula_structural   Ca8H3N4
_chemical_formula_sum   'Ca40 H15 N20'
_cell_volume   1311.72298874
_cell_formula_units_Z   5
loop_
 _symmetry_equiv_pos_site_id
 _symmetry_equiv_pos_as_xyz
  1  'x, y, z'
loop_
 _atom_site_type_symbol
 _atom_site_label
 _atom_site_symmetry_multiplicity
 _atom_site_fract_x
 _atom_site_fract_y
 _atom_site_fract_z
 _atom_site_occupancy
  Ca  Ca0  1  0.26341404  0.25913279  0.05311642  1
  Ca  Ca1  1  0.26376608  0.26508444  0.14245752  1
  Ca  Ca2  1  0.26192009  0.71560244  0.05197362  1
  Ca  Ca3  1  0.71224068  0.25942149  0.05276688  1
  Ca  Ca4  1  0.26170929  0.26157433  0.25232462  1
  Ca  Ca5  1  0.28771532  0.73535270  0.14724851  1
  Ca  Ca6  1  0.73618587  0.74104940  0.05755283  1
  Ca  Ca7  1  0.73648246  0.28819480  0.14689570  1
  Ca  Ca8  1  0.26373667  0.26371569  0.34246353  1
  Ca  Ca9  1  0.26366855  0.71231941  0.25276325  1
  Ca  Ca10  1  0.73819825  0.73734741  0.14803558  1
  Ca  Ca11  1  0.71224338  0.26364069  0.25276253  1
  Ca  Ca12  1  0.26161921  0.26160142  0.45232598  1
  Ca  Ca13  1  0.28770749  0.73626450  0.34725584  1
  Ca  Ca14  1  0.73621378  0.73630947  0.25754962  1
  Ca  Ca15  1  0.73626343  0.28768505  0.34725753  1
  Ca  Ca16  1  0.26372721  0.71230432  0.45274920  1
  Ca  Ca17  1  0.26374748  0.26372423  0.54245787  1
  Ca  Ca18  1  0.73836389  0.73838455  0.34768278  1
  Ca  Ca19  1  0.71228363  0.26372080  0.45275287  1
  Ca  Ca20  1  0.26163611  0.26161545  0.65231722  1
  Ca  Ca21  1  0.28771637  0.73627920  0.54724713  1
  Ca  Ca22  1  0.73627279  0.28769568  0.54725080  1
  Ca  Ca23  1  0.73625252  0.73627577  0.45754213  1
  Ca  Ca24  1  0.26378622  0.26369053  0.74245038  1
  Ca  Ca25  1  0.26373657  0.71231495  0.65274247  1
  Ca  Ca26  1  0.73838079  0.73839858  0.54767402  1
  Ca  Ca27  1  0.71229251  0.26373550  0.65274416  1
  Ca  Ca28  1  0.26180175  0.26265259  0.85196442  1
  Ca  Ca29  1  0.28775662  0.73635931  0.74723747  1
  Ca  Ca30  1  0.73626333  0.73628431  0.65753647  1
  Ca  Ca31  1  0.73633145  0.28768059  0.74723675  1
  Ca  Ca32  1  0.26381413  0.25895060  0.94244717  1
  Ca  Ca33  1  0.26351754  0.71180520  0.85310430  1
  Ca  Ca34  1  0.73829071  0.73842567  0.74767538  1
  Ca  Ca35  1  0.71228468  0.26464730  0.85275149  1
  Ca  Ca36  1  0.28775932  0.74057851  0.94723312  1
  Ca  Ca37  1  0.73623392  0.73491556  0.85754248  1
  Ca  Ca38  1  0.73807991  0.28439756  0.94802638  1
  Ca  Ca39  1  0.73658596  0.74086721  0.94688358  1
  H  H40  1  0.00000000  0.00000000  0.00000000  1
  H  H41  1  0.50000000  0.00000000  0.00000000  1
  H  H42  1  0.49998045  0.99991471  0.20000030  1
  H  H43  1  0.50000188  0.00000866  0.39999630  1
  H  H44  1  0.99995245  0.50000236  0.20000055  1
  H  H45  1  0.00000566  0.99915469  0.09999376  1
  H  H46  1  0.00000898  0.00001658  0.29999139  1
  H  H47  1  0.49999812  0.99999134  0.60000370  1
  H  H48  1  0.00000860  0.50000133  0.39999630  1
  H  H49  1  0.99999434  0.00084531  0.90000624  1
  H  H50  1  0.50001955  0.00008529  0.79999970  1
  H  H51  1  0.99999102  0.99998342  0.70000861  1
  H  H52  1  0.99999140  0.49999867  0.60000370  1
  H  H53  1  0.00000000  0.00000000  0.50000000  1
  H  H54  1  0.00004755  0.49999764  0.79999945  1
  N  N55  1  0.50000000  0.50000000  0.00000000  1
  N  N56  1  0.49994751  -0.00027415  0.10014293  1
  N  N57  1  0.50008426  0.50039877  0.09984236  1
  N  N58  1  0.00001279  0.50001897  0.29998836  1
  N  N59  1  0.50000548  0.50015750  0.19999335  1
  N  N60  1  0.50001815  0.00002783  0.29999001  1
  N  N61  1  0.50001993  0.50000812  0.29999143  1
  N  N62  1  1.00000719  0.50032535  0.09999047  1
  N  N63  1  0.00000000  0.50000000  0.50000000  1
  N  N64  1  0.50001353  0.50001269  0.39999275  1
  N  N65  1  0.50000000  0.00000000  0.50000000  1
  N  N66  1  0.50000000  0.50000000  0.50000000  1
  N  N67  1  0.99998721  0.49998103  0.70001164  1
  N  N68  1  0.49998185  0.99997217  0.70000999  1
  N  N69  1  0.49998647  0.49998731  0.60000725  1
  N  N70  1  0.49998007  0.49999188  0.70000857  1
  N  N71  1  0.49999452  0.49984250  0.80000665  1
  N  N72  1  0.50005249  1.00027415  0.89985707  1
  N  N73  1  0.49991574  0.49960123  0.90015764  1
  N  N74  1  -0.00000719  0.49967465  0.90000953  1
