# generated using pymatgen
data_YZr5Si5PO24
_symmetry_space_group_name_H-M   'P 1'
_cell_length_a   5.64987831
_cell_length_b   5.64987745
_cell_length_c   33.97305535
_cell_angle_alpha   106.45937054
_cell_angle_beta   106.45936772
_cell_angle_gamma   115.60064346
_symmetry_Int_Tables_number   1
_chemical_formula_structural   YZr5Si5PO24
_chemical_formula_sum   'Y2 Zr10 Si10 P2 O48'
_cell_volume   828.28665408
_cell_formula_units_Z   2
loop_
 _symmetry_equiv_pos_site_id
 _symmetry_equiv_pos_as_xyz
  1  'x, y, z'
loop_
 _atom_site_type_symbol
 _atom_site_label
 _atom_site_symmetry_multiplicity
 _atom_site_fract_x
 _atom_site_fract_y
 _atom_site_fract_z
 _atom_site_occupancy
  O  O0  1  0.22253141  0.65238946  0.99025844  1
  O  O1  1  0.35962495  0.78950920  0.92997142  1
  O  O2  1  0.22020159  0.29031734  0.92997142  1
  O  O3  1  0.21049080  0.64037505  0.82002858  1
  O  O4  1  0.71901920  0.78916116  0.99025844  1
  O  O5  1  0.34761054  0.77746859  0.75974156  1
  O  O6  1  0.26061222  0.18854255  0.84528484  1
  O  O7  1  0.21083884  0.28098080  0.75974156  1
  O  O8  1  0.18497262  0.61842913  0.65242110  1
  O  O9  1  0.81145745  0.73938778  0.90471516  1
  O  O10  1  0.70968266  0.77979841  0.82002858  1
  O  O11  1  0.61683152  0.18890119  0.90471516  1
  O  O12  1  0.36410957  0.79650321  0.59197589  1
  O  O13  1  0.24712953  0.18393351  0.67330677  1
  O  O14  1  0.18774779  0.25535414  0.59197589  1
  O  O15  1  0.19152154  0.62391699  0.48764676  1
  O  O16  1  0.81109881  0.38316848  0.84528484  1
  O  O17  1  0.79910218  0.72269868  0.73306132  1
  O  O18  1  0.72955198  0.79609548  0.65242110  1
  O  O19  1  0.59926575  0.17566925  0.73306132  1
  O  O20  1  0.37064833  0.80324409  0.42725006  1
  O  O21  1  0.25666327  0.18928915  0.50947864  1
  O  O22  1  0.19285005  0.26025428  0.42725006  1
  O  O23  1  0.19675591  0.62935167  0.32274994  1
  O  O24  1  0.79270910  0.35590512  0.67330677  1
  O  O25  1  0.79805373  0.73034676  0.56974655  1
  O  O26  1  0.73435899  0.80196355  0.48764676  1
  O  O27  1  0.62042760  0.18813456  0.56974655  1
  O  O28  1  0.37608301  0.80847846  0.26235324  1
  O  O29  1  0.26295274  0.19546964  0.34481994  1
  O  O30  1  0.19803645  0.26564101  0.26235324  1
  O  O31  1  0.20349679  0.63589043  0.15802411  1
  O  O32  1  0.80020857  0.36758269  0.50947864  1
  O  O33  1  0.80453036  0.73704726  0.40518006  1
  O  O34  1  0.73974572  0.80714995  0.32274994  1
  O  O35  1  0.62654801  0.19403111  0.40518006  1
  O  O36  1  0.38157087  0.81502738  0.09757890  1
  O  O37  1  0.26965324  0.20194627  0.18025345  1
  O  O38  1  0.20390452  0.27044802  0.09757890  1
  O  O39  1  0.80596889  0.37345199  0.34481994  1
  O  O40  1  0.81071085  0.74333673  0.24052136  1
  O  O41  1  0.74464586  0.81225221  0.15802411  1
  O  O42  1  0.63241731  0.19979143  0.24052136  1
  O  O43  1  0.27730132  0.20089782  0.01693868  1
  O  O44  1  0.81186544  0.37957240  0.18025345  1
  O  O45  1  0.81606649  0.75287047  0.07669323  1
  O  O46  1  0.64409488  0.20729090  0.07669323  1
  O  O47  1  0.82433075  0.40073425  0.01693868  1
  P  P48  1  0.38021850  0.63021850  0.96007250  1
  P  P49  1  0.36978150  0.61978150  0.78992750  1
  Si  Si50  1  0.62500000  0.37500000  0.87500000  1
  Si  Si51  1  0.36678676  0.61678676  0.62226225  1
  Si  Si52  1  0.61039491  0.36039491  0.70346464  1
  Si  Si53  1  0.37231664  0.62231664  0.45743855  1
  Si  Si54  1  0.61856380  0.36856380  0.53952160  1
  Si  Si55  1  0.37768336  0.62768336  0.29256145  1
  Si  Si56  1  0.62500000  0.37500000  0.37500000  1
  Si  Si57  1  0.38321324  0.63321324  0.12773775  1
  Si  Si58  1  0.63143620  0.38143620  0.21047840  1
  Si  Si59  1  0.63960509  0.38960509  0.04653536  1
  Y  Y60  1  0.88268081  0.13268081  0.96089327  1
  Y  Y61  1  0.86731919  0.11731919  0.78910673  1
  Zr  Zr62  1  0.12500000  0.87500000  0.87500000  1
  Zr  Zr63  1  0.11067333  0.86067333  0.70355744  1
  Zr  Zr64  1  0.11905754  0.86905754  0.53968618  1
  Zr  Zr65  1  0.12500000  0.87500000  0.37500000  1
  Zr  Zr66  1  0.13094246  0.88094246  0.21031382  1
  Zr  Zr67  1  0.13932667  0.88932667  0.04644256  1
  Zr  Zr68  1  0.86480319  0.11480319  0.62160106  1
  Zr  Zr69  1  0.87198254  0.12198254  0.45732718  1
  Zr  Zr70  1  0.87801746  0.12801746  0.29267282  1
  Zr  Zr71  1  0.88519681  0.13519681  0.12839894  1
