# generated using pymatgen
data_Li15Nb16O48
_symmetry_space_group_name_H-M   'P 1'
_cell_length_a   11.19351453
_cell_length_b   11.19351482
_cell_length_c   11.19351440
_cell_angle_alpha   55.70736597
_cell_angle_beta   55.70736495
_cell_angle_gamma   55.70736570
_symmetry_Int_Tables_number   1
_chemical_formula_structural   Li15Nb16O48
_chemical_formula_sum   'Li15 Nb16 O48'
_cell_volume   892.95747203
_cell_formula_units_Z   1
loop_
 _symmetry_equiv_pos_site_id
 _symmetry_equiv_pos_as_xyz
  1  'x, y, z'
loop_
 _atom_site_type_symbol
 _atom_site_label
 _atom_site_symmetry_multiplicity
 _atom_site_fract_x
 _atom_site_fract_y
 _atom_site_fract_z
 _atom_site_occupancy
  Li  Li0  1  0.14070817  0.14043483  0.63983284  1
  Li  Li1  1  0.14043483  0.63983284  0.14070817  1
  Li  Li2  1  0.63983284  0.14070817  0.14043483  1
  Li  Li3  1  0.39049528  0.39049528  0.39049528  1
  Li  Li4  1  0.13928782  0.64142171  0.64099960  1
  Li  Li5  1  0.64142171  0.64099960  0.13928782  1
  Li  Li6  1  0.64099960  0.13928782  0.64142171  1
  Li  Li7  1  0.39100114  0.88923163  0.39233445  1
  Li  Li8  1  0.39233445  0.39100114  0.88923163  1
  Li  Li9  1  0.88923163  0.39233445  0.39100114  1
  Li  Li10  1  0.64029399  0.64029399  0.64029399  1
  Li  Li11  1  0.39076563  0.89088537  0.88995444  1
  Li  Li12  1  0.89088537  0.88995444  0.39076563  1
  Li  Li13  1  0.88995444  0.39076563  0.89088537  1
  Li  Li14  1  0.88956409  0.88956409  0.88956409  1
  Nb  Nb15  1  -0.00001410  -0.00001410  -0.00001410  1
  Nb  Nb16  1  0.00190591  0.00318593  0.49443238  1
  Nb  Nb17  1  0.00318593  0.49443238  0.00190591  1
  Nb  Nb18  1  0.49443238  0.00190591  0.00318593  1
  Nb  Nb19  1  0.24914659  0.24914659  0.24914659  1
  Nb  Nb20  1  0.49902472  0.00025977  0.49925216  1
  Nb  Nb21  1  0.49925216  0.49902472  0.00025977  1
  Nb  Nb22  1  0.24960138  0.24900233  0.75011393  1
  Nb  Nb23  1  0.24900233  0.75011393  0.24960138  1
  Nb  Nb24  1  0.75011393  0.24960138  0.24900233  1
  Nb  Nb25  1  0.49944972  0.49944972  0.49944972  1
  Nb  Nb26  1  0.24812589  0.74996959  0.74996238  1
  Nb  Nb27  1  0.74996238  0.24812589  0.74996959  1
  Nb  Nb28  1  0.74996959  0.74996238  0.24812589  1
  Nb  Nb29  1  0.00025977  0.49925216  0.49902472  1
  Nb  Nb30  1  0.74973425  0.74973425  0.74973425  1
  O  O31  1  0.05313313  0.18278203  0.36570064  1
  O  O32  1  0.18278203  0.36570064  0.05313313  1
  O  O33  1  0.36570064  0.05313313  0.18278203  1
  O  O34  1  0.11020923  0.42903438  0.30527517  1
  O  O35  1  0.30527517  0.11020923  0.42903438  1
  O  O36  1  0.05464718  0.67859222  0.35858027  1
  O  O37  1  0.05473806  0.17948920  0.85953550  1
  O  O38  1  0.42903438  0.30527517  0.11020923  1
  O  O39  1  0.17946295  0.35975980  0.55412981  1
  O  O40  1  0.17948920  0.85953550  0.05473806  1
  O  O41  1  0.35858027  0.05464718  0.67859222  1
  O  O42  1  0.35975980  0.55412980  0.17946295  1
  O  O43  1  0.11037444  0.42830646  0.80581699  1
  O  O44  1  0.10538773  0.91939525  0.31642462  1
  O  O45  1  0.55412980  0.17946295  0.35975980  1
  O  O46  1  0.30565365  0.60854328  0.42874019  1
  O  O47  1  0.31642462  0.10538773  0.91939525  1
  O  O48  1  0.67859222  0.35858027  0.05464718  1
  O  O49  1  0.05471973  0.67813900  0.85941919  1
  O  O50  1  0.42830646  0.80581699  0.11037444  1
  O  O51  1  0.42874019  0.30565365  0.60854328  1
  O  O52  1  0.17899212  0.86054215  0.55433638  1
  O  O53  1  0.85953550  0.05473806  0.17948920  1
  O  O54  1  0.60854328  0.42874019  0.30565365  1
  O  O55  1  0.35970575  0.55464722  0.67892138  1
  O  O56  1  0.10935613  0.92934086  0.80515584  1
  O  O57  1  0.80581699  0.11037444  0.42830646  1
  O  O58  1  0.55433638  0.17899212  0.86054215  1
  O  O59  1  0.55464722  0.67892138  0.35970575  1
  O  O60  1  0.91939525  0.31642462  0.10538773  1
  O  O61  1  0.30484531  0.61036982  0.92858379  1
  O  O62  1  0.67892138  0.35970575  0.55464722  1
  O  O63  1  0.67813900  0.85941919  0.05471973  1
  O  O64  1  0.42816092  0.80475083  0.60956197  1
  O  O65  1  0.85941919  0.05471973  0.67813900  1
  O  O66  1  0.86054215  0.55433638  0.17899212  1
  O  O67  1  0.60956197  0.42816092  0.80475083  1
  O  O68  1  0.61036982  0.92858379  0.30484531  1
  O  O69  1  0.80475083  0.60956197  0.42816092  1
  O  O70  1  0.80515584  0.10935613  0.92934086  1
  O  O71  1  0.55421629  0.67891615  0.85965818  1
  O  O72  1  0.92934086  0.80515584  0.10935613  1
  O  O73  1  0.92858379  0.30484531  0.61036982  1
  O  O74  1  0.67891615  0.85965818  0.55421629  1
  O  O75  1  0.85965818  0.55421629  0.67891615  1
  O  O76  1  0.61187378  0.92873930  0.80402194  1
  O  O77  1  0.80402194  0.61187378  0.92873930  1
  O  O78  1  0.92873930  0.80402194  0.61187378  1
