# generated using pymatgen
data_CaFe5O7
_symmetry_space_group_name_H-M   'P 1'
_cell_length_a   3.06018560
_cell_length_b   5.37005798
_cell_length_c   18.09213733
_cell_angle_alpha   90.00000000
_cell_angle_beta   90.00000000
_cell_angle_gamma   106.55468867
_symmetry_Int_Tables_number   1
_chemical_formula_structural   CaFe5O7
_chemical_formula_sum   'Ca2 Fe10 O14'
_cell_volume   284.99062651
_cell_formula_units_Z   2
loop_
 _symmetry_equiv_pos_site_id
 _symmetry_equiv_pos_as_xyz
  1  'x, y, z'
loop_
 _atom_site_type_symbol
 _atom_site_label
 _atom_site_symmetry_multiplicity
 _atom_site_fract_x
 _atom_site_fract_y
 _atom_site_fract_z
 _atom_site_occupancy
  O  O0  1  0.63494766  0.26989532  0.96618800  1
  O  O1  1  0.36505334  0.73010568  0.03381200  1
  O  O2  1  0.36505334  0.73010568  0.46618800  1
  O  O3  1  0.63494766  0.26989532  0.53381200  1
  O  O4  1  0.17200240  0.34400580  0.83013533  1
  O  O5  1  0.82799760  0.65599420  0.16986467  1
  O  O6  1  0.82799760  0.65599420  0.33013633  1
  O  O7  1  0.17200240  0.34400580  0.66986467  1
  O  O8  1  0.92107293  0.84214485  0.88692649  1
  O  O9  1  0.07892707  0.15785515  0.11307351  1
  O  O10  1  0.07892707  0.15785515  0.38692649  1
  O  O11  1  0.92107293  0.84214485  0.61307351  1
  O  O12  1  0.46179097  0.92358295  0.75000000  1
  O  O13  1  0.53821003  0.07641905  0.25000000  1
  Ca  Ca14  1  0.79424780  0.58849360  0.75000000  1
  Ca  Ca15  1  0.20575320  0.41150540  0.25000000  1
  Fe  Fe16  1  0.27600256  0.55200412  0.57341662  1
  Fe  Fe17  1  0.45975958  0.91951915  0.15127845  1
  Fe  Fe18  1  0.00000000  0.00000000  0.50000000  1
  Fe  Fe19  1  0.00000000  0.00000000  0.00000000  1
  Fe  Fe20  1  0.54024042  0.08047985  0.84872255  1
  Fe  Fe21  1  0.72399744  0.44799488  0.42658338  1
  Fe  Fe22  1  0.72399744  0.44799488  0.07341662  1
  Fe  Fe23  1  0.27600256  0.55200412  0.92658338  1
  Fe  Fe24  1  0.54024042  0.08047985  0.65127745  1
  Fe  Fe25  1  0.45975958  0.91951915  0.34872255  1
