# generated using pymatgen
data_Ti2Co3Te3O16
_symmetry_space_group_name_H-M   'P 1'
_cell_length_a   6.17367758
_cell_length_b   6.07638410
_cell_length_c   9.30657224
_cell_angle_alpha   90.00206735
_cell_angle_beta   91.56011390
_cell_angle_gamma   119.47972542
_symmetry_Int_Tables_number   1
_chemical_formula_structural   Ti2Co3Te3O16
_chemical_formula_sum   'Ti2 Co3 Te3 O16'
_cell_volume   303.77345833
_cell_formula_units_Z   1
loop_
 _symmetry_equiv_pos_site_id
 _symmetry_equiv_pos_as_xyz
  1  'x, y, z'
loop_
 _atom_site_type_symbol
 _atom_site_label
 _atom_site_symmetry_multiplicity
 _atom_site_fract_x
 _atom_site_fract_y
 _atom_site_fract_z
 _atom_site_occupancy
  Ti  Ti0  1  0.35721231  0.67859239  0.51229406  1
  Ti  Ti1  1  0.71894449  0.35947517  0.96180530  1
  Co  Co2  1  0.65302100  0.82653384  0.20898673  1
  Co  Co3  1  0.83969570  0.67000515  0.70096408  1
  Co  Co4  1  0.83969303  0.16967843  0.70095668  1
  Te  Te5  1  0.15535532  0.82653747  0.21491182  1
  Te  Te6  1  0.15535404  0.32886213  0.21490064  1
  Te  Te7  1  0.34332683  0.17166292  0.71493882  1
  O  O8  1  0.19758859  0.84590959  0.59876590  1
  O  O9  1  0.02705755  0.51355046  0.33716811  1
  O  O10  1  0.29284428  0.64643812  0.09586313  1
  O  O11  1  0.00825665  0.00416687  0.32478295  1
  O  O12  1  0.02659224  0.01328947  0.80340583  1
  O  O13  1  0.19759350  0.35168132  0.59877721  1
  O  O14  1  0.45146572  0.94673137  0.33288607  1
  O  O15  1  0.45146060  0.50477443  0.33288381  1
  O  O16  1  0.30402102  0.15202465  0.10630199  1
  O  O17  1  0.65593401  0.82795420  0.59020206  1
  O  O18  1  0.51605064  0.46703848  0.84952844  1
  O  O19  1  0.51606121  0.04901910  0.84952281  1
  O  O20  1  0.64269386  0.32135053  0.60474884  1
  O  O21  1  0.84277154  0.66941749  0.10781077  1
  O  O22  1  0.96423615  0.48211953  0.84551497  1
  O  O23  1  0.84277174  0.17338489  0.10779900  1
