# generated using pymatgen
data_Cr(PO3)3
_symmetry_space_group_name_H-M   'P 1'
_cell_length_a   9.53949292
_cell_length_b   10.75991610
_cell_length_c   11.73804758
_cell_angle_alpha   113.58191829
_cell_angle_beta   109.91457160
_cell_angle_gamma   98.24530758
_symmetry_Int_Tables_number   1
_chemical_formula_structural   Cr(PO3)3
_chemical_formula_sum   'Cr6 P18 O54'
_cell_volume   981.98631442
_cell_formula_units_Z   6
loop_
 _symmetry_equiv_pos_site_id
 _symmetry_equiv_pos_as_xyz
  1  'x, y, z'
loop_
 _atom_site_type_symbol
 _atom_site_label
 _atom_site_symmetry_multiplicity
 _atom_site_fract_x
 _atom_site_fract_y
 _atom_site_fract_z
 _atom_site_occupancy
  O  O0  1  0.87428524  0.05675765  0.37508878  1
  O  O1  1  0.99919646  0.68166887  0.62491122  1
  O  O2  1  0.71150149  0.06003093  0.96399108  1
  O  O3  1  0.24751041  0.09603985  0.03600892  1
  O  O4  1  0.44816264  0.09193232  0.77996995  1
  O  O5  1  0.16819269  0.31196237  0.22003005  1
  O  O6  1  0.71281062  0.55658000  0.18730528  1
  O  O7  1  0.02550534  0.36927472  0.81269472  1
  O  O8  1  0.89164722  0.79196163  0.38409207  1
  O  O9  1  0.00755515  0.40786956  0.61590793  1
  O  O10  1  0.41419185  0.16974288  0.54115168  1
  O  O11  1  0.37304017  0.62859120  0.45884832  1
  O  O12  1  0.20291912  0.19909391  0.37572074  1
  O  O13  1  0.32719838  0.82337317  0.62427926  1
  O  O14  1  0.98912032  0.31145376  0.34091775  1
  O  O15  1  0.14820257  0.97053601  0.65908225  1
  O  O16  1  0.76240843  0.42600422  0.42628560  1
  O  O17  1  0.83612284  0.99971862  0.57371440  1
  O  O18  1  0.55113402  0.43569378  0.67790525  1
  O  O19  1  0.37322877  0.75778853  0.32209475  1
  O  O20  1  0.69714827  0.96397373  0.12305099  1
  O  O21  1  0.07409728  0.84092274  0.87694901  1
  O  O22  1  0.31195165  0.99643905  0.28618176  1
  O  O23  1  0.52576988  0.71025728  0.71381824  1
  O  O24  1  0.27462237  0.47353200  0.80033352  1
  O  O25  1  0.97428884  0.67319848  0.19966648  1
  O  O26  1  0.02522333  0.47215949  0.04353704  1
  O  O27  1  0.48168630  0.42862246  0.95646296  1
  O  O28  1  0.52107739  0.31077858  0.10672533  1
  O  O29  1  0.91435206  0.20405324  0.89327467  1
  O  O30  1  0.71128315  0.33231272  0.00204852  1
  O  O31  1  0.20923464  0.33026420  0.99795148  1
  O  O32  1  0.12109770  0.21223166  0.64475569  1
  O  O33  1  0.97634202  0.56747598  0.35524431  1
  O  O34  1  0.63493873  0.75148814  0.47620759  1
  O  O35  1  0.65873115  0.27528055  0.52379241  1
  O  O36  1  0.15073941  0.98664319  0.41962885  1
  O  O37  1  0.23111056  0.56701435  0.58037115  1
  O  O38  1  0.38332828  0.63517124  0.05915142  1
  O  O39  1  0.82417686  0.57601982  0.94084858  1
  O  O40  1  0.34682593  0.88623281  0.04262271  1
  O  O41  1  0.80420322  0.84361009  0.95737729  1
  O  O42  1  0.44428678  0.52433983  0.26656186  1
  O  O43  1  0.67772492  0.25777798  0.73343814  1
  O  O44  1  0.81319372  0.63891013  0.72804888  1
  O  O45  1  0.58514484  0.91086124  0.27195112  1
  O  O46  1  0.31845834  0.93073160  0.85052519  1
  O  O47  1  0.96793314  0.08020640  0.14947481  1
  O  O48  1  0.64393160  0.96907125  0.67433486  1
  O  O49  1  0.46959674  0.29473639  0.32566514  1
  O  O50  1  0.54698952  0.64874905  0.92867913  1
  O  O51  1  0.11831039  0.72006993  0.07132087  1
  O  O52  1  0.86612290  0.86538087  0.70712809  1
  O  O53  1  0.65899481  0.15825278  0.29287191  1
  P  P54  1  0.60773043  0.39718762  0.06300436  1
  P  P55  1  0.04472606  0.33418326  0.93699564  1
  P  P56  1  0.98244568  0.61412255  0.05486446  1
  P  P57  1  0.42758122  0.55925808  0.94513554  1
  P  P58  1  0.78958944  0.98581343  0.03800015  1
  P  P59  1  0.25158928  0.94781328  0.96199985  1
  P  P60  1  0.57980160  0.29364028  0.62881754  1
  P  P61  1  0.45098406  0.66482274  0.37118246  1
  P  P62  1  0.93283700  0.74379268  0.72591065  1
  P  P63  1  0.70692635  0.01788203  0.27408935  1
  P  P64  1  0.36714176  0.67887641  0.60386017  1
  P  P65  1  0.26328159  0.07501623  0.39613983  1
  P  P66  1  0.10290892  0.35700848  0.70782525  1
  P  P67  1  0.89508367  0.64918323  0.29217475  1
  P  P68  1  0.08166786  0.23689335  0.27224982  1
  P  P69  1  0.30941804  0.96464353  0.72775018  1
  P  P70  1  0.63662715  0.29818709  0.39212648  1
  P  P71  1  0.74450067  0.90606061  0.60787352  1
  Cr  Cr72  1  0.67567724  0.64050766  0.82408831  1
  Cr  Cr73  1  0.35158893  0.81641935  0.17591169  1
  Cr  Cr74  1  0.34256796  0.31059415  0.15978921  1
  Cr  Cr75  1  0.68277875  0.15080493  0.84021079  1
  Cr  Cr76  1  0.99560384  0.49305877  0.49043175  1
  Cr  Cr77  1  0.00517208  0.00262702  0.50956825  1
