# generated using pymatgen
data_Ba3SrTa2O9
_symmetry_space_group_name_H-M   'P 1'
_cell_length_a   6.09539087
_cell_length_b   6.09539050
_cell_length_c   15.99008741
_cell_angle_alpha   90.00000000
_cell_angle_beta   90.00000000
_cell_angle_gamma   120.00000206
_symmetry_Int_Tables_number   1
_chemical_formula_structural   Ba3SrTa2O9
_chemical_formula_sum   'Ba6 Sr2 Ta4 O18'
_cell_volume   514.49902323
_cell_formula_units_Z   2
loop_
 _symmetry_equiv_pos_site_id
 _symmetry_equiv_pos_as_xyz
  1  'x, y, z'
loop_
 _atom_site_type_symbol
 _atom_site_label
 _atom_site_symmetry_multiplicity
 _atom_site_fract_x
 _atom_site_fract_y
 _atom_site_fract_z
 _atom_site_occupancy
  Ba  Ba0  1  0.00000000  0.00000000  0.25000000  1
  Ba  Ba1  1  0.00000000  0.00000000  0.75000000  1
  Ba  Ba2  1  0.33333300  0.66666700  0.87656430  1
  Ba  Ba3  1  0.66666700  0.33333300  0.37656430  1
  Ba  Ba4  1  0.66666700  0.33333300  0.12343570  1
  Ba  Ba5  1  0.33333300  0.66666700  0.62343570  1
  Sr  Sr6  1  0.00000000  0.00000000  0.00000000  1
  Sr  Sr7  1  0.00000000  0.00000000  0.50000000  1
  Ta  Ta8  1  0.33333300  0.66666700  0.15634130  1
  Ta  Ta9  1  0.66666700  0.33333300  0.65634130  1
  Ta  Ta10  1  0.66666700  0.33333300  0.84365870  1
  Ta  Ta11  1  0.33333300  0.66666700  0.34365870  1
  O  O12  1  0.48200870  0.96401741  0.25000000  1
  O  O13  1  0.51799130  0.48200870  0.75000000  1
  O  O14  1  0.96401741  0.48200870  0.75000000  1
  O  O15  1  0.03598259  0.51799130  0.25000000  1
  O  O16  1  0.48200870  0.51799130  0.25000000  1
  O  O17  1  0.51799130  0.03598259  0.75000000  1
  O  O18  1  0.17355165  0.34710331  0.39850902  1
  O  O19  1  0.82644835  0.17355165  0.89850902  1
  O  O20  1  0.34710331  0.17355165  0.89850902  1
  O  O21  1  0.65289669  0.82644835  0.39850902  1
  O  O22  1  0.17355165  0.82644835  0.39850902  1
  O  O23  1  0.82644835  0.65289669  0.60149098  1
  O  O24  1  0.82644835  0.17355165  0.60149098  1
  O  O25  1  0.82644835  0.65289669  0.89850902  1
  O  O26  1  0.34710331  0.17355165  0.60149098  1
  O  O27  1  0.65289669  0.82644835  0.10149098  1
  O  O28  1  0.17355165  0.34710331  0.10149098  1
  O  O29  1  0.17355165  0.82644835  0.10149098  1
