# generated using pymatgen
data_Fe6O11F
_symmetry_space_group_name_H-M   'P 1'
_cell_length_a   4.63381794
_cell_length_b   7.55472779
_cell_length_c   5.50847965
_cell_angle_alpha   95.08909357
_cell_angle_beta   91.21616123
_cell_angle_gamma   89.07644099
_symmetry_Int_Tables_number   1
_chemical_formula_structural   Fe6O11F
_chemical_formula_sum   'Fe6 O11 F1'
_cell_volume   192.01357321
_cell_formula_units_Z   1
loop_
 _symmetry_equiv_pos_site_id
 _symmetry_equiv_pos_as_xyz
  1  'x, y, z'
loop_
 _atom_site_type_symbol
 _atom_site_label
 _atom_site_symmetry_multiplicity
 _atom_site_fract_x
 _atom_site_fract_y
 _atom_site_fract_z
 _atom_site_occupancy
  Fe  Fe0  1  0.51756497  0.67275498  0.15709134  1
  Fe  Fe1  1  0.49751359  0.99792981  0.50164248  1
  Fe  Fe2  1  0.49899530  0.33442684  0.83200951  1
  Fe  Fe3  1  0.99378863  0.66851386  0.67612061  1
  Fe  Fe4  1  0.98634160  0.32398680  0.33433756  1
  Fe  Fe5  1  0.00363997  0.00090596  -0.00036877  1
  O  O6  1  0.81157609  0.43725596  0.62220032  1
  O  O7  1  0.81494124  0.77941585  0.96956795  1
  O  O8  1  0.80369719  0.09404503  0.28877849  1
  O  O9  1  0.69223756  0.10417910  0.79172265  1
  O  O10  1  0.68892470  0.76721823  0.46595604  1
  O  O11  1  0.69219219  0.43709670  0.12611532  1
  O  O12  1  0.31061429  0.56461463  0.86957151  1
  O  O13  1  0.30593863  0.23105535  0.53696120  1
  O  O14  1  0.30775843  0.89553576  0.21131786  1
  O  O15  1  0.18526657  0.22638517  0.03980336  1
  O  O16  1  0.19194692  0.89996776  0.71315206  1
  F  F17  1  0.19706113  0.56471021  0.36402149  1
