# generated using pymatgen
data_Li2CoP2O7
_symmetry_space_group_name_H-M   'P 1'
_cell_length_a   5.17229911
_cell_length_b   7.21973049
_cell_length_c   8.21003209
_cell_angle_alpha   66.02722420
_cell_angle_beta   93.76699511
_cell_angle_gamma   97.96794878
_symmetry_Int_Tables_number   1
_chemical_formula_structural   Li2CoP2O7
_chemical_formula_sum   'Li4 Co2 P4 O14'
_cell_volume   277.41821950
_cell_formula_units_Z   2
loop_
 _symmetry_equiv_pos_site_id
 _symmetry_equiv_pos_as_xyz
  1  'x, y, z'
loop_
 _atom_site_type_symbol
 _atom_site_label
 _atom_site_symmetry_multiplicity
 _atom_site_fract_x
 _atom_site_fract_y
 _atom_site_fract_z
 _atom_site_occupancy
  Li  Li0  1  0.28882100  0.82417614  0.56431270  1
  Li  Li1  1  0.71117760  0.17582808  0.43568253  1
  Li  Li2  1  0.70347473  0.13438685  0.00518886  1
  Li  Li3  1  0.29652298  0.86560961  0.99481006  1
  O  O4  1  0.17196857  0.66683789  0.22251955  1
  O  O5  1  0.94094071  0.04237604  0.20437955  1
  O  O6  1  0.05905247  0.95763003  0.79561140  1
  O  O7  1  0.10687508  0.30413376  0.46481805  1
  O  O8  1  0.43336238  0.53389346  0.65875759  1
  O  O9  1  0.21943424  0.37441607  0.14584697  1
  O  O10  1  0.82803709  0.33315800  0.77749336  1
  O  O11  1  0.40969310  0.04022134  0.32855092  1
  O  O12  1  0.89313406  0.69585637  0.53518525  1
  O  O13  1  0.56664993  0.46609255  0.34125754  1
  O  O14  1  0.59031059  0.95977716  0.67143980  1
  O  O15  1  0.67050019  0.84677173  0.00435109  1
  O  O16  1  0.78056707  0.62557981  0.85415738  1
  O  O17  1  0.32949599  0.15324013  0.99564222  1
  P  P18  1  0.27021128  0.45598670  0.30510378  1
  P  P19  1  0.72978461  0.54399811  0.69491400  1
  P  P20  1  0.22738565  0.13869840  0.17453239  1
  P  P21  1  0.77262104  0.86131380  0.82545489  1
  Co  Co22  1  0.81514574  0.73197669  0.27398413  1
  Co  Co23  1  0.18483392  0.26803926  0.72600699  1
