# generated using pymatgen
data_CsNb(PO4)2
_symmetry_space_group_name_H-M   'P 1'
_cell_length_a   4.99503325
_cell_length_b   9.04871502
_cell_length_c   18.81594628
_cell_angle_alpha   90.00000000
_cell_angle_beta   95.42563728
_cell_angle_gamma   90.00000000
_symmetry_Int_Tables_number   1
_chemical_formula_structural   CsNb(PO4)2
_chemical_formula_sum   'Cs4 Nb4 P8 O32'
_cell_volume   846.64479295
_cell_formula_units_Z   4
loop_
 _symmetry_equiv_pos_site_id
 _symmetry_equiv_pos_as_xyz
  1  'x, y, z'
loop_
 _atom_site_type_symbol
 _atom_site_label
 _atom_site_symmetry_multiplicity
 _atom_site_fract_x
 _atom_site_fract_y
 _atom_site_fract_z
 _atom_site_occupancy
  Cs  Cs0  1  0.22488095  0.28955066  0.06057683  1
  Cs  Cs1  1  0.27511905  0.78955066  0.43942317  1
  Cs  Cs2  1  0.77511905  0.71044934  0.93942317  1
  Cs  Cs3  1  0.72488095  0.21044934  0.56057683  1
  Nb  Nb4  1  0.82909515  0.94277475  0.16797468  1
  Nb  Nb5  1  0.67090485  0.44277475  0.33202532  1
  Nb  Nb6  1  0.17090485  0.05722525  0.83202532  1
  Nb  Nb7  1  0.32909515  0.55722525  0.66797468  1
  P  P8  1  0.29843843  0.71538109  0.10731643  1
  P  P9  1  0.20156157  0.21538109  0.39268357  1
  P  P10  1  0.70156157  0.28461891  0.89268357  1
  P  P11  1  0.79843843  0.78461891  0.60731643  1
  P  P12  1  0.11538993  0.61924199  0.24249325  1
  P  P13  1  0.38461007  0.11924199  0.25750675  1
  P  P14  1  0.88461007  0.38075801  0.75750675  1
  P  P15  1  0.61538993  0.88075801  0.74249325  1
  O  O16  1  0.69389782  0.06682836  0.10224804  1
  O  O17  1  0.80610218  0.56682836  0.39775196  1
  O  O18  1  0.30610218  0.93317164  0.89775196  1
  O  O19  1  0.19389782  0.43317164  0.60224804  1
  O  O20  1  0.56754093  0.77304534  0.14462494  1
  O  O21  1  0.93245907  0.27304534  0.35537506  1
  O  O22  1  0.43245907  0.22695466  0.85537506  1
  O  O23  1  0.06754093  0.72695466  0.64462494  1
  O  O24  1  0.08698462  0.84177253  0.10390828  1
  O  O25  1  0.41301538  0.34177253  0.39609172  1
  O  O26  1  0.91301538  0.15822747  0.89609172  1
  O  O27  1  0.58698462  0.65822747  0.60390828  1
  O  O28  1  0.31658677  0.63817258  0.03800915  1
  O  O29  1  0.18341323  0.13817258  0.46199085  1
  O  O30  1  0.68341323  0.36182742  0.96199085  1
  O  O31  1  0.81658677  0.86182742  0.53800915  1
  O  O32  1  0.19552331  0.59121893  0.16226736  1
  O  O33  1  0.30447669  0.09121893  0.33773264  1
  O  O34  1  0.80447669  0.40878107  0.83773264  1
  O  O35  1  0.69552331  0.90878107  0.66226736  1
  O  O36  1  0.03006400  0.77827724  0.24978823  1
  O  O37  1  0.46993600  0.27827724  0.25021177  1
  O  O38  1  0.96993600  0.22172276  0.75021177  1
  O  O39  1  0.53006400  0.72172276  0.74978823  1
  O  O40  1  0.60954508  0.00485659  0.24955258  1
  O  O41  1  0.89045492  0.50485659  0.25044742  1
  O  O42  1  0.39045492  0.99514341  0.75044742  1
  O  O43  1  0.10954508  0.49514341  0.74955258  1
  O  O44  1  0.13549710  0.08191907  0.20598876  1
  O  O45  1  0.36450290  0.58191907  0.29401124  1
  O  O46  1  0.86450290  0.91808093  0.79401124  1
  O  O47  1  0.63549710  0.41808093  0.70598876  1
