# generated using pymatgen
data_MnH10SeO9
_symmetry_space_group_name_H-M   'P 1'
_cell_length_a   6.33169175
_cell_length_b   6.44999859
_cell_length_c   11.12542718
_cell_angle_alpha   75.39199315
_cell_angle_beta   81.64081022
_cell_angle_gamma   70.45233514
_symmetry_Int_Tables_number   1
_chemical_formula_structural   MnH10SeO9
_chemical_formula_sum   'Mn2 H20 Se2 O18'
_cell_volume   413.39949099
_cell_formula_units_Z   2
loop_
 _symmetry_equiv_pos_site_id
 _symmetry_equiv_pos_as_xyz
  1  'x, y, z'
loop_
 _atom_site_type_symbol
 _atom_site_label
 _atom_site_symmetry_multiplicity
 _atom_site_fract_x
 _atom_site_fract_y
 _atom_site_fract_z
 _atom_site_occupancy
  Mn  Mn0  1  0.00000000  0.00000000  0.00000000  1
  Mn  Mn1  1  0.00000000  0.50000000  0.50000000  1
  Se  Se2  1  0.35153579  0.01767299  0.71219635  1
  Se  Se3  1  0.64846421  0.98232701  0.28780365  1
  O  O4  1  0.28392690  0.89944844  0.85934449  1
  O  O5  1  0.71607310  0.10055156  0.14065551  1
  O  O6  1  0.17101459  0.28024513  0.67544980  1
  O  O7  1  0.82898541  0.71975487  0.32455020  1
  O  O8  1  0.34627470  0.85651317  0.61708446  1
  O  O9  1  0.65372530  0.14348683  0.38291554  1
  O  O10  1  0.61066585  0.04005796  0.70566893  1
  O  O11  1  0.38933415  0.95994204  0.29433107  1
  O  O12  1  0.83294061  0.81695584  0.92812792  1
  O  O13  1  0.16705939  0.18304416  0.07187208  1
  O  O14  1  0.81455037  0.31583663  0.87767994  1
  O  O15  1  0.18544963  0.68416337  0.12232006  1
  O  O16  1  0.68522689  0.46241300  0.60019651  1
  O  O17  1  0.31477311  0.53758700  0.39980349  1
  O  O18  1  0.96759905  0.76729432  0.58994038  1
  O  O19  1  0.03240095  0.23270568  0.41005962  1
  O  O20  1  0.35012920  0.44240893  0.87535292  1
  O  O21  1  0.64987080  0.55759107  0.12464708  1
  H  H22  1  0.73740509  0.89418102  0.85726077  1
  H  H23  1  0.26259491  0.10581898  0.14273923  1
  H  H24  1  0.75978784  0.71573018  0.98876314  1
  H  H25  1  0.24021216  0.28426982  0.01123686  1
  H  H26  1  0.88326970  0.34687754  0.79294036  1
  H  H27  1  0.11673030  0.65312246  0.20705964  1
  H  H28  1  0.65008895  0.35518199  0.87092899  1
  H  H29  1  0.34991105  0.64481801  0.12907101  1
  H  H30  1  0.55368839  0.59580335  0.60959398  1
  H  H31  1  0.44631161  0.40419665  0.39040602  1
  H  H32  1  0.64048840  0.32418813  0.62978848  1
  H  H33  1  0.35951160  0.67581187  0.37021152  1
  H  H34  1  0.09717635  0.81354931  0.60070679  1
  H  H35  1  0.90282365  0.18645069  0.39929321  1
  H  H36  1  0.82946186  0.86824300  0.62445851  1
  H  H37  1  0.17053814  0.13175700  0.37554149  1
  H  H38  1  0.30261264  0.60601035  0.87436577  1
  H  H39  1  0.69738736  0.39398965  0.12563423  1
  H  H40  1  0.27957389  0.43083414  0.80544342  1
  H  H41  1  0.72042611  0.56916586  0.19455658  1
