# generated using pymatgen
data_Sr2LaGaCu2O7
_symmetry_space_group_name_H-M   'P 1'
_cell_length_a   5.49388042
_cell_length_b   5.62792911
_cell_length_c   12.30570703
_cell_angle_alpha   103.22088416
_cell_angle_beta   102.89894367
_cell_angle_gamma   89.99745225
_symmetry_Int_Tables_number   1
_chemical_formula_structural   Sr2LaGaCu2O7
_chemical_formula_sum   'Sr4 La2 Ga2 Cu4 O14'
_cell_volume   360.52888681
_cell_formula_units_Z   2
loop_
 _symmetry_equiv_pos_site_id
 _symmetry_equiv_pos_as_xyz
  1  'x, y, z'
loop_
 _atom_site_type_symbol
 _atom_site_label
 _atom_site_symmetry_multiplicity
 _atom_site_fract_x
 _atom_site_fract_y
 _atom_site_fract_z
 _atom_site_occupancy
  La  La0  1  0.50207408  0.50003930  1.00004907  1
  La  La1  1  0.00207486  0.99997010  1.00002291  1
  Sr  Sr2  1  0.34603700  0.36679365  0.69307847  1
  Sr  Sr3  1  0.65298431  0.63316902  0.30685458  1
  Sr  Sr4  1  0.84608329  0.82624125  0.69305397  1
  Sr  Sr5  1  0.15293694  0.17358810  0.30684239  1
  Cu  Cu6  1  0.92555463  0.42133037  0.84553081  1
  Cu  Cu7  1  0.08040980  0.57894791  0.15501666  1
  Cu  Cu8  1  0.42540898  0.92410114  0.84528180  1
  Cu  Cu9  1  0.58018227  0.07594744  0.15464830  1
  Ga  Ga10  1  0.72057186  0.17970056  0.49990619  1
  Ga  Ga11  1  0.22058226  0.82026278  0.49996593  1
  O  O12  1  0.87469401  0.87454267  0.49990732  1
  O  O13  1  0.37470464  0.12530983  0.49993139  1
  O  O14  1  0.18226662  0.17946016  0.85993368  1
  O  O15  1  0.32246357  0.82067952  0.14015045  1
  O  O16  1  0.68246394  0.18065629  0.85990766  1
  O  O17  1  0.82255207  0.81945922  0.14013487  1
  O  O18  1  0.68501847  0.68124690  0.86619317  1
  O  O19  1  0.81886474  0.31863867  0.13383574  1
  O  O20  1  0.18481350  0.68460356  0.86619225  1
  O  O21  1  0.31878655  0.31530004  0.13384881  1
  O  O22  1  0.35797423  0.77049293  0.64377974  1
  O  O23  1  0.71424916  0.22953411  0.35613885  1
  O  O24  1  0.85802448  0.37332253  0.64366126  1
  O  O25  1  0.21422376  0.62666193  0.35613374  1
