# generated using pymatgen
data_MnV2O6
_symmetry_space_group_name_H-M   'P 1'
_cell_length_a   3.56054927
_cell_length_b   5.09758342
_cell_length_c   6.93645976
_cell_angle_alpha   109.41489524
_cell_angle_beta   90.00031665
_cell_angle_gamma   110.44023515
_symmetry_Int_Tables_number   1
_chemical_formula_structural   MnV2O6
_chemical_formula_sum   'Mn1 V2 O6'
_cell_volume   110.29874806
_cell_formula_units_Z   1
loop_
 _symmetry_equiv_pos_site_id
 _symmetry_equiv_pos_as_xyz
  1  'x, y, z'
loop_
 _atom_site_type_symbol
 _atom_site_label
 _atom_site_symmetry_multiplicity
 _atom_site_fract_x
 _atom_site_fract_y
 _atom_site_fract_z
 _atom_site_occupancy
  Mn  Mn0  1  0.00000000  0.00000000  0.00000000  1
  V  V1  1  0.80178306  0.60360829  0.34385954  1
  V  V2  1  0.19821694  0.39639171  0.65614046  1
  O  O3  1  0.65166777  0.30331616  0.11735858  1
  O  O4  1  0.34833223  0.69668384  0.88264142  1
  O  O5  1  0.95620385  0.91233723  0.27679435  1
  O  O6  1  0.04379615  0.08766277  0.72320565  1
  O  O7  1  0.69792236  0.39583624  0.56800271  1
  O  O8  1  0.30207764  0.60416376  0.43199729  1
