# generated using pymatgen
data_MoPO5
_symmetry_space_group_name_H-M   'P 1'
_cell_length_a   13.05318350
_cell_length_b   6.48247044
_cell_length_c   10.86194568
_cell_angle_alpha   90.00000000
_cell_angle_beta   90.00000000
_cell_angle_gamma   90.00000000
_symmetry_Int_Tables_number   1
_chemical_formula_structural   MoPO5
_chemical_formula_sum   'Mo8 P8 O40'
_cell_volume   919.10391275
_cell_formula_units_Z   8
loop_
 _symmetry_equiv_pos_site_id
 _symmetry_equiv_pos_as_xyz
  1  'x, y, z'
loop_
 _atom_site_type_symbol
 _atom_site_label
 _atom_site_symmetry_multiplicity
 _atom_site_fract_x
 _atom_site_fract_y
 _atom_site_fract_z
 _atom_site_occupancy
  Mo  Mo0  1  0.11843975  0.02546953  0.52513909  1
  Mo  Mo1  1  0.24097498  0.25015831  0.25950064  1
  Mo  Mo2  1  0.25902502  0.75015831  0.75950064  1
  Mo  Mo3  1  0.38156025  0.52546953  0.02513909  1
  Mo  Mo4  1  0.61843975  0.47453047  0.52513909  1
  Mo  Mo5  1  0.74097498  0.24984169  0.25950064  1
  Mo  Mo6  1  0.75902502  0.74984169  0.75950064  1
  Mo  Mo7  1  0.88156025  0.97453047  0.02513909  1
  O  O8  1  0.98815514  0.95109483  0.89141081  1
  O  O9  1  0.01532636  0.00697411  0.66278685  1
  O  O10  1  0.08779616  0.29997989  0.24024033  1
  O  O11  1  0.10999416  0.71409820  0.49112059  1
  O  O12  1  0.10365686  0.71071976  0.77151773  1
  O  O13  1  0.11582814  0.33632257  0.54148177  1
  O  O14  1  0.21751264  0.06579334  0.37967518  1
  O  O15  1  0.23962681  0.06947347  0.10986528  1
  O  O16  1  0.22298783  0.97853629  0.63112793  1
  O  O17  1  0.24288087  0.48477095  0.38573311  1
  O  O18  1  0.25711913  0.98477095  0.88573311  1
  O  O19  1  0.27701217  0.47853629  0.13112793  1
  O  O20  1  0.26037319  0.56947347  0.60986528  1
  O  O21  1  0.28248736  0.56579334  0.87967518  1
  O  O22  1  0.38417186  0.83632257  0.04148177  1
  O  O23  1  0.39634314  0.21071976  0.27151773  1
  O  O24  1  0.39000584  0.21409820  0.99112059  1
  O  O25  1  0.41220384  0.79997989  0.74024033  1
  O  O26  1  0.48467364  0.50697411  0.16278685  1
  O  O27  1  0.51184486  0.45109483  0.39141081  1
  O  O28  1  0.48815514  0.54890517  0.89141081  1
  O  O29  1  0.51532636  0.49302589  0.66278685  1
  O  O30  1  0.58779616  0.20002011  0.24024033  1
  O  O31  1  0.60999416  0.78590180  0.49112059  1
  O  O32  1  0.60365686  0.78928024  0.77151773  1
  O  O33  1  0.61582814  0.16367743  0.54148177  1
  O  O34  1  0.71751264  0.43420666  0.37967518  1
  O  O35  1  0.73962681  0.43052653  0.10986528  1
  O  O36  1  0.72298783  0.52146371  0.63112793  1
  O  O37  1  0.74288087  0.01522905  0.38573311  1
  O  O38  1  0.75711913  0.51522905  0.88573311  1
  O  O39  1  0.77701217  0.02146371  0.13112793  1
  O  O40  1  0.76037319  0.93052653  0.60986528  1
  O  O41  1  0.78248736  0.93420666  0.87967518  1
  O  O42  1  0.88417186  0.66367743  0.04148177  1
  O  O43  1  0.89634314  0.28928024  0.27151773  1
  O  O44  1  0.89000584  0.28590180  0.99112059  1
  O  O45  1  0.91220384  0.70002011  0.74024033  1
  O  O46  1  0.98467364  0.99302589  0.16278685  1
  O  O47  1  0.01184486  0.04890517  0.39141081  1
  P  P48  1  0.00535526  0.84170536  0.76569558  1
  P  P49  1  0.18135275  0.52627748  0.50479511  1
  P  P50  1  0.31864725  0.02627748  0.00479511  1
  P  P51  1  0.49464474  0.34170536  0.26569558  1
  P  P52  1  0.50535526  0.65829464  0.76569558  1
  P  P53  1  0.68135275  0.97372252  0.50479511  1
  P  P54  1  0.81864725  0.47372252  0.00479511  1
  P  P55  1  0.99464474  0.15829464  0.26569558  1
