# generated using pymatgen
data_UCo5Si3
_symmetry_space_group_name_H-M   'P 1'
_cell_length_a   14.68438050
_cell_length_b   14.68438029
_cell_length_c   3.68013108
_cell_angle_alpha   90.00000000
_cell_angle_beta   90.00000000
_cell_angle_gamma   120.00000049
_symmetry_Int_Tables_number   1
_chemical_formula_structural   UCo5Si3
_chemical_formula_sum   'U6 Co30 Si18'
_cell_volume   687.23484228
_cell_formula_units_Z   6
loop_
 _symmetry_equiv_pos_site_id
 _symmetry_equiv_pos_as_xyz
  1  'x, y, z'
loop_
 _atom_site_type_symbol
 _atom_site_label
 _atom_site_symmetry_multiplicity
 _atom_site_fract_x
 _atom_site_fract_y
 _atom_site_fract_z
 _atom_site_occupancy
  U  U0  1  0.38891707  0.10073905  0.25000000  1
  U  U1  1  0.28817802  0.38891707  0.75000000  1
  U  U2  1  0.10073905  0.71182198  0.75000000  1
  U  U3  1  0.89926095  0.28817802  0.25000000  1
  U  U4  1  0.71182198  0.61108293  0.25000000  1
  U  U5  1  0.61108293  0.89926095  0.75000000  1
  Co  Co6  1  0.65241613  0.22506324  0.25000000  1
  Co  Co7  1  0.42735289  0.65241613  0.75000000  1
  Co  Co8  1  0.22506324  0.57264711  0.75000000  1
  Co  Co9  1  0.77493676  0.42735289  0.25000000  1
  Co  Co10  1  0.57264711  0.34758387  0.25000000  1
  Co  Co11  1  0.34758387  0.77493676  0.75000000  1
  Co  Co12  1  0.46186502  0.92505244  0.25000000  1
  Co  Co13  1  0.53681258  0.46186502  0.75000000  1
  Co  Co14  1  0.92505244  0.46318742  0.75000000  1
  Co  Co15  1  0.07494756  0.53681258  0.25000000  1
  Co  Co16  1  0.46318742  0.53813498  0.25000000  1
  Co  Co17  1  0.53813498  0.07494756  0.75000000  1
  Co  Co18  1  0.26836460  0.22803773  0.25000000  1
  Co  Co19  1  0.04032687  0.26836460  0.75000000  1
  Co  Co20  1  0.22803773  0.95967313  0.75000000  1
  Co  Co21  1  0.77196227  0.04032687  0.25000000  1
  Co  Co22  1  0.95967313  0.73163540  0.25000000  1
  Co  Co23  1  0.73163540  0.77196227  0.75000000  1
  Co  Co24  1  0.15058213  0.41346546  0.25000000  1
  Co  Co25  1  0.73711667  0.15058213  0.75000000  1
  Co  Co26  1  0.41346546  0.26288333  0.75000000  1
  Co  Co27  1  0.58653454  0.73711667  0.25000000  1
  Co  Co28  1  0.26288333  0.84941787  0.25000000  1
  Co  Co29  1  0.84941787  0.58653454  0.75000000  1
  Co  Co30  1  0.12783248  0.03343294  0.25000000  1
  Co  Co31  1  0.09439954  0.12783248  0.75000000  1
  Co  Co32  1  0.03343294  0.90560046  0.75000000  1
  Co  Co33  1  0.96656706  0.09439954  0.25000000  1
  Co  Co34  1  0.90560046  0.87216752  0.25000000  1
  Co  Co35  1  0.87216752  0.96656706  0.75000000  1
  Si  Si36  1  0.44286121  0.76136580  0.25000000  1
  Si  Si37  1  0.68149541  0.44286121  0.75000000  1
  Si  Si38  1  0.76136580  0.31850459  0.75000000  1
  Si  Si39  1  0.23863420  0.68149541  0.25000000  1
  Si  Si40  1  0.31850459  0.55713879  0.25000000  1
  Si  Si41  1  0.55713879  0.23863420  0.75000000  1
  Si  Si42  1  0.12229247  0.24417622  0.25000000  1
  Si  Si43  1  0.87811625  0.12229247  0.75000000  1
  Si  Si44  1  0.24417622  0.12188375  0.75000000  1
  Si  Si45  1  0.75582378  0.87811625  0.25000000  1
  Si  Si46  1  0.12188375  0.87770753  0.25000000  1
  Si  Si47  1  0.87770753  0.75582378  0.75000000  1
  Si  Si48  1  0.43345854  0.37143756  0.25000000  1
  Si  Si49  1  0.06202098  0.43345854  0.75000000  1
  Si  Si50  1  0.37143756  0.93797902  0.75000000  1
  Si  Si51  1  0.62856244  0.06202098  0.25000000  1
  Si  Si52  1  0.93797902  0.56654146  0.25000000  1
  Si  Si53  1  0.56654146  0.62856244  0.75000000  1
