# generated using pymatgen
data_Ce4Se3O4
_symmetry_space_group_name_H-M   'P 1'
_cell_length_a   3.95099353
_cell_length_b   6.63030828
_cell_length_c   8.60951765
_cell_angle_alpha   90.13590049
_cell_angle_beta   90.00000000
_cell_angle_gamma   107.33448439
_symmetry_Int_Tables_number   1
_chemical_formula_structural   Ce4Se3O4
_chemical_formula_sum   'Ce4 Se3 O4'
_cell_volume   215.29334249
_cell_formula_units_Z   1
loop_
 _symmetry_equiv_pos_site_id
 _symmetry_equiv_pos_as_xyz
  1  'x, y, z'
loop_
 _atom_site_type_symbol
 _atom_site_label
 _atom_site_symmetry_multiplicity
 _atom_site_fract_x
 _atom_site_fract_y
 _atom_site_fract_z
 _atom_site_occupancy
  Se  Se0  1  0.36335626  0.72671252  0.66838677  1
  Se  Se1  1  0.36252506  0.72505012  0.33302939  1
  O  O2  1  0.58726215  0.17452429  -0.00019705  1
  O  O3  1  0.08918357  0.17836714  0.75390510  1
  O  O4  1  0.08860033  0.17720066  0.24556376  1
  Ce  Ce5  1  0.68722225  0.37444451  0.23994658  1
  O  O6  1  0.61667273  0.23334546  0.50003113  1
  Ce  Ce7  1  0.01063644  0.02127287  0.49974933  1
  Ce  Ce8  1  0.99710591  0.99421182  0.99886242  1
  Se  Se9  1  0.30633476  0.61266953  0.00044063  1
  Ce  Ce10  1  0.68767054  0.37534108  0.76028194  1
