# generated using pymatgen
data_Cr2S3
_symmetry_space_group_name_H-M   'P 1'
_cell_length_a   6.02157135
_cell_length_b   6.02157107
_cell_length_c   6.59963937
_cell_angle_alpha   62.85753341
_cell_angle_beta   117.14246665
_cell_angle_gamma   120.00000944
_symmetry_Int_Tables_number   1
_chemical_formula_structural   Cr2S3
_chemical_formula_sum   'Cr4 S6'
_cell_volume   176.15311670
_cell_formula_units_Z   2
loop_
 _symmetry_equiv_pos_site_id
 _symmetry_equiv_pos_as_xyz
  1  'x, y, z'
loop_
 _atom_site_type_symbol
 _atom_site_label
 _atom_site_symmetry_multiplicity
 _atom_site_fract_x
 _atom_site_fract_y
 _atom_site_fract_z
 _atom_site_occupancy
  Cr  Cr0  1  0.32252830  0.67747170  0.96758590  1
  Cr  Cr1  1  0.50014785  0.49985215  0.50044355  1
  Cr  Cr2  1  0.00050171  0.99949829  0.00150512  1
  Cr  Cr3  1  0.67712741  0.32287259  0.03138124  1
  S  S4  1  0.09780823  0.59650823  0.23551558  1
  S  S5  1  0.59680152  0.73501929  0.76417915  1
  S  S6  1  0.40349177  0.26578442  0.23551558  1
  S  S7  1  0.90239792  0.40319848  0.76417915  1
  S  S8  1  0.26498071  0.09760208  0.76417915  1
  S  S9  1  0.73421558  0.90219177  0.23551558  1
