# generated using pymatgen
data_SiO2
_symmetry_space_group_name_H-M   'P 1'
_cell_length_a   7.85677576
_cell_length_b   7.85677627
_cell_length_c   14.86942601
_cell_angle_alpha   105.31896544
_cell_angle_beta   105.31896644
_cell_angle_gamma   89.99999902
_symmetry_Int_Tables_number   1
_chemical_formula_structural   SiO2
_chemical_formula_sum   'Si16 O32'
_cell_volume   851.40141968
_cell_formula_units_Z   16
loop_
 _symmetry_equiv_pos_site_id
 _symmetry_equiv_pos_as_xyz
  1  'x, y, z'
loop_
 _atom_site_type_symbol
 _atom_site_label
 _atom_site_symmetry_multiplicity
 _atom_site_fract_x
 _atom_site_fract_y
 _atom_site_fract_z
 _atom_site_occupancy
  Si  Si0  1  0.55686996  0.01034496  0.61373992  1
  Si  Si1  1  0.48965504  0.94313004  0.88626008  1
  Si  Si2  1  0.51034496  0.05686996  0.11373992  1
  Si  Si3  1  0.44313004  0.39660504  0.38626008  1
  Si  Si4  1  0.06741583  0.81741583  0.25000000  1
  Si  Si5  1  0.93258417  0.56741583  0.75000000  1
  Si  Si6  1  0.89660504  0.94313004  0.88626008  1
  Si  Si7  1  0.68258417  0.43258417  0.25000000  1
  Si  Si8  1  0.06741583  0.43258417  0.25000000  1
  Si  Si9  1  0.44313004  0.98965504  0.38626008  1
  Si  Si10  1  0.93258417  0.18258417  0.75000000  1
  Si  Si11  1  0.68258417  0.81741583  0.25000000  1
  Si  Si12  1  0.55686996  0.60339496  0.61373992  1
  Si  Si13  1  0.31741583  0.18258417  0.75000000  1
  Si  Si14  1  0.31741583  0.56741583  0.75000000  1
  Si  Si15  1  0.10339496  0.05686996  0.11373992  1
  O  O16  1  0.38815992  0.08992987  0.83711479  1
  O  O17  1  0.94895487  0.74718492  0.83711479  1
  O  O18  1  0.05104513  0.91007013  0.16288521  1
  O  O19  1  0.36200770  0.39671725  0.79343449  1
  O  O20  1  0.06857321  0.60328275  0.20656551  1
  O  O21  1  0.05104513  0.25281508  0.16288521  1
  O  O22  1  0.68555527  0.93555527  0.87111053  1
  O  O23  1  0.58992987  0.88815992  0.33711479  1
  O  O24  1  0.43555527  0.18555527  0.37111053  1
  O  O25  1  0.56444473  0.81444473  0.62888947  1
  O  O26  1  0.24718492  0.88815992  0.33711479  1
  O  O27  1  0.61184008  0.91007013  0.16288521  1
  O  O28  1  0.94895487  0.08992987  0.83711479  1
  O  O29  1  0.93142679  0.39671725  0.79343449  1
  O  O30  1  0.41007013  0.11184008  0.66288521  1
  O  O31  1  0.10328275  0.56857321  0.70656551  1
  O  O32  1  0.10328275  0.13799230  0.70656551  1
  O  O33  1  0.41007013  0.55104513  0.66288521  1
  O  O34  1  0.24718492  0.44895487  0.33711479  1
  O  O35  1  0.89671725  0.43142679  0.29343449  1
  O  O36  1  0.50000000  0.00000000  0.00000000  1
  O  O37  1  0.63799230  0.60328275  0.20656551  1
  O  O38  1  0.61184008  0.25281508  0.16288521  1
  O  O39  1  0.38815992  0.74718492  0.83711479  1
  O  O40  1  0.89671725  0.86200770  0.29343449  1
  O  O41  1  0.31444473  0.06444473  0.12888947  1
  O  O42  1  0.58992987  0.44895487  0.33711479  1
  O  O43  1  0.50000000  0.00000000  0.50000000  1
  O  O44  1  0.75281508  0.55104513  0.66288521  1
  O  O45  1  0.00000000  0.00000000  0.00000000  1
  O  O46  1  0.50000000  0.50000000  0.50000000  1
  O  O47  1  0.75281508  0.11184008  0.66288521  1
