# generated using pymatgen
data_BaCuCO3F2
_symmetry_space_group_name_H-M   'P 1'
_cell_length_a   4.97893854
_cell_length_b   8.61408145
_cell_length_c   9.77748805
_cell_angle_alpha   90.00000000
_cell_angle_beta   90.00000000
_cell_angle_gamma   90.00000000
_symmetry_Int_Tables_number   1
_chemical_formula_structural   BaCuCO3F2
_chemical_formula_sum   'Ba4 Cu4 C4 O12 F8'
_cell_volume   419.34651014
_cell_formula_units_Z   4
loop_
 _symmetry_equiv_pos_site_id
 _symmetry_equiv_pos_as_xyz
  1  'x, y, z'
loop_
 _atom_site_type_symbol
 _atom_site_label
 _atom_site_symmetry_multiplicity
 _atom_site_fract_x
 _atom_site_fract_y
 _atom_site_fract_z
 _atom_site_occupancy
  Ba  Ba0  1  0.72654010  0.75000000  0.50000000  1
  Ba  Ba1  1  0.27345990  0.25000000  0.00000000  1
  Ba  Ba2  1  0.27345990  0.25000000  0.50000000  1
  Ba  Ba3  1  0.72654010  0.75000000  0.00000000  1
  Cu  Cu4  1  0.24451864  0.91305865  0.25000000  1
  Cu  Cu5  1  0.75548136  0.41305865  0.25000000  1
  Cu  Cu6  1  0.24451864  0.58694135  0.75000000  1
  Cu  Cu7  1  0.75548136  0.08694135  0.75000000  1
  C  C8  1  0.20762120  0.91650158  0.75000000  1
  C  C9  1  0.20762120  0.58349842  0.25000000  1
  C  C10  1  0.79237880  0.41650158  0.75000000  1
  C  C11  1  0.79237880  0.08349842  0.25000000  1
  O  O12  1  0.37962447  0.80317134  0.75000000  1
  O  O13  1  0.28783577  0.05730573  0.75000000  1
  O  O14  1  0.95026600  0.88440300  0.75000000  1
  O  O15  1  0.37962447  0.69682866  0.25000000  1
  O  O16  1  0.04973400  0.11559700  0.25000000  1
  O  O17  1  0.62037553  0.30317134  0.75000000  1
  O  O18  1  0.04973400  0.38440300  0.75000000  1
  O  O19  1  0.71216423  0.55730573  0.75000000  1
  O  O20  1  0.95026600  0.61559700  0.25000000  1
  O  O21  1  0.28783577  0.44269427  0.25000000  1
  O  O22  1  0.62037553  0.19682866  0.25000000  1
  O  O23  1  0.71216423  0.94269427  0.25000000  1
  F  F24  1  0.24111631  0.91473326  0.44959189  1
  F  F25  1  0.75888369  0.08526674  0.94959189  1
  F  F26  1  0.24111631  0.58526674  0.94959189  1
  F  F27  1  0.24111631  0.58526674  0.55040811  1
  F  F28  1  0.24111631  0.91473326  0.05040811  1
  F  F29  1  0.75888369  0.08526674  0.55040811  1
  F  F30  1  0.75888369  0.41473326  0.05040811  1
  F  F31  1  0.75888369  0.41473326  0.44959189  1
