# generated using pymatgen
data_P3IrO9
_symmetry_space_group_name_H-M   'P 1'
_cell_length_a   9.52493627
_cell_length_b   10.69216116
_cell_length_c   11.78159394
_cell_angle_alpha   113.46229478
_cell_angle_beta   109.98619123
_cell_angle_gamma   97.90870759
_symmetry_Int_Tables_number   1
_chemical_formula_structural   P3IrO9
_chemical_formula_sum   'P18 Ir6 O54'
_cell_volume   980.86571759
_cell_formula_units_Z   6
loop_
 _symmetry_equiv_pos_site_id
 _symmetry_equiv_pos_as_xyz
  1  'x, y, z'
loop_
 _atom_site_type_symbol
 _atom_site_label
 _atom_site_symmetry_multiplicity
 _atom_site_fract_x
 _atom_site_fract_y
 _atom_site_fract_z
 _atom_site_occupancy
  P  P0  1  0.17665810  0.78396151  0.39300958  1
  P  P1  1  0.90942815  0.16316973  0.60631790  1
  P  P2  1  0.61432506  0.72113991  0.27461795  1
  P  P3  1  0.23930545  0.49829572  0.27087319  1
  P  P4  1  0.09432567  0.79815856  0.62676171  1
  P  P5  1  0.46843226  0.22742253  0.72912681  1
  P  P6  1  0.56508965  0.85371265  0.94817277  1
  P  P7  1  0.44134094  0.10568933  0.29053086  1
  P  P8  1  0.93583948  0.06945200  0.93565785  1
  P  P9  1  0.96756396  0.17139686  0.37323829  1
  P  P10  1  0.83970711  0.44652196  0.72538205  1
  P  P11  1  0.80311025  0.55685183  0.39368210  1
  P  P12  1  0.75875186  0.48040765  0.96206813  1
  P  P13  1  0.65081008  0.81515847  0.70946914  1
  P  P14  1  0.29668373  0.51833952  0.03793187  1
  P  P15  1  0.28364852  0.39095193  0.60699042  1
  P  P16  1  0.11691689  0.90553988  0.05182723  1
  P  P17  1  0.50018163  0.13379415  0.06434215  1
  Ir  Ir18  1  0.53932627  0.46027914  0.48903456  1
  Ir  Ir19  1  0.87108933  0.82531941  0.17548668  1
  Ir  Ir20  1  0.20411302  0.15442805  0.83906285  1
  Ir  Ir21  1  0.55029171  0.97124458  0.51096544  1
  Ir  Ir22  1  0.19560266  0.64983273  0.82451332  1
  Ir  Ir23  1  0.86505017  0.31536519  0.16093715  1
  O  O24  1  0.84945197  0.41446717  0.04059443  1
  O  O25  1  0.19743680  0.58663079  0.96618515  1
  O  O26  1  0.51543167  0.99326965  0.95569103  1
  O  O27  1  0.33460269  0.14012437  0.01024655  1
  O  O28  1  0.79047789  0.03519001  0.58156929  1
  O  O29  1  0.43540997  0.74452117  0.93594191  1
  O  O30  1  0.30885754  0.37387274  0.95940557  1
  O  O31  1  0.82435614  0.12987782  0.98975345  1
  O  O32  1  0.73125166  0.62044564  0.03381485  1
  O  O33  1  0.90926051  0.70911455  0.52788309  1
  O  O34  1  0.10643578  0.36860106  0.22508159  1
  O  O35  1  0.05974064  0.03757862  0.04430897  1
  O  O36  1  0.27174929  0.98671395  0.19483114  1
  O  O37  1  0.01785576  0.74304478  0.27828887  1
  O  O38  1  0.09507807  0.93646299  0.73093572  1
  O  O39  1  0.02376357  0.16214845  0.89715161  1
  O  O40  1  0.56961632  0.16044656  0.66571708  1
  O  O41  1  0.68494133  0.59991260  0.29352482  1
  O  O42  1  0.86414236  0.20552727  0.26906428  1
  O  O43  1  0.89141650  0.30638778  0.70647518  1
  O  O44  1  0.18189284  0.70699819  0.67345330  1
  O  O45  1  0.99946806  0.80857926  0.06405809  1
  O  O46  1  0.91290295  0.50003665  0.33486333  1
  O  O47  1  0.54286872  0.77732424  0.37284107  1
  O  O48  1  0.54297134  0.05395301  0.37923481  1
  O  O49  1  0.38135419  0.14351946  0.77491841  1
  O  O50  1  0.34857990  0.26692105  0.62528145  1
  O  O51  1  0.84998509  0.50012536  0.87573719  1
  O  O52  1  0.95531425  0.55507589  0.72247482  1
  O  O53  1  0.58082062  0.38154957  0.85500702  1
  O  O54  1  0.22581360  0.52654255  0.14499298  1
  O  O55  1  0.73283943  0.83260108  0.27752518  1
  O  O56  1  0.07803962  0.16517332  0.66513667  1
  O  O57  1  0.83289248  0.91125674  0.81008029  1
  O  O58  1  0.00843954  0.03354490  0.32654670  1
  O  O59  1  0.47424790  0.62438818  0.12426281  1
  O  O60  1  0.62661196  0.26499684  0.10284839  1
  O  O61  1  0.23956688  0.46475591  0.72171113  1
  O  O62  1  0.57691815  0.79188281  0.80516886  1
  O  O63  1  0.66373653  0.67471820  0.62076519  1
  O  O64  1  0.16385803  0.83387410  0.53480318  1
  O  O65  1  0.67002764  0.40448316  0.62715893  1
  O  O66  1  0.41177604  0.24668177  0.35330078  1
  O  O67  1  0.12905485  0.29907092  0.46519682  1
  O  O68  1  0.38995223  0.48450642  0.58232101  1
  O  O69  1  0.72403105  0.90186241  0.06560774  1
  O  O70  1  0.30763123  0.90218541  0.41767899  1
  O  O71  1  0.52281220  0.10117645  0.18991971  1
  O  O72  1  0.70890860  0.45362072  0.41843071  1
  O  O73  1  0.40389924  0.49472948  0.33428292  1
  O  O74  1  0.15842331  0.83625466  0.93439226  1
  O  O75  1  0.55847527  0.89338099  0.64669922  1
  O  O76  1  0.88137742  0.18123147  0.47211691  1
  O  O77  1  0.22329845  0.64163960  0.37471855  1
