# generated using pymatgen
data_KScH4(C2O5)2
_symmetry_space_group_name_H-M   'P 1'
_cell_length_a   8.96324436
_cell_length_b   8.96324396
_cell_length_c   11.59718952
_cell_angle_alpha   90.00000000
_cell_angle_beta   90.00000000
_cell_angle_gamma   120.00000149
_symmetry_Int_Tables_number   1
_chemical_formula_structural   KScH4(C2O5)2
_chemical_formula_sum   'K3 Sc3 H12 C12 O30'
_cell_volume   806.88907083
_cell_formula_units_Z   3
loop_
 _symmetry_equiv_pos_site_id
 _symmetry_equiv_pos_as_xyz
  1  'x, y, z'
loop_
 _atom_site_type_symbol
 _atom_site_label
 _atom_site_symmetry_multiplicity
 _atom_site_fract_x
 _atom_site_fract_y
 _atom_site_fract_z
 _atom_site_occupancy
  K  K0  1  0.00000000  0.00000000  0.66666700  1
  K  K1  1  0.00000000  0.00000000  0.33333300  1
  K  K2  1  0.00000000  0.00000000  0.00000000  1
  Sc  Sc3  1  0.00000000  0.50000000  0.66666700  1
  Sc  Sc4  1  0.50000000  0.50000000  0.33333300  1
  Sc  Sc5  1  0.50000000  0.00000000  0.00000000  1
  H  H6  1  0.34679771  0.09862949  0.48414239  1
  H  H7  1  0.75183177  0.09862949  0.51585761  1
  H  H8  1  0.65320229  0.75183177  0.84919061  1
  H  H9  1  0.90137051  0.24816823  0.15080939  1
  H  H10  1  0.90137051  0.65320229  0.18252461  1
  H  H11  1  0.09862949  0.34679771  0.18252461  1
  H  H12  1  0.09862949  0.75183177  0.15080939  1
  H  H13  1  0.75183177  0.65320229  0.81747539  1
  H  H14  1  0.24816823  0.90137051  0.51585761  1
  H  H15  1  0.24816823  0.34679771  0.81747539  1
  H  H16  1  0.34679771  0.24816823  0.84919061  1
  H  H17  1  0.65320229  0.90137051  0.48414239  1
  C  C18  1  0.21054024  0.42108047  0.50000000  1
  C  C19  1  0.61848784  0.30924392  0.16666700  1
  C  C20  1  0.30924392  0.69075608  0.83333300  1
  C  C21  1  0.69075608  0.38151216  0.50000000  1
  C  C22  1  0.69075608  0.30924392  0.83333300  1
  C  C23  1  0.78945976  0.21054024  0.83333300  1
  C  C24  1  0.78945976  0.57891953  0.50000000  1
  C  C25  1  0.38151216  0.69075608  0.16666700  1
  C  C26  1  0.57891953  0.78945976  0.16666700  1
  C  C27  1  0.21054024  0.78945976  0.83333300  1
  C  C28  1  0.42108047  0.21054024  0.16666700  1
  C  C29  1  0.30924392  0.61848784  0.50000000  1
  O  O30  1  0.31062448  0.75941597  0.10996030  1
  O  O31  1  1.00000000  0.76811928  0.16666700  1
  O  O32  1  0.68937552  0.44879150  0.22337370  1
  O  O33  1  0.24058403  0.68937552  0.55670670  1
  O  O34  1  0.00000000  0.23188072  0.16666700  1
  O  O35  1  0.73342366  0.65307947  0.43492023  1
  O  O36  1  0.23188072  0.23188072  0.83333300  1
  O  O37  1  0.55120850  0.24058403  0.89003970  1
  O  O38  1  0.65307947  0.91965580  0.10158723  1
  O  O39  1  0.76811928  0.00000000  0.50000000  1
  O  O40  1  0.65307947  0.73342366  0.23174677  1
  O  O41  1  0.44879150  0.68937552  0.44329330  1
  O  O42  1  0.08034420  0.34692053  0.56507977  1
  O  O43  1  0.34692053  0.08034420  0.10158723  1
  O  O44  1  0.73342366  0.08034420  0.89841277  1
  O  O45  1  0.08034420  0.73342366  0.76825323  1
  O  O46  1  0.91965580  0.26657634  0.76825323  1
  O  O47  1  0.26657634  0.34692053  0.43492023  1
  O  O48  1  0.91965580  0.65307947  0.56507977  1
  O  O49  1  0.23188072  0.00000000  0.50000000  1
  O  O50  1  0.24058403  0.55120850  0.77662630  1
  O  O51  1  0.55120850  0.31062448  0.44329330  1
  O  O52  1  0.31062448  0.55120850  0.22337370  1
  O  O53  1  0.26657634  0.91965580  0.89841277  1
  O  O54  1  0.44879150  0.75941597  0.89003970  1
  O  O55  1  0.76811928  0.76811928  0.83333300  1
  O  O56  1  0.75941597  0.31062448  0.55670670  1
  O  O57  1  0.68937552  0.24058403  0.10996030  1
  O  O58  1  0.34692053  0.26657634  0.23174677  1
  O  O59  1  0.75941597  0.44879150  0.77662630  1
