# generated using pymatgen
data_Mg2PClO4
_symmetry_space_group_name_H-M   'P 1'
_cell_length_a   4.86496144
_cell_length_b   8.01069263
_cell_length_c   11.06794867
_cell_angle_alpha   90.00000000
_cell_angle_beta   90.00000000
_cell_angle_gamma   90.00000000
_symmetry_Int_Tables_number   1
_chemical_formula_structural   Mg2PClO4
_chemical_formula_sum   'Mg8 P4 Cl4 O16'
_cell_volume   431.33689419
_cell_formula_units_Z   4
loop_
 _symmetry_equiv_pos_site_id
 _symmetry_equiv_pos_as_xyz
  1  'x, y, z'
loop_
 _atom_site_type_symbol
 _atom_site_label
 _atom_site_symmetry_multiplicity
 _atom_site_fract_x
 _atom_site_fract_y
 _atom_site_fract_z
 _atom_site_occupancy
  Mg  Mg0  1  0.50720747  0.16327925  0.37248254  1
  Mg  Mg1  1  0.00720747  0.83672075  0.62751746  1
  Mg  Mg2  1  0.00053854  0.40163804  0.62170721  1
  Mg  Mg3  1  0.00720747  0.66327925  0.12751746  1
  Mg  Mg4  1  0.50720747  0.33672075  0.87248254  1
  Mg  Mg5  1  0.50053854  0.90163804  0.87829279  1
  Mg  Mg6  1  0.00053854  0.09836196  0.12170721  1
  Mg  Mg7  1  0.50053854  0.59836196  0.37829279  1
  P  P8  1  0.95285585  0.12050089  0.83364844  1
  P  P9  1  0.45285585  0.87949911  0.16635156  1
  P  P10  1  0.95285585  0.37949911  0.33364844  1
  P  P11  1  0.45285585  0.62050089  0.66635156  1
  Cl  Cl12  1  0.25764501  0.37805042  0.06212376  1
  Cl  Cl13  1  0.75764501  0.62194958  0.93787624  1
  Cl  Cl14  1  0.75764501  0.87805042  0.43787624  1
  Cl  Cl15  1  0.25764501  0.12194958  0.56212376  1
  O  O16  1  0.34728200  0.46019909  0.72955724  1
  O  O17  1  0.34786557  0.77832224  0.73308557  1
  O  O18  1  0.76871069  0.61961220  0.65182181  1
  O  O19  1  0.84786557  0.22167776  0.26691443  1
  O  O20  1  0.79679487  0.12314033  0.95794807  1
  O  O21  1  0.26871069  0.38038780  0.34817819  1
  O  O22  1  0.76871069  0.88038780  0.15182181  1
  O  O23  1  0.84728200  0.53980091  0.27044276  1
  O  O24  1  0.79679487  0.37685967  0.45794807  1
  O  O25  1  0.34786557  0.72167776  0.23308557  1
  O  O26  1  0.29679487  0.62314033  0.54205193  1
  O  O27  1  0.26871069  0.11961220  0.84817819  1
  O  O28  1  0.29679487  0.87685967  0.04205193  1
  O  O29  1  0.84728200  0.96019909  0.77044276  1
  O  O30  1  0.84786557  0.27832224  0.76691443  1
  O  O31  1  0.34728200  0.03980091  0.22955724  1
