# generated using pymatgen
data_Bi(BO2)3
_symmetry_space_group_name_H-M   'P 1'
_cell_length_a   4.32477129
_cell_length_b   4.50488334
_cell_length_c   18.61563082
_cell_angle_alpha   90.00000000
_cell_angle_beta   90.00000000
_cell_angle_gamma   90.00000000
_symmetry_Int_Tables_number   1
_chemical_formula_structural   Bi(BO2)3
_chemical_formula_sum   'Bi4 B12 O24'
_cell_volume   362.68070535
_cell_formula_units_Z   4
loop_
 _symmetry_equiv_pos_site_id
 _symmetry_equiv_pos_as_xyz
  1  'x, y, z'
loop_
 _atom_site_type_symbol
 _atom_site_label
 _atom_site_symmetry_multiplicity
 _atom_site_fract_x
 _atom_site_fract_y
 _atom_site_fract_z
 _atom_site_occupancy
  Bi  Bi0  1  0.30246835  0.15671651  0.66242935  1
  Bi  Bi1  1  0.80246835  0.84328349  0.33757065  1
  Bi  Bi2  1  0.80246835  0.15671651  0.83757065  1
  Bi  Bi3  1  0.30246835  0.84328349  0.16242935  1
  B  B4  1  0.35582622  0.32789101  0.42765190  1
  B  B5  1  0.38424920  0.82490946  0.50150157  1
  B  B6  1  0.33140954  0.36407548  0.28720345  1
  B  B7  1  0.85582622  0.67210899  0.57234810  1
  B  B8  1  0.33140954  0.63592452  0.78720345  1
  B  B9  1  0.85582622  0.32789101  0.07234810  1
  B  B10  1  0.83140954  0.63592452  0.71279655  1
  B  B11  1  0.35582622  0.67210899  0.92765190  1
  B  B12  1  0.83140954  0.36407548  0.21279655  1
  B  B13  1  0.88424920  0.82490946  0.99849843  1
  B  B14  1  0.88424920  0.17509054  0.49849843  1
  B  B15  1  0.38424920  0.17509054  0.00150157  1
  O  O16  1  0.02985728  0.87293141  0.51832804  1
  O  O17  1  0.43035849  0.63777507  0.43981228  1
  O  O18  1  0.52985728  0.87293141  0.98167196  1
  O  O19  1  0.46388440  0.75642182  0.85420231  1
  O  O20  1  0.52985728  0.12706859  0.48167196  1
  O  O21  1  0.83580821  0.68874746  0.21159051  1
  O  O22  1  0.43035849  0.36222493  0.93981228  1
  O  O23  1  0.52656233  0.73810754  0.56776119  1
  O  O24  1  0.46388440  0.24357818  0.35420231  1
  O  O25  1  0.02985728  0.12706859  0.01832804  1
  O  O26  1  0.51367598  0.74804110  0.72458872  1
  O  O27  1  0.02656233  0.73810754  0.93223881  1
  O  O28  1  0.83580821  0.31125254  0.71159051  1
  O  O29  1  0.01367598  0.74804110  0.77541128  1
  O  O30  1  0.52656233  0.26189246  0.06776119  1
  O  O31  1  0.93035849  0.36222493  0.56018772  1
  O  O32  1  0.02656233  0.26189246  0.43223881  1
  O  O33  1  0.01367598  0.25195890  0.27541128  1
  O  O34  1  0.93035849  0.63777507  0.06018772  1
  O  O35  1  0.51367598  0.25195890  0.22458872  1
  O  O36  1  0.33580821  0.68874746  0.28840949  1
  O  O37  1  0.96388440  0.24357818  0.14579769  1
  O  O38  1  0.33580821  0.31125254  0.78840949  1
  O  O39  1  0.96388440  0.75642182  0.64579769  1
