# generated using pymatgen
data_Ca2SiO4
_symmetry_space_group_name_H-M   'P 1'
_cell_length_a   8.34972846
_cell_length_b   9.85017615
_cell_length_c   9.87734382
_cell_angle_alpha   90.00000000
_cell_angle_beta   94.82898263
_cell_angle_gamma   90.00000000
_symmetry_Int_Tables_number   1
_chemical_formula_structural   Ca2SiO4
_chemical_formula_sum   'Ca16 Si8 O32'
_cell_volume   809.49134209
_cell_formula_units_Z   8
loop_
 _symmetry_equiv_pos_site_id
 _symmetry_equiv_pos_as_xyz
  1  'x, y, z'
loop_
 _atom_site_type_symbol
 _atom_site_label
 _atom_site_symmetry_multiplicity
 _atom_site_fract_x
 _atom_site_fract_y
 _atom_site_fract_z
 _atom_site_occupancy
  Ca  Ca0  1  0.90341122  0.06652420  0.21065438  1
  Ca  Ca1  1  0.65995386  0.08195072  0.91353131  1
  Ca  Ca2  1  0.17719681  0.92117416  0.42750069  1
  Ca  Ca3  1  0.62074503  0.71254056  0.92503018  1
  Ca  Ca4  1  0.17719681  0.57882584  0.92750069  1
  Ca  Ca5  1  0.34004614  0.58195072  0.58646869  1
  Ca  Ca6  1  0.82280319  0.07882584  0.57249931  1
  Ca  Ca7  1  0.82280319  0.42117416  0.07249931  1
  Ca  Ca8  1  0.62074503  0.78745944  0.42503018  1
  Ca  Ca9  1  0.90341122  0.43347580  0.71065438  1
  Ca  Ca10  1  0.65995386  0.41804928  0.41353131  1
  Ca  Ca11  1  0.09658878  0.56652420  0.28934562  1
  Ca  Ca12  1  0.37925497  0.21254056  0.57496982  1
  Ca  Ca13  1  0.34004614  0.91804928  0.08646869  1
  Ca  Ca14  1  0.37925497  0.28745944  0.07496982  1
  Ca  Ca15  1  0.09658878  0.93347580  0.78934562  1
  Si  Si16  1  0.45863817  0.92706130  0.69919064  1
  Si  Si17  1  0.54136183  0.42706130  0.80080936  1
  Si  Si18  1  0.02315501  0.29714003  0.42980195  1
  Si  Si19  1  0.02315501  0.20285997  0.92980195  1
  Si  Si20  1  0.45863817  0.57293870  0.19919064  1
  Si  Si21  1  0.97684499  0.79714003  0.07019805  1
  Si  Si22  1  0.97684499  0.70285997  0.57019805  1
  Si  Si23  1  0.54136183  0.07293870  0.30080936  1
  O  O24  1  0.53873351  0.40296351  0.63391741  1
  O  O25  1  0.17890259  0.37994139  0.50174727  1
  O  O26  1  0.86990495  0.30131019  0.52663921  1
  O  O27  1  0.93833991  0.63447008  0.09217361  1
  O  O28  1  0.59131009  0.45256650  0.17537668  1
  O  O29  1  0.06166009  0.13447008  0.40782639  1
  O  O30  1  0.53873351  0.09703649  0.13391741  1
  O  O31  1  0.40868991  0.54743350  0.82462332  1
  O  O32  1  0.06166009  0.36552992  0.90782639  1
  O  O33  1  0.82109741  0.62005861  0.49825273  1
  O  O34  1  0.50562045  0.28491244  0.87844895  1
  O  O35  1  0.59131009  0.04743350  0.67537668  1
  O  O36  1  0.04718572  0.63100214  0.71423150  1
  O  O37  1  0.93833991  0.86552992  0.59217361  1
  O  O38  1  0.13009505  0.80131019  0.97336079  1
  O  O39  1  0.17890259  0.12005861  0.00174727  1
  O  O40  1  0.49437955  0.71508756  0.12155105  1
  O  O41  1  0.71675357  0.49309201  0.85769125  1
  O  O42  1  0.46126649  0.59703649  0.36608259  1
  O  O43  1  0.49437955  0.78491244  0.62155105  1
  O  O44  1  0.40868991  0.95256650  0.32462332  1
  O  O45  1  0.71675357  0.00690799  0.35769125  1
  O  O46  1  0.50562045  0.21508756  0.37844895  1
  O  O47  1  0.04718572  0.86899786  0.21423150  1
  O  O48  1  0.95281428  0.13100214  0.78576850  1
  O  O49  1  0.28324643  0.50690799  0.14230875  1
  O  O50  1  0.95281428  0.36899786  0.28576850  1
  O  O51  1  0.86990495  0.19868981  0.02663921  1
  O  O52  1  0.13009505  0.69868981  0.47336079  1
  O  O53  1  0.28324643  0.99309201  0.64230875  1
  O  O54  1  0.82109741  0.87994139  0.99825273  1
  O  O55  1  0.46126649  0.90296351  0.86608259  1
