# generated using pymatgen
data_Cr(AgO2)2
_symmetry_space_group_name_H-M   'P 1'
_cell_length_a   5.69394935
_cell_length_b   7.03021043
_cell_length_c   10.24827648
_cell_angle_alpha   90.00000000
_cell_angle_beta   90.00000000
_cell_angle_gamma   90.00000000
_symmetry_Int_Tables_number   1
_chemical_formula_structural   Cr(AgO2)2
_chemical_formula_sum   'Cr4 Ag8 O16'
_cell_volume   410.23504469
_cell_formula_units_Z   4
loop_
 _symmetry_equiv_pos_site_id
 _symmetry_equiv_pos_as_xyz
  1  'x, y, z'
loop_
 _atom_site_type_symbol
 _atom_site_label
 _atom_site_symmetry_multiplicity
 _atom_site_fract_x
 _atom_site_fract_y
 _atom_site_fract_z
 _atom_site_occupancy
  Cr  Cr0  1  0.04056039  0.75000000  0.68248480  1
  Cr  Cr1  1  0.54056039  0.25000000  0.81751520  1
  Cr  Cr2  1  0.95943961  0.25000000  0.31751520  1
  Cr  Cr3  1  0.45943961  0.75000000  0.18248480  1
  Ag  Ag4  1  0.50000000  0.50000000  0.50000000  1
  Ag  Ag5  1  0.00000000  0.50000000  0.00000000  1
  Ag  Ag6  1  0.50000000  0.00000000  0.50000000  1
  Ag  Ag7  1  0.00000000  0.00000000  0.00000000  1
  Ag  Ag8  1  0.51959596  0.75000000  0.85560922  1
  Ag  Ag9  1  0.01959596  0.25000000  0.64439078  1
  Ag  Ag10  1  0.48040404  0.25000000  0.14439078  1
  Ag  Ag11  1  0.98040404  0.75000000  0.35560922  1
  O  O12  1  0.10131358  0.75000000  0.84538303  1
  O  O13  1  0.60131358  0.25000000  0.65461697  1
  O  O14  1  0.89868642  0.25000000  0.15461697  1
  O  O15  1  0.39868642  0.75000000  0.34538303  1
  O  O16  1  0.75152297  0.75000000  0.65513982  1
  O  O17  1  0.25152297  0.25000000  0.84486018  1
  O  O18  1  0.24847703  0.25000000  0.34486018  1
  O  O19  1  0.74847703  0.75000000  0.15513982  1
  O  O20  1  0.16055108  0.55524743  0.61390434  1
  O  O21  1  0.66055108  0.44475257  0.88609566  1
  O  O22  1  0.83944892  0.05524743  0.38609566  1
  O  O23  1  0.33944892  0.94475257  0.11390434  1
  O  O24  1  0.83944892  0.44475257  0.38609566  1
  O  O25  1  0.33944892  0.55524743  0.11390434  1
  O  O26  1  0.16055108  0.94475257  0.61390434  1
  O  O27  1  0.66055108  0.05524743  0.88609566  1
