# generated using pymatgen
data_Ca2SiCl2O3
_symmetry_space_group_name_H-M   'P 1'
_cell_length_a   8.98939810
_cell_length_b   8.98939844
_cell_length_c   8.98939773
_cell_angle_alpha   106.18161900
_cell_angle_beta   106.18161961
_cell_angle_gamma   116.27206050
_symmetry_Int_Tables_number   1
_chemical_formula_structural   Ca2SiCl2O3
_chemical_formula_sum   'Ca8 Si4 Cl8 O12'
_cell_volume   553.22683080
_cell_formula_units_Z   4
loop_
 _symmetry_equiv_pos_site_id
 _symmetry_equiv_pos_as_xyz
  1  'x, y, z'
loop_
 _atom_site_type_symbol
 _atom_site_label
 _atom_site_symmetry_multiplicity
 _atom_site_fract_x
 _atom_site_fract_y
 _atom_site_fract_z
 _atom_site_occupancy
  Ca  Ca0  1  0.98339371  0.65079979  0.17184571  1
  Ca  Ca1  1  0.01165815  0.34396616  0.82823529  1
  Ca  Ca2  1  0.51573087  0.18342286  0.17176471  1
  Ca  Ca3  1  0.34396616  0.51573087  0.33230801  1
  Ca  Ca4  1  0.47895408  0.81154800  0.82815429  1
  Ca  Ca5  1  0.18342286  0.01165815  0.66769199  1
  Ca  Ca6  1  0.81154800  0.98339371  0.33259392  1
  Ca  Ca7  1  0.65079979  0.47895408  0.66740608  1
  Si  Si8  1  0.10121508  0.80976191  0.91637600  1
  Si  Si9  1  0.18483908  0.10121508  0.29145317  1
  Si  Si10  1  0.89338591  0.18483908  0.08362400  1
  Si  Si11  1  0.80976191  0.89338591  0.70854683  1
  Cl  Cl12  1  0.75302537  0.25302537  0.50000000  1
  Cl  Cl13  1  0.25302537  0.75302537  0.50000000  1
  Cl  Cl14  1  0.57364647  0.24044998  0.81783963  1
  Cl  Cl15  1  0.28578949  0.28578949  1.00000000  1
  Cl  Cl16  1  0.70971212  0.70971212  1.00000000  1
  Cl  Cl17  1  0.42261035  0.75580684  0.18216037  1
  Cl  Cl18  1  0.75580684  0.57364647  0.33319649  1
  Cl  Cl19  1  0.24044998  0.42261035  0.66680351  1
  O  O20  1  0.09626542  0.98554041  0.38780637  1
  O  O21  1  0.82411636  0.04710490  0.87627161  1
  O  O22  1  0.94784475  0.82411636  0.77701145  1
  O  O23  1  0.17083329  0.94784475  0.12372839  1
  O  O24  1  0.28553572  0.89796961  0.88822523  1
  O  O25  1  0.04710490  0.17083329  0.22298855  1
  O  O26  1  0.70845905  0.09626542  0.11072501  1
  O  O27  1  0.89796961  0.00974437  0.61243389  1
  O  O28  1  0.59773404  0.70845905  0.61219363  1
  O  O29  1  0.00974437  0.39731048  0.11177477  1
  O  O30  1  0.39731048  0.28553572  0.38756611  1
  O  O31  1  0.98554041  0.59773404  0.88927499  1
