# generated using pymatgen
data_BaCr4S7
_symmetry_space_group_name_H-M   'P 1'
_cell_length_a   6.01299282
_cell_length_b   6.82437983
_cell_length_c   22.94238561
_cell_angle_alpha   90.00000000
_cell_angle_beta   90.00000000
_cell_angle_gamma   90.03586979
_symmetry_Int_Tables_number   1
_chemical_formula_structural   BaCr4S7
_chemical_formula_sum   'Ba4 Cr16 S28'
_cell_volume   941.43939126
_cell_formula_units_Z   4
loop_
 _symmetry_equiv_pos_site_id
 _symmetry_equiv_pos_as_xyz
  1  'x, y, z'
loop_
 _atom_site_type_symbol
 _atom_site_label
 _atom_site_symmetry_multiplicity
 _atom_site_fract_x
 _atom_site_fract_y
 _atom_site_fract_z
 _atom_site_occupancy
  Ba  Ba0  1  0.10960799  0.62706695  0.82725753  1
  Ba  Ba1  1  0.60960799  0.62706695  0.67274247  1
  Ba  Ba2  1  0.89039201  0.37293305  0.17274247  1
  Ba  Ba3  1  0.39039201  0.37293305  0.32725753  1
  Cr  Cr4  1  0.25547529  0.12842911  0.62547655  1
  Cr  Cr5  1  0.11636733  0.87118441  0.25355412  1
  Cr  Cr6  1  0.74452471  0.87157089  0.37452345  1
  Cr  Cr7  1  0.73567238  0.62455890  0.00105095  1
  Cr  Cr8  1  0.74597864  0.12424362  0.00736321  1
  Cr  Cr9  1  0.23567238  0.62455890  0.49894905  1
  Cr  Cr10  1  0.24597864  0.12424362  0.49263679  1
  Cr  Cr11  1  0.76432762  0.37544110  0.50105095  1
  Cr  Cr12  1  0.75402136  0.87575638  0.50736321  1
  Cr  Cr13  1  0.75547529  0.12842911  0.87452345  1
  Cr  Cr14  1  0.38363267  0.12881559  0.75355412  1
  Cr  Cr15  1  0.24452471  0.87157089  0.12547655  1
  Cr  Cr16  1  0.26432762  0.37544110  0.99894905  1
  Cr  Cr17  1  0.25402136  0.87575638  0.99263679  1
  Cr  Cr18  1  0.61636733  0.87118441  0.24644588  1
  Cr  Cr19  1  0.88363267  0.12881559  0.74644588  1
  S  S20  1  0.56347258  0.87212772  0.05948841  1
  S  S21  1  0.08062969  0.37779825  0.44008593  1
  S  S22  1  0.06347258  0.87212772  0.44051159  1
  S  S23  1  0.11464297  0.12756832  0.83030931  1
  S  S24  1  0.08545089  0.62783257  0.05590173  1
  S  S25  1  0.63577625  0.89907511  0.79927953  1
  S  S26  1  0.09472500  0.12298538  0.05894853  1
  S  S27  1  0.36319344  0.64048283  0.20063256  1
  S  S28  1  0.41454911  0.37216743  0.55590173  1
  S  S29  1  0.91454911  0.37216743  0.94409827  1
  S  S30  1  0.41937031  0.62220175  0.94008593  1
  S  S31  1  0.63680656  0.35951717  0.79936744  1
  S  S32  1  0.58545089  0.62783257  0.44409827  1
  S  S33  1  0.86422375  0.10092489  0.29927953  1
  S  S34  1  0.61464297  0.12756832  0.66969069  1
  S  S35  1  0.88535703  0.87243168  0.16969069  1
  S  S36  1  0.13680656  0.35951717  0.70063256  1
  S  S37  1  0.91937031  0.62220175  0.55991407  1
  S  S38  1  0.93652742  0.12787228  0.55948841  1
  S  S39  1  0.38535703  0.87243168  0.33030931  1
  S  S40  1  0.59472500  0.12298538  0.44105147  1
  S  S41  1  0.40527500  0.87701462  0.55894853  1
  S  S42  1  0.13577625  0.89907511  0.70072047  1
  S  S43  1  0.90527500  0.87701462  0.94105147  1
  S  S44  1  0.58062969  0.37779825  0.05991407  1
  S  S45  1  0.43652742  0.12787228  0.94051159  1
  S  S46  1  0.86319344  0.64048283  0.29936744  1
  S  S47  1  0.36422375  0.10092489  0.20072047  1
