# generated using pymatgen
data_TiAs2O7
_symmetry_space_group_name_H-M   'P 1'
_cell_length_a   5.36042475
_cell_length_b   5.36042480
_cell_length_c   9.58269993
_cell_angle_alpha   99.12066434
_cell_angle_beta   99.12066445
_cell_angle_gamma   98.23350366
_symmetry_Int_Tables_number   1
_chemical_formula_structural   TiAs2O7
_chemical_formula_sum   'Ti2 As4 O14'
_cell_volume   264.40003469
_cell_formula_units_Z   2
loop_
 _symmetry_equiv_pos_site_id
 _symmetry_equiv_pos_as_xyz
  1  'x, y, z'
loop_
 _atom_site_type_symbol
 _atom_site_label
 _atom_site_symmetry_multiplicity
 _atom_site_fract_x
 _atom_site_fract_y
 _atom_site_fract_z
 _atom_site_occupancy
  Ti  Ti0  1  0.00000000  0.00000000  0.00000000  1
  Ti  Ti1  1  0.00000000  0.00000000  0.50000000  1
  As  As2  1  0.56090232  0.82847524  0.19826953  1
  As  As3  1  0.82847524  0.56090232  0.69826953  1
  As  As4  1  0.17152476  0.43909768  0.30173047  1
  As  As5  1  0.43909768  0.17152476  0.80173047  1
  O  O6  1  0.28625016  0.92427847  0.12912569  1
  O  O7  1  0.24841907  0.23265808  0.92377563  1
  O  O8  1  0.03166269  0.71099008  0.85418313  1
  O  O9  1  0.28900992  0.96833731  0.64581687  1
  O  O10  1  0.47252831  0.52747169  0.25000000  1
  O  O11  1  0.92427847  0.28625016  0.62912569  1
  O  O12  1  0.23265808  0.24841907  0.42377563  1
  O  O13  1  0.76734192  0.75158093  0.57622437  1
  O  O14  1  0.75158093  0.76734192  0.07622437  1
  O  O15  1  0.96833731  0.28900992  0.14581687  1
  O  O16  1  0.71374984  0.07572153  0.87087431  1
  O  O17  1  0.71099008  0.03166269  0.35418313  1
  O  O18  1  0.07572153  0.71374984  0.37087431  1
  O  O19  1  0.52747169  0.47252831  0.75000000  1
