# generated using pymatgen
data_Sr10Al4Si6O
_symmetry_space_group_name_H-M   'P 1'
_cell_length_a   4.83682767
_cell_length_b   11.66224985
_cell_length_c   11.66224924
_cell_angle_alpha   69.88102873
_cell_angle_beta   78.03166375
_cell_angle_gamma   78.03166273
_symmetry_Int_Tables_number   1
_chemical_formula_structural   Sr10Al4Si6O
_chemical_formula_sum   'Sr10 Al4 Si6 O1'
_cell_volume   597.61461566
_cell_formula_units_Z   1
loop_
 _symmetry_equiv_pos_site_id
 _symmetry_equiv_pos_as_xyz
  1  'x, y, z'
loop_
 _atom_site_type_symbol
 _atom_site_label
 _atom_site_symmetry_multiplicity
 _atom_site_fract_x
 _atom_site_fract_y
 _atom_site_fract_z
 _atom_site_occupancy
  Sr  Sr0  1  0.15635196  0.84364804  0.84364804  1
  Sr  Sr1  1  1.00000000  0.18713667  0.81286333  1
  Sr  Sr2  1  0.19316495  0.46985553  0.14381456  1
  Sr  Sr3  1  0.80683505  0.85618544  0.53014447  1
  Sr  Sr4  1  0.00000000  0.81286333  0.18713667  1
  Sr  Sr5  1  0.50000000  0.00000000  0.00000000  1
  Sr  Sr6  1  0.84364804  0.15635196  0.15635196  1
  Sr  Sr7  1  0.80683505  0.53014447  0.85618544  1
  Sr  Sr8  1  0.00000000  0.50000000  0.50000000  1
  Sr  Sr9  1  0.19316495  0.14381456  0.46985553  1
  Al  Al10  1  0.42937596  0.41317576  0.72807232  1
  Al  Al11  1  0.57062404  0.27192768  0.58682424  1
  Al  Al12  1  0.57062404  0.58682424  0.27192768  1
  Al  Al13  1  0.42937596  0.72807232  0.41317576  1
  Si  Si14  1  0.63178207  0.69001921  0.04641665  1
  Si  Si15  1  0.35438301  0.64561699  0.64561699  1
  Si  Si16  1  0.36821793  0.30998079  0.95358335  1
  Si  Si17  1  0.64561699  0.35438301  0.35438301  1
  Si  Si18  1  0.63178207  0.04641665  0.69001921  1
  Si  Si19  1  0.36821793  0.95358335  0.30998079  1
  O  O20  1  0.00000000  0.00000000  0.00000000  1
