# generated using pymatgen
data_Gd(PO3)3
_symmetry_space_group_name_H-M   'P 1'
_cell_length_a   7.03005363
_cell_length_b   7.03005340
_cell_length_c   7.28627547
_cell_angle_alpha   90.00000000
_cell_angle_beta   90.00000000
_cell_angle_gamma   105.15697600
_symmetry_Int_Tables_number   1
_chemical_formula_structural   Gd(PO3)3
_chemical_formula_sum   'Gd2 P6 O18'
_cell_volume   347.57301970
_cell_formula_units_Z   2
loop_
 _symmetry_equiv_pos_site_id
 _symmetry_equiv_pos_as_xyz
  1  'x, y, z'
loop_
 _atom_site_type_symbol
 _atom_site_label
 _atom_site_symmetry_multiplicity
 _atom_site_fract_x
 _atom_site_fract_y
 _atom_site_fract_z
 _atom_site_occupancy
  Gd  Gd0  1  0.12592075  0.12592075  0.00000000  1
  Gd  Gd1  1  0.87407925  0.87407925  0.50000000  1
  P  P2  1  0.25042953  0.25042953  0.50000000  1
  P  P3  1  0.31167070  0.66534393  0.95631776  1
  P  P4  1  0.68832930  0.33465607  0.45631776  1
  P  P5  1  0.66534393  0.31167070  0.04368224  1
  P  P6  1  0.33465607  0.68832930  0.54368224  1
  P  P7  1  0.74957047  0.74957047  0.00000000  1
  O  O8  1  0.37278952  0.62721048  0.75000000  1
  O  O9  1  0.52813304  0.74783061  0.04665850  1
  O  O10  1  0.46885220  0.21454229  0.96208290  1
  O  O11  1  0.62721048  0.37278952  0.25000000  1
  O  O12  1  0.82715134  0.21118529  0.03337104  1
  O  O13  1  0.86766976  0.82805806  0.17066713  1
  O  O14  1  0.47186696  0.25216939  0.54665850  1
  O  O15  1  0.74783061  0.52813304  0.95334150  1
  O  O16  1  0.78545771  0.53114780  0.53791710  1
  O  O17  1  0.13233024  0.17194194  0.67066713  1
  O  O18  1  0.21454229  0.46885220  0.03791710  1
  O  O19  1  0.17284866  0.78881471  0.53337104  1
  O  O20  1  0.25216939  0.47186696  0.45334150  1
  O  O21  1  0.78881471  0.17284866  0.46662896  1
  O  O22  1  0.17194194  0.13233024  0.32933287  1
  O  O23  1  0.53114780  0.78545771  0.46208290  1
  O  O24  1  0.21118529  0.82715134  0.96662896  1
  O  O25  1  0.82805806  0.86766976  0.82933287  1
