# generated using pymatgen
data_Nb2PbO6
_symmetry_space_group_name_H-M   'P 1'
_cell_length_a   7.34220959
_cell_length_b   7.34220971
_cell_length_c   7.34221009
_cell_angle_alpha   93.90151145
_cell_angle_beta   93.90151152
_cell_angle_gamma   93.90150664
_symmetry_Int_Tables_number   1
_chemical_formula_structural   Nb2PbO6
_chemical_formula_sum   'Nb6 Pb3 O18'
_cell_volume   392.92032994
_cell_formula_units_Z   3
loop_
 _symmetry_equiv_pos_site_id
 _symmetry_equiv_pos_as_xyz
  1  'x, y, z'
loop_
 _atom_site_type_symbol
 _atom_site_label
 _atom_site_symmetry_multiplicity
 _atom_site_fract_x
 _atom_site_fract_y
 _atom_site_fract_z
 _atom_site_occupancy
  Nb  Nb0  1  0.51258042  0.15675656  0.81468629  1
  Nb  Nb1  1  0.51258042  0.81468629  0.15675656  1
  Nb  Nb2  1  0.15675656  0.51258042  0.81468629  1
  Nb  Nb3  1  0.81468629  0.51258042  0.15675656  1
  Nb  Nb4  1  0.15675656  0.81468629  0.51258042  1
  Nb  Nb5  1  0.81468629  0.15675656  0.51258042  1
  Pb  Pb6  1  0.67862371  0.67862371  0.67862371  1
  Pb  Pb7  1  0.36043959  0.36043959  0.36043959  1
  Pb  Pb8  1  0.98746059  0.98746059  0.98746059  1
  O  O9  1  0.30306758  0.30306758  0.84528912  1
  O  O10  1  0.38732712  0.95798848  0.68169249  1
  O  O11  1  0.05434192  0.05434192  0.51617198  1
  O  O12  1  0.76491352  0.04733932  0.76491352  1
  O  O13  1  0.58289796  0.58289796  0.29257102  1
  O  O14  1  0.30306758  0.84528912  0.30306758  1
  O  O15  1  0.84528912  0.30306758  0.30306758  1
  O  O16  1  0.95798848  0.68169249  0.38732712  1
  O  O17  1  0.04733932  0.76491352  0.76491352  1
  O  O18  1  0.29257102  0.58289796  0.58289796  1
  O  O19  1  0.68169249  0.95798848  0.38732712  1
  O  O20  1  0.05434192  0.51617198  0.05434192  1
  O  O21  1  0.38732712  0.68169249  0.95798848  1
  O  O22  1  0.68169249  0.38732712  0.95798848  1
  O  O23  1  0.95798848  0.38732712  0.68169249  1
  O  O24  1  0.58289796  0.29257102  0.58289796  1
  O  O25  1  0.51617198  0.05434192  0.05434192  1
  O  O26  1  0.76491352  0.76491352  0.04733932  1
