# generated using pymatgen
data_SrTiSi2O7
_symmetry_space_group_name_H-M   'P 1'
_cell_length_a   5.41119245
_cell_length_b   7.14806784
_cell_length_c   7.82787282
_cell_angle_alpha   90.00000000
_cell_angle_beta   110.22063707
_cell_angle_gamma   90.00000000
_symmetry_Int_Tables_number   1
_chemical_formula_structural   SrTiSi2O7
_chemical_formula_sum   'Sr2 Ti2 Si4 O14'
_cell_volume   284.11807887
_cell_formula_units_Z   2
loop_
 _symmetry_equiv_pos_site_id
 _symmetry_equiv_pos_as_xyz
  1  'x, y, z'
loop_
 _atom_site_type_symbol
 _atom_site_label
 _atom_site_symmetry_multiplicity
 _atom_site_fract_x
 _atom_site_fract_y
 _atom_site_fract_z
 _atom_site_occupancy
  Sr  Sr0  1  0.80115641  0.25000000  0.60231283  1
  Sr  Sr1  1  0.19884359  0.75000000  0.39768717  1
  Ti  Ti2  1  0.89090663  0.75000000  0.78181325  1
  Ti  Ti3  1  0.10909337  0.25000000  0.21818675  1
  Si  Si4  1  0.60844507  0.52498511  0.21689014  1
  Si  Si5  1  0.60844507  0.97501489  0.21689014  1
  Si  Si6  1  0.39155493  0.02498511  0.78310986  1
  Si  Si7  1  0.39155493  0.47501489  0.78310986  1
  O  O8  1  0.36136861  0.25000000  0.72273723  1
  O  O9  1  0.00523911  0.75000000  0.01047821  1
  O  O10  1  0.09677542  0.93838880  0.69296427  1
  O  O11  1  0.09677542  0.56161120  0.69296427  1
  O  O12  1  0.40381116  0.06161120  0.30703573  1
  O  O13  1  0.63863139  0.75000000  0.27726277  1
  O  O14  1  0.90322458  0.06161120  0.30703573  1
  O  O15  1  0.59618884  0.93838880  0.69296427  1
  O  O16  1  0.50000000  0.50000000  0.00000000  1
  O  O17  1  0.90322458  0.43838880  0.30703573  1
  O  O18  1  0.59618884  0.56161120  0.69296427  1
  O  O19  1  0.99476089  0.25000000  0.98952179  1
  O  O20  1  0.40381116  0.43838880  0.30703573  1
  O  O21  1  0.50000000  0.00000000  0.00000000  1
