# generated using pymatgen
data_Nd7(S2Cl3)3
_symmetry_space_group_name_H-M   'P 1'
_cell_length_a   6.74277329
_cell_length_b   7.01849585
_cell_length_c   24.57485840
_cell_angle_alpha   97.75773441
_cell_angle_beta   90.00000000
_cell_angle_gamma   90.00000000
_symmetry_Int_Tables_number   1
_chemical_formula_structural   Nd7(S2Cl3)3
_chemical_formula_sum   'Nd14 S12 Cl18'
_cell_volume   1152.33971054
_cell_formula_units_Z   2
loop_
 _symmetry_equiv_pos_site_id
 _symmetry_equiv_pos_as_xyz
  1  'x, y, z'
loop_
 _atom_site_type_symbol
 _atom_site_label
 _atom_site_symmetry_multiplicity
 _atom_site_fract_x
 _atom_site_fract_y
 _atom_site_fract_z
 _atom_site_occupancy
  Nd  Nd0  1  0.28879010  0.25000000  0.00000000  1
  Nd  Nd1  1  0.69569352  0.12367512  0.85730374  1
  Nd  Nd2  1  0.28276778  0.49329269  0.57910986  1
  Nd  Nd3  1  0.71120990  0.75000000  0.00000000  1
  Nd  Nd4  1  0.30430648  0.62367512  0.85730374  1
  Nd  Nd5  1  0.30453583  0.36320529  0.28356612  1
  Nd  Nd6  1  0.71723222  0.99329269  0.57910986  1
  Nd  Nd7  1  0.69546417  0.63679471  0.71643388  1
  Nd  Nd8  1  0.30453583  0.13679471  0.71643388  1
  Nd  Nd9  1  0.69546417  0.86320529  0.28356612  1
  Nd  Nd10  1  0.28276778  0.00670731  0.42089014  1
  Nd  Nd11  1  0.30430648  0.87632488  0.14269626  1
  Nd  Nd12  1  0.71723222  0.50670731  0.42089014  1
  Nd  Nd13  1  0.69569352  0.37632488  0.14269626  1
  S  S14  1  0.55193274  0.38243776  0.78347546  1
  S  S15  1  0.53514744  0.07384675  0.07141375  1
  S  S16  1  0.44806726  0.61756224  0.21652454  1
  S  S17  1  0.53514744  0.42615325  0.92858625  1
  S  S18  1  0.46485256  0.57384675  0.07141375  1
  S  S19  1  0.55229333  0.18833980  0.35940021  1
  S  S20  1  0.44770667  0.81166020  0.64059979  1
  S  S21  1  0.46485256  0.92615325  0.92858625  1
  S  S22  1  0.44770667  0.68833980  0.35940021  1
  S  S23  1  0.44806726  0.88243776  0.78347546  1
  S  S24  1  0.55229333  0.31166020  0.64059979  1
  S  S25  1  0.55193274  0.11756224  0.21652454  1
  Cl  Cl26  1  0.06773168  0.26778185  0.81106991  1
  Cl  Cl27  1  0.93226832  0.73221815  0.18893009  1
  Cl  Cl28  1  0.10540911  0.37748818  0.44222475  1
  Cl  Cl29  1  0.91625680  0.96855749  0.68078324  1
  Cl  Cl30  1  0.91625680  0.53144251  0.31921676  1
  Cl  Cl31  1  0.04371467  0.56273982  0.94041307  1
  Cl  Cl32  1  0.44840160  0.75000000  0.50000000  1
  Cl  Cl33  1  0.89459089  0.62251182  0.55777525  1
  Cl  Cl34  1  0.95628533  0.43726018  0.05958693  1
  Cl  Cl35  1  0.10540911  0.12251182  0.55777525  1
  Cl  Cl36  1  0.08374320  0.46855749  0.68078324  1
  Cl  Cl37  1  0.55159840  0.25000000  0.50000000  1
  Cl  Cl38  1  0.89459089  0.87748818  0.44222475  1
  Cl  Cl39  1  0.08374320  0.03144251  0.31921676  1
  Cl  Cl40  1  0.04371467  0.93726018  0.05958693  1
  Cl  Cl41  1  0.06773168  0.23221815  0.18893009  1
  Cl  Cl42  1  0.95628533  0.06273982  0.94041307  1
  Cl  Cl43  1  0.93226832  0.76778185  0.81106991  1
