# generated using pymatgen
data_S
_symmetry_space_group_name_H-M   'P 1'
_cell_length_a   5.66346879
_cell_length_b   9.63248940
_cell_length_c   15.71045871
_cell_angle_alpha   90.00000000
_cell_angle_beta   90.00000000
_cell_angle_gamma   90.00000000
_symmetry_Int_Tables_number   1
_chemical_formula_structural   S
_chemical_formula_sum   S24
_cell_volume   857.05741564
_cell_formula_units_Z   24
loop_
 _symmetry_equiv_pos_site_id
 _symmetry_equiv_pos_as_xyz
  1  'x, y, z'
loop_
 _atom_site_type_symbol
 _atom_site_label
 _atom_site_symmetry_multiplicity
 _atom_site_fract_x
 _atom_site_fract_y
 _atom_site_fract_z
 _atom_site_occupancy
  S  S0  1  0.00945474  0.30365096  0.89277612  1
  S  S1  1  0.50000000  0.50000000  0.28612696  1
  S  S2  1  0.19026187  0.73662391  0.00000000  1
  S  S3  1  0.99054526  0.69634904  0.10722388  1
  S  S4  1  0.79959052  0.87270702  0.86343527  1
  S  S5  1  0.49054526  0.80365096  0.60722388  1
  S  S6  1  0.29959052  0.62729298  0.63656473  1
  S  S7  1  0.50000000  0.50000000  0.71387304  1
  S  S8  1  0.50945474  0.19634904  0.39277612  1
  S  S9  1  0.49054526  0.80365096  0.39277612  1
  S  S10  1  0.29959052  0.62729298  0.36343527  1
  S  S11  1  0.70040948  0.37270702  0.36343527  1
  S  S12  1  0.30973813  0.23662391  0.50000000  1
  S  S13  1  0.00000000  0.00000000  0.21387304  1
  S  S14  1  0.00000000  0.00000000  0.78612696  1
  S  S15  1  0.20040948  0.12729298  0.13656473  1
  S  S16  1  0.50945474  0.19634904  0.60722388  1
  S  S17  1  0.99054526  0.69634904  0.89277612  1
  S  S18  1  0.20040948  0.12729298  0.86343527  1
  S  S19  1  0.70040948  0.37270702  0.63656473  1
  S  S20  1  0.69026187  0.76337609  0.50000000  1
  S  S21  1  0.79959052  0.87270702  0.13656473  1
  S  S22  1  0.00945474  0.30365096  0.10722388  1
  S  S23  1  0.80973813  0.26337609  0.00000000  1
