# generated using pymatgen
data_CoF3
_symmetry_space_group_name_H-M   'P 1'
_cell_length_a   5.51666171
_cell_length_b   5.51666172
_cell_length_c   6.50871553
_cell_angle_alpha   90.00000000
_cell_angle_beta   90.00000000
_cell_angle_gamma   120.00000002
_symmetry_Int_Tables_number   1
_chemical_formula_structural   CoF3
_chemical_formula_sum   'Co3 F9'
_cell_volume   171.54522315
_cell_formula_units_Z   3
loop_
 _symmetry_equiv_pos_site_id
 _symmetry_equiv_pos_as_xyz
  1  'x, y, z'
loop_
 _atom_site_type_symbol
 _atom_site_label
 _atom_site_symmetry_multiplicity
 _atom_site_fract_x
 _atom_site_fract_y
 _atom_site_fract_z
 _atom_site_occupancy
  F  F0  1  0.66663580  0.83451174  0.83337009  1
  F  F1  1  0.16548826  0.83212406  0.83337009  1
  F  F2  1  0.16787594  0.33336420  0.83337009  1
  F  F3  1  0.50243559  0.50243559  0.50000000  1
  F  F4  1  0.49756441  0.00000000  0.50000000  1
  F  F5  1  0.00000000  0.49756441  0.50000000  1
  F  F6  1  0.83451174  0.66663580  0.16662991  1
  F  F7  1  0.33336420  0.16787594  0.16662991  1
  F  F8  1  0.83212406  0.16548826  0.16662991  1
  Co  Co9  1  0.66666667  0.33333333  0.33333102  1
  Co  Co10  1  0.33333333  0.66666667  0.66666898  1
  Co  Co11  1  0.00000000  0.00000000  0.00000000  1
