# generated using pymatgen
data_SiO2
_symmetry_space_group_name_H-M   'P 1'
_cell_length_a   7.50081728
_cell_length_b   11.65232535
_cell_length_c   22.28491234
_cell_angle_alpha   90.00000000
_cell_angle_beta   90.00000000
_cell_angle_gamma   94.82510915
_symmetry_Int_Tables_number   1
_chemical_formula_structural   SiO2
_chemical_formula_sum   'Si32 O64'
_cell_volume   1940.84246478
_cell_formula_units_Z   32
loop_
 _symmetry_equiv_pos_site_id
 _symmetry_equiv_pos_as_xyz
  1  'x, y, z'
loop_
 _atom_site_type_symbol
 _atom_site_label
 _atom_site_symmetry_multiplicity
 _atom_site_fract_x
 _atom_site_fract_y
 _atom_site_fract_z
 _atom_site_occupancy
  Si  Si0  1  0.74285899  0.03761518  0.81736871  1
  Si  Si1  1  0.10179615  0.13554058  0.63001139  1
  Si  Si2  1  0.59637293  0.39265543  0.92985766  1
  Si  Si3  1  0.23793400  0.94910158  0.54170383  1
  Si  Si4  1  0.48034781  0.23919734  0.68027786  1
  Si  Si5  1  0.93736740  0.26969531  0.97815688  1
  Si  Si6  1  0.25714101  0.96238482  0.18263129  1
  Si  Si7  1  0.48034781  0.23919734  0.81972214  1
  Si  Si8  1  0.63601783  0.89018543  0.93026063  1
  Si  Si9  1  0.51965219  0.76080266  0.18027786  1
  Si  Si10  1  0.40362707  0.60734457  0.42985766  1
  Si  Si11  1  0.63601783  0.89018543  0.56973937  1
  Si  Si12  1  0.76206600  0.05089842  0.04170383  1
  Si  Si13  1  0.51965219  0.76080266  0.31972214  1
  Si  Si14  1  0.93736740  0.26969531  0.52184312  1
  Si  Si15  1  0.89820385  0.86445942  0.36998861  1
  Si  Si16  1  0.23793400  0.94910158  0.95829617  1
  Si  Si17  1  0.59637293  0.39265543  0.57014234  1
  Si  Si18  1  0.10179615  0.13554058  0.86998861  1
  Si  Si19  1  0.25714101  0.96238482  0.31736871  1
  Si  Si20  1  0.70853346  0.63836174  0.52906501  1
  Si  Si21  1  0.06263260  0.73030469  0.02184312  1
  Si  Si22  1  0.29146654  0.36163826  0.02906501  1
  Si  Si23  1  0.36398217  0.10981457  0.06973937  1
  Si  Si24  1  0.89820385  0.86445942  0.13001139  1
  Si  Si25  1  0.06263260  0.73030469  0.47815688  1
  Si  Si26  1  0.29146654  0.36163826  0.47093499  1
  Si  Si27  1  0.40362707  0.60734457  0.07014234  1
  Si  Si28  1  0.74285899  0.03761518  0.68263129  1
  Si  Si29  1  0.36398217  0.10981457  0.43026063  1
  Si  Si30  1  0.76206600  0.05089842  0.45829617  1
  Si  Si31  1  0.70853346  0.63836174  0.97093499  1
  O  O32  1  0.42317754  0.90259215  0.93511206  1
  O  O33  1  0.49463946  0.28070819  0.75000000  1
  O  O34  1  0.60006148  0.13152499  0.66826038  1
  O  O35  1  0.15343830  0.01972416  0.90423738  1
  O  O36  1  0.41254631  0.37027578  0.96832128  1
  O  O37  1  0.28851760  0.06668888  0.36522483  1
  O  O38  1  0.02630876  0.22649258  0.91671975  1
  O  O39  1  0.89716267  0.16182708  0.02404957  1
  O  O40  1  0.32509623  0.24373909  0.43576139  1
  O  O41  1  0.58745369  0.62972422  0.03167872  1
  O  O42  1  0.84656170  0.98027584  0.40423738  1
  O  O43  1  0.39993852  0.86847501  0.16826038  1
  O  O44  1  0.27316471  0.19873049  0.66447547  1
  O  O45  1  0.02630876  0.22649258  0.58328025  1
  O  O46  1  0.41254631  0.37027578  0.53167872  1
  O  O47  1  0.15343830  0.01972416  0.59576262  1
  O  O48  1  0.60006148  0.13152499  0.83173962  1
  O  O49  1  0.97369124  0.77350742  0.08328025  1
  O  O50  1  0.72683529  0.80126951  0.16447547  1
  O  O51  1  0.72683529  0.80126951  0.33552453  1
  O  O52  1  0.24677364  0.67303947  0.03744249  1
  O  O53  1  0.28860321  0.01396294  0.25000000  1
  O  O54  1  0.42317754  0.90259215  0.56488794  1
  O  O55  1  0.97369124  0.77350742  0.41671975  1
  O  O56  1  0.94636872  0.09789302  0.82141974  1
  O  O57  1  0.73475969  0.96713587  0.51654963  1
  O  O58  1  0.55756479  0.34601867  0.63801139  1
  O  O59  1  0.08082704  0.36262458  0.01060345  1
  O  O60  1  0.10283733  0.83817292  0.97595043  1
  O  O61  1  0.26524031  0.03286413  0.48345037  1
  O  O62  1  0.57682246  0.09740785  0.43511206  1
  O  O63  1  0.28851760  0.06668888  0.13477517  1
  O  O64  1  0.44243521  0.65398133  0.36198861  1
  O  O65  1  0.65578372  0.53004473  0.57346252  1
  O  O66  1  0.67490377  0.75626091  0.56423861  1
  O  O67  1  0.08082704  0.36262458  0.48939655  1
  O  O68  1  0.75322636  0.32696053  0.96255751  1
  O  O69  1  0.71148240  0.93331112  0.63477517  1
  O  O70  1  0.05363128  0.90210698  0.17858026  1
  O  O71  1  0.91917296  0.63737542  0.98939655  1
  O  O72  1  0.91917296  0.63737542  0.51060345  1
  O  O73  1  0.05363128  0.90210698  0.32141974  1
  O  O74  1  0.24677364  0.67303947  0.46255751  1
  O  O75  1  0.71148240  0.93331112  0.86522483  1
  O  O76  1  0.75322636  0.32696053  0.53744249  1
  O  O77  1  0.50536054  0.71929181  0.25000000  1
  O  O78  1  0.27316471  0.19873049  0.83552453  1
  O  O79  1  0.58745369  0.62972422  0.46832128  1
  O  O80  1  0.26524031  0.03286413  0.01654963  1
  O  O81  1  0.34421628  0.46995527  0.07346252  1
  O  O82  1  0.84656170  0.98027584  0.09576262  1
  O  O83  1  0.71139679  0.98603706  0.75000000  1
  O  O84  1  0.67490377  0.75626091  0.93576139  1
  O  O85  1  0.65578372  0.53004473  0.92653748  1
  O  O86  1  0.57682246  0.09740785  0.06488794  1
  O  O87  1  0.34421628  0.46995527  0.42653748  1
  O  O88  1  0.89716267  0.16182708  0.47595043  1
  O  O89  1  0.10283733  0.83817292  0.52404957  1
  O  O90  1  0.44243521  0.65398133  0.13801139  1
  O  O91  1  0.55756479  0.34601867  0.86198861  1
  O  O92  1  0.73475969  0.96713587  0.98345037  1
  O  O93  1  0.39993852  0.86847501  0.33173962  1
  O  O94  1  0.94636872  0.09789302  0.67858026  1
  O  O95  1  0.32509623  0.24373909  0.06423861  1
