# generated using pymatgen
data_Hg3AsBrO4
_symmetry_space_group_name_H-M   'P 1'
_cell_length_a   8.70106967
_cell_length_b   8.70106967
_cell_length_c   8.70106967
_cell_angle_alpha   90.00000000
_cell_angle_beta   90.00000000
_cell_angle_gamma   90.00000000
_symmetry_Int_Tables_number   1
_chemical_formula_structural   Hg3AsBrO4
_chemical_formula_sum   'Hg12 As4 Br4 O16'
_cell_volume   658.74591983
_cell_formula_units_Z   4
loop_
 _symmetry_equiv_pos_site_id
 _symmetry_equiv_pos_as_xyz
  1  'x, y, z'
loop_
 _atom_site_type_symbol
 _atom_site_label
 _atom_site_symmetry_multiplicity
 _atom_site_fract_x
 _atom_site_fract_y
 _atom_site_fract_z
 _atom_site_occupancy
  Hg  Hg0  1  0.89366618  0.85752052  0.55273222  1
  Hg  Hg1  1  0.14247948  0.05273222  0.60633382  1
  Hg  Hg2  1  0.39366618  0.64247948  0.44726778  1
  Hg  Hg3  1  0.35752052  0.94726778  0.10633382  1
  Hg  Hg4  1  0.05273222  0.60633382  0.14247948  1
  Hg  Hg5  1  0.60633382  0.14247948  0.05273222  1
  Hg  Hg6  1  0.94726778  0.10633382  0.35752052  1
  Hg  Hg7  1  0.55273222  0.89366618  0.85752052  1
  Hg  Hg8  1  0.64247948  0.44726778  0.39366618  1
  Hg  Hg9  1  0.44726778  0.39366618  0.64247948  1
  Hg  Hg10  1  0.85752052  0.55273222  0.89366618  1
  Hg  Hg11  1  0.10633382  0.35752052  0.94726778  1
  As  As12  1  0.51708095  0.01708095  0.48291905  1
  As  As13  1  0.48291905  0.51708095  0.01708095  1
  As  As14  1  0.98291905  0.98291905  0.98291905  1
  As  As15  1  0.01708095  0.48291905  0.51708095  1
  Br  Br16  1  0.26372971  0.76372971  0.73627029  1
  Br  Br17  1  0.23627029  0.23627029  0.23627029  1
  Br  Br18  1  0.76372971  0.73627029  0.26372971  1
  Br  Br19  1  0.73627029  0.26372971  0.76372971  1
  O  O20  1  0.60209383  0.39570382  0.12437479  1
  O  O21  1  0.89570382  0.37562521  0.39790617  1
  O  O22  1  0.60429618  0.62437479  0.89790617  1
  O  O23  1  0.10429618  0.87562521  0.10209383  1
  O  O24  1  0.10209383  0.10429618  0.87562521  1
  O  O25  1  0.63043539  0.13043539  0.36956461  1
  O  O26  1  0.39790617  0.89570382  0.37562521  1
  O  O27  1  0.89790617  0.60429618  0.62437479  1
  O  O28  1  0.86956461  0.86956461  0.86956461  1
  O  O29  1  0.13043539  0.36956461  0.63043539  1
  O  O30  1  0.36956461  0.63043539  0.13043539  1
  O  O31  1  0.37562521  0.39790617  0.89570382  1
  O  O32  1  0.12437479  0.60209383  0.39570382  1
  O  O33  1  0.87562521  0.10209383  0.10429618  1
  O  O34  1  0.62437479  0.89790617  0.60429618  1
  O  O35  1  0.39570382  0.12437479  0.60209383  1
