# generated using pymatgen
data_Tb3Si2S8I
_symmetry_space_group_name_H-M   'P 1'
_cell_length_a   7.68458461
_cell_length_b   8.77160380
_cell_length_c   10.69548138
_cell_angle_alpha   98.16031434
_cell_angle_beta   90.00000000
_cell_angle_gamma   115.97873944
_symmetry_Int_Tables_number   1
_chemical_formula_structural   Tb3Si2S8I
_chemical_formula_sum   'Tb6 Si4 S16 I2'
_cell_volume   639.96467096
_cell_formula_units_Z   2
loop_
 _symmetry_equiv_pos_site_id
 _symmetry_equiv_pos_as_xyz
  1  'x, y, z'
loop_
 _atom_site_type_symbol
 _atom_site_label
 _atom_site_symmetry_multiplicity
 _atom_site_fract_x
 _atom_site_fract_y
 _atom_site_fract_z
 _atom_site_occupancy
  Tb  Tb0  1  0.92445480  0.59663067  0.31910920  1
  Tb  Tb1  1  0.32782412  0.40336933  0.18089080  1
  Tb  Tb2  1  0.07554520  0.40336933  0.68089080  1
  Tb  Tb3  1  0.61168598  0.00000000  0.25000000  1
  Tb  Tb4  1  0.67217588  0.59663067  0.81910920  1
  Tb  Tb5  1  0.38831402  0.00000000  0.75000000  1
  Si  Si6  1  0.30367827  0.68340191  0.97454739  1
  Si  Si7  1  0.37972364  0.68340191  0.47454739  1
  Si  Si8  1  0.62027636  0.31659809  0.52545261  1
  Si  Si9  1  0.69632173  0.31659809  0.02545261  1
  S  S10  1  0.71494194  0.56565801  0.08716955  1
  S  S11  1  0.25523408  0.70507373  0.17046042  1
  S  S12  1  0.14928393  0.43434199  0.41283045  1
  S  S13  1  0.55016035  0.29492627  0.32953958  1
  S  S14  1  0.74476592  0.29492627  0.82953958  1
  S  S15  1  0.40468858  0.13540438  0.03488267  1
  S  S16  1  0.44983965  0.70507373  0.67046042  1
  S  S17  1  0.60820395  0.71318232  0.35410455  1
  S  S18  1  0.10497837  0.71318232  0.85410455  1
  S  S19  1  0.26928420  0.86459562  0.46511733  1
  S  S20  1  0.73071580  0.13540438  0.53488267  1
  S  S21  1  0.28505806  0.43434199  0.91283045  1
  S  S22  1  0.89502163  0.28681768  0.14589545  1
  S  S23  1  0.85071607  0.56565801  0.58716955  1
  S  S24  1  0.59531142  0.86459562  0.96511733  1
  S  S25  1  0.39179605  0.28681768  0.64589545  1
  I  I26  1  0.01781701  0.00000000  0.25000000  1
  I  I27  1  0.98218299  0.00000000  0.75000000  1
