# generated using pymatgen
data_La(BO2)3
_symmetry_space_group_name_H-M   'P 1'
_cell_length_a   4.27640922
_cell_length_b   7.35171841
_cell_length_c   11.83354490
_cell_angle_alpha   90.00000000
_cell_angle_beta   90.00000000
_cell_angle_gamma   91.20623506
_symmetry_Int_Tables_number   1
_chemical_formula_structural   La(BO2)3
_chemical_formula_sum   'La4 B12 O24'
_cell_volume   371.95185894
_cell_formula_units_Z   4
loop_
 _symmetry_equiv_pos_site_id
 _symmetry_equiv_pos_as_xyz
  1  'x, y, z'
loop_
 _atom_site_type_symbol
 _atom_site_label
 _atom_site_symmetry_multiplicity
 _atom_site_fract_x
 _atom_site_fract_y
 _atom_site_fract_z
 _atom_site_occupancy
  La  La0  1  0.21605068  0.88012517  0.37733377  1
  La  La1  1  0.78394932  0.11987483  0.62266623  1
  La  La2  1  0.78394932  0.61987483  0.87733377  1
  La  La3  1  0.21605068  0.38012517  0.12266623  1
  B  B4  1  0.67715114  0.71094723  0.16604561  1
  B  B5  1  0.32284886  0.28905277  0.83395439  1
  B  B6  1  0.80397398  0.62613551  0.59365382  1
  B  B7  1  0.32284886  0.78905277  0.66604561  1
  B  B8  1  0.31085872  0.42750810  0.62189473  1
  B  B9  1  0.68914128  0.07249190  0.12189473  1
  B  B10  1  0.19602602  0.87386449  0.09365382  1
  B  B11  1  0.67715114  0.21094723  0.33395439  1
  B  B12  1  0.68914128  0.57249190  0.37810527  1
  B  B13  1  0.31085872  0.92750810  0.87810527  1
  B  B14  1  0.19602602  0.37386449  0.40634618  1
  B  B15  1  0.80397398  0.12613551  0.90634618  1
  O  O16  1  0.15207122  0.61080409  0.62757151  1
  O  O17  1  0.22032334  0.30756472  0.71573574  1
  O  O18  1  0.24950467  0.43771118  0.90947099  1
  O  O19  1  0.79497884  0.18073564  0.02429680  1
  O  O20  1  0.75049533  0.06228882  0.40947099  1
  O  O21  1  0.64968700  0.45354382  0.62027177  1
  O  O22  1  0.84792878  0.88919591  0.12757151  1
  O  O23  1  0.77967666  0.19243528  0.21573574  1
  O  O24  1  0.20502116  0.81926436  0.97570320  1
  O  O25  1  0.15207122  0.11080409  0.87242849  1
  O  O26  1  0.66634818  0.26400508  0.83256375  1
  O  O27  1  0.79497884  0.68073564  0.47570320  1
  O  O28  1  0.33365182  0.23599492  0.33256375  1
  O  O29  1  0.20502116  0.31926436  0.52429680  1
  O  O30  1  0.35031300  0.04645618  0.12027177  1
  O  O31  1  0.33365182  0.73599492  0.16743625  1
  O  O32  1  0.24950467  0.93771118  0.59052901  1
  O  O33  1  0.77967666  0.69243528  0.28426426  1
  O  O34  1  0.84792878  0.38919591  0.37242849  1
  O  O35  1  0.22032334  0.80756472  0.78426426  1
  O  O36  1  0.64968700  0.95354382  0.87972823  1
  O  O37  1  0.75049533  0.56228882  0.09052901  1
  O  O38  1  0.66634818  0.76400508  0.66743625  1
  O  O39  1  0.35031300  0.54645618  0.37972823  1
