# generated using pymatgen
data_Ba2BiRuO6
_symmetry_space_group_name_H-M   'P 1'
_cell_length_a   6.13474975
_cell_length_b   6.13475006
_cell_length_c   20.60001906
_cell_angle_alpha   90.00000000
_cell_angle_beta   90.00000000
_cell_angle_gamma   120.11335633
_symmetry_Int_Tables_number   1
_chemical_formula_structural   Ba2BiRuO6
_chemical_formula_sum   'Ba8 Bi4 Ru4 O24'
_cell_volume   670.64821122
_cell_formula_units_Z   4
loop_
 _symmetry_equiv_pos_site_id
 _symmetry_equiv_pos_as_xyz
  1  'x, y, z'
loop_
 _atom_site_type_symbol
 _atom_site_label
 _atom_site_symmetry_multiplicity
 _atom_site_fract_x
 _atom_site_fract_y
 _atom_site_fract_z
 _atom_site_occupancy
  Ba  Ba0  1  0.66763412  0.33236588  0.64456522  1
  Ba  Ba1  1  0.66654194  0.33345806  0.25000000  1
  Ba  Ba2  1  0.33345806  0.66654194  0.75000000  1
  Ba  Ba3  1  0.00000000  0.00000000  0.50000000  1
  Ba  Ba4  1  0.33236588  0.66763412  0.14456522  1
  Ba  Ba5  1  0.33236588  0.66763412  0.35543478  1
  Ba  Ba6  1  0.66763412  0.33236588  0.85543478  1
  Ba  Ba7  1  0.00000000  0.00000000  0.00000000  1
  Bi  Bi8  1  0.66605051  0.33394949  0.43886831  1
  Bi  Bi9  1  0.33394949  0.66605051  0.56113169  1
  Bi  Bi10  1  0.66605051  0.33394949  0.06113169  1
  Bi  Bi11  1  0.33394949  0.66605051  0.93886831  1
  Ru  Ru12  1  0.00276149  0.99723851  0.68334065  1
  Ru  Ru13  1  0.99723851  0.00276149  0.31665935  1
  Ru  Ru14  1  0.00276149  0.99723851  0.81665935  1
  Ru  Ru15  1  0.99723851  0.00276149  0.18334065  1
  O  O16  1  0.15835256  0.84164744  0.63660493  1
  O  O17  1  0.85206397  0.69699728  0.75000000  1
  O  O18  1  0.15884353  0.30441122  0.86529546  1
  O  O19  1  0.84164744  0.15835256  0.36339507  1
  O  O20  1  0.15884353  0.30441122  0.63470454  1
  O  O21  1  0.50000000  0.00000000  0.00000000  1
  O  O22  1  0.69558878  0.84115647  0.63470454  1
  O  O23  1  0.14793603  0.30300272  0.25000000  1
  O  O24  1  0.14697164  0.85302836  0.25000000  1
  O  O25  1  0.84115647  0.69558878  0.13470454  1
  O  O26  1  0.30300272  0.14793603  0.75000000  1
  O  O27  1  0.30441122  0.15884353  0.13470454  1
  O  O28  1  0.50000000  0.00000000  0.50000000  1
  O  O29  1  0.69699728  0.85206397  0.25000000  1
  O  O30  1  0.30441122  0.15884353  0.36529546  1
  O  O31  1  0.84164744  0.15835256  0.13660493  1
  O  O32  1  0.84115647  0.69558878  0.36529546  1
  O  O33  1  0.00000000  0.50000000  0.50000000  1
  O  O34  1  0.50000000  0.50000000  0.50000000  1
  O  O35  1  0.69558878  0.84115647  0.86529546  1
  O  O36  1  0.85302836  0.14697164  0.75000000  1
  O  O37  1  0.00000000  0.50000000  0.00000000  1
  O  O38  1  0.15835256  0.84164744  0.86339507  1
  O  O39  1  0.50000000  0.50000000  0.00000000  1
