# generated using pymatgen
data_Ba4Eu4Zn3PtO15
_symmetry_space_group_name_H-M   'P 1'
_cell_length_a   11.82206685
_cell_length_b   11.82206661
_cell_length_c   6.85262538
_cell_angle_alpha   90.00000000
_cell_angle_beta   90.00000000
_cell_angle_gamma   120.00000065
_symmetry_Int_Tables_number   1
_chemical_formula_structural   Ba4Eu4Zn3PtO15
_chemical_formula_sum   'Ba8 Eu8 Zn6 Pt2 O30'
_cell_volume   829.41986359
_cell_formula_units_Z   2
loop_
 _symmetry_equiv_pos_site_id
 _symmetry_equiv_pos_as_xyz
  1  'x, y, z'
loop_
 _atom_site_type_symbol
 _atom_site_label
 _atom_site_symmetry_multiplicity
 _atom_site_fract_x
 _atom_site_fract_y
 _atom_site_fract_z
 _atom_site_occupancy
  Eu  Eu0  1  0.48020159  0.51979841  0.00586852  1
  Eu  Eu1  1  0.00000000  0.00000000  0.84141864  1
  Eu  Eu2  1  0.51979841  0.48020159  0.50586852  1
  Eu  Eu3  1  0.48020159  0.96040317  0.00586852  1
  Eu  Eu4  1  0.03959683  0.51979841  0.00586852  1
  Eu  Eu5  1  0.00000000  0.00000000  0.34141864  1
  Eu  Eu6  1  0.96040317  0.48020159  0.50586852  1
  Eu  Eu7  1  0.51979841  0.03959683  0.50586852  1
  Ba  Ba8  1  0.33333300  0.66666700  0.33213935  1
  Ba  Ba9  1  0.34039941  0.17019971  0.16144396  1
  Ba  Ba10  1  0.82980029  0.17019971  0.16144396  1
  Ba  Ba11  1  0.17019971  0.82980029  0.66144396  1
  Ba  Ba12  1  0.65960059  0.82980029  0.66144396  1
  Ba  Ba13  1  0.66666700  0.33333300  0.83213935  1
  Ba  Ba14  1  0.17019971  0.34039941  0.66144396  1
  Ba  Ba15  1  0.82980029  0.65960059  0.16144396  1
  Zn  Zn16  1  0.17205339  0.34410677  0.17454622  1
  Zn  Zn17  1  0.17205339  0.82794661  0.17454622  1
  Zn  Zn18  1  0.82794661  0.65589323  0.67454622  1
  Zn  Zn19  1  0.82794661  0.17205339  0.67454622  1
  Zn  Zn20  1  0.65589323  0.82794661  0.17454622  1
  Zn  Zn21  1  0.34410677  0.17205339  0.67454622  1
  Pt  Pt22  1  0.66666700  0.33333300  0.31662573  1
  Pt  Pt23  1  0.33333300  0.66666700  0.81662573  1
  O  O24  1  0.94228414  0.33767171  0.80289029  1
  O  O25  1  0.16811415  0.08405707  0.57282250  1
  O  O26  1  0.41513048  0.83026096  0.65578452  1
  O  O27  1  0.25167285  0.74832715  0.98750914  1
  O  O28  1  0.60461243  0.66232829  0.30289029  1
  O  O29  1  0.33767171  0.94228414  0.30289029  1
  O  O30  1  0.33767171  0.39538757  0.30289029  1
  O  O31  1  0.58486952  0.16973904  0.15578452  1
  O  O32  1  0.91594293  0.08405707  0.57282250  1
  O  O33  1  0.74832715  0.49665429  0.48750914  1
  O  O34  1  0.08405707  0.91594293  0.07282250  1
  O  O35  1  0.50334571  0.25167285  0.48750914  1
  O  O36  1  0.41513048  0.58486952  0.65578452  1
  O  O37  1  0.39538757  0.05771586  0.80289029  1
  O  O38  1  0.58486952  0.41513048  0.15578452  1
  O  O39  1  0.60461243  0.94228414  0.30289029  1
  O  O40  1  0.05771586  0.66232829  0.30289029  1
  O  O41  1  0.66232829  0.05771586  0.80289029  1
  O  O42  1  0.39538757  0.33767171  0.80289029  1
  O  O43  1  0.49665429  0.74832715  0.98750914  1
  O  O44  1  0.08405707  0.16811415  0.07282250  1
  O  O45  1  0.16973904  0.58486952  0.65578452  1
  O  O46  1  0.91594293  0.83188585  0.57282250  1
  O  O47  1  0.83188585  0.91594293  0.07282250  1
  O  O48  1  0.83026096  0.41513048  0.15578452  1
  O  O49  1  0.25167285  0.50334571  0.98750914  1
  O  O50  1  0.94228414  0.60461243  0.80289029  1
  O  O51  1  0.74832715  0.25167285  0.48750914  1
  O  O52  1  0.05771586  0.39538757  0.30289029  1
  O  O53  1  0.66232829  0.60461243  0.80289029  1
