# generated using pymatgen
data_AgSbPbS3
_symmetry_space_group_name_H-M   'P 1'
_cell_length_a   6.07077848
_cell_length_b   7.69787269
_cell_length_c   12.90212918
_cell_angle_alpha   90.00000000
_cell_angle_beta   90.00000000
_cell_angle_gamma   91.02013169
_symmetry_Int_Tables_number   1
_chemical_formula_structural   AgSbPbS3
_chemical_formula_sum   'Ag4 Sb4 Pb4 S12'
_cell_volume   602.84776536
_cell_formula_units_Z   4
loop_
 _symmetry_equiv_pos_site_id
 _symmetry_equiv_pos_as_xyz
  1  'x, y, z'
loop_
 _atom_site_type_symbol
 _atom_site_label
 _atom_site_symmetry_multiplicity
 _atom_site_fract_x
 _atom_site_fract_y
 _atom_site_fract_z
 _atom_site_occupancy
  Ag  Ag0  1  0.21795733  0.87714991  0.73950313  1
  Ag  Ag1  1  0.78204267  0.12285009  0.26049687  1
  Ag  Ag2  1  0.78204267  0.62285009  0.23950313  1
  Ag  Ag3  1  0.21795733  0.37714991  0.76049687  1
  Sb  Sb4  1  0.73286533  0.63642996  0.91069368  1
  Sb  Sb5  1  0.26713467  0.86357004  0.41069368  1
  Sb  Sb6  1  0.26713467  0.36357004  0.08930632  1
  Sb  Sb7  1  0.73286533  0.13642996  0.58930632  1
  Pb  Pb8  1  0.74430016  0.64678500  0.58458494  1
  Pb  Pb9  1  0.74430016  0.14678500  0.91541506  1
  Pb  Pb10  1  0.25569984  0.85321500  0.08458494  1
  Pb  Pb11  1  0.25569984  0.35321500  0.41541506  1
  S  S12  1  0.26507627  0.64948152  0.55733867  1
  S  S13  1  0.13304286  0.13753137  0.62621919  1
  S  S14  1  0.26507627  0.14948152  0.94266133  1
  S  S15  1  0.73492373  0.35051848  0.44266133  1
  S  S16  1  0.13304286  0.63753137  0.87378081  1
  S  S17  1  0.86695714  0.86246863  0.37378081  1
  S  S18  1  0.73492373  0.85051848  0.05733867  1
  S  S19  1  0.35128967  0.63837791  0.27852362  1
  S  S20  1  0.35128967  0.13837791  0.22147638  1
  S  S21  1  0.64871033  0.86162209  0.77852362  1
  S  S22  1  0.86695714  0.36246863  0.12621919  1
  S  S23  1  0.64871033  0.36162209  0.72147638  1
