# generated using pymatgen
data_Ba12Cl5F19
_symmetry_space_group_name_H-M   'P 1'
_cell_length_a   14.29165168
_cell_length_b   14.29165204
_cell_length_c   4.32907967
_cell_angle_alpha   90.00000000
_cell_angle_beta   90.00000000
_cell_angle_gamma   119.99999917
_symmetry_Int_Tables_number   1
_chemical_formula_structural   Ba12Cl5F19
_chemical_formula_sum   'Ba12 Cl5 F19'
_cell_volume   765.75716737
_cell_formula_units_Z   1
loop_
 _symmetry_equiv_pos_site_id
 _symmetry_equiv_pos_as_xyz
  1  'x, y, z'
loop_
 _atom_site_type_symbol
 _atom_site_label
 _atom_site_symmetry_multiplicity
 _atom_site_fract_x
 _atom_site_fract_y
 _atom_site_fract_z
 _atom_site_occupancy
  Ba  Ba0  1  0.17768641  0.00000000  0.00000000  1
  Ba  Ba1  1  0.83290425  0.30794713  0.50000000  1
  Ba  Ba2  1  0.00000000  0.62585975  0.00000000  1
  Ba  Ba3  1  0.47504288  0.16709575  0.50000000  1
  Ba  Ba4  1  0.82231359  0.82231359  0.00000000  1
  Ba  Ba5  1  0.30794713  0.83290425  0.50000000  1
  Ba  Ba6  1  0.16709575  0.47504288  0.50000000  1
  Ba  Ba7  1  0.69205287  0.52495712  0.50000000  1
  Ba  Ba8  1  0.00000000  0.17768641  0.00000000  1
  Ba  Ba9  1  0.52495712  0.69205287  0.50000000  1
  Ba  Ba10  1  0.62585975  0.00000000  0.00000000  1
  Ba  Ba11  1  0.37414025  0.37414025  0.00000000  1
  Cl  Cl12  1  0.00000000  0.81166598  0.50000000  1
  Cl  Cl13  1  0.18833402  0.18833402  0.50000000  1
  Cl  Cl14  1  0.81166598  0.00000000  0.50000000  1
  Cl  Cl15  1  0.66666700  0.33333300  0.00000000  1
  Cl  Cl16  1  0.33333300  0.66666700  0.00000000  1
  F  F17  1  0.18271219  0.37557202  0.00000000  1
  F  F18  1  0.51143727  0.87429690  0.50000000  1
  F  F19  1  0.80714017  0.62442798  0.00000000  1
  F  F20  1  0.43900305  0.00000000  0.00000000  1
  F  F21  1  0.00000000  0.27944994  0.50000000  1
  F  F22  1  0.56099695  0.56099695  0.00000000  1
  F  F23  1  0.81728781  0.19285983  0.00000000  1
  F  F24  1  0.36285964  0.48856273  0.50000000  1
  F  F25  1  0.72055006  0.72055006  0.50000000  1
  F  F26  1  0.00000000  0.43900305  0.00000000  1
  F  F27  1  0.87429690  0.51143727  0.50000000  1
  F  F28  1  0.37557202  0.18271219  0.00000000  1
  F  F29  1  0.19285983  0.81728781  0.00000000  1
  F  F30  1  0.62442798  0.80714017  0.00000000  1
  F  F31  1  0.63714036  0.12570310  0.50000000  1
  F  F32  1  0.27944994  0.00000000  0.50000000  1
  F  F33  1  0.48856273  0.36285964  0.50000000  1
  F  F34  1  0.12570310  0.63714036  0.50000000  1
  F  F35  1  0.00000000  0.00000000  0.00000000  1
