# generated using pymatgen
data_RbSb2C2O4F5
_symmetry_space_group_name_H-M   'P 1'
_cell_length_a   6.15305008
_cell_length_b   6.65900938
_cell_length_c   23.13776485
_cell_angle_alpha   90.00000000
_cell_angle_beta   90.00000000
_cell_angle_gamma   90.00000000
_symmetry_Int_Tables_number   1
_chemical_formula_structural   RbSb2C2O4F5
_chemical_formula_sum   'Rb4 Sb8 C8 O16 F20'
_cell_volume   948.02868782
_cell_formula_units_Z   4
loop_
 _symmetry_equiv_pos_site_id
 _symmetry_equiv_pos_as_xyz
  1  'x, y, z'
loop_
 _atom_site_type_symbol
 _atom_site_label
 _atom_site_symmetry_multiplicity
 _atom_site_fract_x
 _atom_site_fract_y
 _atom_site_fract_z
 _atom_site_occupancy
  Rb  Rb0  1  0.47758027  0.00528382  0.50390220  1
  Rb  Rb1  1  0.97758027  0.49471618  0.49609780  1
  Rb  Rb2  1  0.02241973  0.99471618  0.00390220  1
  Rb  Rb3  1  0.52241973  0.50528382  0.99609780  1
  Sb  Sb4  1  0.48780442  0.99082950  0.88529326  1
  Sb  Sb5  1  0.53498688  0.54889807  0.35736748  1
  Sb  Sb6  1  0.51219558  0.49082950  0.61470674  1
  Sb  Sb7  1  0.96501312  0.45110193  0.85736748  1
  Sb  Sb8  1  0.98780442  0.50917050  0.11470674  1
  Sb  Sb9  1  0.03498688  0.95110193  0.64263252  1
  Sb  Sb10  1  0.46501312  0.04889807  0.14263252  1
  Sb  Sb11  1  0.01219558  0.00917050  0.38529326  1
  C  C12  1  0.67932595  0.44347693  0.23541331  1
  C  C13  1  0.68211068  0.37524567  0.75502984  1
  C  C14  1  0.17932595  0.05652307  0.76458669  1
  C  C15  1  0.32067405  0.94347693  0.26458669  1
  C  C16  1  0.18211068  0.12475433  0.24497016  1
  C  C17  1  0.82067405  0.55652307  0.73541331  1
  C  C18  1  0.81788932  0.62475433  0.25502984  1
  C  C19  1  0.31788932  0.87524567  0.74497016  1
  O  O20  1  0.69654331  0.38193946  0.18407912  1
  O  O21  1  0.05203333  0.20536449  0.27816342  1
  O  O22  1  0.78536135  0.68146600  0.30868581  1
  O  O23  1  0.21463865  0.18146600  0.19131419  1
  O  O24  1  0.28536135  0.81853400  0.69131419  1
  O  O25  1  0.55203333  0.29463551  0.72183658  1
  O  O26  1  0.19654331  0.11806054  0.81592088  1
  O  O27  1  0.55280880  0.36854355  0.27338168  1
  O  O28  1  0.94719120  0.63145645  0.77338168  1
  O  O29  1  0.94796667  0.70536449  0.22183658  1
  O  O30  1  0.80345669  0.61806054  0.68407912  1
  O  O31  1  0.30345669  0.88193946  0.31592088  1
  O  O32  1  0.71463865  0.31853400  0.80868581  1
  O  O33  1  0.44796667  0.79463551  0.77816342  1
  O  O34  1  0.05280880  0.13145645  0.72661832  1
  O  O35  1  0.44719120  0.86854355  0.22661832  1
  F  F36  1  0.75106247  0.70302024  0.09698527  1
  F  F37  1  0.74500767  0.34593490  0.38773837  1
  F  F38  1  0.17881744  0.76565886  0.58297745  1
  F  F39  1  0.32118256  0.23434114  0.08297745  1
  F  F40  1  0.74893753  0.29697976  0.59698527  1
  F  F41  1  0.57720036  0.92735808  0.96800760  1
  F  F42  1  0.82118256  0.26565886  0.91702255  1
  F  F43  1  0.24500767  0.15406510  0.61226163  1
  F  F44  1  0.07720036  0.57264192  0.03199240  1
  F  F45  1  0.24893753  0.20302024  0.40301473  1
  F  F46  1  0.25499233  0.84593490  0.11226163  1
  F  F47  1  0.25106247  0.79697976  0.90301473  1
  F  F48  1  0.31893253  0.20848040  0.92461880  1
  F  F49  1  0.75499233  0.65406510  0.88773837  1
  F  F50  1  0.67881744  0.73434114  0.41702255  1
  F  F51  1  0.81893253  0.29151960  0.07538120  1
  F  F52  1  0.18106747  0.79151960  0.42461880  1
  F  F53  1  0.92279964  0.07264192  0.46800760  1
  F  F54  1  0.42279964  0.42735808  0.53199240  1
  F  F55  1  0.68106747  0.70848040  0.57538120  1
