# generated using pymatgen
data_SiO2
_symmetry_space_group_name_H-M   'P 1'
_cell_length_a   12.69383362
_cell_length_b   12.67903240
_cell_length_c   12.67903251
_cell_angle_alpha   114.89167462
_cell_angle_beta   90.00000000
_cell_angle_gamma   90.00000000
_symmetry_Int_Tables_number   1
_chemical_formula_structural   SiO2
_chemical_formula_sum   'Si28 O56'
_cell_volume   1851.06929764
_cell_formula_units_Z   28
loop_
 _symmetry_equiv_pos_site_id
 _symmetry_equiv_pos_as_xyz
  1  'x, y, z'
loop_
 _atom_site_type_symbol
 _atom_site_label
 _atom_site_symmetry_multiplicity
 _atom_site_fract_x
 _atom_site_fract_y
 _atom_site_fract_z
 _atom_site_occupancy
  Si  Si0  1  0.37559404  0.19211030  0.04813423  1
  Si  Si1  1  0.00000000  0.19753775  0.04686408  1
  Si  Si2  1  0.12638964  0.83805011  0.39996772  1
  Si  Si3  1  0.62316731  0.81680518  0.96245244  1
  Si  Si4  1  0.19117306  0.65682258  0.95654299  1
  Si  Si5  1  0.12666845  0.17507535  0.61251649  1
  Si  Si6  1  0.87361036  0.83805011  0.39996772  1
  Si  Si7  1  0.19408306  0.05610423  0.35759050  1
  Si  Si8  1  0.80591694  0.05610423  0.35759050  1
  Si  Si9  1  0.87333155  0.61251649  0.17507535  1
  Si  Si10  1  0.62440596  0.04813423  0.19211030  1
  Si  Si11  1  0.00000000  0.82165260  0.97181262  1
  Si  Si12  1  0.37683269  0.96245244  0.81680518  1
  Si  Si13  1  0.87361036  0.39996772  0.83805011  1
  Si  Si14  1  0.80882694  0.95654299  0.65682258  1
  Si  Si15  1  0.80882694  0.65682258  0.95654299  1
  Si  Si16  1  0.80591694  0.35759050  0.05610423  1
  Si  Si17  1  0.87333155  0.17507535  0.61251649  1
  Si  Si18  1  0.62316731  0.96245244  0.81680518  1
  Si  Si19  1  0.00000000  0.97181262  0.82165260  1
  Si  Si20  1  0.37683269  0.81680518  0.96245244  1
  Si  Si21  1  0.00000000  0.04686408  0.19753775  1
  Si  Si22  1  0.37559404  0.04813423  0.19211030  1
  Si  Si23  1  0.12666845  0.61251649  0.17507535  1
  Si  Si24  1  0.12638964  0.39996772  0.83805011  1
  Si  Si25  1  0.19408306  0.35759050  0.05610423  1
  Si  Si26  1  0.62440596  0.19211030  0.04813423  1
  Si  Si27  1  0.19117306  0.95654299  0.65682258  1
  O  O28  1  0.50000000  0.95974958  0.78091971  1
  O  O29  1  0.81796483  0.35468401  0.92700707  1
  O  O30  1  0.00000000  0.12525063  0.12525063  1
  O  O31  1  0.18220196  0.15557578  0.49014206  1
  O  O32  1  0.30932805  0.30812427  0.06776308  1
  O  O33  1  0.30727116  0.94184321  0.70256432  1
  O  O34  1  0.17811123  0.65996739  0.08562981  1
  O  O35  1  0.10429954  0.74128407  0.93868530  1
  O  O36  1  0.50000000  0.22412400  0.05509275  1
  O  O37  1  0.00000000  0.86345366  0.41237969  1
  O  O38  1  0.17573411  0.52493891  0.85674932  1
  O  O39  1  0.17573411  0.85674932  0.52493891  1
  O  O40  1  0.10456239  0.07733271  0.27758513  1
  O  O41  1  0.30727116  0.70256432  0.94184321  1
  O  O42  1  0.69067195  0.30812427  0.06776308  1
  O  O43  1  0.89543761  0.27758513  0.07733271  1
  O  O44  1  0.81779804  0.49014206  0.15557578  1
  O  O45  1  0.65440958  0.14919202  0.14919202  1
  O  O46  1  0.17811123  0.08562981  0.65996739  1
  O  O47  1  0.82426589  0.85674932  0.52493891  1
  O  O48  1  0.34735027  0.92090436  0.08880988  1
  O  O49  1  0.82188877  0.08562981  0.65996739  1
  O  O50  1  0.89543761  0.07733271  0.27758513  1
  O  O51  1  0.89570046  0.93868530  0.74128407  1
  O  O52  1  0.34735027  0.08880988  0.92090436  1
  O  O53  1  0.82426589  0.52493891  0.85674932  1
  O  O54  1  0.14946544  0.30801560  0.70500594  1
  O  O55  1  0.00000000  0.15145125  0.59424158  1
  O  O56  1  0.50000000  0.78091971  0.95974958  1
  O  O57  1  0.10456239  0.27758513  0.07733271  1
  O  O58  1  0.18220196  0.49014206  0.15557578  1
  O  O59  1  0.34559042  0.14919202  0.14919202  1
  O  O60  1  0.64648855  0.86020461  0.86020461  1
  O  O61  1  0.81796483  0.92700707  0.35468401  1
  O  O62  1  0.18203517  0.35468401  0.92700707  1
  O  O63  1  0.65264973  0.92090436  0.08880988  1
  O  O64  1  0.81779804  0.15557578  0.49014206  1
  O  O65  1  0.00000000  0.89683053  0.89683053  1
  O  O66  1  0.69067195  0.06776308  0.30812427  1
  O  O67  1  0.00000000  0.59424158  0.15145125  1
  O  O68  1  0.50000000  0.05509275  0.22412400  1
  O  O69  1  0.00000000  0.10999809  0.90867949  1
  O  O70  1  0.69272884  0.94184321  0.70256432  1
  O  O71  1  0.85053456  0.30801560  0.70500594  1
  O  O72  1  0.65264973  0.08880988  0.92090436  1
  O  O73  1  0.82188877  0.65996739  0.08562981  1
  O  O74  1  0.35351145  0.86020461  0.86020461  1
  O  O75  1  0.18203517  0.92700707  0.35468401  1
  O  O76  1  0.85053456  0.70500594  0.30801560  1
  O  O77  1  0.69272884  0.70256432  0.94184321  1
  O  O78  1  0.00000000  0.41237969  0.86345366  1
  O  O79  1  0.14946544  0.70500594  0.30801560  1
  O  O80  1  0.00000000  0.90867949  0.10999809  1
  O  O81  1  0.30932805  0.06776308  0.30812427  1
  O  O82  1  0.10429954  0.93868530  0.74128407  1
  O  O83  1  0.89570046  0.74128407  0.93868530  1
