# generated using pymatgen
data_Ti8O15
_symmetry_space_group_name_H-M   'P 1'
_cell_length_a   5.58414619
_cell_length_b   7.19517076
_cell_length_c   26.12962478
_cell_angle_alpha   91.27203752
_cell_angle_beta   89.32182623
_cell_angle_gamma   71.34640897
_symmetry_Int_Tables_number   1
_chemical_formula_structural   Ti8O15
_chemical_formula_sum   'Ti32 O60'
_cell_volume   994.26586523
_cell_formula_units_Z   4
loop_
 _symmetry_equiv_pos_site_id
 _symmetry_equiv_pos_as_xyz
  1  'x, y, z'
loop_
 _atom_site_type_symbol
 _atom_site_label
 _atom_site_symmetry_multiplicity
 _atom_site_fract_x
 _atom_site_fract_y
 _atom_site_fract_z
 _atom_site_occupancy
  Ti  Ti0  1  0.54921503  0.94906145  0.22730075  1
  Ti  Ti1  1  0.95086928  0.05287517  0.27422085  1
  Ti  Ti2  1  0.39295993  0.90550613  0.09566913  1
  Ti  Ti3  1  0.60704007  0.09449387  0.90433087  1
  Ti  Ti4  1  0.95078497  0.55093855  0.27269925  1
  Ti  Ti5  1  0.69715552  0.36724219  0.46809512  1
  Ti  Ti6  1  0.51570475  0.80965756  0.34025960  1
  Ti  Ti7  1  0.20177882  0.36642180  0.96783134  1
  Ti  Ti8  1  0.98551652  0.18610198  0.16003460  1
  Ti  Ti9  1  0.80284448  0.13275781  0.03190488  1
  Ti  Ti10  1  0.60233096  0.59589070  0.90483644  1
  Ti  Ti11  1  0.04913072  0.94712483  0.72577915  1
  Ti  Ti12  1  0.48551652  0.68610198  0.66003460  1
  Ti  Ti13  1  0.01448348  0.81389802  0.83996540  1
  Ti  Ti14  1  0.51448348  0.31389802  0.33996540  1
  Ti  Ti15  1  0.04921503  0.44906145  0.72730075  1
  Ti  Ti16  1  0.45078497  0.05093855  0.77269925  1
  Ti  Ti17  1  0.79822118  0.63357820  0.03216866  1
  Ti  Ti18  1  0.54913072  0.44712483  0.22577915  1
  Ti  Ti19  1  0.70177882  0.86642180  0.46783134  1
  Ti  Ti20  1  0.89766904  0.90410930  0.59516356  1
  Ti  Ti21  1  0.10233096  0.09589070  0.40483644  1
  Ti  Ti22  1  0.01570475  0.30965756  0.84025960  1
  Ti  Ti23  1  0.10704007  0.59449387  0.40433087  1
  Ti  Ti24  1  0.30284448  0.63275781  0.53190488  1
  Ti  Ti25  1  0.39766904  0.40410930  0.09516356  1
  Ti  Ti26  1  0.29822118  0.13357820  0.53216866  1
  Ti  Ti27  1  0.98429525  0.69034244  0.15974040  1
  Ti  Ti28  1  0.45086928  0.55287517  0.77422085  1
  Ti  Ti29  1  0.48429525  0.19034244  0.65974040  1
  Ti  Ti30  1  0.89295993  0.40550613  0.59566913  1
  Ti  Ti31  1  0.19715552  0.86724219  0.96809512  1
  O  O32  1  0.25290505  0.75103012  0.89409388  1
  O  O33  1  0.27429913  0.18757047  0.12140529  1
  O  O34  1  0.34209764  0.52104851  0.17056966  1
  O  O35  1  0.24709495  0.74896988  0.60590612  1
  O  O36  1  0.20267941  0.08107278  0.22600078  1
  O  O37  1  0.15788421  0.96858865  0.03898460  1
  O  O38  1  0.49265679  0.36946269  0.92277404  1
  O  O39  1  0.32367442  0.08413933  0.94511196  1
  O  O40  1  0.22570087  0.31242953  0.37859471  1
  O  O41  1  0.90774531  0.09358504  0.85825453  1
  O  O42  1  0.88872138  0.45709541  0.19616959  1
  O  O43  1  0.09225469  0.90641496  0.14174547  1
  O  O44  1  0.20108505  0.66126570  0.71008316  1
  O  O45  1  0.38872138  0.95709541  0.69616959  1
  O  O46  1  0.47030257  0.92595137  0.40605787  1
  O  O47  1  0.04893251  0.20431879  0.76177976  1
  O  O48  1  0.08123061  0.64375619  0.98820420  1
  O  O49  1  0.15790236  0.97895149  0.32943034  1
  O  O50  1  0.79732059  0.91892722  0.77399922  1
  O  O51  1  0.65788421  0.46858865  0.53898460  1
  O  O52  1  0.02969743  0.57404863  0.09394213  1
  O  O53  1  0.58123061  0.14375619  0.48820420  1
  O  O54  1  0.87809557  0.66286877  0.33931991  1
  O  O55  1  0.95106749  0.79568121  0.23822024  1
  O  O56  1  0.06333178  0.19522153  0.47284090  1
  O  O57  1  0.65790236  0.47895149  0.82943034  1
  O  O58  1  0.52969743  0.07404863  0.59394213  1
  O  O59  1  0.00734321  0.13053731  0.57722596  1
  O  O60  1  0.37809557  0.16286877  0.83931991  1
  O  O61  1  0.84209764  0.02104851  0.67056966  1
  O  O62  1  0.97030257  0.42595137  0.90605787  1
  O  O63  1  0.67632558  0.91586067  0.05488804  1
  O  O64  1  0.84211579  0.03141135  0.96101540  1
  O  O65  1  0.99265679  0.86946269  0.42277404  1
  O  O66  1  0.29891495  0.83873430  0.78991684  1
  O  O67  1  0.12190443  0.33713123  0.66068009  1
  O  O68  1  0.74709495  0.24896988  0.10590612  1
  O  O69  1  0.72570087  0.81242953  0.87859471  1
  O  O70  1  0.82367442  0.58413933  0.44511196  1
  O  O71  1  0.50734321  0.63053731  0.07722596  1
  O  O72  1  0.59225469  0.40641496  0.64174547  1
  O  O73  1  0.91876939  0.35624381  0.01179580  1
  O  O74  1  0.40774531  0.59358504  0.35825453  1
  O  O75  1  0.29732059  0.41892722  0.27399922  1
  O  O76  1  0.11127862  0.54290459  0.80383041  1
  O  O77  1  0.79891495  0.33873430  0.28991684  1
  O  O78  1  0.75290505  0.25103012  0.39409388  1
  O  O79  1  0.34211579  0.53141135  0.46101540  1
  O  O80  1  0.61127862  0.04290459  0.30383041  1
  O  O81  1  0.70108505  0.16126570  0.21008316  1
  O  O82  1  0.17632558  0.41586067  0.55488804  1
  O  O83  1  0.56333178  0.69522153  0.97284090  1
  O  O84  1  0.54893251  0.70431879  0.26177976  1
  O  O85  1  0.45106749  0.29568121  0.73822024  1
  O  O86  1  0.62190443  0.83713123  0.16068009  1
  O  O87  1  0.41876939  0.85624381  0.51179580  1
  O  O88  1  0.70267941  0.58107278  0.72600078  1
  O  O89  1  0.93666822  0.80477847  0.52715910  1
  O  O90  1  0.77429913  0.68757047  0.62140529  1
  O  O91  1  0.43666822  0.30477847  0.02715910  1
