# generated using pymatgen
data_NaV2O5
_symmetry_space_group_name_H-M   'P 1'
_cell_length_a   7.28346557
_cell_length_b   10.73154574
_cell_length_c   12.06934560
_cell_angle_alpha   84.12301266
_cell_angle_beta   72.43821639
_cell_angle_gamma   70.16282232
_symmetry_Int_Tables_number   1
_chemical_formula_structural   NaV2O5
_chemical_formula_sum   'Na8 V16 O40'
_cell_volume   846.03567282
_cell_formula_units_Z   8
loop_
 _symmetry_equiv_pos_site_id
 _symmetry_equiv_pos_as_xyz
  1  'x, y, z'
loop_
 _atom_site_type_symbol
 _atom_site_label
 _atom_site_symmetry_multiplicity
 _atom_site_fract_x
 _atom_site_fract_y
 _atom_site_fract_z
 _atom_site_occupancy
  Na  Na0  1  0.43870711  0.12258577  0.50000000  1
  Na  Na1  1  0.87289963  0.25420073  0.00000000  1
  Na  Na2  1  0.12326791  0.75346317  0.00000000  1
  Na  Na3  1  0.93870711  0.12258577  0.50000000  1
  Na  Na4  1  0.62285503  0.75428993  0.00000000  1
  Na  Na5  1  0.68874801  0.62250498  0.50000000  1
  Na  Na6  1  0.18874801  0.62250498  0.50000000  1
  Na  Na7  1  0.37334034  0.25331832  0.00000000  1
  V  V8  1  0.83058892  0.98954241  0.85001007  1
  V  V9  1  0.42980240  0.48963898  0.14994985  1
  V  V10  1  0.93060978  0.48963898  0.14994985  1
  V  V11  1  0.17986867  0.98954241  0.14998993  1
  V  V12  1  0.08055963  0.48963898  0.85005015  1
  V  V13  1  0.32985860  0.98954241  0.85001007  1
  V  V14  1  0.98203005  0.38233112  0.65360977  1
  V  V15  1  0.73272987  0.88065811  0.65388215  1
  V  V16  1  0.38661202  0.88065811  0.34611785  1
  V  V17  1  0.47975157  0.39227401  0.64822285  1
  V  V18  1  0.22931017  0.89362630  0.64775337  1
  V  V19  1  0.68059899  0.98954241  0.14998993  1
  V  V20  1  0.57975224  0.48963898  0.85005015  1
  V  V21  1  0.87706354  0.89362630  0.35224663  1
  V  V22  1  0.12797442  0.39227401  0.35177715  1
  V  V23  1  0.63563983  0.38233112  0.34639023  1
  O  O24  1  0.35886134  0.65159106  0.13103316  1
  O  O25  1  0.20065543  0.23050222  0.36818692  1
  O  O26  1  0.56884235  0.23050222  0.63181308  1
  O  O27  1  0.48989450  0.65159106  0.86896684  1
  O  O28  1  0.02426022  0.45562600  0.49585455  1
  O  O29  1  0.73888139  0.15147353  0.86900922  1
  O  O30  1  0.37367928  0.43142736  0.82121308  1
  O  O31  1  0.82564694  0.71894876  0.62975637  1
  O  O32  1  0.87408972  0.42951425  0.82230631  1
  O  O33  1  0.95012153  0.73181820  0.36793975  1
  O  O34  1  0.12360123  0.93184977  0.82094778  1
  O  O35  1  0.68301607  0.44633580  0.67937655  1
  O  O36  1  0.19489336  0.43142736  0.17878692  1
  O  O37  1  0.77374934  0.95547881  0.49702151  1
  O  O38  1  0.44668803  0.92901925  0.17760568  1
  O  O39  1  0.78905312  0.92522142  0.00000000  1
  O  O40  1  0.69639603  0.42951425  0.17769369  1
  O  O41  1  0.10964508  0.15147353  0.13099078  1
  O  O42  1  0.03869826  0.42528790  0.00000000  1
  O  O43  1  0.36239262  0.44633580  0.32062345  1
  O  O44  1  0.43375143  0.94630057  0.67922946  1
  O  O45  1  0.94454901  0.93184977  0.17905222  1
  O  O46  1  0.45540431  0.71894876  0.37024363  1
  O  O47  1  0.31806127  0.73181820  0.63206025  1
  O  O48  1  0.94071854  0.94630057  0.67922946  1
  O  O49  1  0.19127158  0.44633580  0.67937655  1
  O  O50  1  0.28572446  0.92522142  1.00000000  1
  O  O51  1  0.60789061  0.15147353  0.13099078  1
  O  O52  1  0.87064913  0.44633580  0.32062345  1
  O  O53  1  0.52011377  0.45562600  0.50414545  1
  O  O54  1  0.24063586  0.15147353  0.86900922  1
  O  O55  1  0.85851343  0.65159106  0.13103316  1
  O  O56  1  0.07470817  0.22058396  0.62999870  1
  O  O57  1  0.11298088  0.94630057  0.32077054  1
  O  O58  1  0.53601384  0.42528790  1.00000000  1
  O  O59  1  0.61994800  0.94630057  0.32077054  1
  O  O60  1  0.70470687  0.22058396  0.37000130  1
  O  O61  1  0.27077085  0.95547881  0.50297849  1
  O  O62  1  0.98954760  0.65159106  0.86896684  1
  O  O63  1  0.62429271  0.92901925  0.82239432  1
