# generated using pymatgen
data_Ag3BO3
_symmetry_space_group_name_H-M   'P 1'
_cell_length_a   7.41705342
_cell_length_b   7.41705389
_cell_length_c   7.41705365
_cell_angle_alpha   84.55323926
_cell_angle_beta   84.55323912
_cell_angle_gamma   84.55323750
_symmetry_Int_Tables_number   1
_chemical_formula_structural   Ag3BO3
_chemical_formula_sum   'Ag12 B4 O12'
_cell_volume   402.83335238
_cell_formula_units_Z   4
loop_
 _symmetry_equiv_pos_site_id
 _symmetry_equiv_pos_as_xyz
  1  'x, y, z'
loop_
 _atom_site_type_symbol
 _atom_site_label
 _atom_site_symmetry_multiplicity
 _atom_site_fract_x
 _atom_site_fract_y
 _atom_site_fract_z
 _atom_site_occupancy
  Ag  Ag0  1  0.37201618  0.87437049  0.38055363  1
  Ag  Ag1  1  0.88055363  0.37437049  0.87201618  1
  Ag  Ag2  1  0.87201618  0.88055363  0.37437049  1
  Ag  Ag3  1  0.61944637  0.62798382  0.12562951  1
  Ag  Ag4  1  0.62562951  0.12798382  0.11944637  1
  Ag  Ag5  1  0.87437049  0.38055363  0.37201618  1
  Ag  Ag6  1  0.12562951  0.61944637  0.62798382  1
  Ag  Ag7  1  0.62798382  0.12562951  0.61944637  1
  Ag  Ag8  1  0.11944637  0.62562951  0.12798382  1
  Ag  Ag9  1  0.37437049  0.87201618  0.88055363  1
  Ag  Ag10  1  0.12798382  0.11944637  0.62562951  1
  Ag  Ag11  1  0.38055363  0.37201618  0.87437049  1
  B  B12  1  0.62429243  0.62429243  0.62429243  1
  B  B13  1  0.37570757  0.37570757  0.37570757  1
  B  B14  1  0.12429243  0.12429243  0.12429243  1
  B  B15  1  0.87570757  0.87570757  0.87570757  1
  O  O16  1  0.98180899  0.13015298  0.25984704  1
  O  O17  1  0.25984704  0.98180899  0.13015298  1
  O  O18  1  0.75984704  0.63015298  0.48180899  1
  O  O19  1  0.24015296  0.36984702  0.51819101  1
  O  O20  1  0.74015296  0.01819101  0.86984702  1
  O  O21  1  0.51819101  0.24015296  0.36984702  1
  O  O22  1  0.48180899  0.75984704  0.63015298  1
  O  O23  1  0.86984702  0.74015296  0.01819101  1
  O  O24  1  0.36984702  0.51819101  0.24015296  1
  O  O25  1  0.01819101  0.86984702  0.74015296  1
  O  O26  1  0.63015298  0.48180899  0.75984704  1
  O  O27  1  0.13015298  0.25984704  0.98180899  1
