# generated using pymatgen
data_V3CdO7
_symmetry_space_group_name_H-M   'P 1'
_cell_length_a   5.37713476
_cell_length_b   10.65375197
_cell_length_c   10.46293977
_cell_angle_alpha   90.00000000
_cell_angle_beta   90.00000000
_cell_angle_gamma   90.00000000
_symmetry_Int_Tables_number   1
_chemical_formula_structural   V3CdO7
_chemical_formula_sum   'V12 Cd4 O28'
_cell_volume   599.38687365
_cell_formula_units_Z   4
loop_
 _symmetry_equiv_pos_site_id
 _symmetry_equiv_pos_as_xyz
  1  'x, y, z'
loop_
 _atom_site_type_symbol
 _atom_site_label
 _atom_site_symmetry_multiplicity
 _atom_site_fract_x
 _atom_site_fract_y
 _atom_site_fract_z
 _atom_site_occupancy
  V  V0  1  0.21622775  0.81392658  0.02356806  1
  V  V1  1  0.71622775  0.68607342  0.97643194  1
  V  V2  1  0.28377225  0.31392658  0.47643194  1
  V  V3  1  0.78377225  0.18607342  0.52356806  1
  V  V4  1  0.78377225  0.18607342  0.97643194  1
  V  V5  1  0.28377225  0.31392658  0.02356806  1
  V  V6  1  0.71622775  0.68607342  0.52356806  1
  V  V7  1  0.21622775  0.81392658  0.47643194  1
  V  V8  1  0.70754906  0.78567068  0.25000000  1
  V  V9  1  0.20754906  0.71432932  0.75000000  1
  V  V10  1  0.79245094  0.28567068  0.25000000  1
  V  V11  1  0.29245094  0.21432932  0.75000000  1
  Cd  Cd12  1  0.18760609  0.57836587  0.25000000  1
  Cd  Cd13  1  0.68760609  0.92163413  0.75000000  1
  Cd  Cd14  1  0.31239391  0.07836587  0.25000000  1
  Cd  Cd15  1  0.81239391  0.42163413  0.75000000  1
  O  O16  1  0.47554209  0.71956128  0.11830615  1
  O  O17  1  0.97554209  0.78043872  0.88169385  1
  O  O18  1  0.02445791  0.21956128  0.38169385  1
  O  O19  1  0.52445791  0.28043872  0.61830615  1
  O  O20  1  0.52445791  0.28043872  0.88169385  1
  O  O21  1  0.02445791  0.21956128  0.11830615  1
  O  O22  1  0.97554209  0.78043872  0.61830615  1
  O  O23  1  0.47554209  0.71956128  0.38169385  1
  O  O24  1  0.95157106  0.72284603  0.11921596  1
  O  O25  1  0.45157106  0.77715397  0.88078404  1
  O  O26  1  0.54842894  0.22284603  0.38078404  1
  O  O27  1  0.04842894  0.27715397  0.61921596  1
  O  O28  1  0.04842894  0.27715397  0.88078404  1
  O  O29  1  0.54842894  0.22284603  0.11921596  1
  O  O30  1  0.45157106  0.77715397  0.61921596  1
  O  O31  1  0.95157106  0.72284603  0.38078404  1
  O  O32  1  0.23099231  0.96094243  0.07701678  1
  O  O33  1  0.73099231  0.53905757  0.92298322  1
  O  O34  1  0.26900769  0.46094243  0.42298322  1
  O  O35  1  0.76900769  0.03905757  0.57701678  1
  O  O36  1  0.76900769  0.03905757  0.92298322  1
  O  O37  1  0.26900769  0.46094243  0.07701678  1
  O  O38  1  0.73099231  0.53905757  0.57701678  1
  O  O39  1  0.23099231  0.96094243  0.42298322  1
  O  O40  1  0.68984624  0.94098791  0.25000000  1
  O  O41  1  0.18984624  0.55901209  0.75000000  1
  O  O42  1  0.81015376  0.44098791  0.25000000  1
  O  O43  1  0.31015376  0.05901209  0.75000000  1
