# generated using pymatgen
data_Tl3(MoO3)10
_symmetry_space_group_name_H-M   'P 1'
_cell_length_a   7.69428418
_cell_length_b   10.40179919
_cell_length_c   10.45588332
_cell_angle_alpha   117.79078163
_cell_angle_beta   90.00000000
_cell_angle_gamma   111.70658403
_symmetry_Int_Tables_number   1
_chemical_formula_structural   Tl3(MoO3)10
_chemical_formula_sum   'Tl3 Mo10 O30'
_cell_volume   672.50375202
_cell_formula_units_Z   1
loop_
 _symmetry_equiv_pos_site_id
 _symmetry_equiv_pos_as_xyz
  1  'x, y, z'
loop_
 _atom_site_type_symbol
 _atom_site_label
 _atom_site_symmetry_multiplicity
 _atom_site_fract_x
 _atom_site_fract_y
 _atom_site_fract_z
 _atom_site_occupancy
  Tl  Tl0  1  0.18848251  0.37696403  0.74067277  1
  Tl  Tl1  1  0.81151749  0.62303597  0.25932723  1
  Tl  Tl2  1  0.50000000  0.00000000  0.50000000  1
  Mo  Mo3  1  0.66813863  0.84767043  0.04034865  1
  Mo  Mo4  1  0.10926388  0.71914249  0.65701646  1
  Mo  Mo5  1  0.60987861  0.71914249  0.65701646  1
  Mo  Mo6  1  0.33186137  0.15232957  0.95965135  1
  Mo  Mo7  1  0.22163757  0.44327413  0.17186745  1
  Mo  Mo8  1  0.89073612  0.28085751  0.34298354  1
  Mo  Mo9  1  0.39012139  0.28085751  0.34298354  1
  Mo  Mo10  1  0.82046820  0.15232957  0.95965135  1
  Mo  Mo11  1  0.17953180  0.84767043  0.04034865  1
  Mo  Mo12  1  0.77836243  0.55672587  0.82813255  1
  O  O13  1  0.84307892  0.68615784  0.69092004  1
  O  O14  1  0.83878882  0.19091418  0.81539326  1
  O  O15  1  0.42351752  0.84703504  0.01263725  1
  O  O16  1  0.12941094  0.81552433  0.55814373  1
  O  O17  1  0.08714114  0.17428228  0.99402788  1
  O  O18  1  0.24441709  0.48883419  0.02986943  1
  O  O19  1  0.87058906  0.18447567  0.44185627  1
  O  O20  1  0.35689952  0.71379804  0.67233022  1
  O  O21  1  0.28582080  0.08193037  0.14421090  1
  O  O22  1  0.79610957  0.08193037  0.14421090  1
  O  O23  1  0.15692108  0.31384216  0.30907996  1
  O  O24  1  0.68611339  0.81552433  0.55814373  1
  O  O25  1  0.31388661  0.18447567  0.44185627  1
  O  O26  1  0.71417920  0.91806963  0.85578910  1
  O  O27  1  0.20389043  0.91806963  0.85578910  1
  O  O28  1  0.64310048  0.28620196  0.32766978  1
  O  O29  1  0.42616764  0.36738756  0.15912919  1
  O  O30  1  0.57383236  0.63261244  0.84087081  1
  O  O31  1  0.57648248  0.15296496  0.98736275  1
  O  O32  1  0.91285886  0.82571772  0.00597212  1
  O  O33  1  0.31424889  0.62849679  0.33221422  1
  O  O34  1  0.68575111  0.37150321  0.66778578  1
  O  O35  1  0.75558291  0.51116581  0.97013057  1
  O  O36  1  0.64787465  0.80908582  0.18460674  1
  O  O37  1  0.94121992  0.36738756  0.15912919  1
  O  O38  1  0.16121118  0.80908582  0.18460674  1
  O  O39  1  0.50000000  0.50000000  0.50000000  1
  O  O40  1  0.35212535  0.19091418  0.81539326  1
  O  O41  1  0.05878008  0.63261244  0.84087081  1
  O  O42  1  0.00000000  0.50000000  0.50000000  1
