# generated using pymatgen
data_SrLi2Nb2O7
_symmetry_space_group_name_H-M   'P 1'
_cell_length_a   4.01301609
_cell_length_b   4.01301774
_cell_length_c   9.63655466
_cell_angle_alpha   102.01565168
_cell_angle_beta   102.01565885
_cell_angle_gamma   90.00458878
_symmetry_Int_Tables_number   1
_chemical_formula_structural   SrLi2Nb2O7
_chemical_formula_sum   'Sr1 Li2 Nb2 O7'
_cell_volume   148.31132903
_cell_formula_units_Z   1
loop_
 _symmetry_equiv_pos_site_id
 _symmetry_equiv_pos_as_xyz
  1  'x, y, z'
loop_
 _atom_site_type_symbol
 _atom_site_label
 _atom_site_symmetry_multiplicity
 _atom_site_fract_x
 _atom_site_fract_y
 _atom_site_fract_z
 _atom_site_occupancy
  Sr  Sr0  1  0.00000000  0.00000000  0.00000000  1
  Li  Li1  1  0.25010088  0.74989913  0.50000001  1
  Li  Li2  1  0.74989912  0.25010087  0.49999999  1
  Nb  Nb3  1  0.38436517  0.38436462  0.76887049  1
  Nb  Nb4  1  0.61563483  0.61563538  0.23112951  1
  O  O5  1  0.10543086  0.60543105  0.21079065  1
  O  O6  1  0.60543091  0.10543078  0.21079079  1
  O  O7  1  0.71878790  0.71878740  0.43753876  1
  O  O8  1  0.39456909  0.89456922  0.78920921  1
  O  O9  1  0.28121210  0.28121260  0.56246124  1
  O  O10  1  0.50000000  0.50000000  0.00000000  1
  O  O11  1  0.89456914  0.39456895  0.78920935  1
