# generated using pymatgen
data_Ca3Mn2(Si2O7)2
_symmetry_space_group_name_H-M   'P 1'
_cell_length_a   7.73991426
_cell_length_b   9.41907019
_cell_length_c   9.82078253
_cell_angle_alpha   63.82334255
_cell_angle_beta   66.79277016
_cell_angle_gamma   65.74087727
_symmetry_Int_Tables_number   1
_chemical_formula_structural   Ca3Mn2(Si2O7)2
_chemical_formula_sum   'Ca6 Mn4 Si8 O28'
_cell_volume   565.63273117
_cell_formula_units_Z   2
loop_
 _symmetry_equiv_pos_site_id
 _symmetry_equiv_pos_as_xyz
  1  'x, y, z'
loop_
 _atom_site_type_symbol
 _atom_site_label
 _atom_site_symmetry_multiplicity
 _atom_site_fract_x
 _atom_site_fract_y
 _atom_site_fract_z
 _atom_site_occupancy
  Ca  Ca0  1  0.83860197  0.93411581  0.45814141  1
  Ca  Ca1  1  0.23085919  0.56588419  0.04185859  1
  Ca  Ca2  1  0.76914081  0.43411581  0.95814141  1
  Ca  Ca3  1  0.65441542  0.25000000  0.75000000  1
  Ca  Ca4  1  0.16139803  0.06588419  0.54185859  1
  Ca  Ca5  1  0.34558458  0.75000000  0.25000000  1
  Mn  Mn6  1  0.21417747  0.25000000  0.75000000  1
  Mn  Mn7  1  0.78582253  0.75000000  0.25000000  1
  Mn  Mn8  1  0.00000000  0.00000000  0.00000000  1
  Mn  Mn9  1  0.00000000  0.50000000  0.50000000  1
  Si  Si10  1  0.46590000  0.30378932  0.34117620  1
  Si  Si11  1  0.88913448  0.80378932  0.84117620  1
  Si  Si12  1  0.46710192  0.89292654  0.85413058  1
  Si  Si13  1  0.78584096  0.39292654  0.35413058  1
  Si  Si14  1  0.11086552  0.19621068  0.15882380  1
  Si  Si15  1  0.53289808  0.10707346  0.14586942  1
  Si  Si16  1  0.21415904  0.60707346  0.64586942  1
  Si  Si17  1  0.53410000  0.69621068  0.65882380  1
  O  O18  1  0.12429629  0.67576636  0.49629540  1
  O  O19  1  0.02796113  0.58591293  0.28130913  1
  O  O20  1  0.54259337  0.91663408  0.18971437  1
  O  O21  1  0.10481681  0.08591293  0.78130913  1
  O  O22  1  0.73555586  0.68900997  0.51823217  1
  O  O23  1  0.94986017  0.37315641  0.18545447  1
  O  O24  1  0.35105818  0.41663408  0.68971437  1
  O  O25  1  0.94279799  0.81099003  0.98176783  1
  O  O26  1  0.05013983  0.62684359  0.81454553  1
  O  O27  1  0.34332141  0.73815974  0.59380408  1
  O  O28  1  0.97203887  0.41408707  0.71869087  1
  O  O29  1  0.26444414  0.31099003  0.48176783  1
  O  O30  1  0.50847105  0.12684359  0.31454553  1
  O  O31  1  0.70364194  0.17576636  0.99629540  1
  O  O32  1  0.32471477  0.23815974  0.09380408  1
  O  O33  1  0.05720201  0.18900997  0.01823217  1
  O  O34  1  0.10575471  0.04328572  0.32206477  1
  O  O35  1  0.65667859  0.26184026  0.40619592  1
  O  O36  1  0.47110520  0.45671428  0.17793523  1
  O  O37  1  0.67528523  0.76184026  0.90619592  1
  O  O38  1  0.49152895  0.87315641  0.68545447  1
  O  O39  1  0.89518319  0.91408707  0.21869087  1
  O  O40  1  0.52889480  0.54328572  0.82206477  1
  O  O41  1  0.45740663  0.08336592  0.81028563  1
  O  O42  1  0.89424529  0.95671428  0.67793523  1
  O  O43  1  0.64894182  0.58336592  0.31028563  1
  O  O44  1  0.29635806  0.82423364  0.00370460  1
  O  O45  1  0.87570371  0.32423364  0.50370460  1
