# generated using pymatgen
data_LiFe(MoO4)2
_symmetry_space_group_name_H-M   'P 1'
_cell_length_a   6.86802325
_cell_length_b   7.26151277
_cell_length_c   7.48814379
_cell_angle_alpha   91.01506854
_cell_angle_beta   110.17503141
_cell_angle_gamma   105.01122431
_symmetry_Int_Tables_number   1
_chemical_formula_structural   LiFe(MoO4)2
_chemical_formula_sum   'Li2 Fe2 Mo4 O16'
_cell_volume   336.20653805
_cell_formula_units_Z   2
loop_
 _symmetry_equiv_pos_site_id
 _symmetry_equiv_pos_as_xyz
  1  'x, y, z'
loop_
 _atom_site_type_symbol
 _atom_site_label
 _atom_site_symmetry_multiplicity
 _atom_site_fract_x
 _atom_site_fract_y
 _atom_site_fract_z
 _atom_site_occupancy
  Li  Li0  1  0.77316650  0.44901709  0.25246735  1
  Li  Li1  1  0.22683350  0.55098291  0.74753265  1
  Fe  Fe2  1  0.40359413  0.10087457  0.31913950  1
  Fe  Fe3  1  0.59640587  0.89912543  0.68086050  1
  Mo  Mo4  1  0.82173829  0.96604768  0.21543670  1
  Mo  Mo5  1  0.33323249  0.57726585  0.28687262  1
  Mo  Mo6  1  0.17826171  0.03395232  0.78456330  1
  Mo  Mo7  1  0.66676751  0.42273415  0.71312738  1
  O  O8  1  0.57526187  0.15978298  0.61085404  1
  O  O9  1  0.24155805  0.04075691  0.03845929  1
  O  O10  1  0.71900435  0.72841761  0.25940994  1
  O  O11  1  0.88859183  0.95067872  0.65685709  1
  O  O12  1  0.42473813  0.84021702  0.38914596  1
  O  O13  1  0.68929727  0.13178962  0.27494125  1
  O  O14  1  0.51867950  0.61343243  0.65618939  1
  O  O15  1  0.90570536  0.51309716  0.66899636  1
  O  O16  1  0.25311768  0.57615354  0.03960387  1
  O  O17  1  0.48132050  0.38656757  0.34381061  1
  O  O18  1  0.75844195  0.95924309  0.96154071  1
  O  O19  1  0.09429464  0.48690284  0.33100364  1
  O  O20  1  0.11140817  0.04932128  0.34314291  1
  O  O21  1  0.28099565  0.27158239  0.74059006  1
  O  O22  1  0.74688232  0.42384646  0.96039613  1
  O  O23  1  0.31070273  0.86821038  0.72505875  1
