# generated using pymatgen
data_DySbMo2O9
_symmetry_space_group_name_H-M   'P 1'
_cell_length_a   9.71206681
_cell_length_b   9.71206711
_cell_length_c   10.86397135
_cell_angle_alpha   111.88203853
_cell_angle_beta   111.88203927
_cell_angle_gamma   95.40395233
_symmetry_Int_Tables_number   1
_chemical_formula_structural   DySbMo2O9
_chemical_formula_sum   'Dy4 Sb4 Mo8 O36'
_cell_volume   849.45710203
_cell_formula_units_Z   4
loop_
 _symmetry_equiv_pos_site_id
 _symmetry_equiv_pos_as_xyz
  1  'x, y, z'
loop_
 _atom_site_type_symbol
 _atom_site_label
 _atom_site_symmetry_multiplicity
 _atom_site_fract_x
 _atom_site_fract_y
 _atom_site_fract_z
 _atom_site_occupancy
  Dy  Dy0  1  0.87436442  0.12563558  0.75000000  1
  Dy  Dy1  1  0.32831277  0.67168723  0.75000000  1
  Dy  Dy2  1  0.12563558  0.87436442  0.25000000  1
  Dy  Dy3  1  0.67168723  0.32831277  0.25000000  1
  Sb  Sb4  1  0.61986712  0.65079533  0.53578177  1
  Sb  Sb5  1  0.38013288  0.34920467  0.46421823  1
  Sb  Sb6  1  0.65079533  0.61986712  0.03578177  1
  Sb  Sb7  1  0.34920467  0.38013288  0.96421823  1
  Mo  Mo8  1  0.04631339  0.25913284  0.52506749  1
  Mo  Mo9  1  0.05745525  0.43399748  0.19290492  1
  Mo  Mo10  1  0.56600252  0.94254475  0.30709508  1
  Mo  Mo11  1  0.95368661  0.74086716  0.47493251  1
  Mo  Mo12  1  0.43399748  0.05745525  0.69290492  1
  Mo  Mo13  1  0.74086716  0.95368661  0.97493251  1
  Mo  Mo14  1  0.94254475  0.56600252  0.80709508  1
  Mo  Mo15  1  0.25913284  0.04631339  0.02506749  1
  O  O16  1  0.20872333  0.36456318  0.29744064  1
  O  O17  1  0.77927057  0.95741999  0.82638663  1
  O  O18  1  0.22072943  0.04258001  0.17361337  1
  O  O19  1  0.77841174  0.59419511  0.42056945  1
  O  O20  1  0.12951076  0.70187772  0.56844950  1
  O  O21  1  0.62114035  0.14364037  0.72638374  1
  O  O22  1  0.09541680  0.06737626  0.89770970  1
  O  O23  1  0.69435935  0.02095586  0.49822655  1
  O  O24  1  0.85635963  0.37885965  0.77361626  1
  O  O25  1  0.79127667  0.63543682  0.70255936  1
  O  O26  1  0.37885965  0.85635963  0.27361626  1
  O  O27  1  0.30564065  0.97904414  0.50177345  1
  O  O28  1  0.57705644  0.45819342  0.09998204  1
  O  O29  1  0.59419511  0.77841174  0.92056945  1
  O  O30  1  0.36456318  0.20872333  0.79744064  1
  O  O31  1  0.22158826  0.40580489  0.57943055  1
  O  O32  1  0.04258001  0.22072943  0.67361337  1
  O  O33  1  0.14364037  0.62114035  0.22638374  1
  O  O34  1  0.45819342  0.57705644  0.59998204  1
  O  O35  1  0.70187772  0.12951076  0.06844950  1
  O  O36  1  0.29812228  0.87048924  0.93155050  1
  O  O37  1  0.95741999  0.77927057  0.32638663  1
  O  O38  1  0.06737626  0.09541680  0.39770970  1
  O  O39  1  0.90581558  0.44289957  0.24818311  1
  O  O40  1  0.55710043  0.09418442  0.25181689  1
  O  O41  1  0.40580489  0.22158826  0.07943055  1
  O  O42  1  0.44289957  0.90581558  0.74818311  1
  O  O43  1  0.54180658  0.42294356  0.40001796  1
  O  O44  1  0.93262374  0.90458320  0.60229030  1
  O  O45  1  0.42294356  0.54180658  0.90001796  1
  O  O46  1  0.09418442  0.55710043  0.75181689  1
  O  O47  1  0.63543682  0.79127667  0.20255936  1
  O  O48  1  0.02095586  0.69435935  0.99822655  1
  O  O49  1  0.90458320  0.93262374  0.10229030  1
  O  O50  1  0.97904414  0.30564065  0.00177345  1
  O  O51  1  0.87048924  0.29812228  0.43155050  1
