# generated using pymatgen
data_Cs(WCl3)3
_symmetry_space_group_name_H-M   'P 1'
_cell_length_a   9.82904067
_cell_length_b   9.82904088
_cell_length_c   8.71656650
_cell_angle_alpha   90.00000000
_cell_angle_beta   90.00000000
_cell_angle_gamma   119.99999931
_symmetry_Int_Tables_number   1
_chemical_formula_structural   Cs(WCl3)3
_chemical_formula_sum   'Cs2 W6 Cl18'
_cell_volume   729.28680491
_cell_formula_units_Z   2
loop_
 _symmetry_equiv_pos_site_id
 _symmetry_equiv_pos_as_xyz
  1  'x, y, z'
loop_
 _atom_site_type_symbol
 _atom_site_label
 _atom_site_symmetry_multiplicity
 _atom_site_fract_x
 _atom_site_fract_y
 _atom_site_fract_z
 _atom_site_occupancy
  Cs  Cs0  1  0.66666700  0.33333300  0.41900060  1
  Cs  Cs1  1  0.33333300  0.66666700  0.58099940  1
  W  W2  1  0.16008580  0.18632555  0.12556875  1
  W  W3  1  0.18632555  0.02623975  0.87443125  1
  W  W4  1  0.97376025  0.16008580  0.87443125  1
  W  W5  1  0.02623975  0.83991420  0.12556875  1
  W  W6  1  0.83991420  0.81367445  0.87443125  1
  W  W7  1  0.81367445  0.97376025  0.12556875  1
  Cl  Cl8  1  0.65225980  0.59835091  0.70283415  1
  Cl  Cl9  1  0.05390889  0.65225980  0.29716585  1
  Cl  Cl10  1  0.84672028  0.59741661  0.99798843  1
  Cl  Cl11  1  0.59835091  0.94609111  0.29716585  1
  Cl  Cl12  1  0.40258339  0.24930367  0.99798843  1
  Cl  Cl13  1  0.59741661  0.75069633  0.00201157  1
  Cl  Cl14  1  0.97059906  0.17962417  0.30798018  1
  Cl  Cl15  1  0.82037583  0.79097489  0.30798018  1
  Cl  Cl16  1  0.75069633  0.15327972  0.99798843  1
  Cl  Cl17  1  0.24930367  0.84672028  0.00201157  1
  Cl  Cl18  1  0.17962417  0.20902511  0.69201982  1
  Cl  Cl19  1  0.02940094  0.82037583  0.69201982  1
  Cl  Cl20  1  0.79097489  0.97059906  0.69201982  1
  Cl  Cl21  1  0.20902511  0.02940094  0.30798018  1
  Cl  Cl22  1  0.15327972  0.40258339  0.00201157  1
  Cl  Cl23  1  0.94609111  0.34774020  0.70283415  1
  Cl  Cl24  1  0.34774020  0.40164909  0.29716585  1
  Cl  Cl25  1  0.40164909  0.05390889  0.70283415  1
