# generated using pymatgen
data_Ga(SbBr)4
_symmetry_space_group_name_H-M   'P 1'
_cell_length_a   10.39943546
_cell_length_b   13.91837199
_cell_length_c   18.88824689
_cell_angle_alpha   90.00000000
_cell_angle_beta   90.00000000
_cell_angle_gamma   90.00000000
_symmetry_Int_Tables_number   1
_chemical_formula_structural   Ga(SbBr)4
_chemical_formula_sum   'Ga8 Sb32 Br32'
_cell_volume   2733.94550914
_cell_formula_units_Z   8
loop_
 _symmetry_equiv_pos_site_id
 _symmetry_equiv_pos_as_xyz
  1  'x, y, z'
loop_
 _atom_site_type_symbol
 _atom_site_label
 _atom_site_symmetry_multiplicity
 _atom_site_fract_x
 _atom_site_fract_y
 _atom_site_fract_z
 _atom_site_occupancy
  Ga  Ga0  1  0.02243708  0.80335263  0.67662184  1
  Ga  Ga1  1  0.47756292  0.80335263  0.17662184  1
  Ga  Ga2  1  0.97756292  0.30335263  0.32337816  1
  Ga  Ga3  1  0.00773211  0.48765564  0.99806745  1
  Ga  Ga4  1  0.49226789  0.48765564  0.49806745  1
  Ga  Ga5  1  0.52243708  0.30335263  0.82337816  1
  Ga  Ga6  1  0.50773211  0.98765564  0.50193255  1
  Ga  Ga7  1  0.99226789  0.98765564  0.00193255  1
  Sb  Sb8  1  0.38540401  0.59787153  0.82322820  1
  Sb  Sb9  1  0.20323057  0.75455223  0.41512787  1
  Sb  Sb10  1  0.83488355  0.64704011  0.29975247  1
  Sb  Sb11  1  0.15045034  0.35608703  0.71592243  1
  Sb  Sb12  1  0.05685368  0.16169578  0.55746379  1
  Sb  Sb13  1  0.95838715  0.87179445  0.42727937  1
  Sb  Sb14  1  0.94314632  0.66169578  0.44253621  1
  Sb  Sb15  1  0.45272519  0.73432568  0.71019695  1
  Sb  Sb16  1  0.54161285  0.87179445  0.92727937  1
  Sb  Sb17  1  0.04727481  0.73432568  0.21019695  1
  Sb  Sb18  1  0.55685368  0.66169578  0.94253621  1
  Sb  Sb19  1  0.16511645  0.14704011  0.70024753  1
  Sb  Sb20  1  0.63694820  0.39073057  0.19732268  1
  Sb  Sb21  1  0.45838715  0.37179445  0.07272063  1
  Sb  Sb22  1  0.04161285  0.37179445  0.57272063  1
  Sb  Sb23  1  0.29676943  0.75455223  0.91512787  1
  Sb  Sb24  1  0.70323057  0.25455223  0.08487213  1
  Sb  Sb25  1  0.34954966  0.35608703  0.21592243  1
  Sb  Sb26  1  0.66511645  0.64704011  0.79975247  1
  Sb  Sb27  1  0.61459599  0.09787153  0.17677180  1
  Sb  Sb28  1  0.13694820  0.89073057  0.30267732  1
  Sb  Sb29  1  0.65045034  0.85608703  0.78407757  1
  Sb  Sb30  1  0.33488355  0.14704011  0.20024753  1
  Sb  Sb31  1  0.11459599  0.59787153  0.32322820  1
  Sb  Sb32  1  0.95272519  0.23432568  0.78980305  1
  Sb  Sb33  1  0.44314632  0.16169578  0.05746379  1
  Sb  Sb34  1  0.84954966  0.85608703  0.28407757  1
  Sb  Sb35  1  0.54727481  0.23432568  0.28980305  1
  Sb  Sb36  1  0.36305180  0.89073057  0.80267732  1
  Sb  Sb37  1  0.79676943  0.25455223  0.58487213  1
  Sb  Sb38  1  0.86305180  0.39073057  0.69732268  1
  Sb  Sb39  1  0.88540401  0.09787153  0.67677180  1
  Br  Br40  1  0.52321387  0.81875824  0.49909539  1
  Br  Br41  1  0.81750364  0.53716839  0.05808352  1
  Br  Br42  1  0.31530608  0.88773268  0.11466698  1
  Br  Br43  1  0.17235393  0.31210102  0.38737571  1
  Br  Br44  1  0.18249636  0.03716839  0.94191648  1
  Br  Br45  1  0.18853573  0.55681508  0.05592404  1
  Br  Br46  1  0.18469392  0.88773268  0.61466698  1
  Br  Br47  1  0.92066729  0.14077438  0.30722743  1
  Br  Br48  1  0.50529415  0.04640545  0.61971272  1
  Br  Br49  1  0.50368318  0.87575911  0.28956411  1
  Br  Br50  1  0.57933271  0.14077438  0.80722743  1
  Br  Br51  1  0.31146427  0.55681508  0.55592404  1
  Br  Br52  1  1.00368318  0.37575911  0.21043589  1
  Br  Br53  1  0.68469392  0.38773268  0.88533302  1
  Br  Br54  1  0.82764607  0.81210102  0.61262429  1
  Br  Br55  1  0.81530608  0.38773268  0.38533302  1
  Br  Br56  1  0.00529415  0.54640545  0.88028728  1
  Br  Br57  1  0.07933271  0.64077438  0.69277257  1
  Br  Br58  1  0.67235393  0.81210102  0.11262429  1
  Br  Br59  1  0.81146427  0.05681508  0.94407596  1
  Br  Br60  1  0.31750364  0.03716839  0.44191648  1
  Br  Br61  1  0.42066729  0.64077438  0.19277257  1
  Br  Br62  1  0.97678613  0.81875824  0.99909539  1
  Br  Br63  1  0.47678613  0.31875824  0.50090461  1
  Br  Br64  1  0.68249636  0.53716839  0.55808352  1
  Br  Br65  1  0.02321387  0.31875824  0.00090461  1
  Br  Br66  1  -0.00368318  0.87575911  0.78956411  1
  Br  Br67  1  0.49470585  0.54640545  0.38028728  1
  Br  Br68  1  0.49631682  0.37575911  0.71043589  1
  Br  Br69  1  0.68853573  0.05681508  0.44407596  1
  Br  Br70  1  0.99470585  0.04640545  0.11971272  1
  Br  Br71  1  0.32764607  0.31210102  0.88737571  1
