# generated using pymatgen
data_LaMn7O12
_symmetry_space_group_name_H-M   'P 1'
_cell_length_a   6.57102286
_cell_length_b   6.57102233
_cell_length_c   6.57774820
_cell_angle_alpha   109.48819910
_cell_angle_beta   109.48513351
_cell_angle_gamma   109.39884939
_symmetry_Int_Tables_number   1
_chemical_formula_structural   LaMn7O12
_chemical_formula_sum   'La1 Mn7 O12'
_cell_volume   218.74752253
_cell_formula_units_Z   1
loop_
 _symmetry_equiv_pos_site_id
 _symmetry_equiv_pos_as_xyz
  1  'x, y, z'
loop_
 _atom_site_type_symbol
 _atom_site_label
 _atom_site_symmetry_multiplicity
 _atom_site_fract_x
 _atom_site_fract_y
 _atom_site_fract_z
 _atom_site_occupancy
  La  La0  1  0.00000000  0.00000000  0.00000000  1
  Mn  Mn1  1  0.00000000  0.00000000  0.50000000  1
  Mn  Mn2  1  0.00000000  0.50000000  0.00000000  1
  Mn  Mn3  1  0.50000000  0.00000000  0.00000000  1
  Mn  Mn4  1  0.50000000  0.00000000  0.50000000  1
  Mn  Mn5  1  0.50000000  0.50000000  0.50000000  1
  Mn  Mn6  1  0.00000000  0.50000000  0.50000000  1
  Mn  Mn7  1  0.50000000  0.50000000  0.00000000  1
  O  O8  1  0.82455153  0.51650927  0.69188792  1
  O  O9  1  0.13267395  0.31029760  0.82680342  1
  O  O10  1  0.69266604  0.17430722  0.86697326  1
  O  O11  1  0.17537866  0.86733640  0.69188792  1
  O  O12  1  0.48349418  0.30587053  0.17319658  1
  O  O13  1  0.30733396  0.82569278  0.13302674  1
  O  O14  1  0.69124373  0.82348665  0.51473037  1
  O  O15  1  0.51650582  0.69412947  0.82680342  1
  O  O16  1  0.86732605  0.68970240  0.17319658  1
  O  O17  1  0.17544847  0.48349073  0.30811208  1
  O  O18  1  0.30875627  0.17651335  0.48526963  1
  O  O19  1  0.82462134  0.13266360  0.30811208  1
