# generated using pymatgen
data_P2W2O11
_symmetry_space_group_name_H-M   'P 1'
_cell_length_a   7.96098718
_cell_length_b   7.79377840
_cell_length_c   12.86332284
_cell_angle_alpha   90.00000000
_cell_angle_beta   90.00000000
_cell_angle_gamma   90.03852929
_symmetry_Int_Tables_number   1
_chemical_formula_structural   P2W2O11
_chemical_formula_sum   'P8 W8 O44'
_cell_volume   798.11973455
_cell_formula_units_Z   4
loop_
 _symmetry_equiv_pos_site_id
 _symmetry_equiv_pos_as_xyz
  1  'x, y, z'
loop_
 _atom_site_type_symbol
 _atom_site_label
 _atom_site_symmetry_multiplicity
 _atom_site_fract_x
 _atom_site_fract_y
 _atom_site_fract_z
 _atom_site_occupancy
  P  P0  1  0.25260146  0.61632045  0.75000000  1
  P  P1  1  0.24730618  0.11602074  0.00000000  1
  P  P2  1  0.24730618  0.11602074  0.50000000  1
  P  P3  1  0.25260146  0.61632045  0.25000000  1
  P  P4  1  0.75269382  0.88397926  0.50000000  1
  P  P5  1  0.74739854  0.38367955  0.75000000  1
  P  P6  1  0.75269382  0.88397926  0.00000000  1
  P  P7  1  0.74739854  0.38367955  0.25000000  1
  W  W8  1  0.84221407  0.81539969  0.75000000  1
  W  W9  1  0.15778593  0.18460031  0.75000000  1
  W  W10  1  0.65772971  0.31553794  0.00000000  1
  W  W11  1  0.84221407  0.81539969  0.25000000  1
  W  W12  1  0.34227029  0.68446206  0.50000000  1
  W  W13  1  0.15778593  0.18460031  0.25000000  1
  W  W14  1  0.65772971  0.31553794  0.50000000  1
  W  W15  1  0.34227029  0.68446206  0.00000000  1
  O  O16  1  0.35139899  0.68808443  0.84502611  1
  O  O17  1  0.85144019  0.81222889  0.59501480  1
  O  O18  1  0.64860101  0.31191557  0.34502611  1
  O  O19  1  0.92991969  0.33009246  0.75000000  1
  O  O20  1  0.34077344  0.06581955  0.75000000  1
  O  O21  1  0.14855981  0.18777111  0.09501480  1
  O  O22  1  0.35139899  0.68808443  0.65497389  1
  O  O23  1  0.57012388  0.83022403  0.50000000  1
  O  O24  1  0.42987612  0.16977597  0.50000000  1
  O  O25  1  0.26743340  0.41677164  0.75000000  1
  O  O26  1  0.64860101  0.31191557  0.65497389  1
  O  O27  1  0.64860101  0.31191557  0.84502611  1
  O  O28  1  0.65922656  0.93418045  0.25000000  1
  O  O29  1  0.35139899  0.68808443  0.34502611  1
  O  O30  1  0.85144019  0.81222889  0.40498520  1
  O  O31  1  0.15953540  0.56504953  0.00000000  1
  O  O32  1  0.34077344  0.06581955  0.25000000  1
  O  O33  1  0.35139899  0.68808443  0.15497389  1
  O  O34  1  0.57012388  0.83022403  0.00000000  1
  O  O35  1  0.73256660  0.58322836  0.75000000  1
  O  O36  1  0.23244163  0.91645070  0.00000000  1
  O  O37  1  0.42987612  0.16977597  0.00000000  1
  O  O38  1  0.84046460  0.43495047  0.00000000  1
  O  O39  1  0.23244163  0.91645070  0.50000000  1
  O  O40  1  0.07008031  0.66990754  0.25000000  1
  O  O41  1  0.76755837  0.08354930  0.50000000  1
  O  O42  1  0.07008031  0.66990754  0.75000000  1
  O  O43  1  0.65922656  0.93418045  0.75000000  1
  O  O44  1  0.50000000  0.50000000  0.00000000  1
  O  O45  1  0.76755837  0.08354930  0.00000000  1
  O  O46  1  0.64860101  0.31191557  0.15497389  1
  O  O47  1  0.92991969  0.33009246  0.25000000  1
  O  O48  1  0.14855981  0.18777111  0.40498520  1
  O  O49  1  0.73256660  0.58322836  0.25000000  1
  O  O50  1  0.26743340  0.41677164  0.25000000  1
  O  O51  1  0.85144019  0.81222889  0.09501480  1
  O  O52  1  0.84046460  0.43495047  0.50000000  1
  O  O53  1  0.50000000  0.50000000  0.50000000  1
  O  O54  1  0.14855981  0.18777111  0.59501480  1
  O  O55  1  0.14855981  0.18777111  0.90498520  1
  O  O56  1  0.15953540  0.56504953  0.50000000  1
  O  O57  1  0.85144019  0.81222889  0.90498520  1
  O  O58  1  0.00000000  0.00000000  0.75000000  1
  O  O59  1  0.00000000  0.00000000  0.25000000  1
