# generated using pymatgen
data_LiMo2AsO9
_symmetry_space_group_name_H-M   'P 1'
_cell_length_a   5.54373841
_cell_length_b   7.72934078
_cell_length_c   9.10571862
_cell_angle_alpha   90.00000000
_cell_angle_beta   90.00000000
_cell_angle_gamma   90.00000000
_symmetry_Int_Tables_number   1
_chemical_formula_structural   LiMo2AsO9
_chemical_formula_sum   'Li2 Mo4 As2 O18'
_cell_volume   390.17497432
_cell_formula_units_Z   2
loop_
 _symmetry_equiv_pos_site_id
 _symmetry_equiv_pos_as_xyz
  1  'x, y, z'
loop_
 _atom_site_type_symbol
 _atom_site_label
 _atom_site_symmetry_multiplicity
 _atom_site_fract_x
 _atom_site_fract_y
 _atom_site_fract_z
 _atom_site_occupancy
  Li  Li0  1  0.25000000  0.75000000  0.39380304  1
  Li  Li1  1  0.75000000  0.25000000  0.60619696  1
  Mo  Mo2  1  0.75000000  0.45971675  0.25922527  1
  Mo  Mo3  1  0.75000000  0.04028325  0.25922527  1
  Mo  Mo4  1  0.25000000  0.95971675  0.74077473  1
  Mo  Mo5  1  0.25000000  0.54028325  0.74077473  1
  As  As6  1  0.25000000  0.25000000  0.04250198  1
  As  As7  1  0.75000000  0.75000000  0.95749802  1
  O  O8  1  0.25000000  0.06141813  0.94138903  1
  O  O9  1  0.50564522  0.56783903  0.33344347  1
  O  O10  1  0.00564522  0.43216097  0.66655653  1
  O  O11  1  0.49435478  0.06783903  0.66655653  1
  O  O12  1  0.25000000  0.43858187  0.94138903  1
  O  O13  1  0.00564522  0.06783903  0.66655653  1
  O  O14  1  0.99435478  0.93216097  0.33344347  1
  O  O15  1  0.49435478  0.43216097  0.66655653  1
  O  O16  1  0.49202042  0.75000000  0.85492439  1
  O  O17  1  0.50797958  0.25000000  0.14507561  1
  O  O18  1  0.75000000  0.25000000  0.38065195  1
  O  O19  1  0.99435478  0.56783903  0.33344347  1
  O  O20  1  0.75000000  0.93858187  0.05861097  1
  O  O21  1  0.75000000  0.56141813  0.05861097  1
  O  O22  1  0.00797958  0.75000000  0.85492439  1
  O  O23  1  0.25000000  0.75000000  0.61934805  1
  O  O24  1  0.50564522  0.93216097  0.33344347  1
  O  O25  1  0.99202042  0.25000000  0.14507561  1
