# generated using pymatgen
data_FeMoO4
_symmetry_space_group_name_H-M   'P 1'
_cell_length_a   6.79862340
_cell_length_b   6.79862349
_cell_length_c   7.72632833
_cell_angle_alpha   72.84460898
_cell_angle_beta   72.84460882
_cell_angle_gamma   84.94988024
_symmetry_Int_Tables_number   1
_chemical_formula_structural   FeMoO4
_chemical_formula_sum   'Fe4 Mo4 O16'
_cell_volume   326.04969048
_cell_formula_units_Z   4
loop_
 _symmetry_equiv_pos_site_id
 _symmetry_equiv_pos_as_xyz
  1  'x, y, z'
loop_
 _atom_site_type_symbol
 _atom_site_label
 _atom_site_symmetry_multiplicity
 _atom_site_fract_x
 _atom_site_fract_y
 _atom_site_fract_z
 _atom_site_occupancy
  Fe  Fe0  1  0.30498084  0.30498084  0.84604716  1
  Fe  Fe1  1  0.69501916  0.69501916  0.15395284  1
  Fe  Fe2  1  0.30454556  0.69545444  0.50000000  1
  Fe  Fe3  1  0.69545444  0.30454556  0.50000000  1
  Mo  Mo4  1  0.71548027  0.71548027  0.64000134  1
  Mo  Mo5  1  0.28451973  0.28451973  0.35999866  1
  Mo  Mo6  1  0.71459604  0.28540396  1.00000000  1
  Mo  Mo7  1  0.28540396  0.71459604  0.00000000  1
  O  O8  1  0.64394908  0.34287241  0.24139768  1
  O  O9  1  0.98414837  0.68429055  0.58344026  1
  O  O10  1  0.34287241  0.64394908  0.24139768  1
  O  O11  1  0.31677688  0.98308683  0.92781734  1
  O  O12  1  0.64916594  0.64916594  0.91679468  1
  O  O13  1  0.34649845  0.34649845  0.56312020  1
  O  O14  1  0.68429055  0.98414837  0.58344026  1
  O  O15  1  0.98308683  0.31677688  0.92781734  1
  O  O16  1  0.65350155  0.65350155  0.43687980  1
  O  O17  1  0.35083406  0.35083406  0.08320532  1
  O  O18  1  0.01585063  0.31570945  0.41655974  1
  O  O19  1  0.01691317  0.68322312  0.07218266  1
  O  O20  1  0.31570945  0.01585063  0.41655974  1
  O  O21  1  0.35605092  0.65712759  0.75860232  1
  O  O22  1  0.65712759  0.35605092  0.75860232  1
  O  O23  1  0.68322312  0.01691317  0.07218266  1
