# generated using pymatgen
data_Ni6Se5
_symmetry_space_group_name_H-M   'P 1'
_cell_length_a   6.86156342
_cell_length_b   11.81228518
_cell_length_c   17.01272076
_cell_angle_alpha   90.00000000
_cell_angle_beta   90.00000000
_cell_angle_gamma   90.00000000
_symmetry_Int_Tables_number   1
_chemical_formula_structural   Ni6Se5
_chemical_formula_sum   'Ni48 Se40'
_cell_volume   1378.89367332
_cell_formula_units_Z   8
loop_
 _symmetry_equiv_pos_site_id
 _symmetry_equiv_pos_as_xyz
  1  'x, y, z'
loop_
 _atom_site_type_symbol
 _atom_site_label
 _atom_site_symmetry_multiplicity
 _atom_site_fract_x
 _atom_site_fract_y
 _atom_site_fract_z
 _atom_site_occupancy
  Ni  Ni0  1  0.12715309  0.65347805  0.99581939  1
  Ni  Ni1  1  0.61425640  0.45890479  0.07585629  1
  Ni  Ni2  1  0.86592388  0.96213069  0.92793950  1
  Ni  Ni3  1  0.37670376  0.28317460  0.11995744  1
  Ni  Ni4  1  0.37075850  0.72778704  0.37706259  1
  Ni  Ni5  1  0.13924830  0.19247156  0.22056303  1
  Ni  Ni6  1  0.36687075  0.04247390  0.43045097  1
  Ni  Ni7  1  0.37284691  0.15347805  0.99581939  1
  Ni  Ni8  1  0.13312925  0.54247390  0.43045097  1
  Ni  Ni9  1  0.36592388  0.96213069  0.07206050  1
  Ni  Ni10  1  0.61299087  0.35495918  0.49491160  1
  Ni  Ni11  1  0.37841621  0.32651341  0.72442332  1
  Ni  Ni12  1  0.63312925  0.54247390  0.56954903  1
  Ni  Ni13  1  0.36075170  0.69247156  0.22056303  1
  Ni  Ni14  1  0.87841621  0.32651341  0.27557668  1
  Ni  Ni15  1  0.12710721  0.99003551  0.27559217  1
  Ni  Ni16  1  0.88700913  0.85495918  0.49491160  1
  Ni  Ni17  1  0.62158379  0.82651341  0.27557668  1
  Ni  Ni18  1  0.10812592  0.55047239  0.57762333  1
  Ni  Ni19  1  0.89187408  0.05047239  0.42237667  1
  Ni  Ni20  1  0.12924150  0.22778704  0.37706259  1
  Ni  Ni21  1  0.39187408  0.05047239  0.57762333  1
  Ni  Ni22  1  0.10808746  0.18867483  0.77664833  1
  Ni  Ni23  1  0.89191254  0.68867483  0.22335167  1
  Ni  Ni24  1  0.63924830  0.19247156  0.77943697  1
  Ni  Ni25  1  0.37289279  0.49003551  0.27559217  1
  Ni  Ni26  1  0.38574360  0.95890479  0.92414371  1
  Ni  Ni27  1  0.86075170  0.69247156  0.77943697  1
  Ni  Ni28  1  0.12329624  0.78317460  0.11995744  1
  Ni  Ni29  1  0.60812592  0.55047239  0.42237667  1
  Ni  Ni30  1  0.88574360  0.95890479  0.07585629  1
  Ni  Ni31  1  0.62329624  0.78317460  0.88004256  1
  Ni  Ni32  1  0.13407612  0.46213069  0.07206050  1
  Ni  Ni33  1  0.87670376  0.28317460  0.88004256  1
  Ni  Ni34  1  0.62715309  0.65347805  0.00418061  1
  Ni  Ni35  1  0.11299087  0.35495918  0.50508840  1
  Ni  Ni36  1  0.87289279  0.49003551  0.72440783  1
  Ni  Ni37  1  0.87075850  0.72778704  0.62293741  1
  Ni  Ni38  1  0.60808746  0.18867483  0.22335167  1
  Ni  Ni39  1  0.63407612  0.46213069  0.92793950  1
  Ni  Ni40  1  0.11425640  0.45890479  0.92414371  1
  Ni  Ni41  1  0.62710721  0.99003551  0.72440783  1
  Ni  Ni42  1  0.38700913  0.85495918  0.50508840  1
  Ni  Ni43  1  0.12158379  0.82651341  0.72442332  1
  Ni  Ni44  1  0.62924150  0.22778704  0.62293741  1
  Ni  Ni45  1  0.86687075  0.04247390  0.56954903  1
  Ni  Ni46  1  0.39191254  0.68867483  0.77664833  1
  Ni  Ni47  1  0.87284691  0.15347805  0.00418061  1
  Se  Se48  1  0.11064302  0.38562410  0.79663260  1
  Se  Se49  1  0.12789351  0.62581286  0.30701694  1
  Se  Se50  1  0.87210649  0.12581286  0.69298306  1
  Se  Se51  1  0.87372135  0.13035462  0.29833437  1
  Se  Se52  1  0.62923529  0.11469300  0.90441752  1
  Se  Se53  1  0.62503884  0.15212450  0.49278212  1
  Se  Se54  1  0.61756230  0.10744613  0.09892767  1
  Se  Se55  1  0.63344360  0.90595189  0.40052077  1
  Se  Se56  1  0.37076471  0.61469300  0.09558248  1
  Se  Se57  1  0.37210649  0.12581286  0.30701694  1
  Se  Se58  1  0.13344360  0.90595189  0.59947923  1
  Se  Se59  1  0.11756230  0.10744613  0.90107233  1
  Se  Se60  1  0.62627865  0.63035462  0.29833437  1
  Se  Se61  1  0.35689821  0.38532762  0.40043783  1
  Se  Se62  1  0.12503884  0.15212450  0.50721788  1
  Se  Se63  1  0.36655640  0.40595189  0.59947923  1
  Se  Se64  1  0.62789351  0.62581286  0.69298306  1
  Se  Se65  1  0.88243770  0.60744613  0.09892767  1
  Se  Se66  1  0.61064302  0.38562410  0.20336740  1
  Se  Se67  1  0.87496116  0.65212450  0.49278212  1
  Se  Se68  1  0.38935698  0.88562410  0.79663260  1
  Se  Se69  1  0.63925356  0.38816124  0.80028741  1
  Se  Se70  1  0.86655640  0.40595189  0.40052077  1
  Se  Se71  1  0.86074644  0.88816124  0.80028741  1
  Se  Se72  1  0.14310179  0.88532762  0.40043783  1
  Se  Se73  1  0.37372135  0.13035462  0.70166563  1
  Se  Se74  1  0.12592768  0.85602809  0.99001301  1
  Se  Se75  1  0.85689821  0.38532762  0.59956217  1
  Se  Se76  1  0.87407232  0.35602809  0.00998699  1
  Se  Se77  1  0.62592768  0.85602809  0.00998699  1
  Se  Se78  1  0.12627865  0.63035462  0.70166563  1
  Se  Se79  1  0.36074644  0.88816124  0.19971259  1
  Se  Se80  1  0.37496116  0.65212450  0.50721788  1
  Se  Se81  1  0.12923529  0.11469300  0.09558248  1
  Se  Se82  1  0.88935698  0.88562410  0.20336740  1
  Se  Se83  1  0.38243770  0.60744613  0.90107233  1
  Se  Se84  1  0.87076471  0.61469300  0.90441752  1
  Se  Se85  1  0.13925356  0.38816124  0.19971259  1
  Se  Se86  1  0.37407232  0.35602809  0.99001301  1
  Se  Se87  1  0.64310179  0.88532762  0.59956217  1
