# generated using pymatgen
data_Bi12PtCl12
_symmetry_space_group_name_H-M   'P 1'
_cell_length_a   9.54304458
_cell_length_b   9.33458788
_cell_length_c   9.41478615
_cell_angle_alpha   87.58955744
_cell_angle_beta   90.57208027
_cell_angle_gamma   90.56238310
_symmetry_Int_Tables_number   1
_chemical_formula_structural   Bi12PtCl12
_chemical_formula_sum   'Bi12 Pt1 Cl12'
_cell_volume   837.85191372
_cell_formula_units_Z   1
loop_
 _symmetry_equiv_pos_site_id
 _symmetry_equiv_pos_as_xyz
  1  'x, y, z'
loop_
 _atom_site_type_symbol
 _atom_site_label
 _atom_site_symmetry_multiplicity
 _atom_site_fract_x
 _atom_site_fract_y
 _atom_site_fract_z
 _atom_site_occupancy
  Bi  Bi0  1  0.03399270  0.96458383  0.71473381  1
  Bi  Bi1  1  0.03983692  0.29148804  0.95884472  1
  Bi  Bi2  1  0.96819201  0.03620858  0.28739700  1
  Bi  Bi3  1  0.76085951  0.45734093  0.50263709  1
  Bi  Bi4  1  0.55216833  0.45735383  0.27092916  1
  Bi  Bi5  1  0.95827860  0.70982181  0.04087688  1
  Bi  Bi6  1  0.28361807  0.96667819  0.04525525  1
  Bi  Bi7  1  0.71559064  0.03533822  0.96134178  1
  Bi  Bi8  1  0.39826792  0.54629531  0.73870772  1
  Bi  Bi9  1  0.27281408  0.52459100  0.45351730  1
  Bi  Bi10  1  0.48403212  0.28187601  0.56283155  1
  Bi  Bi11  1  0.56073657  0.71218958  0.50213375  1
  Pt  Pt12  1  0.99971655  0.00063057  0.00078137  1
  Cl  Cl13  1  0.75027821  0.33230610  0.92847721  1
  Cl  Cl14  1  0.01786394  0.33211988  0.24994466  1
  Cl  Cl15  1  0.32577146  0.92912697  0.75180146  1
  Cl  Cl16  1  0.66776866  0.73670922  1.00925486  1
  Cl  Cl17  1  0.33218448  0.26266286  -0.00190303  1
  Cl  Cl18  1  0.24935199  0.66909204  0.08131652  1
  Cl  Cl19  1  0.25345844  -0.00345027  0.33770219  1
  Cl  Cl20  1  0.07378482  0.26144054  0.66270255  1
  Cl  Cl21  1  -0.01045426  0.66921573  0.75201786  1
  Cl  Cl22  1  0.67373329  0.07272906  0.24923066  1
  Cl  Cl23  1  0.74368775  0.00362997  0.66226676  1
  Cl  Cl24  1  0.93196719  0.73962201  0.33930093  1
