# generated using pymatgen
data_Ca21(Mn2Sb9)2
_symmetry_space_group_name_H-M   'P 1'
_cell_length_a   12.12829993
_cell_length_b   12.12830010
_cell_length_c   17.08249540
_cell_angle_alpha   88.53489726
_cell_angle_beta   88.53489726
_cell_angle_gamma   87.50880555
_symmetry_Int_Tables_number   1
_chemical_formula_structural   Ca21(Mn2Sb9)2
_chemical_formula_sum   'Ca42 Mn8 Sb36'
_cell_volume   2508.81294046
_cell_formula_units_Z   2
loop_
 _symmetry_equiv_pos_site_id
 _symmetry_equiv_pos_as_xyz
  1  'x, y, z'
loop_
 _atom_site_type_symbol
 _atom_site_label
 _atom_site_symmetry_multiplicity
 _atom_site_fract_x
 _atom_site_fract_y
 _atom_site_fract_z
 _atom_site_occupancy
  Ca  Ca0  1  0.00460168  0.67852750  0.93604846  1
  Ca  Ca1  1  0.77315643  0.50494455  0.55769283  1
  Ca  Ca2  1  0.99539832  0.32147250  0.06395154  1
  Ca  Ca3  1  0.50494455  0.77315643  0.55769283  1
  Ca  Ca4  1  0.43241942  0.07562074  0.25648351  1
  Ca  Ca5  1  0.25922478  0.57464725  0.85027752  1
  Ca  Ca6  1  0.75009688  0.42051160  0.35439326  1
  Ca  Ca7  1  0.75745851  0.09914317  0.34160872  1
  Ca  Ca8  1  0.50817776  0.26923870  0.07658559  1
  Ca  Ca9  1  0.07562074  0.43241942  0.25648351  1
  Ca  Ca10  1  0.09914317  0.75745851  0.34160872  1
  Ca  Ca11  1  0.90085683  0.24254149  0.65839128  1
  Ca  Ca12  1  0.49505545  0.22684357  0.44230717  1
  Ca  Ca13  1  0.07117425  0.82253787  0.11818812  1
  Ca  Ca14  1  0.24254149  0.90085683  0.65839128  1
  Ca  Ca15  1  0.42535275  0.74077522  0.14972248  1
  Ca  Ca16  1  0.24226907  0.99008134  0.44306794  1
  Ca  Ca17  1  0.82253787  0.07117425  0.11818812  1
  Ca  Ca18  1  0.00991866  0.75773093  0.55693206  1
  Ca  Ca19  1  0.92437926  0.56758058  0.74351649  1
  Ca  Ca20  1  0.90357200  0.90357200  0.75507424  1
  Ca  Ca21  1  0.22684357  0.49505545  0.44230717  1
  Ca  Ca22  1  0.57464725  0.25922478  0.85027752  1
  Ca  Ca23  1  0.57948840  0.24990312  0.64560674  1
  Ca  Ca24  1  0.42051160  0.75009688  0.35439326  1
  Ca  Ca25  1  0.32147250  0.99539832  0.06395154  1
  Ca  Ca26  1  0.75773093  0.00991866  0.55693206  1
  Ca  Ca27  1  0.74077522  0.42535275  0.14972248  1
  Ca  Ca28  1  0.92882575  0.17746213  0.88181188  1
  Ca  Ca29  1  0.26923870  0.50817776  0.07658559  1
  Ca  Ca30  1  0.76627583  0.76627583  0.41175848  1
  Ca  Ca31  1  0.67852750  0.00460168  0.93604846  1
  Ca  Ca32  1  0.49182224  0.73076130  0.92341441  1
  Ca  Ca33  1  0.75317747  0.75317747  0.07686160  1
  Ca  Ca34  1  0.24682253  0.24682253  0.92313840  1
  Ca  Ca35  1  0.17746213  0.92882575  0.88181188  1
  Ca  Ca36  1  0.99008134  0.24226907  0.44306794  1
  Ca  Ca37  1  0.56758058  0.92437926  0.74351649  1
  Ca  Ca38  1  0.09642800  0.09642800  0.24492576  1
  Ca  Ca39  1  0.23372417  0.23372417  0.58824152  1
  Ca  Ca40  1  0.73076130  0.49182224  0.92341441  1
  Ca  Ca41  1  0.24990312  0.57948840  0.64560674  1
  Mn  Mn42  1  0.34846145  0.12321950  0.74918198  1
  Mn  Mn43  1  0.50186220  0.50186220  0.70496634  1
  Mn  Mn44  1  0.65153855  0.87678050  0.25081802  1
  Mn  Mn45  1  0.65772483  0.65772483  0.74190331  1
  Mn  Mn46  1  0.12321950  0.34846145  0.74918198  1
  Mn  Mn47  1  0.49813780  0.49813780  0.29503366  1
  Mn  Mn48  1  0.34227517  0.34227517  0.25809669  1
  Mn  Mn49  1  0.87678050  0.65153855  0.25081802  1
  Sb  Sb50  1  0.07547917  0.07547917  0.03523208  1
  Sb  Sb51  1  0.92452083  0.92452083  0.96476792  1
  Sb  Sb52  1  0.74636696  0.74636696  0.87399303  1
  Sb  Sb53  1  0.71276293  0.43093660  0.73907801  1
  Sb  Sb54  1  0.76138581  0.76138581  0.61642146  1
  Sb  Sb55  1  0.56906340  0.28723707  0.26092199  1
  Sb  Sb56  1  0.11960845  0.11960845  0.75720636  1
  Sb  Sb57  1  0.42491504  0.03956987  0.88962583  1
  Sb  Sb58  1  0.45029088  0.45029088  0.93347058  1
  Sb  Sb59  1  0.43093660  0.71276293  0.73907801  1
  Sb  Sb60  1  0.25557340  0.74442660  0.50000000  1
  Sb  Sb61  1  0.96043013  0.57508496  0.11037417  1
  Sb  Sb62  1  0.23861419  0.23861419  0.38357854  1
  Sb  Sb63  1  0.73937840  0.10048392  0.75652132  1
  Sb  Sb64  1  0.03603493  0.03603493  0.57771773  1
  Sb  Sb65  1  0.74482440  0.25517560  0.00000000  1
  Sb  Sb66  1  0.04838455  0.43655386  0.60055846  1
  Sb  Sb67  1  0.88039155  0.88039155  0.24279364  1
  Sb  Sb68  1  0.26062160  0.89951608  0.24347868  1
  Sb  Sb69  1  0.10048392  0.73937840  0.75652132  1
  Sb  Sb70  1  0.56355398  0.56355398  0.44133357  1
  Sb  Sb71  1  0.35034258  0.35034258  0.74870675  1
  Sb  Sb72  1  0.43644602  0.43644602  0.55866643  1
  Sb  Sb73  1  0.54970912  0.54970912  0.06652942  1
  Sb  Sb74  1  0.74442660  0.25557340  0.50000000  1
  Sb  Sb75  1  0.25517560  0.74482440  0.00000000  1
  Sb  Sb76  1  0.25363304  0.25363304  0.12600697  1
  Sb  Sb77  1  0.64965742  0.64965742  0.25129325  1
  Sb  Sb78  1  0.28723707  0.56906340  0.26092199  1
  Sb  Sb79  1  0.89951608  0.26062160  0.24347868  1
  Sb  Sb80  1  0.57508496  0.96043013  0.11037417  1
  Sb  Sb81  1  0.95161545  0.56344614  0.39944154  1
  Sb  Sb82  1  0.96396507  0.96396507  0.42228227  1
  Sb  Sb83  1  0.43655386  0.04838455  0.60055846  1
  Sb  Sb84  1  0.03956987  0.42491504  0.88962583  1
  Sb  Sb85  1  0.56344614  0.95161545  0.39944154  1
