# generated using pymatgen
data_Sm13Cd58
_symmetry_space_group_name_H-M   'P 1'
_cell_length_a   15.90041834
_cell_length_b   15.90041833
_cell_length_c   15.61204512
_cell_angle_alpha   90.00000000
_cell_angle_beta   90.00000000
_cell_angle_gamma   120.00000002
_symmetry_Int_Tables_number   1
_chemical_formula_structural   Sm13Cd58
_chemical_formula_sum   'Sm26 Cd116'
_cell_volume   3418.27918571
_cell_formula_units_Z   2
loop_
 _symmetry_equiv_pos_site_id
 _symmetry_equiv_pos_as_xyz
  1  'x, y, z'
loop_
 _atom_site_type_symbol
 _atom_site_label
 _atom_site_symmetry_multiplicity
 _atom_site_fract_x
 _atom_site_fract_y
 _atom_site_fract_z
 _atom_site_occupancy
  Sm  Sm0  1  0.41138059  0.20569029  0.55254351  1
  Sm  Sm1  1  0.87169057  0.74338114  0.25000000  1
  Sm  Sm2  1  0.20569029  0.41138059  0.05254351  1
  Sm  Sm3  1  0.08739820  0.54369910  0.75000000  1
  Sm  Sm4  1  0.79430971  0.58861941  0.94745649  1
  Sm  Sm5  1  0.79430971  0.20569029  0.55254351  1
  Sm  Sm6  1  0.91260180  0.45630090  0.25000000  1
  Sm  Sm7  1  0.79430971  0.20569029  0.94745649  1
  Sm  Sm8  1  0.79430971  0.58861941  0.55254351  1
  Sm  Sm9  1  0.45630090  0.91260180  0.75000000  1
  Sm  Sm10  1  0.12830943  0.87169057  0.75000000  1
  Sm  Sm11  1  0.87169057  0.12830943  0.25000000  1
  Sm  Sm12  1  0.58861941  0.79430971  0.05254351  1
  Sm  Sm13  1  0.58861941  0.79430971  0.44745649  1
  Sm  Sm14  1  0.20569029  0.79430971  0.44745649  1
  Sm  Sm15  1  0.00000000  0.00000000  0.00000000  1
  Sm  Sm16  1  0.45630090  0.54369910  0.75000000  1
  Sm  Sm17  1  0.54369910  0.08739820  0.25000000  1
  Sm  Sm18  1  0.12830943  0.25661886  0.75000000  1
  Sm  Sm19  1  0.74338114  0.87169057  0.75000000  1
  Sm  Sm20  1  0.20569029  0.41138059  0.44745649  1
  Sm  Sm21  1  0.41138059  0.20569029  0.94745649  1
  Sm  Sm22  1  0.00000000  0.00000000  0.50000000  1
  Sm  Sm23  1  0.25661886  0.12830943  0.25000000  1
  Sm  Sm24  1  0.20569029  0.79430971  0.05254351  1
  Sm  Sm25  1  0.54369910  0.45630090  0.25000000  1
  Cd  Cd26  1  0.90761207  0.09238793  0.65572337  1
  Cd  Cd27  1  0.00000000  0.19835466  0.00000000  1
  Cd  Cd28  1  0.63525726  0.96402361  0.60218600  1
  Cd  Cd29  1  0.36474274  0.32876635  0.39781400  1
  Cd  Cd30  1  0.67123365  0.63525726  0.10218600  1
  Cd  Cd31  1  0.60027274  0.39972726  0.05192702  1
  Cd  Cd32  1  0.63525726  0.67123365  0.89781400  1
  Cd  Cd33  1  0.96402361  0.63525726  0.10218600  1
  Cd  Cd34  1  0.20054549  0.60027274  0.94807298  1
  Cd  Cd35  1  0.09238793  0.90761207  0.34427663  1
  Cd  Cd36  1  0.56063731  0.12127462  0.64620436  1
  Cd  Cd37  1  0.81522415  0.90761207  0.34427663  1
  Cd  Cd38  1  0.73301085  0.26698915  0.75000000  1
  Cd  Cd39  1  0.43936269  0.87872538  0.35379564  1
  Cd  Cd40  1  0.32876635  0.36474274  0.89781400  1
  Cd  Cd41  1  0.03597639  0.67123365  0.89781400  1
  Cd  Cd42  1  0.53108149  0.76554074  0.84153163  1
  Cd  Cd43  1  0.80164534  0.80164534  0.00000000  1
  Cd  Cd44  1  0.36474274  0.03597639  0.39781400  1
  Cd  Cd45  1  0.00000000  0.19835466  0.50000000  1
  Cd  Cd46  1  0.91880914  0.64279275  0.75000000  1
  Cd  Cd47  1  0.19835466  0.19835466  0.50000000  1
  Cd  Cd48  1  0.67123365  0.03597639  0.10218600  1
  Cd  Cd49  1  0.60027274  0.39972726  0.44807298  1
  Cd  Cd50  1  0.76554074  0.53108149  0.34153163  1
  Cd  Cd51  1  0.76554074  0.53108149  0.15846837  1
  Cd  Cd52  1  0.96402361  0.32876635  0.10218600  1
  Cd  Cd53  1  0.66666700  0.33333300  0.59568380  1
  Cd  Cd54  1  0.27601639  0.91880914  0.25000000  1
  Cd  Cd55  1  0.46891851  0.23445926  0.34153163  1
  Cd  Cd56  1  0.03597639  0.36474274  0.60218600  1
  Cd  Cd57  1  0.33333300  0.66666700  0.75000000  1
  Cd  Cd58  1  0.72398361  0.08119086  0.75000000  1
  Cd  Cd59  1  0.03597639  0.36474274  0.89781400  1
  Cd  Cd60  1  0.80164534  0.00000000  0.50000000  1
  Cd  Cd61  1  0.60027274  0.20054549  0.44807298  1
  Cd  Cd62  1  0.67123365  0.03597639  0.39781400  1
  Cd  Cd63  1  0.35720725  0.08119086  0.75000000  1
  Cd  Cd64  1  0.91880914  0.27601639  0.75000000  1
  Cd  Cd65  1  0.00000000  0.80164534  0.00000000  1
  Cd  Cd66  1  0.43936269  0.56063731  0.14620436  1
  Cd  Cd67  1  0.12127462  0.56063731  0.35379564  1
  Cd  Cd68  1  0.50000000  0.00000000  0.50000000  1
  Cd  Cd69  1  0.90761207  0.81522415  0.84427663  1
  Cd  Cd70  1  0.09238793  0.18477585  0.15572337  1
  Cd  Cd71  1  0.03597639  0.67123365  0.60218600  1
  Cd  Cd72  1  0.32876635  0.36474274  0.60218600  1
  Cd  Cd73  1  0.56063731  0.12127462  0.85379564  1
  Cd  Cd74  1  0.20054549  0.60027274  0.55192702  1
  Cd  Cd75  1  0.63525726  0.67123365  0.60218600  1
  Cd  Cd76  1  0.43936269  0.56063731  0.35379564  1
  Cd  Cd77  1  0.00000000  0.00000000  0.25000000  1
  Cd  Cd78  1  0.60027274  0.20054549  0.05192702  1
  Cd  Cd79  1  0.79945451  0.39972726  0.44807298  1
  Cd  Cd80  1  0.73301085  0.46602170  0.75000000  1
  Cd  Cd81  1  0.39972726  0.79945451  0.94807298  1
  Cd  Cd82  1  0.66666700  0.33333300  0.90431620  1
  Cd  Cd83  1  0.23445926  0.46891851  0.84153163  1
  Cd  Cd84  1  0.76554074  0.23445926  0.15846837  1
  Cd  Cd85  1  0.27601639  0.35720725  0.25000000  1
  Cd  Cd86  1  0.39972726  0.60027274  0.55192702  1
  Cd  Cd87  1  0.36474274  0.03597639  0.10218600  1
  Cd  Cd88  1  0.76554074  0.23445926  0.34153163  1
  Cd  Cd89  1  0.81522415  0.90761207  0.15572337  1
  Cd  Cd90  1  0.32876635  0.96402361  0.89781400  1
  Cd  Cd91  1  0.87872538  0.43936269  0.85379564  1
  Cd  Cd92  1  0.90761207  0.81522415  0.65572337  1
  Cd  Cd93  1  0.12127462  0.56063731  0.14620436  1
  Cd  Cd94  1  0.96402361  0.32876635  0.39781400  1
  Cd  Cd95  1  0.64279275  0.72398361  0.25000000  1
  Cd  Cd96  1  0.56063731  0.43936269  0.85379564  1
  Cd  Cd97  1  0.46891851  0.23445926  0.15846837  1
  Cd  Cd98  1  0.80164534  0.80164534  0.50000000  1
  Cd  Cd99  1  0.00000000  0.00000000  0.75000000  1
  Cd  Cd100  1  0.18477585  0.09238793  0.65572337  1
  Cd  Cd101  1  0.19835466  0.19835466  0.00000000  1
  Cd  Cd102  1  0.19835466  0.00000000  0.50000000  1
  Cd  Cd103  1  0.08119086  0.35720725  0.25000000  1
  Cd  Cd104  1  0.67123365  0.63525726  0.39781400  1
  Cd  Cd105  1  0.53108149  0.76554074  0.65846837  1
  Cd  Cd106  1  0.79945451  0.39972726  0.05192702  1
  Cd  Cd107  1  0.36474274  0.32876635  0.10218600  1
  Cd  Cd108  1  0.23445926  0.76554074  0.84153163  1
  Cd  Cd109  1  0.66666700  0.33333300  0.25000000  1
  Cd  Cd110  1  0.43936269  0.87872538  0.14620436  1
  Cd  Cd111  1  0.50000000  0.50000000  0.00000000  1
  Cd  Cd112  1  0.00000000  0.50000000  0.50000000  1
  Cd  Cd113  1  0.23445926  0.76554074  0.65846837  1
  Cd  Cd114  1  0.33333300  0.66666700  0.40431620  1
  Cd  Cd115  1  0.19835466  0.00000000  0.00000000  1
  Cd  Cd116  1  0.08119086  0.72398361  0.25000000  1
  Cd  Cd117  1  0.00000000  0.80164534  0.50000000  1
  Cd  Cd118  1  0.63525726  0.96402361  0.89781400  1
  Cd  Cd119  1  0.50000000  0.50000000  0.50000000  1
  Cd  Cd120  1  0.18477585  0.09238793  0.84427663  1
  Cd  Cd121  1  0.53397830  0.26698915  0.75000000  1
  Cd  Cd122  1  0.09238793  0.90761207  0.15572337  1
  Cd  Cd123  1  0.90761207  0.09238793  0.84427663  1
  Cd  Cd124  1  0.56063731  0.43936269  0.64620436  1
  Cd  Cd125  1  0.35720725  0.27601639  0.75000000  1
  Cd  Cd126  1  0.26698915  0.73301085  0.25000000  1
  Cd  Cd127  1  0.96402361  0.63525726  0.39781400  1
  Cd  Cd128  1  0.33333300  0.66666700  0.09568380  1
  Cd  Cd129  1  0.26698915  0.53397830  0.25000000  1
  Cd  Cd130  1  0.80164534  0.00000000  0.00000000  1
  Cd  Cd131  1  0.64279275  0.91880914  0.25000000  1
  Cd  Cd132  1  0.50000000  0.00000000  0.00000000  1
  Cd  Cd133  1  0.87872538  0.43936269  0.64620436  1
  Cd  Cd134  1  0.32876635  0.96402361  0.60218600  1
  Cd  Cd135  1  0.00000000  0.50000000  0.00000000  1
  Cd  Cd136  1  0.09238793  0.18477585  0.34427663  1
  Cd  Cd137  1  0.39972726  0.60027274  0.94807298  1
  Cd  Cd138  1  0.23445926  0.46891851  0.65846837  1
  Cd  Cd139  1  0.72398361  0.64279275  0.75000000  1
  Cd  Cd140  1  0.39972726  0.79945451  0.55192702  1
  Cd  Cd141  1  0.46602170  0.73301085  0.25000000  1
