# generated using pymatgen
data_Zn13Sb10
_symmetry_space_group_name_H-M   'P 1'
_cell_length_a   10.98366135
_cell_length_b   12.41655589
_cell_length_c   17.59208883
_cell_angle_alpha   110.23912434
_cell_angle_beta   98.09082982
_cell_angle_gamma   90.13007767
_symmetry_Int_Tables_number   1
_chemical_formula_structural   Zn13Sb10
_chemical_formula_sum   'Zn52 Sb40'
_cell_volume   2225.29965727
_cell_formula_units_Z   4
loop_
 _symmetry_equiv_pos_site_id
 _symmetry_equiv_pos_as_xyz
  1  'x, y, z'
loop_
 _atom_site_type_symbol
 _atom_site_label
 _atom_site_symmetry_multiplicity
 _atom_site_fract_x
 _atom_site_fract_y
 _atom_site_fract_z
 _atom_site_occupancy
  Zn  Zn0  1  0.35945825  0.28215229  0.00466255  1
  Zn  Zn1  1  0.06057858  0.55739452  0.78457091  1
  Zn  Zn2  1  0.59911819  0.02646613  0.73768702  1
  Zn  Zn3  1  0.87052678  0.80811139  0.01250071  1
  Zn  Zn4  1  0.11324061  0.05338084  0.51096815  1
  Zn  Zn5  1  0.13849629  0.12812361  0.33168905  1
  Zn  Zn6  1  0.88675939  0.94661916  0.48903185  1
  Zn  Zn7  1  0.77098450  0.32872067  0.57793980  1
  Zn  Zn8  1  0.45423646  0.10910261  0.53021165  1
  Zn  Zn9  1  0.71118927  0.36973871  0.03729744  1
  Zn  Zn10  1  0.75089335  0.17486154  0.42335048  1
  Zn  Zn11  1  0.73818140  0.57726165  0.75281048  1
  Zn  Zn12  1  0.09486974  0.13526837  0.17582726  1
  Zn  Zn13  1  0.38463739  0.45314889  0.49327942  1
  Zn  Zn14  1  0.22901550  0.67127933  0.42206020  1
  Zn  Zn15  1  0.23603941  0.08131032  0.75629914  1
  Zn  Zn16  1  0.40088181  0.97353387  0.26231298  1
  Zn  Zn17  1  0.12947322  0.19188861  0.98749929  1
  Zn  Zn18  1  0.64054175  0.71784771  0.99533745  1
  Zn  Zn19  1  0.19380792  0.84779228  0.03371236  1
  Zn  Zn20  1  0.94777153  0.60275844  0.53158956  1
  Zn  Zn21  1  0.28881073  0.63026129  0.96270256  1
  Zn  Zn22  1  0.24910665  0.82513846  0.57664952  1
  Zn  Zn23  1  0.90513026  0.86473163  0.82417274  1
  Zn  Zn24  1  0.05222847  0.39724156  0.46841044  1
  Zn  Zn25  1  0.57413802  0.22053627  0.10375511  1
  Zn  Zn26  1  0.99503639  0.41952927  0.92452006  1
  Zn  Zn27  1  0.26181860  0.42273835  0.24718952  1
  Zn  Zn28  1  0.49040934  0.34894341  0.26580947  1
  Zn  Zn29  1  0.00496361  0.58047073  0.07547994  1
  Zn  Zn30  1  0.52370344  0.93690151  0.85322815  1
  Zn  Zn31  1  0.54576354  0.89089739  0.46978835  1
  Zn  Zn32  1  0.47629656  0.06309849  0.14677185  1
  Zn  Zn33  1  0.40871625  0.74359904  0.17607919  1
  Zn  Zn34  1  0.76396059  0.91868968  0.24370086  1
  Zn  Zn35  1  0.74376442  0.19800282  0.70649198  1
  Zn  Zn36  1  0.42586198  0.77946373  0.89624489  1
  Zn  Zn37  1  0.38574733  0.37489709  0.82930705  1
  Zn  Zn38  1  0.17143875  0.68890692  0.71164197  1
  Zn  Zn39  1  0.99005208  0.83387719  0.26041975  1
  Zn  Zn40  1  0.00994792  0.16612281  0.73958025  1
  Zn  Zn41  1  0.82856125  0.31109308  0.28835803  1
  Zn  Zn42  1  0.80619208  0.15220772  0.96628764  1
  Zn  Zn43  1  0.50959066  0.65105659  0.73419053  1
  Zn  Zn44  1  0.61425267  0.62510291  0.17069295  1
  Zn  Zn45  1  0.63221065  0.63889457  0.34115898  1
  Zn  Zn46  1  0.61536261  0.54685111  0.50672058  1
  Zn  Zn47  1  0.86150371  0.87187639  0.66831095  1
  Zn  Zn48  1  0.93942142  0.44260548  0.21542909  1
  Zn  Zn49  1  0.25623558  0.80199718  0.29350802  1
  Zn  Zn50  1  0.59128375  0.25640096  0.82392081  1
  Zn  Zn51  1  0.36778935  0.36110543  0.65884102  1
  Sb  Sb52  1  0.83959420  0.07284680  0.80558019  1
  Sb  Sb53  1  0.97903961  0.34273050  0.68357213  1
  Sb  Sb54  1  0.81111380  0.70896614  0.12598069  1
  Sb  Sb55  1  0.69470826  0.78549588  0.86958691  1
  Sb  Sb56  1  0.94161030  0.04459600  0.37458515  1
  Sb  Sb57  1  0.53476811  0.17613550  0.32594063  1
  Sb  Sb58  1  0.29426638  0.90832416  0.45496083  1
  Sb  Sb59  1  0.39660921  0.51721418  0.05946638  1
  Sb  Sb60  1  0.89533168  0.03761419  0.06485529  1
  Sb  Sb61  1  0.34994804  0.22076616  0.43323261  1
  Sb  Sb62  1  0.18888620  0.29103386  0.87401931  1
  Sb  Sb63  1  0.08455870  0.33548758  0.30704830  1
  Sb  Sb64  1  0.67836080  0.43132366  0.20369195  1
  Sb  Sb65  1  0.60339079  0.48278582  0.94053362  1
  Sb  Sb66  1  0.73574756  0.09927154  0.18735572  1
  Sb  Sb67  1  0.55099456  0.16076902  0.93698494  1
  Sb  Sb68  1  0.02096039  0.65726950  0.31642787  1
  Sb  Sb69  1  0.96162271  0.34727187  0.05419042  1
  Sb  Sb70  1  0.78221475  0.41545691  0.82476103  1
  Sb  Sb71  1  0.43315675  0.55292975  0.37880890  1
  Sb  Sb72  1  0.46523189  0.82386450  0.67405937  1
  Sb  Sb73  1  0.21778525  0.58454309  0.17523897  1
  Sb  Sb74  1  0.26425244  0.90072846  0.81264428  1
  Sb  Sb75  1  0.30529174  0.21450412  0.13041309  1
  Sb  Sb76  1  0.16040580  0.92715320  0.19441981  1
  Sb  Sb77  1  0.65005196  0.77923384  0.56676739  1
  Sb  Sb78  1  0.32163920  0.56867634  0.79630805  1
  Sb  Sb79  1  0.41288336  0.15835142  0.69211560  1
  Sb  Sb80  1  0.79530563  0.40485763  0.44730039  1
  Sb  Sb81  1  0.20469437  0.59514237  0.55269961  1
  Sb  Sb82  1  0.85245468  0.71665171  0.43322334  1
  Sb  Sb83  1  0.56684325  0.44707025  0.62119110  1
  Sb  Sb84  1  0.91544130  0.66451242  0.69295170  1
  Sb  Sb85  1  0.05838970  0.95540400  0.62541485  1
  Sb  Sb86  1  0.44900544  0.83923098  0.06301506  1
  Sb  Sb87  1  0.14754532  0.28334829  0.56677666  1
  Sb  Sb88  1  0.03837729  0.65272813  0.94580958  1
  Sb  Sb89  1  0.10466832  0.96238581  0.93514471  1
  Sb  Sb90  1  0.58711664  0.84164858  0.30788440  1
  Sb  Sb91  1  0.70573362  0.09167584  0.54503917  1
