# generated using pymatgen
data_Bi3Rh
_symmetry_space_group_name_H-M   'P 1'
_cell_length_a   4.33119195
_cell_length_b   8.96464364
_cell_length_c   11.54035686
_cell_angle_alpha   90.00000000
_cell_angle_beta   90.00000000
_cell_angle_gamma   90.00000000
_symmetry_Int_Tables_number   1
_chemical_formula_structural   Bi3Rh
_chemical_formula_sum   'Bi12 Rh4'
_cell_volume   448.08427194
_cell_formula_units_Z   4
loop_
 _symmetry_equiv_pos_site_id
 _symmetry_equiv_pos_as_xyz
  1  'x, y, z'
loop_
 _atom_site_type_symbol
 _atom_site_label
 _atom_site_symmetry_multiplicity
 _atom_site_fract_x
 _atom_site_fract_y
 _atom_site_fract_z
 _atom_site_occupancy
  Bi  Bi0  1  0.25000000  0.39957535  0.58951063  1
  Bi  Bi1  1  0.25000000  0.80291979  0.61342945  1
  Bi  Bi2  1  0.75000000  0.09696832  0.67710089  1
  Bi  Bi3  1  0.75000000  0.59696832  0.82289911  1
  Bi  Bi4  1  0.75000000  0.10042465  0.08951063  1
  Bi  Bi5  1  0.25000000  0.40303168  0.17710089  1
  Bi  Bi6  1  0.25000000  0.30291979  0.88657055  1
  Bi  Bi7  1  0.25000000  0.89957535  0.91048937  1
  Bi  Bi8  1  0.25000000  0.90303168  0.32289911  1
  Bi  Bi9  1  0.75000000  0.69708021  0.11342945  1
  Bi  Bi10  1  0.75000000  0.60042465  0.41048937  1
  Bi  Bi11  1  0.75000000  0.19708021  0.38657055  1
  Rh  Rh12  1  0.25000000  0.60196218  0.98036193  1
  Rh  Rh13  1  0.25000000  0.10196218  0.51963807  1
  Rh  Rh14  1  0.75000000  0.89803782  0.48036193  1
  Rh  Rh15  1  0.75000000  0.39803782  0.01963807  1
