# generated using pymatgen
data_Sr21(Mn2Sb9)2
_symmetry_space_group_name_H-M   'P 1'
_cell_length_a   12.71075410
_cell_length_b   12.71075364
_cell_length_c   18.00054926
_cell_angle_alpha   88.63605438
_cell_angle_beta   88.63605444
_cell_angle_gamma   87.55857145
_symmetry_Int_Tables_number   1
_chemical_formula_structural   Sr21(Mn2Sb9)2
_chemical_formula_sum   'Sr42 Mn8 Sb36'
_cell_volume   2904.00822885
_cell_formula_units_Z   2
loop_
 _symmetry_equiv_pos_site_id
 _symmetry_equiv_pos_as_xyz
  1  'x, y, z'
loop_
 _atom_site_type_symbol
 _atom_site_label
 _atom_site_symmetry_multiplicity
 _atom_site_fract_x
 _atom_site_fract_y
 _atom_site_fract_z
 _atom_site_occupancy
  Sr  Sr0  1  0.09712878  0.75935198  0.34060672  1
  Sr  Sr1  1  0.99634503  0.32292380  0.06271652  1
  Sr  Sr2  1  0.50918665  0.27116328  0.07767480  1
  Sr  Sr3  1  0.49081335  0.72883672  0.92232520  1
  Sr  Sr4  1  0.42161100  0.74953153  0.35373861  1
  Sr  Sr5  1  0.90287122  0.24064802  0.65939328  1
  Sr  Sr6  1  0.56729719  0.92358117  0.74276383  1
  Sr  Sr7  1  0.24064802  0.90287122  0.65939328  1
  Sr  Sr8  1  0.09701025  0.09701025  0.24497632  1
  Sr  Sr9  1  0.07066713  0.82258768  0.11932050  1
  Sr  Sr10  1  0.25046847  0.57838900  0.64626139  1
  Sr  Sr11  1  0.17741232  0.92933287  0.88067950  1
  Sr  Sr12  1  0.00771080  0.75440457  0.55601212  1
  Sr  Sr13  1  0.90298975  0.90298975  0.75502368  1
  Sr  Sr14  1  0.92358117  0.56729719  0.74276383  1
  Sr  Sr15  1  0.76308595  0.76308595  0.40883596  1
  Sr  Sr16  1  0.92933287  0.17741232  0.88067950  1
  Sr  Sr17  1  0.27116328  0.50918665  0.07767480  1
  Sr  Sr18  1  0.67707620  0.00365497  0.93728348  1
  Sr  Sr19  1  0.23691405  0.23691405  0.59116404  1
  Sr  Sr20  1  0.75440457  0.00771080  0.55601212  1
  Sr  Sr21  1  0.57838900  0.25046847  0.64626139  1
  Sr  Sr22  1  0.82258768  0.07066713  0.11932050  1
  Sr  Sr23  1  0.43270281  0.07641883  0.25723617  1
  Sr  Sr24  1  0.49627811  0.23653304  0.44156732  1
  Sr  Sr25  1  0.57151633  0.26145548  0.84929613  1
  Sr  Sr26  1  0.26145548  0.57151633  0.84929613  1
  Sr  Sr27  1  0.42848367  0.73854452  0.15070387  1
  Sr  Sr28  1  0.23653304  0.49627811  0.44156732  1
  Sr  Sr29  1  0.75170262  0.75170262  0.08014130  1
  Sr  Sr30  1  0.75935198  0.09712878  0.34060672  1
  Sr  Sr31  1  0.32292380  0.99634503  0.06271652  1
  Sr  Sr32  1  0.73854452  0.42848367  0.15070387  1
  Sr  Sr33  1  0.99228920  0.24559543  0.44398788  1
  Sr  Sr34  1  0.72883672  0.49081335  0.92232520  1
  Sr  Sr35  1  0.07641883  0.43270281  0.25723617  1
  Sr  Sr36  1  0.00365497  0.67707620  0.93728348  1
  Sr  Sr37  1  0.74953153  0.42161100  0.35373861  1
  Sr  Sr38  1  0.76346696  0.50372189  0.55843268  1
  Sr  Sr39  1  0.50372189  0.76346696  0.55843268  1
  Sr  Sr40  1  0.24559543  0.99228920  0.44398788  1
  Sr  Sr41  1  0.24829738  0.24829738  0.91985870  1
  Mn  Mn42  1  0.34887116  0.12573543  0.74926227  1
  Mn  Mn43  1  0.65112884  0.87426457  0.25073773  1
  Mn  Mn44  1  0.50094102  0.50094102  0.29474732  1
  Mn  Mn45  1  0.34169428  0.34169428  0.25681833  1
  Mn  Mn46  1  0.65830572  0.65830572  0.74318167  1
  Mn  Mn47  1  0.87426457  0.65112884  0.25073773  1
  Mn  Mn48  1  0.12573543  0.34887116  0.74926227  1
  Mn  Mn49  1  0.49905898  0.49905898  0.70525268  1
  Sb  Sb50  1  0.73918783  0.10180874  0.75755861  1
  Sb  Sb51  1  0.04020986  0.42252079  0.88465481  1
  Sb  Sb52  1  0.56240977  0.29559945  0.26123165  1
  Sb  Sb53  1  0.12650136  0.12650136  0.75588567  1
  Sb  Sb54  1  0.43525060  0.04986375  0.60327624  1
  Sb  Sb55  1  0.34912944  0.34912944  0.74964993  1
  Sb  Sb56  1  0.75809057  0.75809057  0.62138051  1
  Sb  Sb57  1  0.25462740  0.74537260  0.00000000  1
  Sb  Sb58  1  0.55538852  0.55538852  0.43957332  1
  Sb  Sb59  1  0.95013625  0.56474940  0.39672376  1
  Sb  Sb60  1  0.54773808  0.54773808  0.06276137  1
  Sb  Sb61  1  0.42252079  0.04020986  0.88465481  1
  Sb  Sb62  1  0.44461148  0.44461148  0.56042668  1
  Sb  Sb63  1  0.10180874  0.73918783  0.75755861  1
  Sb  Sb64  1  0.04986375  0.43525060  0.60327624  1
  Sb  Sb65  1  0.43759023  0.70440055  0.73876835  1
  Sb  Sb66  1  0.70440055  0.43759023  0.73876835  1
  Sb  Sb67  1  0.92725611  0.92725611  0.96619138  1
  Sb  Sb68  1  0.03510579  0.03510579  0.57369948  1
  Sb  Sb69  1  0.89819126  0.26081217  0.24244139  1
  Sb  Sb70  1  0.56474940  0.95013625  0.39672376  1
  Sb  Sb71  1  0.74532480  0.25467520  0.50000000  1
  Sb  Sb72  1  0.24190943  0.24190943  0.37861949  1
  Sb  Sb73  1  0.65087056  0.65087056  0.25035007  1
  Sb  Sb74  1  0.74604301  0.74604301  0.87061473  1
  Sb  Sb75  1  0.74537260  0.25462740  0.00000000  1
  Sb  Sb76  1  0.29559945  0.56240977  0.26123165  1
  Sb  Sb77  1  0.95979014  0.57747921  0.11534519  1
  Sb  Sb78  1  0.26081217  0.89819126  0.24244139  1
  Sb  Sb79  1  0.45226192  0.45226192  0.93723863  1
  Sb  Sb80  1  0.57747921  0.95979014  0.11534519  1
  Sb  Sb81  1  0.96489421  0.96489421  0.42630052  1
  Sb  Sb82  1  0.25467520  0.74532480  0.50000000  1
  Sb  Sb83  1  0.87349864  0.87349864  0.24411433  1
  Sb  Sb84  1  0.25395699  0.25395699  0.12938527  1
  Sb  Sb85  1  0.07274389  0.07274389  0.03380862  1
