# generated using pymatgen
data_Nd6Fe13Si
_symmetry_space_group_name_H-M   'P 1'
_cell_length_a   8.02818354
_cell_length_b   8.02818354
_cell_length_c   12.81224371
_cell_angle_alpha   108.25829128
_cell_angle_beta   108.25829131
_cell_angle_gamma   89.99999999
_symmetry_Int_Tables_number   1
_chemical_formula_structural   Nd6Fe13Si
_chemical_formula_sum   'Nd12 Fe26 Si2'
_cell_volume   740.29125579
_cell_formula_units_Z   2
loop_
 _symmetry_equiv_pos_site_id
 _symmetry_equiv_pos_as_xyz
  1  'x, y, z'
loop_
 _atom_site_type_symbol
 _atom_site_label
 _atom_site_symmetry_multiplicity
 _atom_site_fract_x
 _atom_site_fract_y
 _atom_site_fract_z
 _atom_site_occupancy
  Si  Si0  1  0.75000000  0.75000000  0.50000000  1
  Si  Si1  1  0.25000000  0.25000000  0.50000000  1
  Fe  Fe2  1  0.00000000  0.50000000  0.00000000  1
  Fe  Fe3  1  0.50000000  0.00000000  0.00000000  1
  Fe  Fe4  1  0.98238878  0.70874839  0.19113717  1
  Fe  Fe5  1  0.01761122  0.29125161  0.80886283  1
  Fe  Fe6  1  0.79125161  0.51761122  0.80886283  1
  Fe  Fe7  1  0.29125161  0.79125161  0.80886283  1
  Fe  Fe8  1  0.51761122  0.01761122  0.80886283  1
  Fe  Fe9  1  0.48238878  0.98238878  0.19113717  1
  Fe  Fe10  1  0.70874839  0.20874839  0.19113717  1
  Fe  Fe11  1  0.20874839  0.48238878  0.19113717  1
  Fe  Fe12  1  0.79125973  0.06602695  0.00000000  1
  Fe  Fe13  1  0.93397305  0.79125973  0.00000000  1
  Fe  Fe14  1  0.06602695  0.20874027  0.00000000  1
  Fe  Fe15  1  0.29125973  0.43397305  0.00000000  1
  Fe  Fe16  1  0.70874027  0.56602695  0.00000000  1
  Fe  Fe17  1  0.56602695  0.29125973  0.00000000  1
  Fe  Fe18  1  0.43397305  0.70874027  0.00000000  1
  Fe  Fe19  1  0.20874027  0.93397305  0.00000000  1
  Fe  Fe20  1  0.38105538  0.23892608  0.11998147  1
  Fe  Fe21  1  0.88105538  0.38105538  0.11998147  1
  Fe  Fe22  1  0.23892608  0.73892608  0.11998147  1
  Fe  Fe23  1  0.76107392  0.26107392  0.88001853  1
  Fe  Fe24  1  0.11894462  0.61894462  0.88001853  1
  Fe  Fe25  1  0.61894462  0.76107392  0.88001853  1
  Fe  Fe26  1  0.26107392  0.11894462  0.88001853  1
  Fe  Fe27  1  0.73892608  0.88105538  0.11998147  1
  Nd  Nd28  1  0.85559814  0.02240563  0.37800377  1
  Nd  Nd29  1  0.14440186  0.97759437  0.62199623  1
  Nd  Nd30  1  0.47759437  0.64440186  0.62199623  1
  Nd  Nd31  1  0.97759437  0.47759437  0.62199623  1
  Nd  Nd32  1  0.64440186  0.14440186  0.62199623  1
  Nd  Nd33  1  0.35559814  0.85559814  0.37800377  1
  Nd  Nd34  1  0.02240563  0.52240563  0.37800377  1
  Nd  Nd35  1  0.52240563  0.35559814  0.37800377  1
  Nd  Nd36  1  0.60891601  0.60891601  0.21783202  1
  Nd  Nd37  1  0.89108399  0.89108399  0.78216798  1
  Nd  Nd38  1  0.39108399  0.39108399  0.78216798  1
  Nd  Nd39  1  0.10891601  0.10891601  0.21783202  1
