# generated using pymatgen
data_K2ZnCl4
_symmetry_space_group_name_H-M   'P 1'
_cell_length_a   7.39777329
_cell_length_b   9.04785504
_cell_length_c   12.68145626
_cell_angle_alpha   90.00000000
_cell_angle_beta   90.00000000
_cell_angle_gamma   90.00000000
_symmetry_Int_Tables_number   1
_chemical_formula_structural   K2ZnCl4
_chemical_formula_sum   'K8 Zn4 Cl16'
_cell_volume   848.82034407
_cell_formula_units_Z   4
loop_
 _symmetry_equiv_pos_site_id
 _symmetry_equiv_pos_as_xyz
  1  'x, y, z'
loop_
 _atom_site_type_symbol
 _atom_site_label
 _atom_site_symmetry_multiplicity
 _atom_site_fract_x
 _atom_site_fract_y
 _atom_site_fract_z
 _atom_site_occupancy
  K  K0  1  0.74908152  0.49523445  0.81387986  1
  K  K1  1  0.74447446  0.63242380  0.41647383  1
  K  K2  1  0.24908152  0.50476555  0.18612014  1
  K  K3  1  0.74447446  0.13242380  0.08352617  1
  K  K4  1  0.24447446  0.86757620  0.91647383  1
  K  K5  1  0.24447446  0.36757620  0.58352617  1
  K  K6  1  0.74908152  0.99523445  0.68612014  1
  K  K7  1  0.24908152  0.00476555  0.31387986  1
  Zn  Zn8  1  0.25399708  0.78200782  0.58293569  1
  Zn  Zn9  1  0.75399708  0.71799218  0.08293569  1
  Zn  Zn10  1  0.25399708  0.28200782  0.91706431  1
  Zn  Zn11  1  0.75399708  0.21799218  0.41706431  1
  Cl  Cl12  1  0.50251073  0.70435827  0.67523966  1
  Cl  Cl13  1  0.26473051  0.16130528  0.07653494  1
  Cl  Cl14  1  0.00251073  0.29564173  0.32476034  1
  Cl  Cl15  1  0.26473051  0.66130528  0.42346506  1
  Cl  Cl16  1  0.26860076  0.52940950  0.93828902  1
  Cl  Cl17  1  0.50251073  0.20435827  0.82476034  1
  Cl  Cl18  1  0.51060495  0.30105881  0.32482974  1
  Cl  Cl19  1  0.76473051  0.33869472  0.57653494  1
  Cl  Cl20  1  0.76860076  0.97059050  0.43828902  1
  Cl  Cl21  1  0.01060495  0.19894119  0.82482974  1
  Cl  Cl22  1  0.76473051  0.83869472  0.92346506  1
  Cl  Cl23  1  0.76860076  0.47059050  0.06171098  1
  Cl  Cl24  1  0.01060495  0.69894119  0.67517026  1
  Cl  Cl25  1  0.26860076  0.02940950  0.56171098  1
  Cl  Cl26  1  0.51060495  0.80105881  0.17517026  1
  Cl  Cl27  1  0.00251073  0.79564173  0.17523966  1
