# generated using pymatgen
data_SiO2
_symmetry_space_group_name_H-M   'P 1'
_cell_length_a   5.28232209
_cell_length_b   34.58005457
_cell_length_c   21.66865065
_cell_angle_alpha   90.00000000
_cell_angle_beta   90.00000000
_cell_angle_gamma   90.00000000
_symmetry_Int_Tables_number   1
_chemical_formula_structural   SiO2
_chemical_formula_sum   'Si64 O128'
_cell_volume   3958.06043310
_cell_formula_units_Z   64
loop_
 _symmetry_equiv_pos_site_id
 _symmetry_equiv_pos_as_xyz
  1  'x, y, z'
loop_
 _atom_site_type_symbol
 _atom_site_label
 _atom_site_symmetry_multiplicity
 _atom_site_fract_x
 _atom_site_fract_y
 _atom_site_fract_z
 _atom_site_occupancy
  Si  Si0  1  0.00000000  0.06345995  0.01919888  1
  Si  Si1  1  0.00000000  0.93654005  0.98080112  1
  Si  Si2  1  0.00000000  0.06345995  0.48080112  1
  Si  Si3  1  0.00000000  0.93654005  0.51919888  1
  Si  Si4  1  0.50000000  0.56345995  0.01919888  1
  Si  Si5  1  0.50000000  0.43654005  0.98080112  1
  Si  Si6  1  0.50000000  0.56345995  0.48080112  1
  Si  Si7  1  0.50000000  0.43654005  0.51919888  1
  Si  Si8  1  0.50000000  0.19905924  0.00712147  1
  Si  Si9  1  0.50000000  0.80094076  0.99287853  1
  Si  Si10  1  0.50000000  0.19905924  0.49287853  1
  Si  Si11  1  0.50000000  0.80094076  0.50712147  1
  Si  Si12  1  0.00000000  0.69905924  0.00712147  1
  Si  Si13  1  0.00000000  0.30094076  0.99287853  1
  Si  Si14  1  0.00000000  0.69905924  0.49287853  1
  Si  Si15  1  0.00000000  0.30094076  0.50712147  1
  Si  Si16  1  0.00000000  0.38010496  0.13989121  1
  Si  Si17  1  0.00000000  0.61989504  0.86010879  1
  Si  Si18  1  0.00000000  0.38010496  0.36010879  1
  Si  Si19  1  0.00000000  0.61989504  0.63989121  1
  Si  Si20  1  0.50000000  0.88010496  0.13989121  1
  Si  Si21  1  0.50000000  0.11989504  0.86010879  1
  Si  Si22  1  0.50000000  0.88010496  0.36010879  1
  Si  Si23  1  0.50000000  0.11989504  0.63989121  1
  Si  Si24  1  0.50000000  0.27717080  0.06817723  1
  Si  Si25  1  0.50000000  0.72282920  0.93182277  1
  Si  Si26  1  0.50000000  0.27717080  0.43182277  1
  Si  Si27  1  0.50000000  0.72282920  0.56817723  1
  Si  Si28  1  0.00000000  0.77717080  0.06817723  1
  Si  Si29  1  0.00000000  0.22282920  0.93182277  1
  Si  Si30  1  0.00000000  0.77717080  0.43182277  1
  Si  Si31  1  0.00000000  0.22282920  0.56817723  1
  Si  Si32  1  0.00000000  0.01451119  0.60120428  1
  Si  Si33  1  0.00000000  0.98548881  0.39879572  1
  Si  Si34  1  0.00000000  0.01451119  0.89879572  1
  Si  Si35  1  0.00000000  0.98548881  0.10120428  1
  Si  Si36  1  0.50000000  0.51451119  0.60120428  1
  Si  Si37  1  0.50000000  0.48548881  0.39879572  1
  Si  Si38  1  0.50000000  0.51451119  0.89879572  1
  Si  Si39  1  0.50000000  0.48548881  0.10120428  1
  Si  Si40  1  0.00000000  0.38893123  0.99166769  1
  Si  Si41  1  0.00000000  0.61106877  0.00833231  1
  Si  Si42  1  0.00000000  0.38893123  0.50833231  1
  Si  Si43  1  0.00000000  0.61106877  0.49166769  1
  Si  Si44  1  0.50000000  0.88893123  0.99166769  1
  Si  Si45  1  0.50000000  0.11106877  0.00833231  1
  Si  Si46  1  0.50000000  0.88893123  0.50833231  1
  Si  Si47  1  0.50000000  0.11106877  0.49166769  1
  Si  Si48  1  0.50000000  0.33138632  0.17690616  1
  Si  Si49  1  0.50000000  0.66861368  0.82309384  1
  Si  Si50  1  0.50000000  0.33138632  0.32309384  1
  Si  Si51  1  0.50000000  0.66861368  0.67690616  1
  Si  Si52  1  0.00000000  0.83138632  0.17690616  1
  Si  Si53  1  0.00000000  0.16861368  0.82309384  1
  Si  Si54  1  0.00000000  0.83138632  0.32309384  1
  Si  Si55  1  0.00000000  0.16861368  0.67690616  1
  Si  Si56  1  0.00000000  0.46742766  0.17873910  1
  Si  Si57  1  0.00000000  0.53257234  0.82126090  1
  Si  Si58  1  0.00000000  0.46742766  0.32126090  1
  Si  Si59  1  0.00000000  0.53257234  0.67873910  1
  Si  Si60  1  0.50000000  0.96742766  0.17873910  1
  Si  Si61  1  0.50000000  0.03257234  0.82126090  1
  Si  Si62  1  0.50000000  0.96742766  0.32126090  1
  Si  Si63  1  0.50000000  0.03257234  0.67873910  1
  O  O64  1  0.00000000  0.05101661  0.94654498  1
  O  O65  1  0.00000000  0.94898339  0.05345502  1
  O  O66  1  0.00000000  0.05101661  0.55345502  1
  O  O67  1  0.00000000  0.94898339  0.44654498  1
  O  O68  1  0.50000000  0.55101661  0.94654498  1
  O  O69  1  0.50000000  0.44898339  0.05345502  1
  O  O70  1  0.50000000  0.55101661  0.55345502  1
  O  O71  1  0.50000000  0.44898339  0.44654498  1
  O  O72  1  0.25024549  0.08905938  0.03397464  1
  O  O73  1  0.25024549  0.91094062  0.96602536  1
  O  O74  1  0.74975451  0.08905938  0.46602536  1
  O  O75  1  0.74975451  0.91094062  0.53397464  1
  O  O76  1  0.74975451  0.91094062  0.96602536  1
  O  O77  1  0.74975451  0.08905938  0.03397464  1
  O  O78  1  0.25024549  0.91094062  0.53397464  1
  O  O79  1  0.25024549  0.08905938  0.46602536  1
  O  O80  1  0.75024549  0.58905938  0.03397464  1
  O  O81  1  0.75024549  0.41094062  0.96602536  1
  O  O82  1  0.24975451  0.58905938  0.46602536  1
  O  O83  1  0.24975451  0.41094062  0.53397464  1
  O  O84  1  0.24975451  0.41094062  0.96602536  1
  O  O85  1  0.24975451  0.58905938  0.03397464  1
  O  O86  1  0.75024549  0.41094062  0.53397464  1
  O  O87  1  0.75024549  0.58905938  0.46602536  1
  O  O88  1  0.00000000  0.02548053  0.06255054  1
  O  O89  1  0.00000000  0.97451947  0.93744946  1
  O  O90  1  0.00000000  0.02548053  0.43744946  1
  O  O91  1  0.00000000  0.97451947  0.56255054  1
  O  O92  1  0.50000000  0.52548053  0.06255054  1
  O  O93  1  0.50000000  0.47451947  0.93744946  1
  O  O94  1  0.50000000  0.52548053  0.43744946  1
  O  O95  1  0.50000000  0.47451947  0.56255054  1
  O  O96  1  0.24994624  0.20532683  0.96504704  1
  O  O97  1  0.24994624  0.79467317  0.03495296  1
  O  O98  1  0.75005376  0.20532683  0.53495296  1
  O  O99  1  0.75005376  0.79467317  0.46504704  1
  O  O100  1  0.75005376  0.79467317  0.03495296  1
  O  O101  1  0.75005376  0.20532683  0.96504704  1
  O  O102  1  0.24994624  0.79467317  0.46504704  1
  O  O103  1  0.24994624  0.20532683  0.53495296  1
  O  O104  1  0.74994624  0.70532683  0.96504704  1
  O  O105  1  0.74994624  0.29467317  0.03495296  1
  O  O106  1  0.25005376  0.70532683  0.53495296  1
  O  O107  1  0.25005376  0.29467317  0.46504704  1
  O  O108  1  0.25005376  0.29467317  0.03495296  1
  O  O109  1  0.25005376  0.70532683  0.96504704  1
  O  O110  1  0.74994624  0.29467317  0.46504704  1
  O  O111  1  0.74994624  0.70532683  0.53495296  1
  O  O112  1  0.50000000  0.23007834  0.06380996  1
  O  O113  1  0.50000000  0.76992166  0.93619004  1
  O  O114  1  0.50000000  0.23007834  0.43619004  1
  O  O115  1  0.50000000  0.76992166  0.56380996  1
  O  O116  1  0.00000000  0.73007834  0.06380996  1
  O  O117  1  0.00000000  0.26992166  0.93619004  1
  O  O118  1  0.00000000  0.73007834  0.43619004  1
  O  O119  1  0.00000000  0.26992166  0.56380996  1
  O  O120  1  0.50000000  0.15537228  0.03430392  1
  O  O121  1  0.50000000  0.84462772  0.96569608  1
  O  O122  1  0.50000000  0.15537228  0.46569608  1
  O  O123  1  0.50000000  0.84462772  0.53430392  1
  O  O124  1  0.00000000  0.65537228  0.03430392  1
  O  O125  1  0.00000000  0.34462772  0.96569608  1
  O  O126  1  0.00000000  0.65537228  0.46569608  1
  O  O127  1  0.00000000  0.34462772  0.53430392  1
  O  O128  1  0.00000000  0.42044521  0.17790294  1
  O  O129  1  0.00000000  0.57955479  0.82209706  1
  O  O130  1  0.00000000  0.42044521  0.32209706  1
  O  O131  1  0.00000000  0.57955479  0.67790294  1
  O  O132  1  0.50000000  0.92044521  0.17790294  1
  O  O133  1  0.50000000  0.07955479  0.82209706  1
  O  O134  1  0.50000000  0.92044521  0.32209706  1
  O  O135  1  0.50000000  0.07955479  0.67790294  1
  O  O136  1  0.24999438  0.35577317  0.15820022  1
  O  O137  1  0.24999438  0.64422683  0.84179978  1
  O  O138  1  0.75000562  0.35577317  0.34179978  1
  O  O139  1  0.75000562  0.64422683  0.65820022  1
  O  O140  1  0.75000562  0.64422683  0.84179978  1
  O  O141  1  0.75000562  0.35577317  0.15820022  1
  O  O142  1  0.24999438  0.64422683  0.65820022  1
  O  O143  1  0.24999438  0.35577317  0.34179978  1
  O  O144  1  0.74999438  0.85577317  0.15820022  1
  O  O145  1  0.74999438  0.14422683  0.84179978  1
  O  O146  1  0.25000562  0.85577317  0.34179978  1
  O  O147  1  0.25000562  0.14422683  0.65820022  1
  O  O148  1  0.25000562  0.14422683  0.84179978  1
  O  O149  1  0.25000562  0.85577317  0.15820022  1
  O  O150  1  0.74999438  0.14422683  0.65820022  1
  O  O151  1  0.74999438  0.85577317  0.34179978  1
  O  O152  1  0.00000000  0.38918865  0.06650053  1
  O  O153  1  0.00000000  0.61081135  0.93349947  1
  O  O154  1  0.00000000  0.38918865  0.43349947  1
  O  O155  1  0.00000000  0.61081135  0.56650053  1
  O  O156  1  0.50000000  0.88918865  0.06650053  1
  O  O157  1  0.50000000  0.11081135  0.93349947  1
  O  O158  1  0.50000000  0.88918865  0.43349947  1
  O  O159  1  0.50000000  0.11081135  0.56650053  1
  O  O160  1  0.50000000  0.29022621  0.13998012  1
  O  O161  1  0.50000000  0.70977379  0.86001988  1
  O  O162  1  0.50000000  0.29022621  0.36001988  1
  O  O163  1  0.50000000  0.70977379  0.63998012  1
  O  O164  1  0.00000000  0.79022621  0.13998012  1
  O  O165  1  0.00000000  0.20977379  0.86001988  1
  O  O166  1  0.00000000  0.79022621  0.36001988  1
  O  O167  1  0.00000000  0.20977379  0.63998012  1
  O  O168  1  0.24987951  0.01622340  0.64420933  1
  O  O169  1  0.24987951  0.98377660  0.35579067  1
  O  O170  1  0.75012049  0.01622340  0.85579067  1
  O  O171  1  0.75012049  0.98377660  0.14420933  1
  O  O172  1  0.75012049  0.98377660  0.35579067  1
  O  O173  1  0.75012049  0.01622340  0.64420933  1
  O  O174  1  0.24987951  0.98377660  0.14420933  1
  O  O175  1  0.24987951  0.01622340  0.85579067  1
  O  O176  1  0.74987951  0.51622340  0.64420933  1
  O  O177  1  0.74987951  0.48377660  0.35579067  1
  O  O178  1  0.25012049  0.51622340  0.85579067  1
  O  O179  1  0.25012049  0.48377660  0.14420933  1
  O  O180  1  0.25012049  0.48377660  0.35579067  1
  O  O181  1  0.25012049  0.51622340  0.64420933  1
  O  O182  1  0.74987951  0.48377660  0.14420933  1
  O  O183  1  0.74987951  0.51622340  0.85579067  1
  O  O184  1  0.50000000  0.32203228  0.25000000  1
  O  O185  1  0.50000000  0.67796772  0.75000000  1
  O  O186  1  0.00000000  0.82203228  0.25000000  1
  O  O187  1  0.00000000  0.17796772  0.75000000  1
  O  O188  1  0.00000000  0.48220387  0.25000000  1
  O  O189  1  0.00000000  0.51779613  0.75000000  1
  O  O190  1  0.50000000  0.98220387  0.25000000  1
  O  O191  1  0.50000000  0.01779613  0.75000000  1
