# generated using pymatgen
data_SiO2
_symmetry_space_group_name_H-M   'P 1'
_cell_length_a   20.03578554
_cell_length_b   7.61392694
_cell_length_c   9.13074034
_cell_angle_alpha   90.00000000
_cell_angle_beta   90.00000000
_cell_angle_gamma   90.00000000
_symmetry_Int_Tables_number   1
_chemical_formula_structural   SiO2
_chemical_formula_sum   'Si24 O48'
_cell_volume   1392.90363614
_cell_formula_units_Z   24
loop_
 _symmetry_equiv_pos_site_id
 _symmetry_equiv_pos_as_xyz
  1  'x, y, z'
loop_
 _atom_site_type_symbol
 _atom_site_label
 _atom_site_symmetry_multiplicity
 _atom_site_fract_x
 _atom_site_fract_y
 _atom_site_fract_z
 _atom_site_occupancy
  Si  Si0  1  0.05322822  0.20383608  0.29023167  1
  Si  Si1  1  0.55322822  0.79616392  0.70976833  1
  Si  Si2  1  0.94677178  0.20383608  0.70976833  1
  Si  Si3  1  0.44677178  0.79616392  0.29023167  1
  Si  Si4  1  0.94677178  0.79616392  0.70976833  1
  Si  Si5  1  0.44677178  0.20383608  0.29023167  1
  Si  Si6  1  0.05322822  0.79616392  0.29023167  1
  Si  Si7  1  0.55322822  0.20383608  0.70976833  1
  Si  Si8  1  0.09565246  0.20381893  0.61784764  1
  Si  Si9  1  0.59565246  0.79618107  0.38215236  1
  Si  Si10  1  0.90434754  0.20381893  0.38215236  1
  Si  Si11  1  0.40434754  0.79618107  0.61784764  1
  Si  Si12  1  0.90434754  0.79618107  0.38215236  1
  Si  Si13  1  0.40434754  0.20381893  0.61784764  1
  Si  Si14  1  0.09565246  0.79618107  0.61784764  1
  Si  Si15  1  0.59565246  0.20381893  0.38215236  1
  Si  Si16  1  0.07501268  0.50000000  0.06460275  1
  Si  Si17  1  0.57501268  0.50000000  0.93539725  1
  Si  Si18  1  0.92498732  0.50000000  0.93539725  1
  Si  Si19  1  0.42498732  0.50000000  0.06460275  1
  Si  Si20  1  0.67129996  0.50000000  0.21768290  1
  Si  Si21  1  0.17129996  0.50000000  0.78231710  1
  Si  Si22  1  0.32870004  0.50000000  0.78231710  1
  Si  Si23  1  0.82870004  0.50000000  0.21768290  1
  O  O24  1  0.97660470  0.26695750  0.31889959  1
  O  O25  1  0.47660470  0.73304250  0.68110041  1
  O  O26  1  0.02339530  0.26695750  0.68110041  1
  O  O27  1  0.52339530  0.73304250  0.31889959  1
  O  O28  1  0.02339530  0.73304250  0.68110041  1
  O  O29  1  0.52339530  0.26695750  0.31889959  1
  O  O30  1  0.97660470  0.73304250  0.31889959  1
  O  O31  1  0.47660470  0.26695750  0.68110041  1
  O  O32  1  0.05383586  0.00000000  0.23654796  1
  O  O33  1  0.55383586  0.00000000  0.76345204  1
  O  O34  1  0.94616414  0.00000000  0.76345204  1
  O  O35  1  0.44616414  0.00000000  0.23654796  1
  O  O36  1  0.09627166  0.22362445  0.44036083  1
  O  O37  1  0.59627166  0.77637555  0.55963917  1
  O  O38  1  0.90372834  0.22362445  0.55963917  1
  O  O39  1  0.40372834  0.77637555  0.44036083  1
  O  O40  1  0.90372834  0.77637555  0.55963917  1
  O  O41  1  0.40372834  0.22362445  0.44036083  1
  O  O42  1  0.09627166  0.77637555  0.44036083  1
  O  O43  1  0.59627166  0.22362445  0.55963917  1
  O  O44  1  0.08637633  0.32528232  0.16425513  1
  O  O45  1  0.58637633  0.67471768  0.83574487  1
  O  O46  1  0.91362367  0.32528232  0.83574487  1
  O  O47  1  0.41362367  0.67471768  0.16425513  1
  O  O48  1  0.91362367  0.67471768  0.83574487  1
  O  O49  1  0.41362367  0.32528232  0.16425513  1
  O  O50  1  0.08637633  0.67471768  0.16425513  1
  O  O51  1  0.58637633  0.32528232  0.83574487  1
  O  O52  1  0.15389248  0.32520354  0.68678517  1
  O  O53  1  0.65389248  0.67479646  0.31321483  1
  O  O54  1  0.84610752  0.32520354  0.31321483  1
  O  O55  1  0.34610752  0.67479646  0.68678517  1
  O  O56  1  0.84610752  0.67479646  0.31321483  1
  O  O57  1  0.34610752  0.32520354  0.68678517  1
  O  O58  1  0.15389248  0.67479646  0.68678517  1
  O  O59  1  0.65389248  0.32520354  0.31321483  1
  O  O60  1  0.10889503  0.00000000  0.66271369  1
  O  O61  1  0.60889503  0.00000000  0.33728631  1
  O  O62  1  0.89110497  0.00000000  0.33728631  1
  O  O63  1  0.39110497  0.00000000  0.66271369  1
  O  O64  1  0.00000000  0.50000000  0.00000000  1
  O  O65  1  0.50000000  0.50000000  0.00000000  1
  O  O66  1  0.12861373  0.50000000  0.93289860  1
  O  O67  1  0.62861373  0.50000000  0.06710140  1
  O  O68  1  0.87138627  0.50000000  0.06710140  1
  O  O69  1  0.37138627  0.50000000  0.93289860  1
  O  O70  1  0.75000000  0.50000000  0.17775357  1
  O  O71  1  0.25000000  0.50000000  0.82224643  1
