# generated using pymatgen
data_Ba5Tm8Zn4O21
_symmetry_space_group_name_H-M   'P 1'
_cell_length_a   5.70175949
_cell_length_b   10.13600005
_cell_length_c   10.13600004
_cell_angle_alpha   85.46266079
_cell_angle_beta   73.66441306
_cell_angle_gamma   73.66441303
_symmetry_Int_Tables_number   1
_chemical_formula_structural   Ba5Tm8Zn4O21
_chemical_formula_sum   'Ba5 Tm8 Zn4 O21'
_cell_volume   539.44906203
_cell_formula_units_Z   1
loop_
 _symmetry_equiv_pos_site_id
 _symmetry_equiv_pos_as_xyz
  1  'x, y, z'
loop_
 _atom_site_type_symbol
 _atom_site_label
 _atom_site_symmetry_multiplicity
 _atom_site_fract_x
 _atom_site_fract_y
 _atom_site_fract_z
 _atom_site_occupancy
  O  O0  1  0.10086275  0.89290144  0.40513623  1
  O  O1  1  0.50599899  0.59486377  0.89290144  1
  O  O2  1  0.99376419  0.40513623  0.10709856  1
  O  O3  1  0.39890043  0.10709856  0.59486377  1
  O  O4  1  0.89913725  0.10709856  0.59486377  1
  O  O5  1  0.49400101  0.40513623  0.10709856  1
  O  O6  1  0.00623581  0.59486377  0.89290144  1
  O  O7  1  0.60109957  0.89290144  0.40513623  1
  O  O8  1  0.92564654  0.87152411  0.77417434  1
  O  O9  1  0.69982088  0.22582566  0.87152411  1
  O  O10  1  0.79717065  0.77417434  0.12847589  1
  O  O11  1  0.57134499  0.12847589  0.22582566  1
  O  O12  1  0.07435346  0.12847589  0.22582566  1
  O  O13  1  0.30017912  0.77417434  0.12847589  1
  O  O14  1  0.20282935  0.22582566  0.87152411  1
  O  O15  1  0.42865501  0.87152411  0.77417434  1
  O  O16  1  0.37039925  0.66941189  0.58978961  1
  O  O17  1  0.50000000  0.00000000  0.00000000  1
  O  O18  1  0.62960075  0.33058811  0.41021039  1
  O  O19  1  0.03981114  0.58978961  0.33058811  1
  O  O20  1  0.96018886  0.41021039  0.66941189  1
  Zn  Zn21  1  0.95947938  0.79117100  0.28987024  1
  Zn  Zn22  1  0.24934962  0.71012976  0.79117100  1
  Zn  Zn23  1  0.75065038  0.28987024  0.20882900  1
  Zn  Zn24  1  0.04052062  0.20882900  0.71012976  1
  Ba  Ba25  1  0.46396512  0.39575551  0.67631426  1
  Ba  Ba26  1  0.14027937  0.32368574  0.39575551  1
  Ba  Ba27  1  0.85972063  0.67631426  0.60424449  1
  Ba  Ba28  1  0.53603488  0.60424449  0.32368574  1
  Ba  Ba29  1  0.00000000  0.00000000  0.00000000  1
  Tm  Tm30  1  0.58871227  0.05268924  0.76988621  1
  Tm  Tm31  1  0.35859849  0.23011379  0.05268924  1
  Tm  Tm32  1  0.64140151  0.76988621  0.94731076  1
  Tm  Tm33  1  0.41128773  0.94731076  0.23011379  1
  Tm  Tm34  1  0.75237471  0.07919532  0.41605526  1
  Tm  Tm35  1  0.16842997  0.58394474  0.07919532  1
  Tm  Tm36  1  0.83157003  0.41605526  0.92080468  1
  Tm  Tm37  1  0.24762529  0.92080468  0.58394474  1
