# generated using pymatgen
data_Na3GdBr6
_symmetry_space_group_name_H-M   'P 1'
_cell_length_a   7.31541287
_cell_length_b   7.76356704
_cell_length_c   10.99001839
_cell_angle_alpha   90.13516679
_cell_angle_beta   90.25760199
_cell_angle_gamma   89.92079790
_symmetry_Int_Tables_number   1
_chemical_formula_structural   Na3GdBr6
_chemical_formula_sum   'Na6 Gd2 Br12'
_cell_volume   624.15515578
_cell_formula_units_Z   2
loop_
 _symmetry_equiv_pos_site_id
 _symmetry_equiv_pos_as_xyz
  1  'x, y, z'
loop_
 _atom_site_type_symbol
 _atom_site_label
 _atom_site_symmetry_multiplicity
 _atom_site_fract_x
 _atom_site_fract_y
 _atom_site_fract_z
 _atom_site_occupancy
  Na  Na0  1  0.52477847  0.91936188  0.23334879  1
  Na  Na1  1  0.47521191  0.08063412  0.76664856  1
  Na  Na2  1  0.02482301  0.58132369  0.73343699  1
  Na  Na3  1  -0.00000460  -0.00000294  0.49999459  1
  Na  Na4  1  0.50000722  0.49999565  0.00000901  1
  Na  Na5  1  0.97518790  0.41867750  0.26656613  1
  Gd  Gd6  1  0.50000068  0.49999094  0.49999842  1
  Gd  Gd7  1  0.00000707  0.00000493  0.00000859  1
  Br  Br8  1  0.31928534  0.81880975  0.93390946  1
  Br  Br9  1  0.18121996  0.32059263  0.56619283  1
  Br  Br10  1  0.36105126  0.56513621  0.26136164  1
  Br  Br11  1  0.67097768  0.19101203  0.41974927  1
  Br  Br12  1  0.81877299  0.67940116  0.43381214  1
  Br  Br13  1  0.82967346  0.69277378  0.08060339  1
  Br  Br14  1  0.63895230  0.43485156  0.73863525  1
  Br  Br15  1  0.17029469  0.30725363  0.91940062  1
  Br  Br16  1  0.32901147  0.80898681  0.58021749  1
  Br  Br17  1  0.13918642  0.06589817  0.23860934  1
  Br  Br18  1  0.68071754  0.18119088  0.06609486  1
  Br  Br19  1  0.86084522  0.93410761  0.76140261  1
