# generated using pymatgen
data_LiIn(MoO4)2
_symmetry_space_group_name_H-M   'P 1'
_cell_length_a   7.26455486
_cell_length_b   8.16357904
_cell_length_c   13.08158107
_cell_angle_alpha   90.00000000
_cell_angle_beta   104.04942329
_cell_angle_gamma   90.00000000
_symmetry_Int_Tables_number   1
_chemical_formula_structural   LiIn(MoO4)2
_chemical_formula_sum   'Li4 In4 Mo8 O32'
_cell_volume   752.59337234
_cell_formula_units_Z   4
loop_
 _symmetry_equiv_pos_site_id
 _symmetry_equiv_pos_as_xyz
  1  'x, y, z'
loop_
 _atom_site_type_symbol
 _atom_site_label
 _atom_site_symmetry_multiplicity
 _atom_site_fract_x
 _atom_site_fract_y
 _atom_site_fract_z
 _atom_site_occupancy
  Li  Li0  1  0.03809113  0.84949501  0.85841808  1
  Li  Li1  1  0.03809113  0.65050499  0.35841808  1
  Li  Li2  1  0.96190887  0.15050499  0.14158192  1
  Li  Li3  1  0.96190887  0.34949501  0.64158192  1
  In  In4  1  0.61918088  0.33890394  0.96752696  1
  In  In5  1  0.38081912  0.83890394  0.53247304  1
  In  In6  1  0.61918088  0.16109606  0.46752696  1
  In  In7  1  0.38081912  0.66109606  0.03247304  1
  Mo  Mo8  1  0.48276675  0.41154405  0.67222741  1
  Mo  Mo9  1  0.90431147  0.71094601  0.07619349  1
  Mo  Mo10  1  0.48276675  0.08845595  0.17222741  1
  Mo  Mo11  1  0.51723325  0.58845595  0.32777259  1
  Mo  Mo12  1  0.09568853  0.28905399  0.92380651  1
  Mo  Mo13  1  0.90431147  0.78905399  0.57619349  1
  Mo  Mo14  1  0.09568853  0.21094601  0.42380651  1
  Mo  Mo15  1  0.51723325  0.91154405  0.82777259  1
  O  O16  1  0.92219517  0.31327541  0.00507150  1
  O  O17  1  0.12983932  0.42079926  0.40981104  1
  O  O18  1  0.99030954  0.13875885  0.29783222  1
  O  O19  1  0.00969046  0.86124115  0.70216778  1
  O  O20  1  0.25432334  0.32495807  0.64687767  1
  O  O21  1  0.42310086  0.56264753  0.18824480  1
  O  O22  1  0.99030954  0.36124115  0.79783222  1
  O  O23  1  0.54050611  0.11025749  0.88842554  1
  O  O24  1  0.92219517  0.18672459  0.50507150  1
  O  O25  1  0.45949389  0.88974251  0.11157446  1
  O  O26  1  0.35923038  0.71823325  0.38257095  1
  O  O27  1  0.67257574  0.59406972  0.03048215  1
  O  O28  1  0.87016068  0.92079926  0.09018896  1
  O  O29  1  0.32742426  0.09406972  0.46951785  1
  O  O30  1  0.67257574  0.90593028  0.53048215  1
  O  O31  1  0.07780483  0.68672459  0.99492850  1
  O  O32  1  0.45949389  0.61025749  0.61157446  1
  O  O33  1  0.54050611  0.38974251  0.38842554  1
  O  O34  1  0.12983932  0.07920074  0.90981104  1
  O  O35  1  0.64076962  0.21823325  0.11742905  1
  O  O36  1  0.25432334  0.17504193  0.14687767  1
  O  O37  1  0.57689914  0.43735247  0.81175520  1
  O  O38  1  0.74567666  0.82495807  0.85312233  1
  O  O39  1  0.42310086  0.93735247  0.68824480  1
  O  O40  1  0.64076962  0.28176675  0.61742905  1
  O  O41  1  0.74567666  0.67504193  0.35312233  1
  O  O42  1  0.32742426  0.40593028  0.96951785  1
  O  O43  1  0.87016068  0.57920074  0.59018896  1
  O  O44  1  0.57689914  0.06264753  0.31175520  1
  O  O45  1  0.00969046  0.63875885  0.20216778  1
  O  O46  1  0.07780483  0.81327541  0.49492850  1
  O  O47  1  0.35923038  0.78176675  0.88257095  1
