# generated using pymatgen
data_SiO2
_symmetry_space_group_name_H-M   'P 1'
_cell_length_a   9.06576014
_cell_length_b   19.52057708
_cell_length_c   10.45633260
_cell_angle_alpha   90.00000000
_cell_angle_beta   90.00000000
_cell_angle_gamma   90.00000000
_symmetry_Int_Tables_number   1
_chemical_formula_structural   SiO2
_chemical_formula_sum   'Si32 O64'
_cell_volume   1850.44536040
_cell_formula_units_Z   32
loop_
 _symmetry_equiv_pos_site_id
 _symmetry_equiv_pos_as_xyz
  1  'x, y, z'
loop_
 _atom_site_type_symbol
 _atom_site_label
 _atom_site_symmetry_multiplicity
 _atom_site_fract_x
 _atom_site_fract_y
 _atom_site_fract_z
 _atom_site_occupancy
  Si  Si0  1  0.17615648  0.45515817  0.38382889  1
  Si  Si1  1  0.17615648  0.54484183  0.61617111  1
  Si  Si2  1  0.32384352  0.45515817  0.11617111  1
  Si  Si3  1  0.32384352  0.54484183  0.88382889  1
  Si  Si4  1  0.82384352  0.54484183  0.61617111  1
  Si  Si5  1  0.82384352  0.45515817  0.38382889  1
  Si  Si6  1  0.67615648  0.54484183  0.88382889  1
  Si  Si7  1  0.67615648  0.45515817  0.11617111  1
  Si  Si8  1  0.67615648  0.95515817  0.38382889  1
  Si  Si9  1  0.67615648  0.04484183  0.61617111  1
  Si  Si10  1  0.82384352  0.95515817  0.11617111  1
  Si  Si11  1  0.82384352  0.04484183  0.88382889  1
  Si  Si12  1  0.32384352  0.04484183  0.61617111  1
  Si  Si13  1  0.32384352  0.95515817  0.38382889  1
  Si  Si14  1  0.17615648  0.04484183  0.88382889  1
  Si  Si15  1  0.17615648  0.95515817  0.11617111  1
  Si  Si16  1  0.32359485  0.29346465  0.11514351  1
  Si  Si17  1  0.32359485  0.70653535  0.88485649  1
  Si  Si18  1  0.17640515  0.29346465  0.38485649  1
  Si  Si19  1  0.17640515  0.70653535  0.61514351  1
  Si  Si20  1  0.67640515  0.70653535  0.88485649  1
  Si  Si21  1  0.67640515  0.29346465  0.11514351  1
  Si  Si22  1  0.82359485  0.70653535  0.61514351  1
  Si  Si23  1  0.82359485  0.29346465  0.38485649  1
  Si  Si24  1  0.82359485  0.79346465  0.11514351  1
  Si  Si25  1  0.82359485  0.20653535  0.88485649  1
  Si  Si26  1  0.67640515  0.79346465  0.38485649  1
  Si  Si27  1  0.67640515  0.20653535  0.61514351  1
  Si  Si28  1  0.17640515  0.20653535  0.88485649  1
  Si  Si29  1  0.17640515  0.79346465  0.11514351  1
  Si  Si30  1  0.32359485  0.20653535  0.61514351  1
  Si  Si31  1  0.32359485  0.79346465  0.38485649  1
  O  O32  1  0.24656324  0.50000000  0.50000000  1
  O  O33  1  0.25343676  0.50000000  0.00000000  1
  O  O34  1  0.75343676  0.50000000  0.50000000  1
  O  O35  1  0.74656324  0.50000000  0.00000000  1
  O  O36  1  0.74656324  0.00000000  0.50000000  1
  O  O37  1  0.75343676  0.00000000  0.00000000  1
  O  O38  1  0.25343676  0.00000000  0.50000000  1
  O  O39  1  0.24656324  0.00000000  0.00000000  1
  O  O40  1  0.25000000  0.47948610  0.25000000  1
  O  O41  1  0.25000000  0.52051390  0.75000000  1
  O  O42  1  0.75000000  0.52051390  0.75000000  1
  O  O43  1  0.75000000  0.47948610  0.25000000  1
  O  O44  1  0.75000000  0.97948610  0.25000000  1
  O  O45  1  0.75000000  0.02051390  0.75000000  1
  O  O46  1  0.25000000  0.02051390  0.75000000  1
  O  O47  1  0.25000000  0.97948610  0.25000000  1
  O  O48  1  0.20780918  0.37435782  0.40882284  1
  O  O49  1  0.20780918  0.62564218  0.59117716  1
  O  O50  1  0.29219082  0.37435782  0.09117716  1
  O  O51  1  0.29219082  0.62564218  0.90882284  1
  O  O52  1  0.79219082  0.62564218  0.59117716  1
  O  O53  1  0.79219082  0.37435782  0.40882284  1
  O  O54  1  0.70780918  0.62564218  0.90882284  1
  O  O55  1  0.70780918  0.37435782  0.09117716  1
  O  O56  1  0.70780918  0.87435782  0.40882284  1
  O  O57  1  0.70780918  0.12564218  0.59117716  1
  O  O58  1  0.79219082  0.87435782  0.09117716  1
  O  O59  1  0.79219082  0.12564218  0.90882284  1
  O  O60  1  0.29219082  0.12564218  0.59117716  1
  O  O61  1  0.29219082  0.87435782  0.40882284  1
  O  O62  1  0.20780918  0.12564218  0.90882284  1
  O  O63  1  0.20780918  0.87435782  0.09117716  1
  O  O64  1  0.00000000  0.46937164  0.37641281  1
  O  O65  1  0.00000000  0.53062836  0.62358719  1
  O  O66  1  0.50000000  0.46937164  0.12358719  1
  O  O67  1  0.50000000  0.53062836  0.87641281  1
  O  O68  1  0.50000000  0.96937164  0.37641281  1
  O  O69  1  0.50000000  0.03062836  0.62358719  1
  O  O70  1  0.00000000  0.96937164  0.12358719  1
  O  O71  1  0.00000000  0.03062836  0.87641281  1
  O  O72  1  0.25000000  0.26984255  0.25000000  1
  O  O73  1  0.25000000  0.73015745  0.75000000  1
  O  O74  1  0.75000000  0.73015745  0.75000000  1
  O  O75  1  0.75000000  0.26984255  0.25000000  1
  O  O76  1  0.75000000  0.76984255  0.25000000  1
  O  O77  1  0.75000000  0.23015745  0.75000000  1
  O  O78  1  0.25000000  0.23015745  0.75000000  1
  O  O79  1  0.25000000  0.76984255  0.25000000  1
  O  O80  1  0.25000000  0.25000000  0.00000000  1
  O  O81  1  0.25000000  0.75000000  0.00000000  1
  O  O82  1  0.25000000  0.25000000  0.50000000  1
  O  O83  1  0.25000000  0.75000000  0.50000000  1
  O  O84  1  0.75000000  0.75000000  0.00000000  1
  O  O85  1  0.75000000  0.25000000  0.00000000  1
  O  O86  1  0.75000000  0.75000000  0.50000000  1
  O  O87  1  0.75000000  0.25000000  0.50000000  1
  O  O88  1  0.50000000  0.27877207  0.11959805  1
  O  O89  1  0.50000000  0.72122793  0.88040195  1
  O  O90  1  0.00000000  0.27877207  0.38040195  1
  O  O91  1  0.00000000  0.72122793  0.61959805  1
  O  O92  1  0.00000000  0.77877207  0.11959805  1
  O  O93  1  0.00000000  0.22122793  0.88040195  1
  O  O94  1  0.50000000  0.77877207  0.38040195  1
  O  O95  1  0.50000000  0.22122793  0.61959805  1
