# generated using pymatgen
data_Na3YH12(CO5)3
_symmetry_space_group_name_H-M   'P 1'
_cell_length_a   11.68265429
_cell_length_b   11.68265404
_cell_length_c   5.85853639
_cell_angle_alpha   90.00000000
_cell_angle_beta   90.00000000
_cell_angle_gamma   120.00000069
_symmetry_Int_Tables_number   1
_chemical_formula_structural   Na3YH12(CO5)3
_chemical_formula_sum   'Na6 Y2 H24 C6 O30'
_cell_volume   692.47293218
_cell_formula_units_Z   2
loop_
 _symmetry_equiv_pos_site_id
 _symmetry_equiv_pos_as_xyz
  1  'x, y, z'
loop_
 _atom_site_type_symbol
 _atom_site_label
 _atom_site_symmetry_multiplicity
 _atom_site_fract_x
 _atom_site_fract_y
 _atom_site_fract_z
 _atom_site_occupancy
  Na  Na0  1  0.63751042  0.63351508  0.17307594  1
  Na  Na1  1  0.99600466  0.36248958  0.17307594  1
  Na  Na2  1  0.36648492  0.00399534  0.17307594  1
  Na  Na3  1  0.36248958  0.36648492  0.67307594  1
  Na  Na4  1  0.63351508  0.99600466  0.67307594  1
  Na  Na5  1  0.00399534  0.63751042  0.67307594  1
  Y  Y6  1  0.33333300  0.66666700  0.91233329  1
  Y  Y7  1  0.66666700  0.33333300  0.41233329  1
  H  H8  1  0.11162767  0.68025964  0.14989181  1
  H  H9  1  0.13180484  0.00126720  0.93965669  1
  H  H10  1  0.09494232  0.23563988  0.54261091  1
  H  H11  1  0.31974036  0.43136802  0.14989181  1
  H  H12  1  0.68025964  0.56863198  0.64989181  1
  H  H13  1  0.56863198  0.88837233  0.14989181  1
  H  H14  1  0.43136802  0.11162767  0.64989181  1
  H  H15  1  0.21847854  0.71809194  0.35406785  1
  H  H16  1  0.28190806  0.50038660  0.35406785  1
  H  H17  1  0.13053764  0.13180484  0.43965669  1
  H  H18  1  0.90505768  0.76436012  0.04261091  1
  H  H19  1  0.88837233  0.31974036  0.64989181  1
  H  H20  1  0.86946236  0.86819516  0.93965669  1
  H  H21  1  0.78152146  0.28190806  0.85406785  1
  H  H22  1  0.00126720  0.86946236  0.43965669  1
  H  H23  1  0.99873280  0.13053764  0.93965669  1
  H  H24  1  0.76436012  0.85930244  0.54261091  1
  H  H25  1  0.49961340  0.78152146  0.35406785  1
  H  H26  1  0.50038660  0.21847854  0.85406785  1
  H  H27  1  0.23563988  0.14069756  0.04261091  1
  H  H28  1  0.86819516  0.99873280  0.43965669  1
  H  H29  1  0.71809194  0.49961340  0.85406785  1
  H  H30  1  0.14069756  0.90505768  0.54261091  1
  H  H31  1  0.85930244  0.09494232  0.04261091  1
  C  C32  1  0.12493480  0.44380381  0.67903956  1
  C  C33  1  0.55619619  0.68113099  0.67903956  1
  C  C34  1  0.87506520  0.55619619  0.17903956  1
  C  C35  1  0.31886901  0.87506520  0.67903956  1
  C  C36  1  0.68113099  0.12493480  0.17903956  1
  C  C37  1  0.44380381  0.31886901  0.17903956  1
  O  O38  1  0.65310090  0.68791560  0.56346189  1
  O  O39  1  0.29864255  0.50318789  0.18626666  1
  O  O40  1  0.90282877  0.50248198  0.34735791  1
  O  O41  1  0.49751802  0.40034679  0.34735791  1
  O  O42  1  0.49681211  0.79545466  0.18626666  1
  O  O43  1  0.50797797  0.75862391  0.63146675  1
  O  O44  1  0.59965321  0.09717123  0.34735791  1
  O  O45  1  0.50318789  0.20454534  0.68626666  1
  O  O46  1  0.95635045  0.14460952  0.07155961  1
  O  O47  1  0.96518530  0.65310090  0.06346189  1
  O  O48  1  0.75862391  0.25064594  0.13146675  1
  O  O49  1  0.70135745  0.49681211  0.68626666  1
  O  O50  1  0.68791560  0.03481470  0.06346189  1
  O  O51  1  0.03481470  0.34689910  0.56346189  1
  O  O52  1  0.25064594  0.49202203  0.63146675  1
  O  O53  1  0.40034679  0.90282877  0.84735791  1
  O  O54  1  0.85539048  0.81174093  0.07155961  1
  O  O55  1  0.81174093  0.95635045  0.57155961  1
  O  O56  1  0.24137609  0.74935406  0.63146675  1
  O  O57  1  0.74935406  0.50797797  0.13146675  1
  O  O58  1  0.31208440  0.96518530  0.56346189  1
  O  O59  1  0.20454534  0.70135745  0.18626666  1
  O  O60  1  0.49202203  0.24137609  0.13146675  1
  O  O61  1  0.50248198  0.59965321  0.84735791  1
  O  O62  1  0.09717123  0.49751802  0.84735791  1
  O  O63  1  0.79545466  0.29864255  0.68626666  1
  O  O64  1  0.14460952  0.18825907  0.57155961  1
  O  O65  1  0.04364955  0.85539048  0.57155961  1
  O  O66  1  0.18825907  0.04364955  0.07155961  1
  O  O67  1  0.34689910  0.31208440  0.06346189  1
