# generated using pymatgen
data_V2P2O9
_symmetry_space_group_name_H-M   'P 1'
_cell_length_a   7.52724960
_cell_length_b   8.54910348
_cell_length_c   9.69204265
_cell_angle_alpha   89.99942851
_cell_angle_beta   89.99986322
_cell_angle_gamma   89.99968565
_symmetry_Int_Tables_number   1
_chemical_formula_structural   V2P2O9
_chemical_formula_sum   'V8 P8 O36'
_cell_volume   623.69492145
_cell_formula_units_Z   4
loop_
 _symmetry_equiv_pos_site_id
 _symmetry_equiv_pos_as_xyz
  1  'x, y, z'
loop_
 _atom_site_type_symbol
 _atom_site_label
 _atom_site_symmetry_multiplicity
 _atom_site_fract_x
 _atom_site_fract_y
 _atom_site_fract_z
 _atom_site_occupancy
  V  V0  1  0.53286931  0.69140918  0.99573270  1
  V  V1  1  0.96725450  0.19139273  0.49574827  1
  V  V2  1  0.46727705  0.19139504  0.50424437  1
  V  V3  1  0.46720179  0.30860145  0.00425386  1
  V  V4  1  0.03284606  0.69141098  0.00426294  1
  V  V5  1  0.96721361  0.30859948  0.99574766  1
  V  V6  1  0.03264896  0.80861202  0.50423608  1
  V  V7  1  0.53262898  0.80861468  0.49576969  1
  P  P8  1  0.54389641  0.50092964  0.29778813  1
  P  P9  1  0.95609744  0.00092553  0.79777865  1
  P  P10  1  0.45610250  0.00092655  0.20221327  1
  P  P11  1  0.45610520  0.49908089  0.70221223  1
  P  P12  1  0.04389354  0.50092794  0.70220520  1
  P  P13  1  0.54390216  0.99908656  0.79778702  1
  P  P14  1  0.04390119  0.99908200  0.20222083  1
  P  P15  1  0.95610473  0.49908675  0.29779464  1
  O  O16  1  0.02893429  0.34643874  0.35435133  1
  O  O17  1  0.97107100  0.65354348  0.64565805  1
  O  O18  1  0.47106044  0.84642765  0.85435650  1
  O  O19  1  0.74617118  0.18130396  0.47354855  1
  O  O20  1  0.97602717  0.50100196  0.13674765  1
  O  O21  1  0.96406471  0.35516861  0.63967701  1
  O  O22  1  0.74622222  0.31869017  0.97355524  1
  O  O23  1  0.02397201  0.00100082  0.36324507  1
  O  O24  1  0.52893472  0.15355860  0.14564899  1
  O  O25  1  0.24621620  0.18130888  0.52644527  1
  O  O26  1  0.53594059  0.85516060  0.13967281  1
  O  O27  1  0.97602902  0.99900576  0.63675521  1
  O  O28  1  0.03594258  0.85516035  0.86032308  1
  O  O29  1  0.75375291  0.68130849  0.97355408  1
  O  O30  1  0.53593884  0.64481963  0.63968630  1
  O  O31  1  0.97105775  0.84642602  0.14564411  1
  O  O32  1  0.46406582  0.14482828  0.86032338  1
  O  O33  1  0.25000020  0.99999802  0.16805764  1
  O  O34  1  0.24999921  0.49999757  0.66805807  1
  O  O35  1  0.02397087  0.49900298  0.86325220  1
  O  O36  1  0.52397429  0.00100112  0.63675674  1
  O  O37  1  0.96405861  0.14482893  0.13968131  1
  O  O38  1  0.74999938  0.00000096  0.83194217  1
  O  O39  1  0.25374185  0.68131025  0.02644202  1
  O  O40  1  0.25393255  0.81869961  0.52645752  1
  O  O41  1  0.47106461  0.65354912  0.35434289  1
  O  O42  1  0.46405800  0.35516905  0.36031810  1
  O  O43  1  0.52894056  0.34643444  0.64565011  1
  O  O44  1  0.47602700  0.99900326  0.36324198  1
  O  O45  1  0.03593126  0.64481711  0.36031610  1
  O  O46  1  0.02894155  0.15356332  0.85435000  1
  O  O47  1  0.75386171  0.81869464  0.47355064  1
  O  O48  1  0.47602979  0.50099863  0.86325511  1
  O  O49  1  0.24614998  0.31869484  0.02645178  1
  O  O50  1  0.52397241  0.49900222  0.13674497  1
  O  O51  1  0.75000132  0.50000052  0.33194246  1
