# generated using pymatgen
data_V2CoO6
_symmetry_space_group_name_H-M   'P 1'
_cell_length_a   4.87405006
_cell_length_b   7.29344983
_cell_length_c   8.97545781
_cell_angle_alpha   102.11067244
_cell_angle_beta   90.03537325
_cell_angle_gamma   94.22651609
_symmetry_Int_Tables_number   1
_chemical_formula_structural   V2CoO6
_chemical_formula_sum   'V6 Co3 O18'
_cell_volume   311.07355434
_cell_formula_units_Z   3
loop_
 _symmetry_equiv_pos_site_id
 _symmetry_equiv_pos_as_xyz
  1  'x, y, z'
loop_
 _atom_site_type_symbol
 _atom_site_label
 _atom_site_symmetry_multiplicity
 _atom_site_fract_x
 _atom_site_fract_y
 _atom_site_fract_z
 _atom_site_occupancy
  V  V0  1  0.45338779  0.71237897  0.60827193  1
  V  V1  1  0.88351878  0.41875368  0.73654589  1
  V  V2  1  0.45600526  0.71169632  0.96733276  1
  V  V3  1  0.54399474  0.28830368  0.03266724  1
  V  V4  1  0.11648122  0.58124632  0.26345411  1
  V  V5  1  0.54661221  0.28762103  0.39172807  1
  Co  Co6  1  0.00784574  0.01238652  0.16633784  1
  Co  Co7  1  0.00000000  0.00000000  0.50000000  1
  Co  Co8  1  0.99215426  0.98761348  0.83366216  1
  O  O9  1  0.82771094  0.15356176  0.01879976  1
  O  O10  1  0.82657172  0.15069598  0.35902625  1
  O  O11  1  0.33932864  0.16690412  0.48905391  1
  O  O12  1  0.10428364  0.82115255  0.30105262  1
  O  O13  1  0.36318497  0.21277539  0.20021443  1
  O  O14  1  0.29729760  0.52747708  0.42238346  1
  O  O15  1  0.63681503  0.78722461  0.79978557  1
  O  O16  1  0.17228906  0.84643824  0.98120024  1
  O  O17  1  0.70270240  0.47252292  0.57761654  1
  O  O18  1  0.70281521  0.47562628  0.91390500  1
  O  O19  1  0.17342828  0.84930402  0.64097375  1
  O  O20  1  0.29718479  0.52437372  0.08609500  1
  O  O21  1  0.79110542  0.47050773  0.24596702  1
  O  O22  1  0.66003636  0.83067551  0.10706111  1
  O  O23  1  0.66067136  0.83309588  0.51094609  1
  O  O24  1  0.20889458  0.52949227  0.75403298  1
  O  O25  1  0.89571636  0.17884745  0.69894738  1
  O  O26  1  0.33996364  0.16932449  0.89293889  1
