# generated using pymatgen
data_Ca(H8O5)2
_symmetry_space_group_name_H-M   'P 1'
_cell_length_a   6.30743400
_cell_length_b   6.15112548
_cell_length_c   10.95392062
_cell_angle_alpha   91.19665135
_cell_angle_beta   90.45471968
_cell_angle_gamma   89.77059809
_symmetry_Int_Tables_number   1
_chemical_formula_structural   Ca(H8O5)2
_chemical_formula_sum   'Ca2 H32 O20'
_cell_volume   424.87901884
_cell_formula_units_Z   2
loop_
 _symmetry_equiv_pos_site_id
 _symmetry_equiv_pos_as_xyz
  1  'x, y, z'
loop_
 _atom_site_type_symbol
 _atom_site_label
 _atom_site_symmetry_multiplicity
 _atom_site_fract_x
 _atom_site_fract_y
 _atom_site_fract_z
 _atom_site_occupancy
  Ca  Ca0  1  0.00393196  0.02357137  0.25777716  1
  Ca  Ca1  1  0.00302251  0.99122645  0.75380461  1
  H  H2  1  0.28490812  0.39165266  0.35726116  1
  H  H3  1  0.14564895  0.31019999  0.47077110  1
  H  H4  1  0.74092108  0.63481989  0.34758741  1
  H  H5  1  0.97849064  0.56978166  0.37323001  1
  H  H6  1  0.61736807  0.27931713  0.35380444  1
  H  H7  1  0.69903500  0.13492475  0.46689251  1
  H  H8  1  0.38615659  0.72464602  0.34727049  1
  H  H9  1  0.45338206  0.97025922  0.37330311  1
  H  H10  1  0.96943476  0.43384809  0.87207203  1
  H  H11  1  0.72928672  0.36630962  0.85866758  1
  H  H12  1  0.26945991  0.60957076  0.85538181  1
  H  H13  1  0.12993246  0.69291446  0.96755209  1
  H  H14  1  0.28781126  0.14535664  0.96008732  1
  H  H15  1  0.38732967  0.27135045  0.84898371  1
  H  H16  1  0.61664476  0.71813656  0.86189069  1
  H  H17  1  0.55327518  0.96656249  0.87458729  1
  H  H18  1  0.72575710  0.61026057  0.65326361  1
  H  H19  1  0.86128753  0.69631376  0.54061665  1
  H  H20  1  0.27533961  0.37508637  0.64994181  1
  H  H21  1  0.03321085  0.43912915  0.63302247  1
  H  H22  1  0.30598044  0.85938286  0.53901992  1
  H  H23  1  0.38829955  0.72149558  0.65241805  1
  H  H24  1  0.62338556  0.27229279  0.65020802  1
  H  H25  1  0.56060950  0.02578624  0.63336972  1
  H  H26  1  0.03000819  0.57752984  0.13478843  1
  H  H27  1  0.27862689  0.60958650  0.14423059  1
  H  H28  1  0.71928004  0.40189501  0.14889438  1
  H  H29  1  0.87875588  0.31091091  0.04894069  1
  H  H30  1  0.59193327  0.90624317  0.16652543  1
  H  H31  1  0.70644001  0.87560023  0.03752400  1
  H  H32  1  0.37824308  0.27775541  0.15262301  1
  H  H33  1  0.33962544  -0.00021114  0.10982322  1
  O  O34  1  0.50092000  0.49308606  0.31312508  1
  O  O35  1  0.50209692  0.49375666  0.82232484  1
  O  O36  1  0.50322600  0.49586745  0.68593770  1
  O  O37  1  0.47874813  0.45776862  0.17851040  1
  O  O38  1  0.13898348  0.33327191  0.38063485  1
  O  O39  1  0.87857112  0.69647568  0.37894304  1
  O  O40  1  0.68203213  0.13142826  0.37604495  1
  O  O41  1  0.32659344  0.87297153  0.37256910  1
  O  O42  1  0.87445384  0.30489030  0.87838686  1
  O  O43  1  0.12459068  0.67161441  0.87641947  1
  O  O44  1  0.32070809  0.12611458  0.87125377  1
  O  O45  1  0.67829337  0.86728870  0.88405588  1
  O  O46  1  0.86972836  0.67207787  0.63035139  1
  O  O47  1  0.13165123  0.31140029  0.62728417  1
  O  O48  1  0.32280680  0.86722756  0.62932237  1
  O  O49  1  0.68591091  0.12369758  0.62725697  1
  O  O50  1  0.14215251  0.69230844  0.12510488  1
  O  O51  1  0.87312224  0.35399341  0.13648727  1
  O  O52  1  0.72956760  0.88723424  0.12822322  1
  O  O53  1  0.26926653  0.13994700  0.11671526  1
