# generated using pymatgen
data_SrGa2(SiO4)2
_symmetry_space_group_name_H-M   'P 1'
_cell_length_a   8.59536962
_cell_length_b   9.45261652
_cell_length_c   9.45261651
_cell_angle_alpha   89.67660833
_cell_angle_beta   83.02091991
_cell_angle_gamma   83.02091993
_symmetry_Int_Tables_number   1
_chemical_formula_structural   SrGa2(SiO4)2
_chemical_formula_sum   'Sr4 Ga8 Si8 O32'
_cell_volume   756.64180072
_cell_formula_units_Z   4
loop_
 _symmetry_equiv_pos_site_id
 _symmetry_equiv_pos_as_xyz
  1  'x, y, z'
loop_
 _atom_site_type_symbol
 _atom_site_label
 _atom_site_symmetry_multiplicity
 _atom_site_fract_x
 _atom_site_fract_y
 _atom_site_fract_z
 _atom_site_occupancy
  O  O0  1  0.00187139  0.67865145  0.90988949  1
  O  O1  1  0.49812861  0.59011051  0.82134855  1
  O  O2  1  0.99812861  0.32134855  0.09011051  1
  O  O3  1  0.50187139  0.40988949  0.17865145  1
  O  O4  1  0.50297542  0.18716530  0.43093394  1
  O  O5  1  0.99702458  0.06906606  0.31283470  1
  O  O6  1  0.49702458  0.81283470  0.56906606  1
  O  O7  1  0.00297542  0.93093394  0.68716530  1
  O  O8  1  0.11912336  0.55397268  0.18346873  1
  O  O9  1  0.38087664  0.31653127  0.94602732  1
  O  O10  1  0.88087664  0.44602732  0.81653127  1
  O  O11  1  0.61912336  0.68346873  0.05397268  1
  O  O12  1  0.60618447  0.09146936  0.67643349  1
  O  O13  1  0.89381553  0.82356651  0.40853064  1
  O  O14  1  0.39381553  0.90853064  0.32356651  1
  O  O15  1  0.10618447  0.17643349  0.59146936  1
  O  O16  1  0.31073238  0.76773033  0.01381169  1
  O  O17  1  0.18926762  0.48618831  0.73226967  1
  O  O18  1  0.68926762  0.23226967  0.98618831  1
  O  O19  1  0.81073238  0.51381169  0.26773033  1
  O  O20  1  0.99298542  0.12491152  0.87496676  1
  O  O21  1  0.50701458  0.62503324  0.37508848  1
  O  O22  1  0.00701458  0.87508848  0.12503324  1
  O  O23  1  0.49298542  0.37496676  0.62491152  1
  O  O24  1  0.55917753  0.85799554  0.85829167  1
  O  O25  1  0.94082247  0.64170833  0.64200446  1
  O  O26  1  0.44082247  0.14200446  0.14170833  1
  O  O27  1  0.05917753  0.35829167  0.35799554  1
  O  O28  1  0.27013421  0.02047154  0.77694791  1
  O  O29  1  0.22986579  0.72305209  0.47952846  1
  O  O30  1  0.72986579  0.97952846  0.22305209  1
  O  O31  1  0.77013421  0.27694791  0.52047154  1
  Si  Si32  1  0.49103687  0.71849241  0.93932000  1
  Si  Si33  1  0.00896313  0.56068000  0.78150759  1
  Si  Si34  1  0.50896313  0.28150759  0.06068000  1
  Si  Si35  1  0.99103687  0.43932000  0.21849241  1
  Si  Si36  1  0.90304111  0.93477132  0.27726483  1
  Si  Si37  1  0.59695889  0.22273517  0.56522868  1
  Si  Si38  1  0.09695889  0.06522868  0.72273517  1
  Si  Si39  1  0.40304111  0.77726483  0.43477132  1
  Ga  Ga40  1  0.11912869  0.70102204  0.05917110  1
  Ga  Ga41  1  0.38087131  0.44082890  0.79897796  1
  Ga  Ga42  1  0.88087131  0.29897796  0.94082890  1
  Ga  Ga43  1  0.61912869  0.55917110  0.20102204  1
  Ga  Ga44  1  0.52565380  0.04729306  0.29296107  1
  Ga  Ga45  1  0.97434620  0.20703893  0.45270694  1
  Ga  Ga46  1  0.47434620  0.95270694  0.70703893  1
  Ga  Ga47  1  0.02565380  0.79296107  0.54729306  1
  Sr  Sr48  1  0.30177756  0.43847247  0.42835386  1
  Sr  Sr49  1  0.19822244  0.07164614  0.06152753  1
  Sr  Sr50  1  0.69822244  0.56152753  0.57164614  1
  Sr  Sr51  1  0.80177756  0.92835386  0.93847247  1
