# generated using pymatgen
data_Tm15S22
_symmetry_space_group_name_H-M   'P 1'
_cell_length_a   3.85088278
_cell_length_b   11.19781455
_cell_length_c   19.37211960
_cell_angle_alpha   90.91863575
_cell_angle_beta   95.70417430
_cell_angle_gamma   90.00000023
_symmetry_Int_Tables_number   1
_chemical_formula_structural   Tm15S22
_chemical_formula_sum   'Tm15 S22'
_cell_volume   831.10999764
_cell_formula_units_Z   1
loop_
 _symmetry_equiv_pos_site_id
 _symmetry_equiv_pos_as_xyz
  1  'x, y, z'
loop_
 _atom_site_type_symbol
 _atom_site_label
 _atom_site_symmetry_multiplicity
 _atom_site_fract_x
 _atom_site_fract_y
 _atom_site_fract_z
 _atom_site_occupancy
  Tm  Tm0  1  0.76554585  0.35297697  0.53109171  1
  Tm  Tm1  1  0.56897877  0.35716695  0.13795754  1
  Tm  Tm2  1  0.43102123  0.64283305  0.86204246  1
  Tm  Tm3  1  0.23445415  0.64702303  0.46890829  1
  Tm  Tm4  1  0.60492824  0.01055407  0.20985648  1
  Tm  Tm5  1  0.39507176  0.98944593  0.79014352  1
  Tm  Tm6  1  0.96049730  0.27245305  0.92099460  1
  Tm  Tm7  1  0.13329063  0.65750326  0.26658126  1
  Tm  Tm8  1  0.86670937  0.34249674  0.73341874  1
  Tm  Tm9  1  0.29878112  0.05678641  0.59756223  1
  Tm  Tm10  1  0.84290949  0.69444490  0.68581899  1
  Tm  Tm11  1  0.03950270  0.72754695  0.07900540  1
  Tm  Tm12  1  0.50000000  0.00000000  0.00000000  1
  Tm  Tm13  1  0.15709051  0.30555510  0.31418101  1
  Tm  Tm14  1  0.70121888  0.94321359  0.40243777  1
  S  S15  1  0.59006352  0.75183429  0.18012703  1
  S  S16  1  0.94728707  0.49790496  0.89457414  1
  S  S17  1  0.05271293  0.50209504  0.10542586  1
  S  S18  1  0.04889372  0.96849116  0.09778743  1
  S  S19  1  0.77984699  0.59197654  0.55969399  1
  S  S20  1  0.22015301  0.40802346  0.44030601  1
  S  S21  1  0.31379297  0.30749752  0.62758594  1
  S  S22  1  0.33331010  0.85058692  0.66662021  1
  S  S23  1  0.66668990  0.14941308  0.33337979  1
  S  S24  1  0.68620703  0.69250248  0.37241406  1
  S  S25  1  0.50724488  0.23849544  0.01448976  1
  S  S26  1  0.24489478  0.87963443  0.48978956  1
  S  S27  1  0.49275512  0.76150456  0.98551024  1
  S  S28  1  0.95110628  0.03150884  0.90221257  1
  S  S29  1  0.36616461  0.53851596  0.73232922  1
  S  S30  1  0.14704429  0.90739100  0.29408858  1
  S  S31  1  0.90704579  0.79371119  0.81409158  1
  S  S32  1  0.75510522  0.12036557  0.51021044  1
  S  S33  1  0.09295421  0.20628881  0.18590842  1
  S  S34  1  0.85295571  0.09260900  0.70591142  1
  S  S35  1  0.40993648  0.24816571  0.81987297  1
  S  S36  1  0.63383539  0.46148404  0.26767078  1
