# generated using pymatgen
data_GaPt3
_symmetry_space_group_name_H-M   'P 1'
_cell_length_a   5.54859398
_cell_length_b   5.54854819
_cell_length_c   7.96398317
_cell_angle_alpha   89.99954496
_cell_angle_beta   89.99959120
_cell_angle_gamma   89.99977984
_symmetry_Int_Tables_number   1
_chemical_formula_structural   GaPt3
_chemical_formula_sum   'Ga4 Pt12'
_cell_volume   245.18429145
_cell_formula_units_Z   4
loop_
 _symmetry_equiv_pos_site_id
 _symmetry_equiv_pos_as_xyz
  1  'x, y, z'
loop_
 _atom_site_type_symbol
 _atom_site_label
 _atom_site_symmetry_multiplicity
 _atom_site_fract_x
 _atom_site_fract_y
 _atom_site_fract_z
 _atom_site_occupancy
  Ga  Ga0  1  0.49999912  -0.00000060  0.75420260  1
  Ga  Ga1  1  0.99999894  0.50000026  0.24579637  1
  Ga  Ga2  1  0.50000046  0.99999866  0.24579625  1
  Ga  Ga3  1  0.99999969  0.50000215  0.75420427  1
  Pt  Pt4  1  0.72593959  0.77406012  0.00000213  1
  Pt  Pt5  1  0.28870636  0.78870720  0.49999918  1
  Pt  Pt6  1  0.22593943  0.72593884  0.00000079  1
  Pt  Pt7  1  0.27406440  0.22593999  0.00000180  1
  Pt  Pt8  1  0.00000066  0.00000197  0.74864158  1
  Pt  Pt9  1  0.78870484  0.71129529  0.49999965  1
  Pt  Pt10  1  0.21129331  0.28870294  0.49999957  1
  Pt  Pt11  1  0.71129666  0.21129562  0.49999777  1
  Pt  Pt12  1  0.00000104  0.00000356  0.25135693  1
  Pt  Pt13  1  0.49999608  0.49999579  0.74864072  1
  Pt  Pt14  1  0.49999674  0.49999746  0.25135907  1
  Pt  Pt15  1  0.77406269  0.27406076  0.00000132  1
