# generated using pymatgen
data_VCuHPbO5
_symmetry_space_group_name_H-M   'P 1'
_cell_length_a   6.16372257
_cell_length_b   7.84533224
_cell_length_c   9.27841592
_cell_angle_alpha   90.00000000
_cell_angle_beta   90.00000000
_cell_angle_gamma   90.00000000
_symmetry_Int_Tables_number   1
_chemical_formula_structural   VCuHPbO5
_chemical_formula_sum   'V4 Cu4 H4 Pb4 O20'
_cell_volume   448.67126848
_cell_formula_units_Z   4
loop_
 _symmetry_equiv_pos_site_id
 _symmetry_equiv_pos_as_xyz
  1  'x, y, z'
loop_
 _atom_site_type_symbol
 _atom_site_label
 _atom_site_symmetry_multiplicity
 _atom_site_fract_x
 _atom_site_fract_y
 _atom_site_fract_z
 _atom_site_occupancy
  Cu  Cu0  1  0.00000000  0.50000000  0.00000000  1
  Cu  Cu1  1  0.50000000  0.50000000  0.00000000  1
  Cu  Cu2  1  0.50000000  0.00000000  0.50000000  1
  Cu  Cu3  1  0.00000000  0.00000000  0.50000000  1
  Pb  Pb4  1  0.75000000  0.86007050  0.83017417  1
  Pb  Pb5  1  0.25000000  0.13992950  0.16982583  1
  Pb  Pb6  1  0.75000000  0.36007050  0.66982583  1
  Pb  Pb7  1  0.25000000  0.63992950  0.33017417  1
  V  V8  1  0.25000000  0.11154259  0.80339358  1
  V  V9  1  0.75000000  0.88845741  0.19660642  1
  V  V10  1  0.25000000  0.61154259  0.69660642  1
  V  V11  1  0.75000000  0.38845741  0.30339358  1
  O  O12  1  0.49523936  0.10935430  0.69850409  1
  O  O13  1  0.99523936  0.89064570  0.30149591  1
  O  O14  1  0.00476064  0.60935430  0.80149591  1
  O  O15  1  0.50476064  0.39064570  0.19850409  1
  O  O16  1  0.50476064  0.89064570  0.30149591  1
  O  O17  1  0.00476064  0.10935430  0.69850409  1
  O  O18  1  0.99523936  0.39064570  0.19850409  1
  O  O19  1  0.49523936  0.60935430  0.80149591  1
  O  O20  1  0.25000000  0.94019770  0.91861853  1
  O  O21  1  0.75000000  0.05980230  0.08138147  1
  O  O22  1  0.25000000  0.44019770  0.58138147  1
  O  O23  1  0.75000000  0.55980230  0.41861853  1
  O  O24  1  0.25000000  0.28631956  0.91529694  1
  O  O25  1  0.75000000  0.71368044  0.08470306  1
  O  O26  1  0.25000000  0.78631956  0.58470306  1
  O  O27  1  0.75000000  0.21368044  0.41529694  1
  O  O28  1  0.75000000  0.36236374  0.93982589  1
  O  O29  1  0.25000000  0.63763626  0.06017411  1
  O  O30  1  0.75000000  0.86236374  0.56017411  1
  O  O31  1  0.25000000  0.13763626  0.43982589  1
  H  H32  1  0.75000000  0.25241909  0.99510350  1
  H  H33  1  0.25000000  0.74758091  0.00489650  1
  H  H34  1  0.75000000  0.75241909  0.50489650  1
  H  H35  1  0.25000000  0.24758091  0.49510350  1
