# generated using pymatgen
data_K3MnH5
_symmetry_space_group_name_H-M   'P 1'
_cell_length_a   7.94311199
_cell_length_b   7.94311199
_cell_length_c   7.94311199
_cell_angle_alpha   122.36361033
_cell_angle_beta   122.36361033
_cell_angle_gamma   85.95264853
_symmetry_Int_Tables_number   1
_chemical_formula_structural   K3MnH5
_chemical_formula_sum   'K6 Mn2 H10'
_cell_volume   340.78337897
_cell_formula_units_Z   2
loop_
 _symmetry_equiv_pos_site_id
 _symmetry_equiv_pos_as_xyz
  1  'x, y, z'
loop_
 _atom_site_type_symbol
 _atom_site_label
 _atom_site_symmetry_multiplicity
 _atom_site_fract_x
 _atom_site_fract_y
 _atom_site_fract_z
 _atom_site_occupancy
  K  K0  1  0.18634572  0.68634572  0.87269144  1
  K  K1  1  0.81365428  0.31365428  0.12730856  1
  K  K2  1  0.68634572  0.81365428  0.50000000  1
  K  K3  1  0.31365428  0.18634572  0.50000000  1
  K  K4  1  0.25000000  0.25000000  0.00000000  1
  K  K5  1  0.75000000  0.75000000  0.00000000  1
  Mn  Mn6  1  0.25000000  0.75000000  0.50000000  1
  Mn  Mn7  1  0.75000000  0.25000000  0.50000000  1
  H  H8  1  0.46963787  0.96963787  0.75493797  1
  H  H9  1  0.21469990  0.71469990  0.24506203  1
  H  H10  1  0.96963787  0.21469990  0.50000000  1
  H  H11  1  0.71469990  0.46963787  0.50000000  1
  H  H12  1  0.53036213  0.03036213  0.24506203  1
  H  H13  1  0.78530010  0.28530010  0.75493797  1
  H  H14  1  0.03036213  0.78530010  0.50000000  1
  H  H15  1  0.28530010  0.53036213  0.50000000  1
  H  H16  1  0.50000000  0.50000000  0.00000000  1
  H  H17  1  0.00000000  0.00000000  0.00000000  1
