# generated using pymatgen
data_CaH2CClO3
_symmetry_space_group_name_H-M   'P 1'
_cell_length_a   6.55427264
_cell_length_b   6.18781789
_cell_length_c   6.55427264
_cell_angle_alpha   112.32797729
_cell_angle_beta   110.20884981
_cell_angle_gamma   108.26504072
_symmetry_Int_Tables_number   1
_chemical_formula_structural   CaH2CClO3
_chemical_formula_sum   'Ca2 H4 C2 Cl2 O6'
_cell_volume   198.18228737
_cell_formula_units_Z   2
loop_
 _symmetry_equiv_pos_site_id
 _symmetry_equiv_pos_as_xyz
  1  'x, y, z'
loop_
 _atom_site_type_symbol
 _atom_site_label
 _atom_site_symmetry_multiplicity
 _atom_site_fract_x
 _atom_site_fract_y
 _atom_site_fract_z
 _atom_site_occupancy
  Ca  Ca0  1  0.86335458  0.11781229  0.25445771  1
  Ca  Ca1  1  0.13664542  0.88218771  0.74554229  1
  H  H2  1  0.82344750  0.15274717  0.79372323  1
  H  H3  1  0.64097606  0.84725283  0.67070032  1
  H  H4  1  0.17655250  0.84725283  0.20627677  1
  H  H5  1  0.35902394  0.15274717  0.32929968  1
  C  C6  1  0.39606863  0.50000000  0.89606863  1
  C  C7  1  0.60393137  0.50000000  0.10393137  1
  Cl  Cl8  1  0.23802640  0.60635442  0.36832801  1
  Cl  Cl9  1  0.76197360  0.39364558  0.63167199  1
  O  O10  1  0.43184275  0.73028446  0.93910459  1
  O  O11  1  0.20882013  0.26971554  0.70155829  1
  O  O12  1  0.56815725  0.26971554  0.06089541  1
  O  O13  1  0.79117987  0.73028446  0.29844171  1
  O  O14  1  0.81396420  0.00000000  0.81396420  1
  O  O15  1  0.18603580  0.00000000  0.18603580  1
