# generated using pymatgen
data_NbSe2
_symmetry_space_group_name_H-M   'P 1'
_cell_length_a   3.46906018
_cell_length_b   3.47154171
_cell_length_c   26.57218817
_cell_angle_alpha   90.00000000
_cell_angle_beta   90.00000000
_cell_angle_gamma   119.97635670
_symmetry_Int_Tables_number   1
_chemical_formula_structural   NbSe2
_chemical_formula_sum   'Nb4 Se8'
_cell_volume   277.20151039
_cell_formula_units_Z   4
loop_
 _symmetry_equiv_pos_site_id
 _symmetry_equiv_pos_as_xyz
  1  'x, y, z'
loop_
 _atom_site_type_symbol
 _atom_site_label
 _atom_site_symmetry_multiplicity
 _atom_site_fract_x
 _atom_site_fract_y
 _atom_site_fract_z
 _atom_site_occupancy
  Nb  Nb0  1  0.00001415  0.00002831  0.50000000  1
  Nb  Nb1  1  0.33332974  0.66665949  0.00000000  1
  Nb  Nb2  1  0.00002445  0.00004890  0.74951447  1
  Nb  Nb3  1  0.00002445  0.00004890  0.25048553  1
  Se  Se4  1  0.99999535  0.99999070  0.93631353  1
  Se  Se5  1  0.99999535  0.99999070  0.06368647  1
  Se  Se6  1  0.33328656  0.66657311  0.68564351  1
  Se  Se7  1  0.33328656  0.66657311  0.31435649  1
  Se  Se8  1  0.66669142  0.33338284  0.81337710  1
  Se  Se9  1  0.66669142  0.33338284  0.18662290  1
  Se  Se10  1  0.66668028  0.33336056  0.56394027  1
  Se  Se11  1  0.66668028  0.33336056  0.43605973  1
