# generated using pymatgen
data_KCu2P2H3(O4F)2
_symmetry_space_group_name_H-M   'P 1'
_cell_length_a   5.62508528
_cell_length_b   7.97991179
_cell_length_c   5.62508528
_cell_angle_alpha   66.58478754
_cell_angle_beta   109.49790516
_cell_angle_gamma   113.41521246
_symmetry_Int_Tables_number   1
_chemical_formula_structural   KCu2P2H3(O4F)2
_chemical_formula_sum   'K1 Cu2 P2 H3 O8 F2'
_cell_volume   207.93475010
_cell_formula_units_Z   1
loop_
 _symmetry_equiv_pos_site_id
 _symmetry_equiv_pos_as_xyz
  1  'x, y, z'
loop_
 _atom_site_type_symbol
 _atom_site_label
 _atom_site_symmetry_multiplicity
 _atom_site_fract_x
 _atom_site_fract_y
 _atom_site_fract_z
 _atom_site_occupancy
  K  K0  1  0.00000000  0.00000000  0.00000000  1
  Cu  Cu1  1  0.00000000  0.50000000  0.50000000  1
  Cu  Cu2  1  0.50000000  0.50000000  0.00000000  1
  P  P3  1  0.56517165  0.76009005  0.43482835  1
  P  P4  1  0.43482835  0.23990995  0.56517165  1
  H  H5  1  0.00000000  0.50000000  0.00000000  1
  H  H6  1  0.20402778  0.70619727  0.79597222  1
  H  H7  1  0.79597222  0.29380273  0.20402778  1
  O  O8  1  0.68868873  0.68659225  0.31131127  1
  O  O9  1  0.31131127  0.31340775  0.68868873  1
  O  O10  1  0.26593937  0.72778269  0.33503101  1
  O  O11  1  0.66496899  0.72778269  0.73406063  1
  O  O12  1  0.73406063  0.27221731  0.66496899  1
  O  O13  1  0.33503101  0.27221731  0.26593937  1
  O  O14  1  0.84858625  0.43443671  0.15141375  1
  O  O15  1  0.15141375  0.56556329  0.84858625  1
  F  F16  1  0.68087046  0.99269974  0.31912954  1
  F  F17  1  0.31912954  0.00730026  0.68087046  1
