# generated using pymatgen
data_K5Te3
_symmetry_space_group_name_H-M   'P 1'
_cell_length_a   6.50757792
_cell_length_b   10.32944073
_cell_length_c   10.32944073
_cell_angle_alpha   84.30540256
_cell_angle_beta   71.63909775
_cell_angle_gamma   71.63909778
_symmetry_Int_Tables_number   1
_chemical_formula_structural   K5Te3
_chemical_formula_sum   'K10 Te6'
_cell_volume   625.44463584
_cell_formula_units_Z   2
loop_
 _symmetry_equiv_pos_site_id
 _symmetry_equiv_pos_as_xyz
  1  'x, y, z'
loop_
 _atom_site_type_symbol
 _atom_site_label
 _atom_site_symmetry_multiplicity
 _atom_site_fract_x
 _atom_site_fract_y
 _atom_site_fract_z
 _atom_site_occupancy
  K  K0  1  0.75000000  0.50000000  0.50000000  1
  K  K1  1  0.25000000  0.50000000  0.50000000  1
  K  K2  1  0.58813915  0.13060396  0.69311775  1
  K  K3  1  0.28125689  0.30688225  0.13060396  1
  K  K4  1  0.71874311  0.69311775  0.86939604  1
  K  K5  1  0.41186085  0.86939604  0.30688225  1
  K  K6  1  0.22431476  0.86712827  0.68424221  1
  K  K7  1  0.90855697  0.31575779  0.86712827  1
  K  K8  1  0.09144303  0.68424221  0.13287173  1
  K  K9  1  0.77568524  0.13287173  0.31575779  1
  Te  Te10  1  0.84388608  0.81080690  0.50142094  1
  Te  Te11  1  0.34530702  0.49857906  0.81080690  1
  Te  Te12  1  0.65469298  0.50142094  0.18919310  1
  Te  Te13  1  0.15611392  0.18919310  0.49857906  1
  Te  Te14  1  0.78117457  0.00000000  0.00000000  1
  Te  Te15  1  0.21882543  0.00000000  0.00000000  1
