# generated using pymatgen
data_Yb8Si11
_symmetry_space_group_name_H-M   'P 1'
_cell_length_a   4.40440890
_cell_length_b   7.77635126
_cell_length_c   12.95370320
_cell_angle_alpha   107.41199347
_cell_angle_beta   99.79240248
_cell_angle_gamma   90.00719024
_symmetry_Int_Tables_number   1
_chemical_formula_structural   Yb8Si11
_chemical_formula_sum   'Yb8 Si11'
_cell_volume   416.55506660
_cell_formula_units_Z   1
loop_
 _symmetry_equiv_pos_site_id
 _symmetry_equiv_pos_as_xyz
  1  'x, y, z'
loop_
 _atom_site_type_symbol
 _atom_site_label
 _atom_site_symmetry_multiplicity
 _atom_site_fract_x
 _atom_site_fract_y
 _atom_site_fract_z
 _atom_site_occupancy
  Yb  Yb0  1  0.43312701  0.43078878  0.86081967  1
  Yb  Yb1  1  0.42974000  0.92749791  0.85488875  1
  Yb  Yb2  1  0.70453259  0.70427769  0.40620280  1
  Yb  Yb3  1  0.70247112  0.20115125  0.40030577  1
  Yb  Yb4  1  0.30010001  0.54890599  0.59534459  1
  Yb  Yb5  1  0.29978508  0.04817413  0.59566776  1
  Yb  Yb6  1  0.57301909  0.82262383  0.14387774  1
  Yb  Yb7  1  0.57374869  0.32427046  0.14452382  1
  Si  Si8  1  0.11019300  0.10979451  0.21675438  1
  Si  Si9  1  0.88983612  0.14025921  0.77440911  1
  Si  Si10  1  0.17351530  0.41831621  0.34157239  1
  Si  Si11  1  0.17309905  0.92536830  0.34148805  1
  Si  Si12  1  0.83226909  0.83170151  0.66161606  1
  Si  Si13  1  0.89081748  0.63431346  0.77353898  1
  Si  Si14  1  0.11419588  0.61646018  0.23027471  1
  Si  Si15  1  0.98414036  0.76825575  0.96730704  1
  Si  Si16  1  0.02176194  0.51846889  0.03805442  1
  Si  Si17  1  0.98654702  0.19766073  0.96865908  1
  Si  Si18  1  0.83036919  0.32866922  0.65660084  1
