# generated using pymatgen
data_EuMn4(CuO4)3
_symmetry_space_group_name_H-M   'P 1'
_cell_length_a   6.44350793
_cell_length_b   6.44350828
_cell_length_c   6.44522553
_cell_angle_alpha   109.38311181
_cell_angle_beta   109.51053268
_cell_angle_gamma   109.48775135
_symmetry_Int_Tables_number   1
_chemical_formula_structural   EuMn4(CuO4)3
_chemical_formula_sum   'Eu1 Mn4 Cu3 O12'
_cell_volume   206.07881408
_cell_formula_units_Z   1
loop_
 _symmetry_equiv_pos_site_id
 _symmetry_equiv_pos_as_xyz
  1  'x, y, z'
loop_
 _atom_site_type_symbol
 _atom_site_label
 _atom_site_symmetry_multiplicity
 _atom_site_fract_x
 _atom_site_fract_y
 _atom_site_fract_z
 _atom_site_occupancy
  Eu  Eu0  1  0.00000102  0.00002453  -0.00000115  1
  Mn  Mn1  1  -0.00002319  -0.00002167  0.49998242  1
  Mn  Mn2  1  0.49998193  0.99998589  -0.00001120  1
  Mn  Mn3  1  0.50002243  0.50002744  0.50002062  1
  Mn  Mn4  1  0.00001066  0.50000921  0.00000109  1
  Cu  Cu5  1  0.49999324  -0.00003727  0.50003311  1
  Cu  Cu6  1  0.50003476  0.50004891  0.00005659  1
  Cu  Cu7  1  0.00000751  0.49999598  0.49997839  1
  O  O8  1  0.17110280  0.69190387  0.86303310  1
  O  O9  1  0.82887631  0.30805750  0.13689128  1
  O  O10  1  0.47834095  0.17034468  0.30789916  1
  O  O11  1  0.86250504  0.17067327  0.69193464  1
  O  O12  1  0.82960114  0.69264824  0.52225580  1
  O  O13  1  0.17038883  0.30729268  0.47765823  1
  O  O14  1  0.30744567  0.47790702  0.17059777  1
  O  O15  1  0.52165961  0.82965180  0.69211121  1
  O  O16  1  0.69265175  0.86316766  0.17066503  1
  O  O17  1  0.13747723  0.82932241  0.30807483  1
  O  O18  1  0.69258932  0.52217558  0.82945146  1
  O  O19  1  0.30733297  0.13682226  0.82936761  1
