# generated using pymatgen
data_SiO2
_symmetry_space_group_name_H-M   'P 1'
_cell_length_a   14.46041777
_cell_length_b   7.22823903
_cell_length_c   9.12809882
_cell_angle_alpha   90.00000000
_cell_angle_beta   90.00000000
_cell_angle_gamma   90.00000000
_symmetry_Int_Tables_number   1
_chemical_formula_structural   SiO2
_chemical_formula_sum   'Si16 O32'
_cell_volume   954.09952362
_cell_formula_units_Z   16
loop_
 _symmetry_equiv_pos_site_id
 _symmetry_equiv_pos_as_xyz
  1  'x, y, z'
loop_
 _atom_site_type_symbol
 _atom_site_label
 _atom_site_symmetry_multiplicity
 _atom_site_fract_x
 _atom_site_fract_y
 _atom_site_fract_z
 _atom_site_occupancy
  Si  Si0  1  0.14119482  0.21588577  0.34085687  1
  Si  Si1  1  0.64119482  0.78411423  0.65914313  1
  Si  Si2  1  0.85880518  0.21588577  0.65914313  1
  Si  Si3  1  0.35880518  0.78411423  0.34085687  1
  Si  Si4  1  0.85880518  0.78411423  0.65914313  1
  Si  Si5  1  0.35880518  0.21588577  0.34085687  1
  Si  Si6  1  0.14119482  0.78411423  0.34085687  1
  Si  Si7  1  0.64119482  0.21588577  0.65914313  1
  Si  Si8  1  0.14300320  0.50000000  0.59578480  1
  Si  Si9  1  0.64300320  0.50000000  0.40421520  1
  Si  Si10  1  0.85699680  0.50000000  0.40421520  1
  Si  Si11  1  0.35699680  0.50000000  0.59578480  1
  Si  Si12  1  0.02046170  0.50000000  0.17346684  1
  Si  Si13  1  0.52046170  0.50000000  0.82653316  1
  Si  Si14  1  0.97953830  0.50000000  0.82653316  1
  Si  Si15  1  0.47953830  0.50000000  0.17346684  1
  O  O16  1  0.07942938  0.31528385  0.21541772  1
  O  O17  1  0.57942938  0.68471615  0.78458228  1
  O  O18  1  0.92057062  0.31528385  0.78458228  1
  O  O19  1  0.42057062  0.68471615  0.21541772  1
  O  O20  1  0.92057062  0.68471615  0.78458228  1
  O  O21  1  0.42057062  0.31528385  0.21541772  1
  O  O22  1  0.07942938  0.68471615  0.21541772  1
  O  O23  1  0.57942938  0.31528385  0.78458228  1
  O  O24  1  0.11161319  0.00000000  0.35313172  1
  O  O25  1  0.61161319  0.00000000  0.64686828  1
  O  O26  1  0.88838681  0.00000000  0.64686828  1
  O  O27  1  0.38838681  0.00000000  0.35313172  1
  O  O28  1  0.12279785  0.31515303  0.49843673  1
  O  O29  1  0.62279785  0.68484697  0.50156327  1
  O  O30  1  0.87720215  0.31515303  0.50156327  1
  O  O31  1  0.37720215  0.68484697  0.49843673  1
  O  O32  1  0.87720215  0.68484697  0.50156327  1
  O  O33  1  0.37720215  0.31515303  0.49843673  1
  O  O34  1  0.12279785  0.68484697  0.49843673  1
  O  O35  1  0.62279785  0.31515303  0.50156327  1
  O  O36  1  0.25000000  0.23318722  0.29670956  1
  O  O37  1  0.75000000  0.76681278  0.70329044  1
  O  O38  1  0.75000000  0.23318722  0.70329044  1
  O  O39  1  0.25000000  0.76681278  0.29670956  1
  O  O40  1  0.07715145  0.50000000  0.73831097  1
  O  O41  1  0.57715145  0.50000000  0.26168903  1
  O  O42  1  0.92284855  0.50000000  0.26168903  1
  O  O43  1  0.42284855  0.50000000  0.73831097  1
  O  O44  1  0.25000000  0.50000000  0.64975907  1
  O  O45  1  0.75000000  0.50000000  0.35024093  1
  O  O46  1  0.00000000  0.50000000  0.00000000  1
  O  O47  1  0.50000000  0.50000000  0.00000000  1
