# generated using pymatgen
data_Na3Nd5Cl18
_symmetry_space_group_name_H-M   'P 1'
_cell_length_a   7.60413573
_cell_length_b   7.60413565
_cell_length_c   12.82864770
_cell_angle_alpha   90.00000000
_cell_angle_beta   90.00000000
_cell_angle_gamma   120.00000032
_symmetry_Int_Tables_number   1
_chemical_formula_structural   Na3Nd5Cl18
_chemical_formula_sum   'Na3 Nd5 Cl18'
_cell_volume   642.40842035
_cell_formula_units_Z   1
loop_
 _symmetry_equiv_pos_site_id
 _symmetry_equiv_pos_as_xyz
  1  'x, y, z'
loop_
 _atom_site_type_symbol
 _atom_site_label
 _atom_site_symmetry_multiplicity
 _atom_site_fract_x
 _atom_site_fract_y
 _atom_site_fract_z
 _atom_site_occupancy
  Na  Na0  1  0.33333300  0.66666700  0.75000000  1
  Na  Na1  1  -0.00000000  -0.00000000  0.60617132  1
  Na  Na2  1  -0.00000000  -0.00000000  0.89382868  1
  Nd  Nd3  1  0.33333300  0.66666700  0.08460747  1
  Nd  Nd4  1  0.33333300  0.66666700  0.41539253  1
  Nd  Nd5  1  0.66666700  0.33333300  0.25000000  1
  Nd  Nd6  1  0.66666700  0.33333300  0.58353152  1
  Nd  Nd7  1  0.66666700  0.33333300  0.91646848  1
  Cl  Cl8  1  0.30518724  0.91209332  0.25000000  1
  Cl  Cl9  1  0.31250639  0.92093227  0.57553454  1
  Cl  Cl10  1  0.31250639  0.92093227  0.92446546  1
  Cl  Cl11  1  0.08790668  0.39309392  0.25000000  1
  Cl  Cl12  1  0.07906773  0.39157413  0.57553454  1
  Cl  Cl13  1  0.07906773  0.39157413  0.92446546  1
  Cl  Cl14  1  0.39155190  0.30380585  0.08592096  1
  Cl  Cl15  1  0.39155190  0.30380585  0.41407904  1
  Cl  Cl16  1  0.38257837  0.28200446  0.75000000  1
  Cl  Cl17  1  0.60690608  0.69481276  0.25000000  1
  Cl  Cl18  1  0.60842587  0.68749361  0.57553454  1
  Cl  Cl19  1  0.60842587  0.68749361  0.92446546  1
  Cl  Cl20  1  0.91225495  0.60844810  0.08592096  1
  Cl  Cl21  1  0.91225495  0.60844810  0.41407904  1
  Cl  Cl22  1  0.89942510  0.61742163  0.75000000  1
  Cl  Cl23  1  0.69619415  0.08774505  0.08592096  1
  Cl  Cl24  1  0.69619415  0.08774505  0.41407904  1
  Cl  Cl25  1  0.71799554  0.10057490  0.75000000  1
