# generated using pymatgen
data_Nb6Ni16Ge7
_symmetry_space_group_name_H-M   'P 1'
_cell_length_a   8.09435918
_cell_length_b   8.09451666
_cell_length_c   8.09510531
_cell_angle_alpha   59.99448025
_cell_angle_beta   59.99653928
_cell_angle_gamma   59.99393635
_symmetry_Int_Tables_number   1
_chemical_formula_structural   Nb6Ni16Ge7
_chemical_formula_sum   'Nb6 Ni16 Ge7'
_cell_volume   375.00021415
_cell_formula_units_Z   1
loop_
 _symmetry_equiv_pos_site_id
 _symmetry_equiv_pos_as_xyz
  1  'x, y, z'
loop_
 _atom_site_type_symbol
 _atom_site_label
 _atom_site_symmetry_multiplicity
 _atom_site_fract_x
 _atom_site_fract_y
 _atom_site_fract_z
 _atom_site_occupancy
  Nb  Nb0  1  0.80103444  0.80103520  0.19897156  1
  Nb  Nb1  1  0.80103632  0.19896165  0.80102787  1
  Nb  Nb2  1  0.19895907  0.19896175  0.80105237  1
  Nb  Nb3  1  0.19894320  0.80105939  0.19897100  1
  Nb  Nb4  1  0.19897851  0.80101866  0.80101094  1
  Nb  Nb5  1  0.80105747  0.19895047  0.19897167  1
  Ni  Ni6  1  0.61719658  0.14834186  0.61722675  1
  Ni  Ni7  1  0.49753505  0.16748768  0.16747831  1
  Ni  Ni8  1  0.38279347  0.38277782  0.85165361  1
  Ni  Ni9  1  0.83247315  0.83247126  0.50259311  1
  Ni  Ni10  1  0.16748487  0.16748780  0.49753655  1
  Ni  Ni11  1  0.83249689  0.50254053  0.83246414  1
  Ni  Ni12  1  0.16747076  0.49755021  0.16748073  1
  Ni  Ni13  1  0.61720881  0.61720614  0.14835778  1
  Ni  Ni14  1  0.16751372  0.16751623  0.16749692  1
  Ni  Ni15  1  0.38277862  0.85165667  0.38276434  1
  Ni  Ni16  1  0.61719413  0.61720331  0.61721324  1
  Ni  Ni17  1  0.85165094  0.38277241  0.38278407  1
  Ni  Ni18  1  0.38280180  0.38278486  0.38278423  1
  Ni  Ni19  1  0.83249236  0.83250306  0.83247966  1
  Ni  Ni20  1  0.14835227  0.61720805  0.61721098  1
  Ni  Ni21  1  0.50252588  0.83251258  0.83247921  1
  Ge  Ge22  1  -0.00003381  0.50003163  0.50003664  1
  Ge  Ge23  1  0.50003381  -0.00002755  0.50001125  1
  Ge  Ge24  1  0.50000607  0.50000944  0.50001471  1
  Ge  Ge25  1  -0.00005381  0.50003025  -0.00003937  1
  Ge  Ge26  1  0.50003074  0.99995275  -0.00001756  1
  Ge  Ge27  1  0.50005748  0.50002935  -0.00002872  1
  Ge  Ge28  1  -0.00001880  -0.00003348  0.50001401  1
