# generated using pymatgen
data_SiO2
_symmetry_space_group_name_H-M   'P 1'
_cell_length_a   13.38371302
_cell_length_b   13.38371384
_cell_length_c   20.85589095
_cell_angle_alpha   90.00000000
_cell_angle_beta   90.00000000
_cell_angle_gamma   116.84496116
_symmetry_Int_Tables_number   1
_chemical_formula_structural   SiO2
_chemical_formula_sum   'Si56 O112'
_cell_volume   3333.18692566
_cell_formula_units_Z   56
loop_
 _symmetry_equiv_pos_site_id
 _symmetry_equiv_pos_as_xyz
  1  'x, y, z'
loop_
 _atom_site_type_symbol
 _atom_site_label
 _atom_site_symmetry_multiplicity
 _atom_site_fract_x
 _atom_site_fract_y
 _atom_site_fract_z
 _atom_site_occupancy
  Si  Si0  1  0.54874688  0.45125312  0.30819902  1
  Si  Si1  1  0.04874688  0.95125312  0.69180098  1
  Si  Si2  1  0.55869436  0.81507949  0.93605013  1
  Si  Si3  1  0.31507949  0.05869436  0.93605013  1
  Si  Si4  1  0.22197336  0.35561389  0.18480343  1
  Si  Si5  1  0.05048839  0.94951161  0.94586357  1
  Si  Si6  1  0.52820160  0.47179840  0.81890933  1
  Si  Si7  1  0.36405015  0.86405015  0.87631605  1
  Si  Si8  1  0.02820160  0.97179840  0.18109067  1
  Si  Si9  1  0.13594985  0.63594985  0.87631605  1
  Si  Si10  1  0.97179840  0.02820160  0.81890933  1
  Si  Si11  1  0.18284317  0.43172084  0.69287234  1
  Si  Si12  1  0.35561389  0.22197336  0.81519657  1
  Si  Si13  1  0.43172084  0.18284317  0.30712766  1
  Si  Si14  1  0.27802664  0.14438611  0.18480343  1
  Si  Si15  1  0.31715683  0.06827916  0.69287234  1
  Si  Si16  1  0.47179840  0.52820160  0.18109067  1
  Si  Si17  1  0.64438611  0.77802664  0.18480343  1
  Si  Si18  1  0.13437760  0.63437760  0.72369784  1
  Si  Si19  1  0.64512522  0.78058780  0.43100735  1
  Si  Si20  1  0.85561389  0.72197336  0.18480343  1
  Si  Si21  1  0.86562240  0.36562240  0.27630216  1
  Si  Si22  1  0.06827916  0.31715683  0.30712766  1
  Si  Si23  1  0.72197336  0.85561389  0.81519657  1
  Si  Si24  1  0.81507949  0.55869436  0.06394987  1
  Si  Si25  1  0.46645615  0.53354385  0.43217735  1
  Si  Si26  1  0.68284317  0.93172084  0.30712766  1
  Si  Si27  1  0.68492051  0.94130564  0.06394987  1
  Si  Si28  1  0.21941220  0.35487478  0.43100735  1
  Si  Si29  1  0.96645615  0.03354385  0.56782265  1
  Si  Si30  1  0.55048839  0.44951161  0.05413643  1
  Si  Si31  1  0.77802664  0.64438611  0.81519657  1
  Si  Si32  1  0.14438611  0.27802664  0.81519657  1
  Si  Si33  1  0.28058780  0.14512522  0.43100735  1
  Si  Si34  1  0.94130564  0.68492051  0.93605013  1
  Si  Si35  1  0.78058780  0.64512522  0.56899265  1
  Si  Si36  1  0.95125312  0.04874688  0.30819902  1
  Si  Si37  1  0.05869436  0.31507949  0.06394987  1
  Si  Si38  1  0.93172084  0.68284317  0.69287234  1
  Si  Si39  1  0.53354385  0.46645615  0.56782265  1
  Si  Si40  1  0.44130564  0.18492051  0.06394987  1
  Si  Si41  1  0.56827916  0.81715683  0.69287234  1
  Si  Si42  1  0.81715683  0.56827916  0.30712766  1
  Si  Si43  1  0.85487478  0.71941220  0.43100735  1
  Si  Si44  1  0.86405015  0.36405015  0.12368395  1
  Si  Si45  1  0.44951161  0.55048839  0.94586357  1
  Si  Si46  1  0.35487478  0.21941220  0.56899265  1
  Si  Si47  1  0.71941220  0.85487478  0.56899265  1
  Si  Si48  1  0.63437760  0.13437760  0.27630216  1
  Si  Si49  1  0.03354385  0.96645615  0.43217735  1
  Si  Si50  1  0.63594985  0.13594985  0.12368395  1
  Si  Si51  1  0.14512522  0.28058780  0.56899265  1
  Si  Si52  1  0.36562240  0.86562240  0.72369784  1
  Si  Si53  1  0.18492051  0.44130564  0.93605013  1
  Si  Si54  1  0.94951161  0.05048839  0.05413643  1
  Si  Si55  1  0.45125312  0.54874688  0.69180098  1
  O  O56  1  0.36063747  0.97316631  0.69065040  1
  O  O57  1  0.64838066  0.03341443  0.09046790  1
  O  O58  1  0.49502441  0.31750944  0.30112484  1
  O  O59  1  0.52230581  0.47769419  0.12575524  1
  O  O60  1  0.25000000  0.25000000  0.57661560  1
  O  O61  1  0.00136599  0.99863401  0.74884497  1
  O  O62  1  0.99502441  0.81750944  0.69887516  1
  O  O63  1  0.52683369  0.13936253  0.30934960  1
  O  O64  1  0.97316631  0.36063747  0.30934960  1
  O  O65  1  0.33608148  0.47252763  0.17562635  1
  O  O66  1  0.47252763  0.33608148  0.82437365  1
  O  O67  1  0.16331890  0.34874222  0.88089810  1
  O  O68  1  0.50178068  0.68429316  0.95593635  1
  O  O69  1  0.88802473  0.38802473  0.19981324  1
  O  O70  1  0.75000000  0.25000000  0.11296222  1
  O  O71  1  0.02683369  0.63936253  0.69065040  1
  O  O72  1  0.36236782  0.14584776  0.37381349  1
  O  O73  1  0.14838066  0.53341443  0.90953210  1
  O  O74  1  0.65125778  0.83668110  0.88089810  1
  O  O75  1  0.66391852  0.52747237  0.82437365  1
  O  O76  1  0.99863401  0.00136599  0.25115503  1
  O  O77  1  0.86777702  0.65182904  0.24583399  1
  O  O78  1  0.15741195  0.34258805  0.50000000  1
  O  O79  1  0.49821932  0.31570684  0.04406365  1
  O  O80  1  0.63936253  0.02683369  0.30934960  1
  O  O81  1  0.47316631  0.86063747  0.69065040  1
  O  O82  1  0.63763218  0.85415224  0.62618651  1
  O  O83  1  0.38691143  0.11308857  0.00000000  1
  O  O84  1  0.65182904  0.86777702  0.75416601  1
  O  O85  1  0.31570684  0.49821932  0.95593635  1
  O  O86  1  0.47608268  0.33052911  0.57280390  1
  O  O87  1  0.81570684  0.99821932  0.04406365  1
  O  O88  1  0.47769419  0.52230581  0.87424476  1
  O  O89  1  0.86063747  0.47316631  0.30934960  1
  O  O90  1  0.35161934  0.96658557  0.90953210  1
  O  O91  1  0.14584776  0.36236782  0.62618651  1
  O  O92  1  0.63222298  0.84817096  0.24583399  1
  O  O93  1  0.68249056  0.50497559  0.30112484  1
  O  O94  1  0.85161934  0.46658557  0.09046790  1
  O  O95  1  0.34817096  0.13222298  0.24583399  1
  O  O96  1  0.98448023  0.01551977  0.37637355  1
  O  O97  1  0.35415224  0.13763218  0.62618651  1
  O  O98  1  0.84258805  0.65741195  0.50000000  1
  O  O99  1  0.02391732  0.16947089  0.57280390  1
  O  O100  1  0.97608268  0.83052911  0.42719610  1
  O  O101  1  0.02747237  0.16391852  0.82437365  1
  O  O102  1  0.86236782  0.64584776  0.62618651  1
  O  O103  1  0.00000000  0.00000000  0.50000000  1
  O  O104  1  0.50136599  0.49863401  0.25115503  1
  O  O105  1  0.48448023  0.51551977  0.62362645  1
  O  O106  1  0.13936253  0.52683369  0.69065040  1
  O  O107  1  0.68429316  0.50178068  0.04406365  1
  O  O108  1  0.85415224  0.63763218  0.37381349  1
  O  O109  1  0.25000000  0.25000000  0.19693582  1
  O  O110  1  0.31750944  0.49502441  0.69887516  1
  O  O111  1  0.25000000  0.75000000  0.71188448  1
  O  O112  1  0.25000000  0.75000000  0.88703778  1
  O  O113  1  0.96658557  0.35161934  0.09046790  1
  O  O114  1  0.64584776  0.86236782  0.37381349  1
  O  O115  1  0.66331890  0.84874222  0.11910190  1
  O  O116  1  0.49863401  0.50136599  0.74884497  1
  O  O117  1  0.83052911  0.97608268  0.57280390  1
  O  O118  1  0.75000000  0.75000000  0.19693582  1
  O  O119  1  0.50497559  0.68249056  0.69887516  1
  O  O120  1  0.36777702  0.15182904  0.75416601  1
  O  O121  1  0.51551977  0.48448023  0.37637355  1
  O  O122  1  0.25000000  0.25000000  0.80306418  1
  O  O123  1  0.46658557  0.85161934  0.90953210  1
  O  O124  1  0.52747237  0.66391852  0.17562635  1
  O  O125  1  0.50000000  0.50000000  0.50000000  1
  O  O126  1  0.34258805  0.15741195  0.50000000  1
  O  O127  1  0.00000000  0.00000000  0.00000000  1
  O  O128  1  0.33668110  0.15125778  0.88089810  1
  O  O129  1  0.75000000  0.75000000  0.57661560  1
  O  O130  1  0.83608148  0.97252763  0.82437365  1
  O  O131  1  0.00497559  0.18249056  0.30112484  1
  O  O132  1  0.13763218  0.35415224  0.37381349  1
  O  O133  1  0.16947089  0.02391732  0.42719610  1
  O  O134  1  0.88691143  0.61308857  0.00000000  1
  O  O135  1  0.84874222  0.66331890  0.88089810  1
  O  O136  1  0.75000000  0.75000000  0.42338440  1
  O  O137  1  0.61308857  0.88691143  0.00000000  1
  O  O138  1  0.84817096  0.63222298  0.75416601  1
  O  O139  1  0.83668110  0.65125778  0.11910190  1
  O  O140  1  0.15125778  0.33668110  0.11910190  1
  O  O141  1  0.81750944  0.99502441  0.30112484  1
  O  O142  1  0.97252763  0.83608148  0.17562635  1
  O  O143  1  0.02230581  0.97769419  0.87424476  1
  O  O144  1  0.13222298  0.34817096  0.75416601  1
  O  O145  1  0.25000000  0.25000000  0.42338440  1
  O  O146  1  0.03341443  0.64838066  0.90953210  1
  O  O147  1  0.15182904  0.36777702  0.24583399  1
  O  O148  1  0.18249056  0.00497559  0.69887516  1
  O  O149  1  0.00178068  0.18429316  0.04406365  1
  O  O150  1  0.01551977  0.98448023  0.62362645  1
  O  O151  1  0.11197527  0.61197527  0.80018676  1
  O  O152  1  0.38802473  0.88802473  0.80018676  1
  O  O153  1  0.50000000  0.50000000  0.00000000  1
  O  O154  1  0.75000000  0.25000000  0.28811552  1
  O  O155  1  0.97769419  0.02230581  0.12575524  1
  O  O156  1  0.53341443  0.14838066  0.09046790  1
  O  O157  1  0.18429316  0.00178068  0.95593635  1
  O  O158  1  0.75000000  0.75000000  0.80306418  1
  O  O159  1  0.66947089  0.52391732  0.57280390  1
  O  O160  1  0.61197527  0.11197527  0.19981324  1
  O  O161  1  0.65741195  0.84258805  0.50000000  1
  O  O162  1  0.52391732  0.66947089  0.42719610  1
  O  O163  1  0.99821932  0.81570684  0.95593635  1
  O  O164  1  0.34874222  0.16331890  0.11910190  1
  O  O165  1  0.16391852  0.02747237  0.17562635  1
  O  O166  1  0.33052911  0.47608268  0.42719610  1
  O  O167  1  0.11308857  0.38691143  0.00000000  1
