# generated using pymatgen
data_SiO2
_symmetry_space_group_name_H-M   'P 1'
_cell_length_a   13.59775627
_cell_length_b   15.76747936
_cell_length_c   15.76747890
_cell_angle_alpha   79.28495714
_cell_angle_beta   64.45702658
_cell_angle_gamma   64.45702690
_symmetry_Int_Tables_number   1
_chemical_formula_structural   SiO2
_chemical_formula_sum   'Si48 O96'
_cell_volume   2752.05587725
_cell_formula_units_Z   48
loop_
 _symmetry_equiv_pos_site_id
 _symmetry_equiv_pos_as_xyz
  1  'x, y, z'
loop_
 _atom_site_type_symbol
 _atom_site_label
 _atom_site_symmetry_multiplicity
 _atom_site_fract_x
 _atom_site_fract_y
 _atom_site_fract_z
 _atom_site_occupancy
  Si  Si0  1  0.07873056  0.00000046  0.84254876  1
  Si  Si1  1  0.06415453  0.51966509  0.08176814  1
  Si  Si2  1  0.66559715  0.48032960  0.91822387  1
  Si  Si3  1  0.28014027  0.69813720  0.45819598  1
  Si  Si4  1  0.41617665  0.51967005  0.91821707  1
  Si  Si5  1  0.41927727  0.30707998  0.14743646  1
  Si  Si6  1  0.43647725  0.54179820  0.30186528  1
  Si  Si7  1  0.85406968  0.48033328  0.08176613  1
  Si  Si8  1  0.27365352  0.30707941  0.85256257  1
  Si  Si9  1  0.92126822  0.15745813  0.00000320  1
  Si  Si10  1  0.30736884  0.76484292  0.61719910  1
  Si  Si11  1  0.07542342  0.61718534  0.23514959  1
  Si  Si12  1  0.26166280  0.45820063  0.30186588  1
  Si  Si13  1  0.02172786  0.54179515  0.69813910  1
  Si  Si14  1  0.43328969  0.14744136  0.69291476  1
  Si  Si15  1  0.28014027  0.45819598  0.69813720  1
  Si  Si16  1  0.92777404  0.76484476  0.38280079  1
  Si  Si17  1  0.41617665  0.91821707  0.51967005  1
  Si  Si18  1  0.32103971  0.35793324  -0.00000006  1
  Si  Si19  1  0.41927727  0.14743646  0.30707998  1
  Si  Si20  1  0.07873056  0.84254876  0.00000046  1
  Si  Si21  1  0.32103971  -0.00000006  0.35793324  1
  Si  Si22  1  0.92126822  0.00000320  0.15745813  1
  Si  Si23  1  0.26181957  0.68490401  0.06856534  1
  Si  Si24  1  0.68943723  0.38280821  0.23515760  1
  Si  Si25  1  0.67896429  0.00000393  0.64206130  1
  Si  Si26  1  0.07542342  0.23514959  0.61718534  1
  Si  Si27  1  0.66961653  0.06857539  0.31509652  1
  Si  Si28  1  0.26166280  0.30186588  0.45820063  1
  Si  Si29  1  0.87377417  0.69292197  0.85256664  1
  Si  Si30  1  0.02172786  0.69813910  0.54179515  1
  Si  Si31  1  0.27365352  0.85256257  0.30707941  1
  Si  Si32  1  0.66961653  0.31509652  0.06857539  1
  Si  Si33  1  0.68943723  0.23515760  0.38280821  1
  Si  Si34  1  0.92777404  0.38280079  0.76484476  1
  Si  Si35  1  0.26181957  0.06856534  0.68490401  1
  Si  Si36  1  0.67896429  0.64206130  0.00000393  1
  Si  Si37  1  0.01528608  0.93143307  0.31508988  1
  Si  Si38  1  0.06415453  0.08176814  0.51966509  1
  Si  Si39  1  0.05326123  0.68491583  0.93143577  1
  Si  Si40  1  0.30736884  0.61719910  0.76484292  1
  Si  Si41  1  0.85406968  0.08176613  0.48033328  1
  Si  Si42  1  0.43328969  0.69291476  0.14744136  1
  Si  Si43  1  0.01528608  0.31508988  0.93143307  1
  Si  Si44  1  0.66559715  0.91822387  0.48032960  1
  Si  Si45  1  0.87377417  0.85256664  0.69292197  1
  Si  Si46  1  0.05326123  0.93143577  0.68491583  1
  Si  Si47  1  0.43647725  0.30186528  0.54179820  1
  O  O48  1  0.18019782  0.05279911  0.42118103  1
  O  O49  1  0.98338743  0.09224877  0.90775306  1
  O  O50  1  0.98003514  0.69936204  0.45923252  1
  O  O51  1  0.02172623  0.77635351  0.98745079  1
  O  O52  1  0.38724359  0.82603321  0.56595117  1
  O  O53  1  0.92118743  0.99291519  0.40953371  1
  O  O54  1  0.38925516  0.61980877  0.38018150  1
  O  O55  1  0.94797259  0.58941488  0.80286076  1
  O  O56  1  0.16368561  0.49999394  0.67262050  1
  O  O57  1  0.99081798  0.98745508  0.22366091  1
  O  O58  1  0.55269717  0.49999502  0.89460863  1
  O  O59  1  0.16156675  0.16795918  0.67110861  1
  O  O60  1  0.34180145  0.29191594  0.92063029  1
  O  O61  1  0.78551601  0.01253824  0.22366578  1
  O  O62  1  0.76702006  0.05278904  0.57883456  1
  O  O63  1  0.16730685  0.67112465  0.83205306  1
  O  O64  1  0.78671822  0.43405306  0.82602767  1
  O  O65  1  0.92118743  0.40953371  0.99291519  1
  O  O66  1  0.18019782  0.42118103  0.05279911  1
  O  O67  1  0.95146128  0.30484872  0.69514628  1
  O  O68  1  0.55434285  0.07937354  0.70807861  1
  O  O69  1  0.32059192  0.69935966  0.54076734  1
  O  O70  1  0.78551601  0.22366578  0.01253824  1
  O  O71  1  0.98003514  0.45923252  0.69936204  1
  O  O72  1  0.93629366  0.70276873  0.91525271  1
  O  O73  1  0.33631663  0.32738347  0.49999499  1
  O  O74  1  0.35341003  0.69514607  0.69514607  1
  O  O75  1  0.08587606  0.99292168  0.59047020  1
  O  O76  1  0.20193811  0.01254728  0.77634176  1
  O  O77  1  0.33631663  0.49999499  0.32738347  1
  O  O78  1  0.93629366  0.91525271  0.70276873  1
  O  O79  1  0.34023928  0.19713764  0.41058683  1
  O  O80  1  0.55434285  0.70807861  0.07937354  1
  O  O81  1  0.87374542  0.77118902  0.77118902  1
  O  O82  1  0.00064561  0.32887528  0.83204147  1
  O  O83  1  0.98338743  0.90775306  0.09224877  1
  O  O84  1  0.36630127  0.29190269  0.07936537  1
  O  O85  1  0.35503982  0.22881262  0.77118722  1
  O  O86  1  0.77923817  0.43405601  0.17396991  1
  O  O87  1  0.02172623  0.98745079  0.77635351  1
  O  O88  1  0.76702006  0.57883456  0.05278904  1
  O  O89  1  0.78671822  0.82602767  0.43405306  1
  O  O90  1  0.46261329  0.58940702  0.19713675  1
  O  O91  1  0.34023928  0.41058683  0.19713764  1
  O  O92  1  0.73754996  0.92062705  0.70809156  1
  O  O93  1  0.66927810  0.40952834  0.00708378  1
  O  O94  1  0.38925516  0.38018150  0.61980877  1
  O  O95  1  0.94797259  0.80286076  0.58941488  1
  O  O96  1  0.10887134  0.90775075  0.90775075  1
  O  O97  1  0.46261329  0.19713675  0.58940702  1
  O  O98  1  0.36630127  0.07936537  0.29190269  1
  O  O99  1  0.04679150  0.56594090  0.17396835  1
  O  O100  1  0.00064561  0.83204147  0.32887528  1
  O  O101  1  0.23055675  0.38018924  0.38018924  1
  O  O102  1  0.14844307  0.91524436  0.29723058  1
  O  O103  1  0.55433568  0.29722553  0.08475300  1
  O  O104  1  0.36091151  0.08476009  0.70276633  1
  O  O105  1  0.32364283  0.00708663  0.59046762  1
  O  O106  1  0.38724359  0.56595117  0.82603321  1
  O  O107  1  0.94730206  0.49999708  0.10538746  1
  O  O108  1  0.20193811  0.77634176  0.01254728  1
  O  O109  1  0.16730685  0.83205306  0.67112465  1
  O  O110  1  0.14844307  0.29723058  0.91524436  1
  O  O111  1  0.99081798  0.22366091  0.98745508  1
  O  O112  1  0.95146128  0.69514628  0.30484872  1
  O  O113  1  0.66927810  0.00708378  0.40952834  1
  O  O114  1  0.36091151  0.70276633  0.08476009  1
  O  O115  1  0.67048992  0.16796280  0.32887969  1
  O  O116  1  0.32059192  0.54076734  0.69935966  1
  O  O117  1  0.56074063  0.30063105  0.45923754  1
  O  O118  1  0.67048992  0.32887969  0.16796280  1
  O  O119  1  0.65415175  0.57882245  0.94721790  1
  O  O120  1  0.08587606  0.59047020  0.99292168  1
  O  O121  1  0.77923817  0.17396991  0.43405601  1
  O  O122  1  0.94730206  0.10538746  0.49999708  1
  O  O123  1  0.24919752  0.41058345  0.80286557  1
  O  O124  1  0.41616935  0.22881671  0.22881671  1
  O  O125  1  0.73754996  0.70809156  0.92062705  1
  O  O126  1  0.24919752  0.80286557  0.41058345  1
  O  O127  1  0.16368561  0.67262050  0.49999394  1
  O  O128  1  0.04679150  0.17396835  0.56594090  1
  O  O129  1  0.74371196  0.30486111  0.30486111  1
  O  O130  1  0.32364283  0.59046762  0.00708663  1
  O  O131  1  0.34180145  0.92063029  0.29191594  1
  O  O132  1  0.39862389  0.94720286  0.42117754  1
  O  O133  1  0.39862389  0.42117754  0.94720286  1
  O  O134  1  0.13863437  0.30062896  0.54076741  1
  O  O135  1  0.56074063  0.45923754  0.30063105  1
  O  O136  1  0.13863437  0.54076741  0.30062896  1
  O  O137  1  0.35503982  0.77118722  0.22881262  1
  O  O138  1  0.55433568  0.08475300  0.29722553  1
  O  O139  1  0.99094625  0.61981480  0.61981480  1
  O  O140  1  0.65415175  0.94721790  0.57882245  1
  O  O141  1  0.55269717  0.89460863  0.49999502  1
  O  O142  1  0.16156675  0.67110861  0.16795918  1
  O  O143  1  0.92435531  0.09226157  0.09226157  1
