# generated using pymatgen
data_Cs2UTa6(Cl5O)3
_symmetry_space_group_name_H-M   'P 1'
_cell_length_a   9.24160621
_cell_length_b   9.24160650
_cell_length_c   17.30114655
_cell_angle_alpha   90.00000000
_cell_angle_beta   90.00000000
_cell_angle_gamma   119.99999892
_symmetry_Int_Tables_number   1
_chemical_formula_structural   Cs2UTa6(Cl5O)3
_chemical_formula_sum   'Cs4 U2 Ta12 Cl30 O6'
_cell_volume   1279.67726163
_cell_formula_units_Z   2
loop_
 _symmetry_equiv_pos_site_id
 _symmetry_equiv_pos_as_xyz
  1  'x, y, z'
loop_
 _atom_site_type_symbol
 _atom_site_label
 _atom_site_symmetry_multiplicity
 _atom_site_fract_x
 _atom_site_fract_y
 _atom_site_fract_z
 _atom_site_occupancy
  Cs  Cs0  1  0.33333300  0.66666700  0.45388591  1
  Cs  Cs1  1  0.66666700  0.33333300  0.95388591  1
  Cs  Cs2  1  0.33333300  0.66666700  0.04611409  1
  Cs  Cs3  1  0.66666700  0.33333300  0.54611409  1
  U  U4  1  0.33333300  0.66666700  0.75000000  1
  U  U5  1  0.66666700  0.33333300  0.25000000  1
  Ta  Ta6  1  0.19102660  0.01338989  0.18282622  1
  Ta  Ta7  1  0.98661011  0.17763671  0.18282622  1
  Ta  Ta8  1  0.80897340  0.82236329  0.68282622  1
  Ta  Ta9  1  0.17763671  0.19102660  0.81717378  1
  Ta  Ta10  1  0.82236329  0.01338989  0.31717378  1
  Ta  Ta11  1  0.19102660  0.17763671  0.31717378  1
  Ta  Ta12  1  0.01338989  0.82236329  0.81717378  1
  Ta  Ta13  1  0.80897340  0.98661011  0.81717378  1
  Ta  Ta14  1  0.98661011  0.80897340  0.31717378  1
  Ta  Ta15  1  0.01338989  0.19102660  0.68282622  1
  Ta  Ta16  1  0.82236329  0.80897340  0.18282622  1
  Ta  Ta17  1  0.17763671  0.98661011  0.68282622  1
  Cl  Cl18  1  0.92723458  0.53102243  0.38395373  1
  Cl  Cl19  1  0.53102243  0.92723458  0.88395373  1
  Cl  Cl20  1  0.53102243  0.60378785  0.61604627  1
  Cl  Cl21  1  0.39621215  0.46897757  0.88395373  1
  Cl  Cl22  1  0.20506391  0.98480824  0.41392851  1
  Cl  Cl23  1  0.07276542  0.46897757  0.61604627  1
  Cl  Cl24  1  0.77974433  0.98480824  0.08607149  1
  Cl  Cl25  1  0.98480824  0.20506391  0.91392851  1
  Cl  Cl26  1  0.20506391  0.22025567  0.08607149  1
  Cl  Cl27  1  0.98480824  0.77974433  0.58607149  1
  Cl  Cl28  1  0.22025567  0.20506391  0.58607149  1
  Cl  Cl29  1  0.01519176  0.79493609  0.08607149  1
  Cl  Cl30  1  0.21252565  0.42505130  0.25000000  1
  Cl  Cl31  1  0.60378785  0.53102243  0.11604627  1
  Cl  Cl32  1  0.22025567  0.01519176  0.91392851  1
  Cl  Cl33  1  0.60378785  0.07276542  0.38395373  1
  Cl  Cl34  1  0.57494870  0.78747435  0.25000000  1
  Cl  Cl35  1  0.39621215  0.92723458  0.61604627  1
  Cl  Cl36  1  0.77974433  0.79493609  0.41392851  1
  Cl  Cl37  1  0.79493609  0.01519176  0.58607149  1
  Cl  Cl38  1  0.07276542  0.60378785  0.88395373  1
  Cl  Cl39  1  0.46897757  0.07276542  0.11604627  1
  Cl  Cl40  1  0.42505130  0.21252565  0.75000000  1
  Cl  Cl41  1  0.01519176  0.22025567  0.41392851  1
  Cl  Cl42  1  0.78747435  0.57494870  0.75000000  1
  Cl  Cl43  1  0.92723458  0.39621215  0.11604627  1
  Cl  Cl44  1  0.21252565  0.78747435  0.25000000  1
  Cl  Cl45  1  0.78747435  0.21252565  0.75000000  1
  Cl  Cl46  1  0.79493609  0.77974433  0.91392851  1
  Cl  Cl47  1  0.46897757  0.39621215  0.38395373  1
  O  O48  1  0.81192822  0.18807178  0.25000000  1
  O  O49  1  0.37614357  0.18807178  0.25000000  1
  O  O50  1  0.18807178  0.37614357  0.75000000  1
  O  O51  1  0.81192822  0.62385643  0.25000000  1
  O  O52  1  0.62385643  0.81192822  0.75000000  1
  O  O53  1  0.18807178  0.81192822  0.75000000  1
