# generated using pymatgen
data_Sc11Nb3O24
_symmetry_space_group_name_H-M   'P 1'
_cell_length_a   12.27208716
_cell_length_b   7.94544434
_cell_length_c   7.98355548
_cell_angle_alpha   71.96527393
_cell_angle_beta   49.66114642
_cell_angle_gamma   49.58482512
_symmetry_Int_Tables_number   1
_chemical_formula_structural   Sc11Nb3O24
_chemical_formula_sum   'Sc11 Nb3 O24'
_cell_volume   443.56493211
_cell_formula_units_Z   1
loop_
 _symmetry_equiv_pos_site_id
 _symmetry_equiv_pos_as_xyz
  1  'x, y, z'
loop_
 _atom_site_type_symbol
 _atom_site_label
 _atom_site_symmetry_multiplicity
 _atom_site_fract_x
 _atom_site_fract_y
 _atom_site_fract_z
 _atom_site_occupancy
  Sc  Sc0  1  0.07274036  0.32104614  0.14642583  1
  Sc  Sc1  1  0.10403382  0.60904559  0.32752921  1
  Sc  Sc2  1  0.28096336  0.13844721  0.61655349  1
  Sc  Sc3  1  0.21024190  0.85946053  0.39295218  1
  Sc  Sc4  1  0.57392489  0.32133886  0.13402300  1
  Sc  Sc5  1  0.60735608  0.61090822  0.32426480  1
  Sc  Sc6  1  0.42665120  0.67899575  0.85969535  1
  Sc  Sc7  1  0.78953594  0.13925161  0.60923459  1
  Sc  Sc8  1  0.71994687  0.85225528  0.38424389  1
  Sc  Sc9  1  0.89705496  0.38905398  0.67466537  1
  Sc  Sc10  1  0.92112081  0.68446963  0.85798107  1
  Nb  Nb11  1  0.99338583  0.00742577  0.00333443  1
  Nb  Nb12  1  0.49550598  0.99879150  0.01256367  1
  Nb  Nb13  1  0.39774298  0.38628516  0.67535930  1
  O  O14  1  0.08795561  0.04664078  0.68509678  1
  O  O15  1  0.27400652  0.31644784  0.08758568  1
  O  O16  1  0.08847712  0.41943924  0.58712216  1
  O  O17  1  0.13516193  0.09373319  0.95092504  1
  O  O18  1  0.00750608  0.82199641  0.58066429  1
  O  O19  1  0.32990614  0.58357126  0.17904192  1
  O  O20  1  0.17766614  0.42128069  0.81948699  1
  O  O21  1  0.48935834  0.18566037  0.42602323  1
  O  O22  1  0.36730441  0.90553994  0.04662098  1
  O  O23  1  0.40744004  0.57379110  0.43413876  1
  O  O24  1  0.23473829  0.67590590  0.88973303  1
  O  O25  1  0.57500885  0.06975480  0.68286748  1
  O  O26  1  0.41336842  0.95195522  0.31643245  1
  O  O27  1  0.76827503  0.31671701  0.09723374  1
  O  O28  1  0.58526962  0.41589625  0.58479139  1
  O  O29  1  0.63588050  0.09102734  0.94994554  1
  O  O30  1  0.51023182  0.81827776  0.57683772  1
  O  O31  1  0.83236514  0.57937457  0.17392666  1
  O  O32  1  0.67147429  0.41655427  0.81870443  1
  O  O33  1  0.99481063  0.17623152  0.41845302  1
  O  O34  1  0.86508180  0.90586637  0.04793435  1
  O  O35  1  0.91262505  0.58014250  0.41716263  1
  O  O36  1  0.72698179  0.68877678  0.90086946  1
  O  O37  1  0.91890144  0.94864365  0.30957610  1
