# generated using pymatgen
data_LaFe5(GeO5)3
_symmetry_space_group_name_H-M   'P 1'
_cell_length_a   7.76491079
_cell_length_b   12.57647014
_cell_length_c   12.57645213
_cell_angle_alpha   93.59387095
_cell_angle_beta   89.99986738
_cell_angle_gamma   89.99942385
_symmetry_Int_Tables_number   1
_chemical_formula_structural   LaFe5(GeO5)3
_chemical_formula_sum   'La4 Fe20 Ge12 O60'
_cell_volume   1225.74031236
_cell_formula_units_Z   4
loop_
 _symmetry_equiv_pos_site_id
 _symmetry_equiv_pos_as_xyz
  1  'x, y, z'
loop_
 _atom_site_type_symbol
 _atom_site_label
 _atom_site_symmetry_multiplicity
 _atom_site_fract_x
 _atom_site_fract_y
 _atom_site_fract_z
 _atom_site_occupancy
  La  La0  1  0.25001088  0.05649006  0.55649016  1
  La  La1  1  0.75001197  0.44350738  0.94350693  1
  La  La2  1  0.24999976  0.55649716  0.05648407  1
  La  La3  1  0.74999876  0.94351600  0.44351654  1
  Fe  Fe4  1  0.14959395  0.29230770  0.95984366  1
  Fe  Fe5  1  0.35044826  0.45983931  0.79231375  1
  Fe  Fe6  1  0.20273048  0.86265370  0.04942286  1
  Fe  Fe7  1  0.70274507  0.63736636  0.45055670  1
  Fe  Fe8  1  0.79726001  0.13734744  0.95057639  1
  Fe  Fe9  1  0.64953734  0.54012213  0.20766155  1
  Fe  Fe10  1  0.85049298  0.70769071  0.04018889  1
  Fe  Fe11  1  0.64956466  0.20767941  0.54014509  1
  Fe  Fe12  1  0.29725402  0.36264172  0.54943803  1
  Fe  Fe13  1  0.85051466  0.04017187  0.70768005  1
  Fe  Fe14  1  0.18732288  0.10651708  0.10651659  1
  Fe  Fe15  1  0.35050638  0.79232135  0.45983449  1
  Fe  Fe16  1  0.31266380  0.60651356  0.60651586  1
  Fe  Fe17  1  0.70273342  0.45055917  0.63736749  1
  Fe  Fe18  1  0.29724508  0.54944131  0.36263226  1
  Fe  Fe19  1  0.79726349  0.95057733  0.13734723  1
  Fe  Fe20  1  0.14950521  0.95981641  0.29231647  1
  Fe  Fe21  1  0.20272830  0.04942422  0.86265269  1
  Fe  Fe22  1  0.81267077  0.89348457  0.89348347  1
  Fe  Fe23  1  0.68733280  0.39350275  0.39350542  1
  Ge  Ge24  1  0.98523703  0.61725822  0.79258572  1
  Ge  Ge25  1  0.99999135  0.71839517  0.28160935  1
  Ge  Ge26  1  0.50000045  0.21838897  0.78160453  1
  Ge  Ge27  1  0.51475995  0.29258320  0.11725710  1
  Ge  Ge28  1  -0.00000586  0.28160970  0.71839677  1
  Ge  Ge29  1  0.49999738  0.78160070  0.21839679  1
  Ge  Ge30  1  0.01475613  0.38274161  0.20740960  1
  Ge  Ge31  1  0.51475353  0.11725626  0.29258699  1
  Ge  Ge32  1  0.48524336  0.88274639  0.70741827  1
  Ge  Ge33  1  0.48524156  0.70741811  0.88274515  1
  Ge  Ge34  1  0.98523727  0.79258424  0.61725982  1
  Ge  Ge35  1  0.01475710  0.20741091  0.38274327  1
  O  O36  1  0.46680830  0.65805382  0.49719648  1
  O  O37  1  0.75000400  0.07824412  0.57824989  1
  O  O38  1  0.32176719  0.97701186  0.74397008  1
  O  O39  1  0.98546789  0.60769104  0.93233949  1
  O  O40  1  0.18999811  0.58011554  0.74227630  1
  O  O41  1  0.72142706  0.00383308  0.00383376  1
  O  O42  1  0.27856745  0.99616705  0.99616606  1
  O  O43  1  0.01452657  0.06765690  0.39231023  1
  O  O44  1  0.80999787  0.25772457  0.41988239  1
  O  O45  1  0.22143010  0.49616590  0.49616226  1
  O  O46  1  0.68717559  0.14139554  0.81053555  1
  O  O47  1  0.68717083  0.81053457  0.14139830  1
  O  O48  1  0.24999838  0.92175177  0.42175265  1
  O  O49  1  0.94195924  0.74881098  0.74881252  1
  O  O50  1  0.53318798  0.50280475  0.34194263  1
  O  O51  1  0.67822732  0.02298891  0.25603120  1
  O  O52  1  0.03319388  0.15805307  0.99719511  1
  O  O53  1  0.69000551  0.91988566  0.75772635  1
  O  O54  1  0.31282200  0.18946606  0.85860538  1
  O  O55  1  0.03319125  0.99719632  0.15805060  1
  O  O56  1  0.81282864  0.31053088  0.64139518  1
  O  O57  1  0.54845191  0.35576523  0.80725737  1
  O  O58  1  0.30999468  0.08011728  0.24227362  1
  O  O59  1  0.17822022  0.24396596  0.47700990  1
  O  O60  1  0.18717085  0.35860467  0.68946693  1
  O  O61  1  0.98546959  0.93233873  0.60768951  1
  O  O62  1  0.67822234  0.25603223  0.02298978  1
  O  O63  1  0.17822047  0.47700904  0.24396198  1
  O  O64  1  0.75000358  0.57824943  0.07824251  1
  O  O65  1  0.82177149  0.75603618  0.52299050  1
  O  O66  1  0.18999475  0.74227531  0.58011762  1
  O  O67  1  0.48546511  0.56766147  0.89231067  1
  O  O68  1  0.55803184  0.24881146  0.24880818  1
  O  O69  1  0.96680349  0.84194912  0.00280368  1
  O  O70  1  0.05803150  0.25119049  0.25119058  1
  O  O71  1  0.45154647  0.19274449  0.64423247  1
  O  O72  1  0.04845426  0.69274507  0.14423715  1
  O  O73  1  0.04845976  0.14423928  0.69274276  1
  O  O74  1  0.53318883  0.34194393  0.50280542  1
  O  O75  1  0.18716230  0.68947137  0.35860036  1
  O  O76  1  0.46680843  0.49719465  0.65805466  1
  O  O77  1  0.30999724  0.24227667  0.08011645  1
  O  O78  1  0.01452871  0.39231040  0.06765634  1
  O  O79  1  0.80999835  0.41988132  0.25772388  1
  O  O80  1  0.32176535  0.74397008  0.97701125  1
  O  O81  1  0.24999950  0.42175268  0.92175289  1
  O  O82  1  0.31282441  0.85860273  0.18946591  1
  O  O83  1  0.81283141  0.64139851  0.31053017  1
  O  O84  1  0.96680830  0.00280390  0.84195011  1
  O  O85  1  0.51452820  0.10768938  0.43234177  1
  O  O86  1  0.77856768  0.50383616  0.50383569  1
  O  O87  1  0.69000218  0.75772694  0.91988522  1
  O  O88  1  0.95154165  0.85576613  0.30725568  1
  O  O89  1  0.54845565  0.80725812  0.35576897  1
  O  O90  1  0.51452342  0.43233819  0.10768567  1
  O  O91  1  0.45154638  0.64423022  0.19274328  1
  O  O92  1  0.44195889  0.75119018  0.75118911  1
  O  O93  1  0.95155016  0.30725620  0.85576388  1
  O  O94  1  0.48546695  0.89231062  0.56766148  1
  O  O95  1  0.82177438  0.52299160  0.75603414  1
