# generated using pymatgen
data_BaDy2ZnO5
_symmetry_space_group_name_H-M   'P 1'
_cell_length_a   5.76047013
_cell_length_b   7.14998842
_cell_length_c   12.44543829
_cell_angle_alpha   90.00000000
_cell_angle_beta   90.00000000
_cell_angle_gamma   90.00000000
_symmetry_Int_Tables_number   1
_chemical_formula_structural   BaDy2ZnO5
_chemical_formula_sum   'Ba4 Dy8 Zn4 O20'
_cell_volume   512.59393481
_cell_formula_units_Z   4
loop_
 _symmetry_equiv_pos_site_id
 _symmetry_equiv_pos_as_xyz
  1  'x, y, z'
loop_
 _atom_site_type_symbol
 _atom_site_label
 _atom_site_symmetry_multiplicity
 _atom_site_fract_x
 _atom_site_fract_y
 _atom_site_fract_z
 _atom_site_occupancy
  O  O0  1  0.25000000  0.42493002  0.60031323  1
  O  O1  1  0.75000000  0.57506998  0.39968677  1
  O  O2  1  0.75000000  0.92493002  0.89968677  1
  O  O3  1  0.25000000  0.07506998  0.10031323  1
  O  O4  1  0.00042244  0.85801741  0.27532894  1
  O  O5  1  0.50042244  0.14198259  0.72467106  1
  O  O6  1  0.99957756  0.35801741  0.22467106  1
  O  O7  1  0.49957756  0.64198259  0.77532894  1
  O  O8  1  0.99957756  0.14198259  0.72467106  1
  O  O9  1  0.49957756  0.85801741  0.27532894  1
  O  O10  1  0.00042244  0.64198259  0.77532894  1
  O  O11  1  0.50042244  0.35801741  0.22467106  1
  O  O12  1  0.49842026  0.66294436  0.06614781  1
  O  O13  1  0.99842026  0.33705564  0.93385219  1
  O  O14  1  0.50157974  0.16294436  0.43385219  1
  O  O15  1  0.00157974  0.83705564  0.56614781  1
  O  O16  1  0.99842026  0.16294436  0.43385219  1
  O  O17  1  0.49842026  0.83705564  0.56614781  1
  O  O18  1  0.00157974  0.66294436  0.06614781  1
  O  O19  1  0.50157974  0.33705564  0.93385219  1
  Zn  Zn20  1  0.25000000  0.80842681  0.14987593  1
  Zn  Zn21  1  0.75000000  0.19157319  0.85012407  1
  Zn  Zn22  1  0.75000000  0.30842681  0.35012407  1
  Zn  Zn23  1  0.25000000  0.69157319  0.64987593  1
  Ba  Ba24  1  0.75000000  0.07711743  0.10154745  1
  Ba  Ba25  1  0.75000000  0.42288257  0.60154745  1
  Ba  Ba26  1  0.25000000  0.57711743  0.39845255  1
  Ba  Ba27  1  0.25000000  0.92288257  0.89845255  1
  Dy  Dy28  1  0.25000000  0.39968685  0.07443614  1
  Dy  Dy29  1  0.75000000  0.61832291  0.20804243  1
  Dy  Dy30  1  0.75000000  0.88167709  0.70804243  1
  Dy  Dy31  1  0.25000000  0.11832291  0.29195757  1
  Dy  Dy32  1  0.75000000  0.60031315  0.92556386  1
  Dy  Dy33  1  0.75000000  0.89968685  0.42556386  1
  Dy  Dy34  1  0.25000000  0.10031315  0.57443614  1
  Dy  Dy35  1  0.25000000  0.38167709  0.79195757  1
