# generated using pymatgen
data_LiZr2(PO4)3
_symmetry_space_group_name_H-M   'P 1'
_cell_length_a   9.19461396
_cell_length_b   9.21232740
_cell_length_c   9.21232783
_cell_angle_alpha   58.71848219
_cell_angle_beta   58.39580194
_cell_angle_gamma   58.39580336
_symmetry_Int_Tables_number   1
_chemical_formula_structural   LiZr2(PO4)3
_chemical_formula_sum   'Li2 Zr4 P6 O24'
_cell_volume   532.86663371
_cell_formula_units_Z   2
loop_
 _symmetry_equiv_pos_site_id
 _symmetry_equiv_pos_as_xyz
  1  'x, y, z'
loop_
 _atom_site_type_symbol
 _atom_site_label
 _atom_site_symmetry_multiplicity
 _atom_site_fract_x
 _atom_site_fract_y
 _atom_site_fract_z
 _atom_site_occupancy
  Li  Li0  1  0.54474017  0.35633680  0.62811371  1
  Li  Li1  1  0.95525983  0.87188629  0.14366320  1
  Zr  Zr2  1  0.14237591  0.14370255  0.14321688  1
  Zr  Zr3  1  0.35762409  0.35678312  0.35629745  1
  Zr  Zr4  1  0.64267371  0.64414321  0.64474836  1
  Zr  Zr5  1  0.85732629  0.85525164  0.85585679  1
  P  P6  1  0.03930013  0.74830985  0.46045539  1
  P  P7  1  0.46069987  0.03954461  0.75169015  1
  P  P8  1  0.75000000  0.46250040  0.03749960  1
  P  P9  1  0.25000000  0.53718798  0.96281202  1
  P  P10  1  0.53854420  0.96061085  0.25249785  1
  P  P11  1  0.96145580  0.24750215  0.53938915  1
  O  O12  1  0.12034504  0.28795804  0.50608318  1
  O  O13  1  0.28472352  0.50682452  0.12459174  1
  O  O14  1  0.05995082  0.91196472  0.28091338  1
  O  O15  1  0.50432360  0.12560876  0.28571284  1
  O  O16  1  0.00259501  0.78601742  0.62237234  1
  O  O17  1  0.21228574  0.58223762  0.43829620  1
  O  O18  1  0.28771426  0.06170380  0.91776238  1
  O  O19  1  0.44004918  0.21908662  0.58803528  1
  O  O20  1  0.58368239  0.43675755  0.21042348  1
  O  O21  1  0.21527648  0.37540826  0.99317548  1
  O  O22  1  0.08293500  0.71469740  0.94499152  1
  O  O23  1  0.37965496  0.99391682  0.21204196  1
  O  O24  1  0.62362277  0.01579021  0.78334416  1
  O  O25  1  0.91631761  0.28957652  0.06324245  1
  O  O26  1  0.78262764  0.62806143  0.00298720  1
  O  O27  1  0.41706500  0.55500848  0.78530260  1
  O  O28  1  0.56330706  0.78903809  0.41908623  1
  O  O29  1  0.72304811  0.93178434  0.09169724  1
  O  O30  1  0.77695189  0.40830276  0.56821566  1
  O  O31  1  0.99567640  0.21428716  0.37439124  1
  O  O32  1  0.49740499  0.87762766  0.71398258  1
  O  O33  1  0.93669294  0.08091377  0.71096191  1
  O  O34  1  0.71737236  0.49701280  0.87193857  1
  O  O35  1  0.87637723  0.71665584  0.48420979  1
