# generated using pymatgen
data_Nb12TlTe16
_symmetry_space_group_name_H-M   'P 1'
_cell_length_a   10.82985384
_cell_length_b   10.82985357
_cell_length_c   14.65194927
_cell_angle_alpha   90.00000000
_cell_angle_beta   90.00000000
_cell_angle_gamma   120.00000089
_symmetry_Int_Tables_number   1
_chemical_formula_structural   Nb12TlTe16
_chemical_formula_sum   'Nb24 Tl2 Te32'
_cell_volume   1488.23397222
_cell_formula_units_Z   2
loop_
 _symmetry_equiv_pos_site_id
 _symmetry_equiv_pos_as_xyz
  1  'x, y, z'
loop_
 _atom_site_type_symbol
 _atom_site_label
 _atom_site_symmetry_multiplicity
 _atom_site_fract_x
 _atom_site_fract_y
 _atom_site_fract_z
 _atom_site_occupancy
  Nb  Nb0  1  0.10140633  0.49109870  0.06325526  1
  Nb  Nb1  1  0.10174054  0.49054729  0.31250000  1
  Nb  Nb2  1  0.10140633  0.49109870  0.56174474  1
  Nb  Nb3  1  0.10140368  0.49244559  0.81250000  1
  Nb  Nb4  1  0.38969237  0.89859367  0.06325526  1
  Nb  Nb5  1  0.38880675  0.89825946  0.31250000  1
  Nb  Nb6  1  0.39104190  0.89859632  0.81250000  1
  Nb  Nb7  1  0.38969237  0.89859367  0.56174474  1
  Nb  Nb8  1  0.50890130  0.61030763  0.06325526  1
  Nb  Nb9  1  0.50945271  0.61119325  0.31250000  1
  Nb  Nb10  1  0.50890130  0.61030763  0.56174474  1
  Nb  Nb11  1  0.50755441  0.60895810  0.81250000  1
  Nb  Nb12  1  0.48711272  0.38514743  0.18805507  1
  Nb  Nb13  1  0.48711272  0.38514743  0.43694493  1
  Nb  Nb14  1  0.48552542  0.38427508  0.68754177  1
  Nb  Nb15  1  0.48552542  0.38427508  0.93745823  1
  Nb  Nb16  1  0.61485257  0.10196529  0.43694493  1
  Nb  Nb17  1  0.61485257  0.10196529  0.18805507  1
  Nb  Nb18  1  0.61572492  0.10125035  0.68754177  1
  Nb  Nb19  1  0.61572492  0.10125035  0.93745823  1
  Nb  Nb20  1  0.89803471  0.51288728  0.18805507  1
  Nb  Nb21  1  0.89803471  0.51288728  0.43694493  1
  Nb  Nb22  1  0.89874965  0.51447458  0.68754177  1
  Nb  Nb23  1  0.89874965  0.51447458  0.93745823  1
  Tl  Tl24  1  0.00000000  0.00000000  0.67874396  1
  Tl  Tl25  1  0.00000000  0.00000000  0.94625604  1
  Te  Te26  1  0.06622512  0.73038560  0.06362681  1
  Te  Te27  1  0.06652756  0.72929858  0.31250000  1
  Te  Te28  1  0.06622512  0.73038560  0.56137319  1
  Te  Te29  1  0.06619394  0.73307930  0.81250000  1
  Te  Te30  1  0.33333300  0.66666700  0.18722898  1
  Te  Te31  1  0.33333300  0.66666700  0.43777102  1
  Te  Te32  1  0.33333300  0.66666700  0.68779123  1
  Te  Te33  1  0.33333300  0.66666700  0.93720877  1
  Te  Te34  1  0.26961440  0.33583952  0.06362681  1
  Te  Te35  1  0.27070142  0.33722898  0.31250000  1
  Te  Te36  1  0.26961440  0.33583952  0.56137319  1
  Te  Te37  1  0.26692070  0.33311464  0.81250000  1
  Te  Te38  1  0.66416048  0.93377488  0.06362681  1
  Te  Te39  1  0.66277102  0.93347244  0.31250000  1
  Te  Te40  1  0.66416048  0.93377488  0.56137319  1
  Te  Te41  1  0.66688536  0.93380606  0.81250000  1
  Te  Te42  1  0.34076857  0.06617453  0.18785802  1
  Te  Te43  1  0.34076857  0.06617453  0.43714198  1
  Te  Te44  1  0.34234481  0.06565540  0.68745777  1
  Te  Te45  1  0.34234481  0.06565540  0.93754223  1
  Te  Te46  1  0.72540595  0.65923143  0.43714198  1
  Te  Te47  1  0.72540595  0.65923143  0.18785802  1
  Te  Te48  1  0.72331059  0.65765519  0.68745777  1
  Te  Te49  1  0.72331059  0.65765519  0.93754223  1
  Te  Te50  1  0.66666700  0.33333300  0.06184484  1
  Te  Te51  1  0.66666700  0.33333300  0.31250000  1
  Te  Te52  1  0.66666700  0.33333300  0.81250000  1
  Te  Te53  1  0.66666700  0.33333300  0.56315516  1
  Te  Te54  1  0.93382547  0.27459405  0.18785802  1
  Te  Te55  1  0.93434460  0.27668941  0.68745777  1
  Te  Te56  1  0.93434460  0.27668941  0.93754223  1
  Te  Te57  1  0.93382547  0.27459405  0.43714198  1
