# generated using pymatgen
data_AlPO4
_symmetry_space_group_name_H-M   'P 1'
_cell_length_a   14.18972374
_cell_length_b   15.36385148
_cell_length_c   17.65133728
_cell_angle_alpha   90.00000000
_cell_angle_beta   90.00000000
_cell_angle_gamma   90.00000000
_symmetry_Int_Tables_number   1
_chemical_formula_structural   AlPO4
_chemical_formula_sum   'Al32 P32 O128'
_cell_volume   3848.14700149
_cell_formula_units_Z   32
loop_
 _symmetry_equiv_pos_site_id
 _symmetry_equiv_pos_as_xyz
  1  'x, y, z'
loop_
 _atom_site_type_symbol
 _atom_site_label
 _atom_site_symmetry_multiplicity
 _atom_site_fract_x
 _atom_site_fract_y
 _atom_site_fract_z
 _atom_site_occupancy
  Al  Al0  1  0.07795505  0.59944094  0.42653537  1
  Al  Al1  1  0.42204495  0.09944094  0.42653537  1
  Al  Al2  1  0.07795505  0.90055906  0.92653537  1
  Al  Al3  1  0.21428527  0.33963600  0.53947493  1
  Al  Al4  1  0.92204495  0.40055906  0.57346463  1
  Al  Al5  1  0.55461320  0.09752785  0.93407788  1
  Al  Al6  1  0.78571473  0.83963600  0.96052507  1
  Al  Al7  1  0.57795505  0.90055906  0.57346463  1
  Al  Al8  1  0.78571473  0.66036400  0.46052507  1
  Al  Al9  1  0.44538680  0.90247215  0.06592212  1
  Al  Al10  1  0.92204495  0.09944094  0.07346463  1
  Al  Al11  1  0.28571473  0.66036400  0.03947493  1
  Al  Al12  1  0.05461320  0.40247215  0.06592212  1
  Al  Al13  1  0.55536451  0.22673247  0.15990372  1
  Al  Al14  1  0.94463549  0.77326753  0.65990372  1
  Al  Al15  1  0.94463549  0.72673247  0.15990372  1
  Al  Al16  1  0.21428527  0.16036400  0.03947493  1
  Al  Al17  1  0.44463549  0.77326753  0.84009628  1
  Al  Al18  1  0.44538680  0.59752785  0.56592212  1
  Al  Al19  1  0.44463549  0.72673247  0.34009628  1
  Al  Al20  1  0.71428527  0.16036400  0.46052507  1
  Al  Al21  1  0.57795505  0.59944094  0.07346463  1
  Al  Al22  1  0.55461320  0.40247215  0.43407788  1
  Al  Al23  1  0.94538680  0.90247215  0.43407788  1
  Al  Al24  1  0.05536451  0.27326753  0.84009628  1
  Al  Al25  1  0.55536451  0.27326753  0.65990372  1
  Al  Al26  1  0.94538680  0.59752785  0.93407788  1
  Al  Al27  1  0.05536451  0.22673247  0.34009628  1
  Al  Al28  1  0.42204495  0.40055906  0.92653537  1
  Al  Al29  1  0.71428527  0.33963600  0.96052507  1
  Al  Al30  1  0.05461320  0.09752785  0.56592212  1
  Al  Al31  1  0.28571473  0.83963600  0.53947493  1
  P  P32  1  0.05990746  0.22671382  0.15780196  1
  P  P33  1  0.05990746  0.27328618  0.65780196  1
  P  P34  1  0.08044486  0.90039610  0.57580250  1
  P  P35  1  0.91955514  0.09960390  0.42419750  1
  P  P36  1  0.91955514  0.40039610  0.92419750  1
  P  P37  1  0.94740522  0.59633650  0.57127156  1
  P  P38  1  0.05259478  0.40366350  0.42872844  1
  P  P39  1  0.44009254  0.72671382  0.15780196  1
  P  P40  1  0.55259478  0.09633650  0.57127156  1
  P  P41  1  0.55990746  0.22671382  0.34219804  1
  P  P42  1  0.05259478  0.09633650  0.92872844  1
  P  P43  1  0.21526295  0.33870740  0.95582646  1
  P  P44  1  0.58044486  0.59960390  0.42419750  1
  P  P45  1  0.71526295  0.33870740  0.54417354  1
  P  P46  1  0.71526295  0.16129260  0.04417354  1
  P  P47  1  0.78473705  0.66129260  0.04417354  1
  P  P48  1  0.28473705  0.83870740  0.95582646  1
  P  P49  1  0.44740522  0.59633650  0.92872844  1
  P  P50  1  0.08044486  0.59960390  0.07580250  1
  P  P51  1  0.44740522  0.90366350  0.42872844  1
  P  P52  1  0.28473705  0.66129260  0.45582646  1
  P  P53  1  0.94740522  0.90366350  0.07127156  1
  P  P54  1  0.21526295  0.16129260  0.45582646  1
  P  P55  1  0.94009254  0.77328618  0.84219804  1
  P  P56  1  0.55259478  0.40366350  0.07127156  1
  P  P57  1  0.58044486  0.90039610  0.92419750  1
  P  P58  1  0.78473705  0.83870740  0.54417354  1
  P  P59  1  0.41955514  0.09960390  0.07580250  1
  P  P60  1  0.44009254  0.77328618  0.65780196  1
  P  P61  1  0.55990746  0.27328618  0.84219804  1
  P  P62  1  0.41955514  0.40039610  0.57580250  1
  P  P63  1  0.94009254  0.72671382  0.34219804  1
  O  O64  1  0.95083878  0.00851295  0.39662644  1
  O  O65  1  0.47019905  0.17771146  0.36625836  1
  O  O66  1  0.14624346  0.10229326  0.97348866  1
  O  O67  1  0.64624346  0.39770674  0.02651134  1
  O  O68  1  0.34673183  0.68441983  0.38762303  1
  O  O69  1  0.45441920  0.99532759  0.39390407  1
  O  O70  1  0.54916122  0.99148705  0.89662644  1
  O  O71  1  0.04558080  0.00467241  0.89390407  1
  O  O72  1  0.64662489  0.31309978  0.88121827  1
  O  O73  1  0.03168807  0.61354123  0.51805304  1
  O  O74  1  0.03168807  0.88645877  0.01805304  1
  O  O75  1  0.84104387  0.89393011  0.48716955  1
  O  O76  1  0.47019905  0.32228854  0.86625836  1
  O  O77  1  0.29958058  0.39138307  0.92706292  1
  O  O78  1  0.07361807  0.21861153  0.24317410  1
  O  O79  1  0.34673183  0.81558017  0.88762303  1
  O  O80  1  0.54907017  0.33711779  0.13555014  1
  O  O81  1  0.04932785  0.17628280  0.63709424  1
  O  O82  1  0.54932785  0.17628280  0.86290576  1
  O  O83  1  0.95067215  0.67628280  0.86290576  1
  O  O84  1  0.15326817  0.31558017  0.88762303  1
  O  O85  1  0.35375654  0.60229326  0.97348866  1
  O  O86  1  0.45092983  0.83711779  0.36444986  1
  O  O87  1  0.95092983  0.66288221  0.63555014  1
  O  O88  1  0.53898547  0.61824056  0.50331480  1
  O  O89  1  0.65326817  0.18441983  0.11237697  1
  O  O90  1  0.54916122  0.50851295  0.39662644  1
  O  O91  1  0.96101453  0.38175944  0.00331480  1
  O  O92  1  0.74729375  0.75617021  0.50463676  1
  O  O93  1  0.53898547  0.88175944  0.00331480  1
  O  O94  1  0.96831193  0.38645877  0.48194696  1
  O  O95  1  0.45067215  0.67628280  0.63709424  1
  O  O96  1  0.70041942  0.60861693  0.07293708  1
  O  O97  1  0.15895613  0.39393011  0.01283045  1
  O  O98  1  0.42638193  0.78138847  0.74317410  1
  O  O99  1  0.04907017  0.33711779  0.36444986  1
  O  O100  1  0.34104387  0.60606989  0.51283045  1
  O  O101  1  0.46101453  0.11824056  0.99668520  1
  O  O102  1  0.79958058  0.10861693  0.07293708  1
  O  O103  1  0.45300764  0.33108132  0.63285609  1
  O  O104  1  0.07361807  0.28138847  0.74317410  1
  O  O105  1  0.95441920  0.50467241  0.60609593  1
  O  O106  1  0.20041942  0.89138307  0.92706292  1
  O  O107  1  0.97019905  0.17771146  0.13374164  1
  O  O108  1  0.95300764  0.33108132  0.86714391  1
  O  O109  1  0.24729375  0.75617021  0.99536324  1
  O  O110  1  0.65326817  0.31558017  0.61237697  1
  O  O111  1  0.95441920  0.99532759  0.10609593  1
  O  O112  1  0.95067215  0.82371720  0.36290576  1
  O  O113  1  0.45083878  0.49148705  0.60337356  1
  O  O114  1  0.75270625  0.25617021  0.50463676  1
  O  O115  1  0.20041942  0.60861693  0.42706292  1
  O  O116  1  0.45067215  0.82371720  0.13709424  1
  O  O117  1  0.18842989  0.60110105  0.06994127  1
  O  O118  1  0.75270625  0.24382979  0.00463676  1
  O  O119  1  0.04558080  0.49532759  0.39390407  1
  O  O120  1  0.84104387  0.60606989  0.98716955  1
  O  O121  1  0.95300764  0.16891868  0.36714391  1
  O  O122  1  0.70041942  0.89138307  0.57293708  1
  O  O123  1  0.25270625  0.24382979  0.49536324  1
  O  O124  1  0.57361807  0.28138847  0.75682590  1
  O  O125  1  0.04699236  0.66891868  0.13285609  1
  O  O126  1  0.15326817  0.18441983  0.38762303  1
  O  O127  1  0.04932785  0.32371720  0.13709424  1
  O  O128  1  0.02980095  0.67771146  0.36625836  1
  O  O129  1  0.57361807  0.21861153  0.25682590  1
  O  O130  1  0.14624346  0.39770674  0.47348866  1
  O  O131  1  0.64624346  0.10229326  0.52651134  1
  O  O132  1  0.45441920  0.50467241  0.89390407  1
  O  O133  1  0.45300764  0.16891868  0.13285609  1
  O  O134  1  0.04916122  0.99148705  0.60337356  1
  O  O135  1  0.25270625  0.25617021  0.99536324  1
  O  O136  1  0.42638193  0.71861153  0.24317410  1
  O  O137  1  0.68842989  0.89889895  0.93005873  1
  O  O138  1  0.81157011  0.10110105  0.43005873  1
  O  O139  1  0.52980095  0.67771146  0.13374164  1
  O  O140  1  0.45083878  0.00851295  0.10337356  1
  O  O141  1  0.15895613  0.10606989  0.51283045  1
  O  O142  1  0.54699236  0.83108132  0.86714391  1
  O  O143  1  0.85337511  0.81309978  0.88121827  1
  O  O144  1  0.64662489  0.18690022  0.38121827  1
  O  O145  1  0.14662489  0.31309978  0.61878173  1
  O  O146  1  0.65895613  0.10606989  0.98716955  1
  O  O147  1  0.95092983  0.83711779  0.13555014  1
  O  O148  1  0.04916122  0.50851295  0.10337356  1
  O  O149  1  0.46831193  0.38645877  0.01805304  1
  O  O150  1  0.96101453  0.11824056  0.50331480  1
  O  O151  1  0.92638193  0.78138847  0.75682590  1
  O  O152  1  0.31157011  0.39889895  0.56994127  1
  O  O153  1  0.46831193  0.11354123  0.51805304  1
  O  O154  1  0.53168807  0.61354123  0.98194696  1
  O  O155  1  0.54558080  0.00467241  0.60609593  1
  O  O156  1  0.54932785  0.32371720  0.36290576  1
  O  O157  1  0.85375654  0.89770674  0.02651134  1
  O  O158  1  0.31157011  0.10110105  0.06994127  1
  O  O159  1  0.74729375  0.74382979  0.00463676  1
  O  O160  1  0.54907017  0.16288221  0.63555014  1
  O  O161  1  0.03898547  0.88175944  0.49668520  1
  O  O162  1  0.03898547  0.61824056  0.99668520  1
  O  O163  1  0.65895613  0.39393011  0.48716955  1
  O  O164  1  0.14662489  0.18690022  0.11878173  1
  O  O165  1  0.29958058  0.10861693  0.42706292  1
  O  O166  1  0.52980095  0.82228854  0.63374164  1
  O  O167  1  0.85337511  0.68690022  0.38121827  1
  O  O168  1  0.18842989  0.89889895  0.56994127  1
  O  O169  1  0.79958058  0.39138307  0.57293708  1
  O  O170  1  0.34104387  0.89393011  0.01283045  1
  O  O171  1  0.35337511  0.68690022  0.11878173  1
  O  O172  1  0.53168807  0.88645877  0.48194696  1
  O  O173  1  0.84673183  0.81558017  0.61237697  1
  O  O174  1  0.54558080  0.49532759  0.10609593  1
  O  O175  1  0.68842989  0.60110105  0.43005873  1
  O  O176  1  0.81157011  0.39889895  0.93005873  1
  O  O177  1  0.45092983  0.66288221  0.86444986  1
  O  O178  1  0.04699236  0.83108132  0.63285609  1
  O  O179  1  0.46101453  0.38175944  0.49668520  1
  O  O180  1  0.95083878  0.49148705  0.89662644  1
  O  O181  1  0.85375654  0.60229326  0.52651134  1
  O  O182  1  0.35337511  0.81309978  0.61878173  1
  O  O183  1  0.92638193  0.71861153  0.25682590  1
  O  O184  1  0.35375654  0.89770674  0.47348866  1
  O  O185  1  0.02980095  0.82228854  0.86625836  1
  O  O186  1  0.54699236  0.66891868  0.36714391  1
  O  O187  1  0.24729375  0.74382979  0.49536324  1
  O  O188  1  0.84673183  0.68441983  0.11237697  1
  O  O189  1  0.97019905  0.32228854  0.63374164  1
  O  O190  1  0.04907017  0.16288221  0.86444986  1
  O  O191  1  0.96831193  0.11354123  0.98194696  1
