# generated using pymatgen
data_Ce2SbO2
_symmetry_space_group_name_H-M   'P 1'
_cell_length_a   4.01067738
_cell_length_b   8.01944316
_cell_length_c   6.81909907
_cell_angle_alpha   106.11338052
_cell_angle_beta   106.07662160
_cell_angle_gamma   89.88238449
_symmetry_Int_Tables_number   1
_chemical_formula_structural   Ce2SbO2
_chemical_formula_sum   'Ce4 Sb2 O4'
_cell_volume   201.80288884
_cell_formula_units_Z   2
loop_
 _symmetry_equiv_pos_site_id
 _symmetry_equiv_pos_as_xyz
  1  'x, y, z'
loop_
 _atom_site_type_symbol
 _atom_site_label
 _atom_site_symmetry_multiplicity
 _atom_site_fract_x
 _atom_site_fract_y
 _atom_site_fract_z
 _atom_site_occupancy
  Ce  Ce0  1  0.33900935  0.16935647  0.69145770  1
  Ce  Ce1  1  0.33662270  0.66872639  0.69062300  1
  Ce  Ce2  1  0.66099065  0.33064353  0.30854230  1
  Ce  Ce3  1  0.66337730  0.83127361  0.30937700  1
  Sb  Sb4  1  0.00598095  0.00035396  0.00135603  1
  Sb  Sb5  1  0.99401905  0.49964604  0.99864397  1
  O  O6  1  0.24907890  0.37477063  0.49928551  1
  O  O7  1  0.25112800  0.87511018  0.50068687  1
  O  O8  1  0.75092110  0.12522937  0.50071449  1
  O  O9  1  0.74887200  0.62488982  0.49931313  1
