# generated using pymatgen
data_Mn14Sb13
_symmetry_space_group_name_H-M   'P 1'
_cell_length_a   53.60796496
_cell_length_b   7.13773665
_cell_length_c   13.56713512
_cell_angle_alpha   37.88544121
_cell_angle_beta   24.12154563
_cell_angle_gamma   30.05915627
_symmetry_Int_Tables_number   1
_chemical_formula_structural   Mn14Sb13
_chemical_formula_sum   'Mn28 Sb26'
_cell_volume   1062.66876351
_cell_formula_units_Z   2
loop_
 _symmetry_equiv_pos_site_id
 _symmetry_equiv_pos_as_xyz
  1  'x, y, z'
loop_
 _atom_site_type_symbol
 _atom_site_label
 _atom_site_symmetry_multiplicity
 _atom_site_fract_x
 _atom_site_fract_y
 _atom_site_fract_z
 _atom_site_occupancy
  Mn  Mn0  1  0.99940084  0.00054188  0.00327807  1
  Mn  Mn1  1  0.07859407  0.99320246  0.99602914  1
  Mn  Mn2  1  0.15216364  0.00664421  0.00405195  1
  Mn  Mn3  1  0.03771698  0.00266119  0.50283940  1
  Mn  Mn4  1  0.23133848  0.99938494  0.99698526  1
  Mn  Mn5  1  0.11534624  0.00008504  0.50010101  1
  Mn  Mn6  1  0.30860374  0.99642911  0.99752476  1
  Mn  Mn7  1  0.19305733  0.99734365  0.49713323  1
  Mn  Mn8  1  0.38666043  0.99432391  0.99397864  1
  Mn  Mn9  1  0.26914842  0.01180159  0.49458618  1
  Mn  Mn10  1  0.46158616  0.99476139  0.00533132  1
  Mn  Mn11  1  0.34413673  0.00259566  0.50603639  1
  Mn  Mn12  1  0.53770908  0.99839854  0.00292734  1
  Mn  Mn13  1  0.42215316  0.00096002  0.50244611  1
  Mn  Mn14  1  0.36543540  0.66728750  0.74995930  1
  Mn  Mn15  1  0.61541368  0.99991660  0.99992371  1
  Mn  Mn16  1  0.49939835  0.99777592  0.50314760  1
  Mn  Mn17  1  0.69306312  0.00154511  0.99707750  1
  Mn  Mn18  1  0.57858712  0.99688986  0.49603602  1
  Mn  Mn19  1  0.76919445  0.00528157  0.99453135  1
  Mn  Mn20  1  0.65216597  0.00312175  0.50395490  1
  Mn  Mn21  1  0.84402502  0.00603853  0.00621433  1
  Mn  Mn22  1  0.73140698  0.00243819  0.49657818  1
  Mn  Mn23  1  0.92214729  0.00374156  0.00252363  1
  Mn  Mn24  1  0.80863699  0.99907008  0.49755063  1
  Mn  Mn25  1  0.86536315  0.33272985  0.24998884  1
  Mn  Mn26  1  0.88673091  0.99727660  0.49370233  1
  Mn  Mn27  1  0.96159899  0.98825771  0.50549454  1
  Sb  Sb28  1  0.01973324  0.66508465  0.24841219  1
  Sb  Sb29  1  0.09672694  0.66486367  0.24833690  1
  Sb  Sb30  1  0.05755971  0.33457136  0.75012163  1
  Sb  Sb31  1  0.17315098  0.66559686  0.24999005  1
  Sb  Sb32  1  0.13401888  0.33528150  0.75166650  1
  Sb  Sb33  1  0.25271294  0.66573263  0.23865527  1
  Sb  Sb34  1  0.21108754  0.33461679  0.75152704  1
  Sb  Sb35  1  0.32686100  0.66625261  0.25087134  1
  Sb  Sb36  1  0.28315244  0.37617932  0.75074480  1
  Sb  Sb37  1  0.40381778  0.66816109  0.24945517  1
  Sb  Sb38  1  0.36542001  0.31326454  0.75001330  1
  Sb  Sb39  1  0.47800169  0.66715629  0.26147737  1
  Sb  Sb40  1  0.44764819  0.30939936  0.74915109  1
  Sb  Sb41  1  0.55752850  0.66646230  0.25047601  1
  Sb  Sb42  1  0.51968475  0.33362699  0.74827491  1
  Sb  Sb43  1  0.63403049  0.66717058  0.25183494  1
  Sb  Sb44  1  0.59675472  0.33280991  0.74815776  1
  Sb  Sb45  1  0.71101856  0.66653355  0.25183808  1
  Sb  Sb46  1  0.67329677  0.33327938  0.74939312  1
  Sb  Sb47  1  0.78315172  0.69034463  0.25086341  1
  Sb  Sb48  1  0.75285928  0.33282510  0.73813187  1
  Sb  Sb49  1  0.86534393  0.68673452  0.25000536  1
  Sb  Sb50  1  0.82694136  0.33175273  0.75056366  1
  Sb  Sb51  1  0.94760068  0.62395952  0.24921176  1
  Sb  Sb52  1  0.90391412  0.33369503  0.74914619  1
  Sb  Sb53  1  0.97797105  0.33414064  0.76174860  1
