# generated using pymatgen
data_In4Au9
_symmetry_space_group_name_H-M   'P 1'
_cell_length_a   10.07753525
_cell_length_b   10.07754047
_cell_length_c   10.07753613
_cell_angle_alpha   89.99983387
_cell_angle_beta   89.99947659
_cell_angle_gamma   90.00072069
_symmetry_Int_Tables_number   1
_chemical_formula_structural   In4Au9
_chemical_formula_sum   'In16 Au36'
_cell_volume   1023.44201200
_cell_formula_units_Z   4
loop_
 _symmetry_equiv_pos_site_id
 _symmetry_equiv_pos_as_xyz
  1  'x, y, z'
loop_
 _atom_site_type_symbol
 _atom_site_label
 _atom_site_symmetry_multiplicity
 _atom_site_fract_x
 _atom_site_fract_y
 _atom_site_fract_z
 _atom_site_occupancy
  In  In0  1  0.87656603  0.87656757  0.12343316  1
  In  In1  1  0.46201364  0.80868522  0.19129786  1
  In  In2  1  0.80870064  0.46201272  0.19129868  1
  In  In3  1  0.80870172  0.80868534  0.53798629  1
  In  In4  1  0.87656629  0.12343359  0.87656714  1
  In  In5  1  0.19129851  0.19131467  0.53798598  1
  In  In6  1  0.19131216  0.53799896  0.19131175  1
  In  In7  1  0.12343292  0.12343433  0.12343389  1
  In  In8  1  0.53798678  0.80868487  0.80870184  1
  In  In9  1  0.46201331  0.19131531  0.80870166  1
  In  In10  1  0.80869882  0.19130003  0.46202527  1
  In  In11  1  0.53797412  0.19130030  0.19130136  1
  In  In12  1  0.80870255  0.53798730  0.80868474  1
  In  In13  1  0.19131193  0.46200229  0.80868829  1
  In  In14  1  0.12343311  0.87656659  0.87656670  1
  In  In15  1  0.19129800  0.80868560  0.46201334  1
  Au  Au16  1  0.03372959  0.68532633  0.68532634  1
  Au  Au17  1  0.03372585  0.31467524  0.31467408  1
  Au  Au18  1  0.00000126  0.36107262  -0.00000032  1
  Au  Au19  1  0.49999987  0.86083684  0.49999902  1
  Au  Au20  1  0.31467238  0.68532648  0.96627034  1
  Au  Au21  1  0.68532393  0.03372521  0.68532751  1
  Au  Au22  1  0.31467254  0.31467720  0.03372672  1
  Au  Au23  1  0.68532820  0.68532556  0.03372653  1
  Au  Au24  1  0.68532757  0.31467531  0.96627367  1
  Au  Au25  1  0.83288285  0.83288516  0.83288247  1
  Au  Au26  1  0.31467499  0.96627571  0.68532519  1
  Au  Au27  1  0.83288052  0.16711709  0.16711927  1
  Au  Au28  1  0.60848111  0.60848242  0.60848075  1
  Au  Au29  1  0.67549684  0.32450409  0.67549955  1
  Au  Au30  1  0.50000140  0.50000061  0.86083588  1
  Au  Au31  1  0.96627451  0.31467565  0.68532565  1
  Au  Au32  1  0.68532530  0.96627615  0.31467411  1
  Au  Au33  1  0.32449972  0.32450558  0.32450170  1
  Au  Au34  1  0.39151844  0.39151981  0.60847976  1
  Au  Au35  1  0.49999910  0.13916440  0.49999989  1
  Au  Au36  1  0.86083637  0.49999817  0.49999776  1
  Au  Au37  1  0.32450191  0.67549827  0.67549836  1
  Au  Au38  1  0.00000005  0.00000055  0.63892817  1
  Au  Au39  1  0.96627144  0.68532667  0.31467299  1
  Au  Au40  1  -0.00000026  0.00000164  0.36107149  1
  Au  Au41  1  0.16711045  0.16710778  0.83289055  1
  Au  Au42  1  0.36107272  0.00000052  0.99999875  1
  Au  Au43  1  -0.00000107  0.63892910  0.00000097  1
  Au  Au44  1  0.50000089  0.50000008  0.13916313  1
  Au  Au45  1  0.67549963  0.67549907  0.32450074  1
  Au  Au46  1  0.16711719  0.83288666  0.16711665  1
  Au  Au47  1  0.39151825  0.60848142  0.39152176  1
  Au  Au48  1  0.60848181  0.39151973  0.39151706  1
  Au  Au49  1  0.63892818  0.00000262  0.99999955  1
  Au  Au50  1  0.31467258  0.03372508  0.31467535  1
  Au  Au51  1  0.13916335  0.50000046  0.50000067  1
