# generated using pymatgen
data_K3P6S6N7
_symmetry_space_group_name_H-M   'P 1'
_cell_length_a   21.47244523
_cell_length_b   21.47244530
_cell_length_c   21.47244535
_cell_angle_alpha   30.71906353
_cell_angle_beta   30.71906323
_cell_angle_gamma   30.71906283
_symmetry_Int_Tables_number   1
_chemical_formula_structural   K3P6S6N7
_chemical_formula_sum   'K12 P24 S24 N28'
_cell_volume   2290.81764979
_cell_formula_units_Z   4
loop_
 _symmetry_equiv_pos_site_id
 _symmetry_equiv_pos_as_xyz
  1  'x, y, z'
loop_
 _atom_site_type_symbol
 _atom_site_label
 _atom_site_symmetry_multiplicity
 _atom_site_fract_x
 _atom_site_fract_y
 _atom_site_fract_z
 _atom_site_occupancy
  K  K0  1  0.95992168  0.48368633  0.95626229  1
  K  K1  1  0.45626229  0.98368633  0.45992168  1
  K  K2  1  0.98368633  0.45992168  0.45626229  1
  K  K3  1  0.48368633  0.95626229  0.95992168  1
  K  K4  1  0.54007832  0.54373771  0.01631367  1
  K  K5  1  0.04007832  0.51631367  0.04373771  1
  K  K6  1  0.51631367  0.04373771  0.04007832  1
  K  K7  1  0.45992168  0.45626229  0.98368633  1
  K  K8  1  0.54373771  0.01631367  0.54007832  1
  K  K9  1  0.95626229  0.95992168  0.48368633  1
  K  K10  1  0.04373771  0.04007832  0.51631367  1
  K  K11  1  0.01631367  0.54007832  0.54373771  1
  P  P12  1  0.95933345  0.93884973  0.21252414  1
  P  P13  1  0.78747586  0.04066655  0.06115027  1
  P  P14  1  0.76171471  0.32349943  0.38636987  1
  P  P15  1  0.45933345  0.71252414  0.43884973  1
  P  P16  1  0.32349943  0.38636987  0.76171471  1
  P  P17  1  0.61363013  0.23828529  0.67650057  1
  P  P18  1  0.54066655  0.28747586  0.56115027  1
  P  P19  1  0.26171471  0.88636987  0.82349943  1
  P  P20  1  0.23828529  0.67650057  0.61363013  1
  P  P21  1  0.93884973  0.21252414  0.95933345  1
  P  P22  1  0.56115027  0.54066655  0.28747586  1
  P  P23  1  0.06115027  0.78747586  0.04066655  1
  P  P24  1  0.73828529  0.11363013  0.17650057  1
  P  P25  1  0.82349943  0.26171471  0.88636987  1
  P  P26  1  0.17650057  0.73828529  0.11363013  1
  P  P27  1  0.43884973  0.45933345  0.71252414  1
  P  P28  1  0.21252414  0.95933345  0.93884973  1
  P  P29  1  0.67650057  0.61363013  0.23828529  1
  P  P30  1  0.28747586  0.56115027  0.54066655  1
  P  P31  1  0.88636987  0.82349943  0.26171471  1
  P  P32  1  0.71252414  0.43884973  0.45933345  1
  P  P33  1  0.04066655  0.06115027  0.78747586  1
  P  P34  1  0.11363013  0.17650057  0.73828529  1
  P  P35  1  0.38636987  0.76171471  0.32349943  1
  S  S36  1  0.34475422  0.51452316  0.82543313  1
  S  S37  1  0.27594316  0.96258853  0.24639989  1
  S  S38  1  0.67456687  0.98547684  0.15524578  1
  S  S39  1  0.03741147  0.75360011  0.72405684  1
  S  S40  1  0.22405684  0.25360011  0.53741147  1
  S  S41  1  0.15524578  0.67456687  0.98547684  1
  S  S42  1  0.84475422  0.32543313  0.01452316  1
  S  S43  1  0.77594316  0.74639989  0.46258853  1
  S  S44  1  0.72405684  0.03741147  0.75360011  1
  S  S45  1  0.25360011  0.53741147  0.22405684  1
  S  S46  1  0.53741147  0.22405684  0.25360011  1
  S  S47  1  0.65524578  0.48547684  0.17456687  1
  S  S48  1  0.74639989  0.46258853  0.77594316  1
  S  S49  1  0.51452316  0.82543313  0.34475422  1
  S  S50  1  0.46258853  0.77594316  0.74639989  1
  S  S51  1  0.17456687  0.65524578  0.48547684  1
  S  S52  1  0.82543313  0.34475422  0.51452316  1
  S  S53  1  0.96258853  0.24639989  0.27594316  1
  S  S54  1  0.48547684  0.17456687  0.65524578  1
  S  S55  1  0.75360011  0.72405684  0.03741147  1
  S  S56  1  0.32543313  0.01452316  0.84475422  1
  S  S57  1  0.98547684  0.15524578  0.67456687  1
  S  S58  1  0.01452316  0.84475422  0.32543313  1
  S  S59  1  0.24639989  0.27594316  0.96258853  1
  N  N60  1  0.53917382  0.53917382  0.53917382  1
  N  N61  1  0.46082618  0.46082618  0.46082618  1
  N  N62  1  0.53339608  0.29637712  0.76028056  1
  N  N63  1  0.46660392  0.70362288  0.23971944  1
  N  N64  1  0.79637712  0.03339608  0.26028056  1
  N  N65  1  0.49176633  0.29511722  0.67438243  1
  N  N66  1  0.67438243  0.49176633  0.29511722  1
  N  N67  1  0.70488278  0.32561757  0.50823367  1
  N  N68  1  0.99176633  0.17438243  0.79511722  1
  N  N69  1  0.23971944  0.46660392  0.70362288  1
  N  N70  1  0.20488278  0.00823367  0.82561757  1
  N  N71  1  0.73971944  0.20362288  0.96660392  1
  N  N72  1  0.50823367  0.70488278  0.32561757  1
  N  N73  1  0.29637712  0.76028056  0.53339608  1
  N  N74  1  0.82561757  0.20488278  0.00823367  1
  N  N75  1  0.96082618  0.96082618  0.96082618  1
  N  N76  1  0.79511722  0.99176633  0.17438243  1
  N  N77  1  0.03917382  0.03917382  0.03917382  1
  N  N78  1  0.00823367  0.82561757  0.20488278  1
  N  N79  1  0.96660392  0.73971944  0.20362288  1
  N  N80  1  0.70362288  0.23971944  0.46660392  1
  N  N81  1  0.76028056  0.53339608  0.29637712  1
  N  N82  1  0.03339608  0.26028056  0.79637712  1
  N  N83  1  0.17438243  0.79511722  0.99176633  1
  N  N84  1  0.26028056  0.79637712  0.03339608  1
  N  N85  1  0.29511722  0.67438243  0.49176633  1
  N  N86  1  0.32561757  0.50823367  0.70488278  1
  N  N87  1  0.20362288  0.96660392  0.73971944  1
