# generated using pymatgen
data_Na(VS2)2
_symmetry_space_group_name_H-M   'P 1'
_cell_length_a   7.23362492
_cell_length_b   14.72615669
_cell_length_c   14.32978942
_cell_angle_alpha   13.32357516
_cell_angle_beta   23.46843918
_cell_angle_gamma   26.79944230
_symmetry_Int_Tables_number   1
_chemical_formula_structural   Na(VS2)2
_chemical_formula_sum   'Na1 V2 S4'
_cell_volume   140.09133768
_cell_formula_units_Z   1
loop_
 _symmetry_equiv_pos_site_id
 _symmetry_equiv_pos_as_xyz
  1  'x, y, z'
loop_
 _atom_site_type_symbol
 _atom_site_label
 _atom_site_symmetry_multiplicity
 _atom_site_fract_x
 _atom_site_fract_y
 _atom_site_fract_z
 _atom_site_occupancy
  Na  Na0  1  0.81861915  0.50000000  0.84115503  1
  V  V1  1  0.05582064  0.00000000  0.97384102  1
  V  V2  1  0.95326624  0.50000000  0.03028800  1
  S  S3  1  0.42473765  0.00000000  0.38372258  1
  S  S4  1  0.59037241  0.00000000  0.60345767  1
  S  S5  1  0.42072683  0.50000000  0.39812856  1
  S  S6  1  0.58645708  0.50000000  0.61940713  1
