# generated using pymatgen
data_BaNaIn2(PO4)3
_symmetry_space_group_name_H-M   'P 1'
_cell_length_a   10.29542611
_cell_length_b   10.29542611
_cell_length_c   10.29542611
_cell_angle_alpha   90.00000000
_cell_angle_beta   90.00000000
_cell_angle_gamma   90.00000000
_symmetry_Int_Tables_number   1
_chemical_formula_structural   BaNaIn2(PO4)3
_chemical_formula_sum   'Ba4 Na4 In8 P12 O48'
_cell_volume   1091.27191438
_cell_formula_units_Z   4
loop_
 _symmetry_equiv_pos_site_id
 _symmetry_equiv_pos_as_xyz
  1  'x, y, z'
loop_
 _atom_site_type_symbol
 _atom_site_label
 _atom_site_symmetry_multiplicity
 _atom_site_fract_x
 _atom_site_fract_y
 _atom_site_fract_z
 _atom_site_occupancy
  Ba  Ba0  1  0.19417099  0.30582901  0.69417099  1
  Ba  Ba1  1  0.30582901  0.69417099  0.19417099  1
  Ba  Ba2  1  0.69417099  0.19417099  0.30582901  1
  Ba  Ba3  1  0.80582901  0.80582901  0.80582901  1
  Na  Na4  1  0.07441100  0.07441100  0.07441100  1
  Na  Na5  1  0.42558900  0.92558900  0.57441100  1
  Na  Na6  1  0.57441100  0.42558900  0.92558900  1
  Na  Na7  1  0.92558900  0.57441100  0.42558900  1
  In  In8  1  0.08985012  0.91014988  0.41014988  1
  In  In9  1  0.16920058  0.66920058  0.83079942  1
  In  In10  1  0.33079942  0.33079942  0.33079942  1
  In  In11  1  0.41014988  0.08985012  0.91014988  1
  In  In12  1  0.58985012  0.58985012  0.58985012  1
  In  In13  1  0.66920058  0.83079942  0.16920058  1
  In  In14  1  0.83079942  0.16920058  0.66920058  1
  In  In15  1  0.91014988  0.41014988  0.08985012  1
  P  P16  1  0.01356685  0.22406894  0.37306834  1
  P  P17  1  0.12693166  0.98643315  0.72406894  1
  P  P18  1  0.22406894  0.37306834  0.01356685  1
  P  P19  1  0.27593106  0.62693166  0.51356685  1
  P  P20  1  0.37306834  0.01356685  0.22406894  1
  P  P21  1  0.48643315  0.77593106  0.87306834  1
  P  P22  1  0.51356685  0.27593106  0.62693166  1
  P  P23  1  0.62693166  0.51356685  0.27593106  1
  P  P24  1  0.72406894  0.12693166  0.98643315  1
  P  P25  1  0.77593106  0.87306834  0.48643315  1
  P  P26  1  0.87306834  0.48643315  0.77593106  1
  P  P27  1  0.98643315  0.72406894  0.12693166  1
  O  O28  1  0.02588060  0.08607088  0.31062876  1
  O  O29  1  0.01477632  0.08544302  0.71975787  1
  O  O30  1  0.04710117  0.81804254  0.22565327  1
  O  O31  1  0.07719571  0.85165337  0.77126305  1
  O  O32  1  0.08607088  0.31062876  0.02588060  1
  O  O33  1  0.08544302  0.71975787  0.01477632  1
  O  O34  1  0.14834663  0.27126305  0.42280429  1
  O  O35  1  0.18195746  0.72565327  0.45289883  1
  O  O36  1  0.21975787  0.48522368  0.91455698  1
  O  O37  1  0.18937124  0.97411940  0.58607088  1
  O  O38  1  0.22565327  0.04710117  0.81804254  1
  O  O39  1  0.22873695  0.57719571  0.64834663  1
  O  O40  1  0.27126305  0.42280429  0.14834663  1
  O  O41  1  0.27434673  0.95289883  0.31804254  1
  O  O42  1  0.31062876  0.02588060  0.08607088  1
  O  O43  1  0.28024213  0.51477632  0.41455698  1
  O  O44  1  0.31804254  0.27434673  0.95289883  1
  O  O45  1  0.35165337  0.72873695  0.92280429  1
  O  O46  1  0.41455698  0.28024213  0.51477632  1
  O  O47  1  0.41392912  0.68937124  0.52588060  1
  O  O48  1  0.42280429  0.14834663  0.27126305  1
  O  O49  1  0.45289883  0.18195746  0.72565327  1
  O  O50  1  0.48522368  0.91455698  0.21975787  1
  O  O51  1  0.47411940  0.91392912  0.81062876  1
  O  O52  1  0.52588060  0.41392912  0.68937124  1
  O  O53  1  0.51477632  0.41455698  0.28024213  1
  O  O54  1  0.54710117  0.68195746  0.77434673  1
  O  O55  1  0.57719571  0.64834663  0.22873695  1
  O  O56  1  0.58607088  0.18937124  0.97411940  1
  O  O57  1  0.58544302  0.78024213  0.98522368  1
  O  O58  1  0.64834663  0.22873695  0.57719571  1
  O  O59  1  0.68195746  0.77434673  0.54710117  1
  O  O60  1  0.71975787  0.01477632  0.08544302  1
  O  O61  1  0.68937124  0.52588060  0.41392912  1
  O  O62  1  0.72565327  0.45289883  0.18195746  1
  O  O63  1  0.72873695  0.92280429  0.35165337  1
  O  O64  1  0.77126305  0.07719571  0.85165337  1
  O  O65  1  0.77434673  0.54710117  0.68195746  1
  O  O66  1  0.81062876  0.47411940  0.91392912  1
  O  O67  1  0.78024213  0.98522368  0.58544302  1
  O  O68  1  0.81804254  0.22565327  0.04710117  1
  O  O69  1  0.85165337  0.77126305  0.07719571  1
  O  O70  1  0.91455698  0.21975787  0.48522368  1
  O  O71  1  0.91392912  0.81062876  0.47411940  1
  O  O72  1  0.92280429  0.35165337  0.72873695  1
  O  O73  1  0.95289883  0.31804254  0.27434673  1
  O  O74  1  0.98522368  0.58544302  0.78024213  1
  O  O75  1  0.97411940  0.58607088  0.18937124  1
