# generated using pymatgen
data_Ca2Cu9O13
_symmetry_space_group_name_H-M   'P 1'
_cell_length_a   3.07695977
_cell_length_b   5.18817089
_cell_length_c   16.39812924
_cell_angle_alpha   98.10146444
_cell_angle_beta   90.01701623
_cell_angle_gamma   107.35065060
_symmetry_Int_Tables_number   1
_chemical_formula_structural   Ca2Cu9O13
_chemical_formula_sum   'Ca2 Cu9 O13'
_cell_volume   247.12299801
_cell_formula_units_Z   1
loop_
 _symmetry_equiv_pos_site_id
 _symmetry_equiv_pos_as_xyz
  1  'x, y, z'
loop_
 _atom_site_type_symbol
 _atom_site_label
 _atom_site_symmetry_multiplicity
 _atom_site_fract_x
 _atom_site_fract_y
 _atom_site_fract_z
 _atom_site_occupancy
  Ca  Ca0  1  0.21609619  0.43388797  0.22850854  1
  Ca  Ca1  1  0.78390381  0.56611203  0.77149146  1
  Cu  Cu2  1  0.50000000  0.00000000  0.50000000  1
  Cu  Cu3  1  0.64764271  0.29493205  0.03792534  1
  Cu  Cu4  1  0.35235729  0.70506795  0.96207466  1
  Cu  Cu5  1  0.75193338  0.50464416  0.42141707  1
  Cu  Cu6  1  0.24806662  0.49535584  0.57858293  1
  Cu  Cu7  1  0.93783379  0.87653718  0.11950433  1
  Cu  Cu8  1  0.06216621  0.12346282  0.88049567  1
  Cu  Cu9  1  0.99572281  0.99301980  0.33695664  1
  Cu  Cu10  1  0.00427719  0.00698020  0.66304336  1
  O  O11  1  0.00000000  0.00000000  0.00000000  1
  O  O12  1  0.88472306  0.76860452  0.22686695  1
  O  O13  1  0.11527694  0.23139548  0.77313305  1
  O  O14  1  0.29983003  0.59977655  0.07140653  1
  O  O15  1  0.70016997  0.40022345  0.92859347  1
  O  O16  1  0.57740769  0.15676090  0.13840890  1
  O  O17  1  0.42259231  0.84323910  0.86159110  1
  O  O18  1  0.62696475  0.25536375  0.32270273  1
  O  O19  1  0.37303525  0.74463625  0.67729727  1
  O  O20  1  0.39318816  0.78455426  0.38835406  1
  O  O21  1  0.60681184  0.21544574  0.61164594  1
  O  O22  1  0.13203974  0.26700029  0.47140708  1
  O  O23  1  0.86796026  0.73299971  0.52859292  1
