# generated using pymatgen
data_CeMg6Ga
_symmetry_space_group_name_H-M   'P 1'
_cell_length_a   6.65310692
_cell_length_b   6.65310682
_cell_length_c   4.96745404
_cell_angle_alpha   90.00000000
_cell_angle_beta   90.00000000
_cell_angle_gamma   120.90103004
_symmetry_Int_Tables_number   1
_chemical_formula_structural   CeMg6Ga
_chemical_formula_sum   'Ce1 Mg6 Ga1'
_cell_volume   188.66803415
_cell_formula_units_Z   1
loop_
 _symmetry_equiv_pos_site_id
 _symmetry_equiv_pos_as_xyz
  1  'x, y, z'
loop_
 _atom_site_type_symbol
 _atom_site_label
 _atom_site_symmetry_multiplicity
 _atom_site_fract_x
 _atom_site_fract_y
 _atom_site_fract_z
 _atom_site_occupancy
  Ce  Ce0  1  0.17904995  0.32095005  0.25000000  1
  Mg  Mg1  1  0.18176854  0.83442874  0.25000000  1
  Mg  Mg2  1  0.66557126  0.31823146  0.25000000  1
  Mg  Mg3  1  0.66296843  0.83703157  0.25000000  1
  Mg  Mg4  1  0.33791459  0.68480072  0.75000000  1
  Mg  Mg5  1  0.81519928  0.16208541  0.75000000  1
  Mg  Mg6  1  0.82982109  0.67017891  0.75000000  1
  Ga  Ga7  1  0.32770685  0.17229315  0.75000000  1
