# generated using pymatgen
data_CaGdTh(PO4)3
_symmetry_space_group_name_H-M   'P 1'
_cell_length_a   6.44786173
_cell_length_b   6.76211882
_cell_length_c   20.88324427
_cell_angle_alpha   90.23846342
_cell_angle_beta   89.71115643
_cell_angle_gamma   104.08774745
_symmetry_Int_Tables_number   1
_chemical_formula_structural   CaGdTh(PO4)3
_chemical_formula_sum   'Ca4 Gd4 Th4 P12 O48'
_cell_volume   883.13423514
_cell_formula_units_Z   4
loop_
 _symmetry_equiv_pos_site_id
 _symmetry_equiv_pos_as_xyz
  1  'x, y, z'
loop_
 _atom_site_type_symbol
 _atom_site_label
 _atom_site_symmetry_multiplicity
 _atom_site_fract_x
 _atom_site_fract_y
 _atom_site_fract_z
 _atom_site_occupancy
  Ca  Ca0  1  0.09772371  0.28613413  0.22194517  1
  Ca  Ca1  1  0.60370560  0.78335092  0.94397062  1
  Ca  Ca2  1  0.90093110  0.71838282  0.78293290  1
  Ca  Ca3  1  0.90659088  0.71445672  0.44768515  1
  Gd  Gd4  1  0.09291371  0.28660525  0.54892072  1
  Gd  Gd5  1  0.39739415  0.21347496  0.38707414  1
  Gd  Gd6  1  0.40174100  0.21200991  0.71895827  1
  Gd  Gd7  1  0.90517706  0.71108469  0.11409371  1
  Th  Th8  1  0.09913429  0.28708058  0.88341641  1
  Th  Th9  1  0.39601070  0.21461008  0.05452591  1
  Th  Th10  1  0.60442917  0.78198153  0.28169537  1
  Th  Th11  1  0.60611384  0.77773022  0.61328313  1
  P  P12  1  0.11540013  0.80381037  0.27804676  1
  P  P13  1  0.11457754  0.80526593  0.61259350  1
  P  P14  1  0.11070375  0.80671938  0.94719542  1
  P  P15  1  0.38628379  0.69111620  0.11219302  1
  P  P16  1  0.38439860  0.69730636  0.44594564  1
  P  P17  1  0.38952227  0.70032084  0.77820432  1
  P  P18  1  0.61437163  0.30595529  0.22114152  1
  P  P19  1  0.61168130  0.30403550  0.55424096  1
  P  P20  1  0.61571725  0.30238070  0.88793829  1
  P  P21  1  0.88249951  0.19301847  0.05489590  1
  P  P22  1  0.88751536  0.19976473  0.38866078  1
  P  P23  1  0.88682348  0.20005250  0.71965965  1
  O  O24  1  0.00186228  0.87987206  0.22062470  1
  O  O25  1  0.00174830  0.89112207  0.55729370  1
  O  O26  1  0.00789535  0.89319556  0.88998089  1
  O  O27  1  0.05694102  0.25617985  0.00167371  1
  O  O28  1  0.06562276  0.25125602  0.33730399  1
  O  O29  1  0.06396381  0.24972990  0.66782200  1
  O  O30  1  0.19427905  0.52222159  0.46631070  1
  O  O31  1  0.18694358  0.52425081  0.13110863  1
  O  O32  1  0.19670610  0.52231664  0.79892713  1
  O  O33  1  0.22339627  0.63046381  0.26120986  1
  O  O34  1  0.21652621  0.62783070  0.59433609  1
  O  O35  1  0.20951326  0.62790247  0.92893710  1
  O  O36  1  0.28789679  0.87617554  0.42874870  1
  O  O37  1  0.28797067  0.87168019  0.09520628  1
  O  O38  1  0.28707664  0.87637495  0.76162943  1
  O  O39  1  0.31252349  0.97363847  0.29908753  1
  O  O40  1  0.31740778  0.96972467  0.63290690  1
  O  O41  1  0.30577325  0.98011713  0.96810443  1
  O  O42  1  0.50178815  0.60917067  0.05626920  1
  O  O43  1  0.49276151  0.61832265  0.38677297  1
  O  O44  1  0.48717933  0.61667293  0.71744662  1
  O  O45  1  0.44220391  0.24742925  0.16773548  1
  O  O46  1  0.43636068  0.24524040  0.50296077  1
  O  O47  1  0.44046546  0.24693649  0.83582150  1
  O  O48  1  0.56118395  0.75528961  0.16428281  1
  O  O49  1  0.55794804  0.75064384  0.49889915  1
  O  O50  1  0.56371268  0.74963754  0.82932386  1
  O  O51  1  0.50428342  0.38444495  0.27908677  1
  O  O52  1  0.49657024  0.37633974  0.94536673  1
  O  O53  1  0.49889456  0.38182948  0.61249428  1
  O  O54  1  0.68116067  0.03075346  0.03509657  1
  O  O55  1  0.69259652  0.02384237  0.36644748  1
  O  O56  1  0.69300607  0.02395156  0.69873533  1
  O  O57  1  0.71140100  0.12618230  0.23766161  1
  O  O58  1  0.71306129  0.12532692  0.57113640  1
  O  O59  1  0.71902425  0.12686660  0.90515866  1
  O  O60  1  0.78538429  0.37345197  0.07299006  1
  O  O61  1  0.77431812  0.36939852  0.40437089  1
  O  O62  1  0.77534568  0.36947251  0.73659384  1
  O  O63  1  0.80385420  0.48208341  0.20087480  1
  O  O64  1  0.80887319  0.47595236  0.53676506  1
  O  O65  1  0.81233336  0.47178681  0.86862916  1
  O  O66  1  0.93844667  0.74684625  0.32967151  1
  O  O67  1  0.94036663  0.74937481  0.00055628  1
  O  O68  1  0.93863875  0.74492697  0.66434783  1
  O  O69  1  0.00363322  0.11057954  0.10846005  1
  O  O70  1  -0.00669406  0.12171045  0.44707550  1
  O  O71  1  -0.00350818  0.12483511  0.77853981  1
