# generated using pymatgen
data_Eu6Mg7H26
_symmetry_space_group_name_H-M   'P 1'
_cell_length_a   9.54253738
_cell_length_b   9.31412419
_cell_length_c   9.54253738
_cell_angle_alpha   84.11108506
_cell_angle_beta   146.28598441
_cell_angle_gamma   105.95641767
_symmetry_Int_Tables_number   1
_chemical_formula_structural   Eu6Mg7H26
_chemical_formula_sum   'Eu6 Mg7 H26'
_cell_volume   439.81135985
_cell_formula_units_Z   1
loop_
 _symmetry_equiv_pos_site_id
 _symmetry_equiv_pos_as_xyz
  1  'x, y, z'
loop_
 _atom_site_type_symbol
 _atom_site_label
 _atom_site_symmetry_multiplicity
 _atom_site_fract_x
 _atom_site_fract_y
 _atom_site_fract_z
 _atom_site_occupancy
  Eu  Eu0  1  0.26430891  0.61781069  0.35350177  1
  Eu  Eu1  1  0.73569109  0.38218931  0.64649823  1
  Eu  Eu2  1  0.25716740  0.91697520  0.65980779  1
  Eu  Eu3  1  0.74283260  0.08302480  0.34019221  1
  Eu  Eu4  1  0.50529879  0.35713795  0.85183916  1
  Eu  Eu5  1  0.49470121  0.64286205  0.14816084  1
  Mg  Mg6  1  0.01084137  0.23343545  0.22259408  1
  Mg  Mg7  1  0.98915863  0.76656455  0.77740592  1
  Mg  Mg8  1  0.26374100  0.24777759  0.98403658  1
  Mg  Mg9  1  0.73625900  0.75222241  0.01596342  1
  Mg  Mg10  1  0.74443951  0.00000000  0.74443951  1
  Mg  Mg11  1  0.25556049  0.00000000  0.25556049  1
  Mg  Mg12  1  0.00000000  0.50000000  0.50000000  1
  H  H13  1  0.88155296  0.37551601  0.00204230  1
  H  H14  1  0.62652629  0.62448399  0.50603695  1
  H  H15  1  0.11844704  0.62448399  0.99795770  1
  H  H16  1  0.37347371  0.37551601  0.49396305  1
  H  H17  1  0.86783866  0.85423819  0.50803130  1
  H  H18  1  0.65379311  0.14576181  0.01360047  1
  H  H19  1  0.13216134  0.14576181  0.49196870  1
  H  H20  1  0.34620689  0.85423819  0.98639953  1
  H  H21  1  0.14687346  0.35531108  0.72041090  1
  H  H22  1  0.36509983  0.64468892  0.79156238  1
  H  H23  1  0.85312654  0.64468892  0.27958910  1
  H  H24  1  0.63490017  0.35531108  0.20843762  1
  H  H25  1  0.88602345  0.15726736  0.70592645  1
  H  H26  1  0.54865908  0.84273264  0.72875609  1
  H  H27  1  0.11397655  0.84273264  0.29407355  1
  H  H28  1  0.45134092  0.15726736  0.27124391  1
  H  H29  1  0.28824681  0.40592012  0.11767331  1
  H  H30  1  0.71175319  0.59407988  0.88232669  1
  H  H31  1  0.26449512  0.11044885  0.84595373  1
  H  H32  1  0.73550488  0.88955115  0.15404627  1
  H  H33  1  0.51478096  0.11212164  0.59734068  1
  H  H34  1  0.48521904  0.88787836  0.40265932  1
  H  H35  1  0.01738390  0.10590300  0.08851910  1
  H  H36  1  0.98261610  0.89409700  0.91148090  1
  H  H37  1  0.05077503  0.42283358  0.37205855  1
  H  H38  1  0.94922497  0.57716642  0.62794145  1
