# generated using pymatgen
data_NaSr2NdTi4O12
_symmetry_space_group_name_H-M   'P 1'
_cell_length_a   5.50411228
_cell_length_b   5.50410869
_cell_length_c   33.24437901
_cell_angle_alpha   119.78471274
_cell_angle_beta   119.78466106
_cell_angle_gamma   89.99971930
_symmetry_Int_Tables_number   1
_chemical_formula_structural   NaSr2NdTi4O12
_chemical_formula_sum   'Na3 Sr6 Nd3 Ti12 O36'
_cell_volume   716.77196914
_cell_formula_units_Z   3
loop_
 _symmetry_equiv_pos_site_id
 _symmetry_equiv_pos_as_xyz
  1  'x, y, z'
loop_
 _atom_site_type_symbol
 _atom_site_label
 _atom_site_symmetry_multiplicity
 _atom_site_fract_x
 _atom_site_fract_y
 _atom_site_fract_z
 _atom_site_occupancy
  Na  Na0  1  0.74754871  0.24754870  0.91586679  1
  Na  Na1  1  0.75001108  0.25001231  0.75000118  1
  Na  Na2  1  0.75248715  0.25248887  0.58413367  1
  Sr  Sr3  1  0.25424778  0.75425231  0.41807760  1
  Sr  Sr4  1  0.24997753  0.74998186  0.24999977  1
  Sr  Sr5  1  0.75315922  0.25316563  0.41771252  1
  Sr  Sr6  1  0.24575758  0.74574978  0.08192349  1
  Sr  Sr7  1  0.75001499  0.25001590  0.25000019  1
  Sr  Sr8  1  0.74685333  0.24684964  0.08228814  1
  Nd  Nd9  1  0.24779855  0.74779643  0.91593931  1
  Nd  Nd10  1  0.25004063  0.75004324  0.74999414  1
  Nd  Nd11  1  0.25222362  0.75222161  0.58405854  1
  Ti  Ti12  1  0.00239339  0.00234908  0.66744348  1
  Ti  Ti13  1  0.49764962  0.49772236  0.83255506  1
  Ti  Ti14  1  0.50233976  0.50240626  0.66744316  1
  Ti  Ti15  1  0.99772803  0.99764446  0.83255502  1
  Ti  Ti16  1  0.00226111  0.00227112  0.33408743  1
  Ti  Ti17  1  0.50819914  0.50821918  0.50273236  1
  Ti  Ti18  1  0.99772751  0.99772323  0.16591269  1
  Ti  Ti19  1  0.50226868  0.50226102  0.33408689  1
  Ti  Ti20  1  0.00821451  0.00819943  0.50273213  1
  Ti  Ti21  1  0.99182399  0.99178440  0.99726539  1
  Ti  Ti22  1  0.49772233  0.49772970  0.16591265  1
  Ti  Ti23  1  0.49178232  0.49182600  0.99726522  1
  O  O24  1  0.24495744  0.24497496  0.91500186  1
  O  O25  1  0.20906156  0.30819783  0.83621429  1
  O  O26  1  0.28701342  0.78701482  0.82923530  1
  O  O27  1  0.24996574  0.24998182  0.75000007  1
  O  O28  1  0.74497852  0.74496370  0.91500178  1
  O  O29  1  0.21298328  0.31158243  0.67076217  1
  O  O30  1  0.68839791  0.18839646  0.82923331  1
  O  O31  1  0.29094113  0.79093745  0.66379467  1
  O  O32  1  0.80819527  0.70905764  0.83621221  1
  O  O33  1  0.25499754  0.25502727  0.58499997  1
  O  O34  1  0.74998755  0.74997041  0.74999986  1
  O  O35  1  0.22243426  0.30658825  0.50483827  1
  O  O36  1  0.69178172  0.19177977  0.66378408  1
  O  O37  1  0.28493600  0.78493606  0.50159688  1
  O  O38  1  0.81157992  0.71297662  0.67076142  1
  O  O39  1  0.25491430  0.25494421  0.41832134  1
  O  O40  1  0.75502844  0.75499282  0.58499949  1
  O  O41  1  0.22731463  0.27855853  0.33432639  1
  O  O42  1  0.72457233  0.22457232  0.50158987  1
  O  O43  1  0.27626032  0.77625899  0.33361388  1
  O  O44  1  0.80658776  0.72243560  0.50483888  1
  O  O45  1  0.24998220  0.25002041  0.25000070  1
  O  O46  1  0.75494658  0.75491425  0.41832121  1
  O  O47  1  0.22375503  0.27469823  0.16639478  1
  O  O48  1  0.72524086  0.22524035  0.33359621  1
  O  O49  1  0.27271176  0.77271188  0.16568275  1
  O  O50  1  0.77856087  0.72730956  0.33432623  1
  O  O51  1  0.24505512  0.24507556  0.08167998  1
  O  O52  1  0.75002155  0.74998106  0.25000081  1
  O  O53  1  0.21504529  0.27539037  0.99840925  1
  O  O54  1  0.72144332  0.22144220  0.16566877  1
  O  O55  1  0.27755632  0.77755606  0.99516352  1
  O  O56  1  0.77469621  0.72375372  0.16639409  1
  O  O57  1  0.74508107  0.74505375  0.08168022  1
  O  O58  1  0.69339495  0.19339658  0.99515923  1
  O  O59  1  0.77538929  0.71504557  0.99840943  1
