# generated using pymatgen
data_Li3ScCl6
_symmetry_space_group_name_H-M   'P 1'
_cell_length_a   6.35567010
_cell_length_b   6.35567048
_cell_length_c   25.66706897
_cell_angle_alpha   99.74384136
_cell_angle_beta   99.74384205
_cell_angle_gamma   119.70624408
_symmetry_Int_Tables_number   1
_chemical_formula_structural   Li3ScCl6
_chemical_formula_sum   'Li12 Sc4 Cl24'
_cell_volume   847.87410624
_cell_formula_units_Z   4
loop_
 _symmetry_equiv_pos_site_id
 _symmetry_equiv_pos_as_xyz
  1  'x, y, z'
loop_
 _atom_site_type_symbol
 _atom_site_label
 _atom_site_symmetry_multiplicity
 _atom_site_fract_x
 _atom_site_fract_y
 _atom_site_fract_z
 _atom_site_occupancy
  Li  Li0  1  0.33304713  0.66693992  0.74999339  1
  Li  Li1  1  0.33306008  0.66695287  0.50000661  1
  Li  Li2  1  0.33544224  0.66675789  0.24999179  1
  Li  Li3  1  0.66664565  0.33334655  0.74999831  1
  Li  Li4  1  0.33324211  0.66455776  0.00000821  1
  Li  Li5  1  0.83292018  0.16832655  0.87500421  1
  Li  Li6  1  0.66665345  0.33335435  0.50000169  1
  Li  Li7  1  0.49955859  0.50044141  0.12500000  1
  Li  Li8  1  0.83206658  0.16793342  0.62500000  1
  Li  Li9  1  0.66432243  0.33336985  0.25006464  1
  Li  Li10  1  0.83167345  0.16707982  0.37499579  1
  Li  Li11  1  0.66663015  0.33567757  0.99993536  1
  Sc  Sc12  1  0.00184323  0.99815753  0.75001210  1
  Sc  Sc13  1  0.00184247  0.99815677  0.49998790  1
  Sc  Sc14  1  0.00394498  0.00219113  0.24999272  1
  Sc  Sc15  1  0.99780887  0.99605502  0.00000728  1
  Cl  Cl16  1  0.06890764  0.39172731  0.80942449  1
  Cl  Cl17  1  0.23428029  0.24323767  0.94162546  1
  Cl  Cl18  1  0.06884672  0.39162484  0.55943848  1
  Cl  Cl19  1  0.60656083  0.93274751  0.94112356  1
  Cl  Cl20  1  0.23767394  0.24738305  0.69224053  1
  Cl  Cl21  1  0.06725249  0.39343917  0.30887644  1
  Cl  Cl22  1  0.60837516  0.93115328  0.69056152  1
  Cl  Cl23  1  0.40737712  0.07728852  0.80780600  1
  Cl  Cl24  1  0.23777984  0.24756920  0.44224759  1
  Cl  Cl25  1  0.75243080  0.76222016  0.80775241  1
  Cl  Cl26  1  0.08795811  0.40114080  0.05942372  1
  Cl  Cl27  1  0.60827269  0.93109236  0.44057551  1
  Cl  Cl28  1  0.40727738  0.07727491  0.55778620  1
  Cl  Cl29  1  0.92472405  0.59355754  0.94217956  1
  Cl  Cl30  1  0.25262990  0.25366680  0.19326086  1
  Cl  Cl31  1  0.75261695  0.76232606  0.55775947  1
  Cl  Cl32  1  0.59885920  0.91204189  0.19057628  1
  Cl  Cl33  1  0.40644246  0.07527595  0.30782044  1
  Cl  Cl34  1  0.92272509  0.59272262  0.69221380  1
  Cl  Cl35  1  0.75676233  0.76571971  0.30837454  1
  Cl  Cl36  1  0.40362068  0.08811996  0.05887101  1
  Cl  Cl37  1  0.92271148  0.59262288  0.44219400  1
  Cl  Cl38  1  0.74633320  0.74737010  0.05673914  1
  Cl  Cl39  1  0.91188004  0.59637932  0.19112899  1
