# generated using pymatgen
data_NdH12(NO5)3
_symmetry_space_group_name_H-M   'P 1'
_cell_length_a   6.90335927
_cell_length_b   9.16691203
_cell_length_c   11.98122000
_cell_angle_alpha   69.76483332
_cell_angle_beta   87.71091778
_cell_angle_gamma   68.72008446
_symmetry_Int_Tables_number   1
_chemical_formula_structural   NdH12(NO5)3
_chemical_formula_sum   'Nd2 H24 N6 O30'
_cell_volume   659.71751101
_cell_formula_units_Z   2
loop_
 _symmetry_equiv_pos_site_id
 _symmetry_equiv_pos_as_xyz
  1  'x, y, z'
loop_
 _atom_site_type_symbol
 _atom_site_label
 _atom_site_symmetry_multiplicity
 _atom_site_fract_x
 _atom_site_fract_y
 _atom_site_fract_z
 _atom_site_occupancy
  Nd  Nd0  1  0.80791809  0.59481690  0.73131195  1
  Nd  Nd1  1  0.19208191  0.40518310  0.26868805  1
  H  H2  1  0.32079026  0.71807257  0.70195146  1
  H  H3  1  0.67920974  0.28192743  0.29804854  1
  H  H4  1  0.64475196  0.11544674  0.37033583  1
  H  H5  1  0.35524804  0.88455326  0.62966417  1
  H  H6  1  0.65407693  0.65427146  0.47226797  1
  H  H7  1  0.34592307  0.34572854  0.52773203  1
  H  H8  1  0.17505032  0.52673195  0.49513101  1
  H  H9  1  0.82494968  0.47326805  0.50486899  1
  H  H10  1  0.36939281  0.67771051  0.25771753  1
  H  H11  1  0.63060719  0.32228949  0.74228247  1
  H  H12  1  0.36031322  0.67569639  0.12512684  1
  H  H13  1  0.63968678  0.32430361  0.87487316  1
  H  H14  1  0.57428512  0.65528328  0.95177322  1
  H  H15  1  0.42571488  0.34471672  0.04822678  1
  H  H16  1  0.77377379  0.48725147  0.00907917  1
  H  H17  1  0.22622621  0.51274853  0.99092083  1
  H  H18  1  0.76904623  0.16222507  0.05934247  1
  H  H19  1  0.23095377  0.83777493  0.94065753  1
  H  H20  1  0.60822018  0.10188760  0.01810449  1
  H  H21  1  0.39177982  0.89811240  0.98189551  1
  H  H22  1  0.27554275  0.83624652  0.37055041  1
  H  H23  1  0.72445725  0.16375348  0.62944959  1
  H  H24  1  0.61296363  0.35529256  0.57440096  1
  H  H25  1  0.38703637  0.64470744  0.42559904  1
  N  N26  1  0.17599060  0.26830551  0.81832558  1
  N  N27  1  0.82400940  0.73169449  0.18167442  1
  N  N28  1  0.92696136  0.82972559  0.49794196  1
  N  N29  1  0.07303864  0.17027441  0.50205804  1
  N  N30  1  0.93640768  0.82373888  0.82422799  1
  N  N31  1  0.06359232  0.17626112  0.17577201  1
  O  O32  1  0.10618021  0.34476315  0.70693023  1
  O  O33  1  0.89381979  0.65523685  0.29306977  1
  O  O34  1  0.08033789  0.34223613  0.88934606  1
  O  O35  1  0.91966211  0.65776387  0.11065394  1
  O  O36  1  0.05874992  0.68689016  0.56713518  1
  O  O37  1  0.94125008  0.31310984  0.43286482  1
  O  O38  1  0.73987835  0.87336545  0.52371075  1
  O  O39  1  0.26012165  0.12663455  0.47628925  1
  O  O40  1  0.75846233  0.86929387  0.76983942  1
  O  O41  1  0.24153767  0.13070613  0.23016058  1
  O  O42  1  0.07257004  0.67871722  0.83027177  1
  O  O43  1  0.92742996  0.32128278  0.16972823  1
  O  O44  1  0.42816079  0.76461557  0.67485031  1
  O  O45  1  0.57183921  0.23538443  0.32514969  1
  O  O46  1  0.72889205  0.55060733  0.54063881  1
  O  O47  1  0.27110795  0.44939267  0.45936119  1
  O  O48  1  0.64073085  0.39133642  0.78889449  1
  O  O49  1  0.35926915  0.60866358  0.21110551  1
  O  O50  1  0.69273377  0.56747502  0.93296871  1
  O  O51  1  0.30726623  0.43252498  0.06703129  1
  O  O52  1  0.32605488  0.13342474  0.85351500  1
  O  O53  1  0.67394512  0.86657526  0.14648500  1
  O  O54  1  0.98298123  0.92078272  0.40949665  1
  O  O55  1  0.01701877  0.07921728  0.59050335  1
  O  O56  1  0.97926906  0.91302605  0.86910592  1
  O  O57  1  0.02073094  0.08697395  0.13089408  1
  O  O58  1  0.63133168  0.20321821  0.01315348  1
  O  O59  1  0.36866832  0.79678179  0.98684652  1
  O  O60  1  0.59564486  0.25533984  0.63128605  1
  O  O61  1  0.40435514  0.74466016  0.36871395  1
