# generated using pymatgen
data_Ta2Mn4O9
_symmetry_space_group_name_H-M   'P 1'
_cell_length_a   5.70486342
_cell_length_b   5.70486326
_cell_length_c   17.12737521
_cell_angle_alpha   56.74390882
_cell_angle_beta   56.74390985
_cell_angle_gamma   56.48269428
_symmetry_Int_Tables_number   1
_chemical_formula_structural   Ta2Mn4O9
_chemical_formula_sum   'Ta4 Mn8 O18'
_cell_volume   363.71424718
_cell_formula_units_Z   2
loop_
 _symmetry_equiv_pos_site_id
 _symmetry_equiv_pos_as_xyz
  1  'x, y, z'
loop_
 _atom_site_type_symbol
 _atom_site_label
 _atom_site_symmetry_multiplicity
 _atom_site_fract_x
 _atom_site_fract_y
 _atom_site_fract_z
 _atom_site_occupancy
  Ta  Ta0  1  0.00084802  0.01905393  0.99583227  1
  Ta  Ta1  1  0.49345580  0.50522077  0.17078922  1
  Ta  Ta2  1  0.00522077  0.99345580  0.67078922  1
  Ta  Ta3  1  0.51905393  0.50084802  0.49583227  1
  Mn  Mn4  1  0.00768841  0.00901185  0.33659548  1
  Mn  Mn5  1  0.27580689  0.28759654  0.09767806  1
  Mn  Mn6  1  0.29851587  0.28447540  0.42824250  1
  Mn  Mn7  1  0.78732818  0.78863904  0.26185678  1
  Mn  Mn8  1  0.28863904  0.28732818  0.76185678  1
  Mn  Mn9  1  0.50901185  0.50768841  0.83659548  1
  Mn  Mn10  1  0.78759654  0.77580689  0.59767806  1
  Mn  Mn11  1  0.78447540  0.79851587  0.92824250  1
  O  O12  1  0.14033932  0.39109336  0.23057673  1
  O  O13  1  0.36197106  0.73177111  0.03972555  1
  O  O14  1  0.73852067  0.12661331  0.12068299  1
  O  O15  1  0.24275065  0.86008135  0.20340693  1
  O  O16  1  0.61032074  0.23470237  0.28579322  1
  O  O17  1  0.12082089  0.35838033  0.57827967  1
  O  O18  1  0.85838033  0.62082089  0.07827967  1
  O  O19  1  0.39032968  0.70228509  0.38023876  1
  O  O20  1  0.69968949  0.12782430  0.46734407  1
  O  O21  1  0.23177111  0.86197106  0.53972555  1
  O  O22  1  0.62661331  0.23852067  0.62068299  1
  O  O23  1  0.10386781  0.36819777  0.91415778  1
  O  O24  1  0.86819777  0.60386781  0.41415778  1
  O  O25  1  0.36008135  0.74275065  0.70340693  1
  O  O26  1  0.73470237  0.11032074  0.78579322  1
  O  O27  1  0.20228509  0.89032968  0.88023876  1
  O  O28  1  0.62782430  0.19968949  0.96734407  1
  O  O29  1  0.89109336  0.64033932  0.73057673  1
