# generated using pymatgen
data_Na2TeHSO5F3
_symmetry_space_group_name_H-M   'P 1'
_cell_length_a   8.37559884
_cell_length_b   7.57162048
_cell_length_c   10.90943072
_cell_angle_alpha   90.00000000
_cell_angle_beta   89.67889229
_cell_angle_gamma   90.00000000
_symmetry_Int_Tables_number   1
_chemical_formula_structural   Na2TeHSO5F3
_chemical_formula_sum   'Na8 Te4 H4 S4 O20 F12'
_cell_volume   691.83092867
_cell_formula_units_Z   4
loop_
 _symmetry_equiv_pos_site_id
 _symmetry_equiv_pos_as_xyz
  1  'x, y, z'
loop_
 _atom_site_type_symbol
 _atom_site_label
 _atom_site_symmetry_multiplicity
 _atom_site_fract_x
 _atom_site_fract_y
 _atom_site_fract_z
 _atom_site_occupancy
  Na  Na0  1  0.44392441  0.50025508  0.75891465  1
  Na  Na1  1  0.55607559  0.00025508  0.74108535  1
  Na  Na2  1  0.55607559  0.49974492  0.24108535  1
  Na  Na3  1  0.44392441  0.99974492  0.25891465  1
  Na  Na4  1  0.25322186  0.23191105  0.52829569  1
  Na  Na5  1  0.74677814  0.73191105  0.97170431  1
  Na  Na6  1  0.74677814  0.76808895  0.47170431  1
  Na  Na7  1  0.25322186  0.26808895  0.02829569  1
  Te  Te8  1  0.91567095  0.46487342  0.71458833  1
  Te  Te9  1  0.08432905  0.96487342  0.78541167  1
  Te  Te10  1  0.08432905  0.53512658  0.28541167  1
  Te  Te11  1  0.91567095  0.03512658  0.21458833  1
  H  H12  1  0.93026535  0.14692784  0.93433768  1
  H  H13  1  0.06973465  0.64692784  0.56566232  1
  H  H14  1  0.06973465  0.85307216  0.06566232  1
  H  H15  1  0.93026535  0.35307216  0.43433768  1
  S  S16  1  0.64189911  0.23768065  0.51231967  1
  S  S17  1  0.35810089  0.73768065  0.98768033  1
  S  S18  1  0.35810089  0.76231935  0.48768033  1
  S  S19  1  0.64189911  0.26231935  0.01231967  1
  O  O20  1  0.03983072  0.15985295  0.89318091  1
  O  O21  1  0.96016928  0.65985295  0.60681909  1
  O  O22  1  0.96016928  0.84014705  0.10681909  1
  O  O23  1  0.03983072  0.34014705  0.39318091  1
  O  O24  1  0.69318982  0.05630486  0.54221808  1
  O  O25  1  0.30681018  0.55630486  0.95778192  1
  O  O26  1  0.30681018  0.94369514  0.45778192  1
  O  O27  1  0.69318982  0.44369514  0.04221808  1
  O  O28  1  0.78510752  0.36515042  0.52933312  1
  O  O29  1  0.21489248  0.86515042  0.97066688  1
  O  O30  1  0.21489248  0.63484958  0.47066688  1
  O  O31  1  0.78510752  0.13484958  0.02933312  1
  O  O32  1  0.51434445  0.29462402  0.59825751  1
  O  O33  1  0.48565555  0.79462402  0.90174249  1
  O  O34  1  0.48565555  0.70537598  0.40174249  1
  O  O35  1  0.51434445  0.20537598  0.09825751  1
  O  O36  1  0.59283784  0.24654458  0.88285775  1
  O  O37  1  0.40716216  0.74654458  0.61714225  1
  O  O38  1  0.40716216  0.75345542  0.11714225  1
  O  O39  1  0.59283784  0.25345542  0.38285775  1
  F  F40  1  0.02694493  0.10189404  0.63942374  1
  F  F41  1  0.97305507  0.60189404  0.86057626  1
  F  F42  1  0.97305507  0.89810596  0.36057626  1
  F  F43  1  0.02694493  0.39810596  0.13942374  1
  F  F44  1  0.28969154  0.09527480  0.76389429  1
  F  F45  1  0.71030846  0.59527480  0.73610571  1
  F  F46  1  0.71030846  0.90472520  0.23610571  1
  F  F47  1  0.28969154  0.40472520  0.26389429  1
  F  F48  1  0.15719089  0.42783385  0.69473893  1
  F  F49  1  0.84280911  0.92783385  0.80526107  1
  F  F50  1  0.84280911  0.57216615  0.30526107  1
  F  F51  1  0.15719089  0.07216615  0.19473893  1
