# generated using pymatgen
data_Tl2Mo7O22
_symmetry_space_group_name_H-M   'P 1'
_cell_length_a   5.65398570
_cell_length_b   10.87674857
_cell_length_c   16.60342016
_cell_angle_alpha   84.88519929
_cell_angle_beta   80.19673042
_cell_angle_gamma   74.93518621
_symmetry_Int_Tables_number   1
_chemical_formula_structural   Tl2Mo7O22
_chemical_formula_sum   'Tl4 Mo14 O44'
_cell_volume   970.48977205
_cell_formula_units_Z   2
loop_
 _symmetry_equiv_pos_site_id
 _symmetry_equiv_pos_as_xyz
  1  'x, y, z'
loop_
 _atom_site_type_symbol
 _atom_site_label
 _atom_site_symmetry_multiplicity
 _atom_site_fract_x
 _atom_site_fract_y
 _atom_site_fract_z
 _atom_site_occupancy
  Tl  Tl0  1  0.35251467  0.87816619  0.33280984  1
  Tl  Tl1  1  0.64748533  0.12183381  0.66719016  1
  Tl  Tl2  1  0.06349070  0.62183381  0.16719016  1
  Tl  Tl3  1  0.93650930  0.37816619  0.83280984  1
  Mo  Mo4  1  0.21958823  0.65613154  0.90728510  1
  Mo  Mo5  1  0.52518592  0.52999421  0.63762052  1
  Mo  Mo6  1  0.11068362  0.25000000  0.25000000  1
  Mo  Mo7  1  0.88931638  0.75000000  0.75000000  1
  Mo  Mo8  1  0.51002629  0.84174318  0.02562503  1
  Mo  Mo9  1  0.28300487  0.84386846  0.59271490  1
  Mo  Mo10  1  0.48997371  0.15825682  0.97437497  1
  Mo  Mo11  1  0.12260550  0.34174318  0.52562503  1
  Mo  Mo12  1  0.87739450  0.65825682  0.47437497  1
  Mo  Mo13  1  0.80719935  0.02999421  0.13762052  1
  Mo  Mo14  1  0.47481408  0.47000579  0.36237948  1
  Mo  Mo15  1  0.78041177  0.34386846  0.09271490  1
  Mo  Mo16  1  0.19280065  0.97000579  0.86237948  1
  Mo  Mo17  1  0.71699513  0.15613154  0.40728510  1
  O  O18  1  0.44251161  0.30053559  0.45457993  1
  O  O19  1  0.55748839  0.69946441  0.54542007  1
  O  O20  1  0.77235305  0.92166588  0.21909523  1
  O  O21  1  0.55502967  0.07842673  0.35911567  1
  O  O22  1  0.22764695  0.07833412  0.78090477  1
  O  O23  1  0.27865172  0.66998960  0.67897511  1
  O  O24  1  0.48500416  0.74037412  0.11137458  1
  O  O25  1  0.37753240  0.15060393  0.19762691  1
  O  O26  1  0.64045854  0.54349146  0.41579900  1
  O  O27  1  0.62246760  0.84939607  0.80237309  1
  O  O28  1  0.18591632  0.56210130  0.99626306  1
  O  O29  1  0.75571933  0.06210130  0.49626306  1
  O  O30  1  0.50742793  0.57842673  0.85911567  1
  O  O31  1  0.72134828  0.33001040  0.32102489  1
  O  O32  1  0.95085078  0.27302312  0.47345120  1
  O  O33  1  0.30237287  0.80053559  0.95457993  1
  O  O34  1  0.77423676  0.65060393  0.69762691  1
  O  O35  1  0.90025100  0.04349146  0.91579900  1
  O  O36  1  0.41332394  0.01219318  0.93322340  1
  O  O37  1  0.51499584  0.25962588  0.88862542  1
  O  O38  1  0.85874052  0.48780682  0.56677660  1
  O  O39  1  0.03353614  0.12188310  0.33457446  1
  O  O40  1  0.19732510  0.22697688  0.02654880  1
  O  O41  1  0.98999370  0.37811690  0.16542554  1
  O  O42  1  0.87238357  0.16998960  0.17897511  1
  O  O43  1  0.22576324  0.34939607  0.30237309  1
  O  O44  1  0.04914922  0.72697688  0.52654880  1
  O  O45  1  0.01000630  0.62188310  0.83457446  1
  O  O46  1  0.14125948  0.51219318  0.43322340  1
  O  O47  1  0.58688584  0.42166588  0.71909523  1
  O  O48  1  0.96646386  0.87811690  0.66542554  1
  O  O49  1  0.49257207  0.42157327  0.14088433  1
  O  O50  1  0.24428067  0.93789870  0.50373694  1
  O  O51  1  0.69762713  0.19946441  0.04542007  1
  O  O52  1  0.35954146  0.45650854  0.58420100  1
  O  O53  1  0.41311416  0.57833412  0.28090477  1
  O  O54  1  0.83675286  0.75962588  0.38862542  1
  O  O55  1  0.81408368  0.43789870  0.00373694  1
  O  O56  1  0.44497033  0.92157327  0.64088433  1
  O  O57  1  0.80267490  0.77302312  0.97345120  1
  O  O58  1  0.16324714  0.24037412  0.61137458  1
  O  O59  1  0.12761643  0.83001040  0.82102489  1
  O  O60  1  0.58667606  0.98780682  0.06677660  1
  O  O61  1  0.09974900  0.95650854  0.08420100  1
