# generated using pymatgen
data_Sr18Ni13O42
_symmetry_space_group_name_H-M   'P 1'
_cell_length_a   13.24127075
_cell_length_b   13.24127022
_cell_length_c   13.24127029
_cell_angle_alpha   41.93527215
_cell_angle_beta   41.93527471
_cell_angle_gamma   41.93527304
_symmetry_Int_Tables_number   1
_chemical_formula_structural   Sr18Ni13O42
_chemical_formula_sum   'Sr18 Ni13 O42'
_cell_volume   937.79059634
_cell_formula_units_Z   1
loop_
 _symmetry_equiv_pos_site_id
 _symmetry_equiv_pos_as_xyz
  1  'x, y, z'
loop_
 _atom_site_type_symbol
 _atom_site_label
 _atom_site_symmetry_multiplicity
 _atom_site_fract_x
 _atom_site_fract_y
 _atom_site_fract_z
 _atom_site_occupancy
  Sr  Sr0  1  0.00424891  0.72126759  0.36209922  1
  Sr  Sr1  1  0.36209922  0.00424891  0.72126759  1
  Sr  Sr2  1  0.08259638  0.41164873  0.75821433  1
  Sr  Sr3  1  0.72126759  0.36209922  0.00424891  1
  Sr  Sr4  1  0.41164873  0.75821433  0.08259638  1
  Sr  Sr5  1  0.13446542  0.79436526  0.48968962  1
  Sr  Sr6  1  0.75821433  0.08259638  0.41164873  1
  Sr  Sr7  1  0.48968962  0.13446542  0.79436526  1
  Sr  Sr8  1  0.21222102  0.49596488  0.87310945  1
  Sr  Sr9  1  0.79436526  0.48968962  0.13446542  1
  Sr  Sr10  1  0.49596488  0.87310945  0.21222102  1
  Sr  Sr11  1  0.24852513  0.92078628  0.57823633  1
  Sr  Sr12  1  0.87310945  0.21222102  0.49596488  1
  Sr  Sr13  1  0.57823633  0.24852513  0.92078628  1
  Sr  Sr14  1  0.28415053  0.63555005  0.99727479  1
  Sr  Sr15  1  0.92078628  0.57823633  0.24852513  1
  Sr  Sr16  1  0.63555005  0.99727479  0.28415053  1
  Sr  Sr17  1  0.99727479  0.28415053  0.63555005  1
  Ni  Ni18  1  0.99933746  0.99933746  0.99933746  1
  Ni  Ni19  1  0.06811280  0.06811280  0.06811280  1
  Ni  Ni20  1  0.21608492  0.21608492  0.21608492  1
  Ni  Ni21  1  0.28514617  0.28514617  0.28514617  1
  Ni  Ni22  1  0.35771463  0.35771463  0.35771463  1
  Ni  Ni23  1  0.43129742  0.43129742  0.43129742  1
  Ni  Ni24  1  0.50001633  0.50001633  0.50001633  1
  Ni  Ni25  1  0.56872097  0.56872097  0.56872097  1
  Ni  Ni26  1  0.64202887  0.64202887  0.64202887  1
  Ni  Ni27  1  0.71537121  0.71537121  0.71537121  1
  Ni  Ni28  1  0.78459690  0.78459690  0.78459690  1
  Ni  Ni29  1  0.85805420  0.85805420  0.85805420  1
  Ni  Ni30  1  0.93103085  0.93103085  0.93103085  1
  O  O31  1  0.02236828  0.36651207  0.18142749  1
  O  O32  1  0.18142749  0.02236828  0.36651207  1
  O  O33  1  0.36651207  0.18142749  0.02236828  1
  O  O34  1  0.09953363  0.25116481  0.40318825  1
  O  O35  1  0.25116481  0.40318825  0.09953363  1
  O  O36  1  0.40318825  0.09953363  0.25116481  1
  O  O37  1  0.15406319  0.47002025  0.32480389  1
  O  O38  1  0.32480389  0.15406319  0.47002025  1
  O  O39  1  0.47002025  0.32480389  0.15406319  1
  O  O40  1  0.04129673  0.18121504  0.87135815  1
  O  O41  1  0.18121504  0.87135815  0.04129673  1
  O  O42  1  0.24852987  0.55073091  0.40058796  1
  O  O43  1  0.40058796  0.24852987  0.55073091  1
  O  O44  1  0.09051359  0.93062002  0.26045890  1
  O  O45  1  0.55073091  0.40058796  0.24852987  1
  O  O46  1  0.26045890  0.09051359  0.93062002  1
  O  O47  1  0.87135815  0.04129673  0.18121504  1
  O  O48  1  0.31774432  0.45903989  0.62420576  1
  O  O49  1  0.45903989  0.62420576  0.31774432  1
  O  O50  1  0.62420576  0.31774432  0.45903989  1
  O  O51  1  0.93062002  0.26045890  0.09051359  1
  O  O52  1  0.05319227  0.74732307  0.89967391  1
  O  O53  1  0.37669975  0.67972797  0.54222460  1
  O  O54  1  0.54222460  0.37669975  0.67972797  1
  O  O55  1  0.67972797  0.54222460  0.37669975  1
  O  O56  1  0.12417751  0.95808239  0.81777681  1
  O  O57  1  0.74732307  0.89967391  0.05319227  1
  O  O58  1  0.44876022  0.59833733  0.75295738  1
  O  O59  1  0.89967391  0.05319227  0.74732307  1
  O  O60  1  0.59833733  0.75295738  0.44876022  1
  O  O61  1  0.75295738  0.44876022  0.59833733  1
  O  O62  1  0.81777681  0.12417751  0.95808239  1
  O  O63  1  0.95808239  0.81777681  0.12417751  1
  O  O64  1  0.53109078  0.67565444  0.84558351  1
  O  O65  1  0.67565444  0.84558351  0.53109078  1
  O  O66  1  0.84558351  0.53109078  0.67565444  1
  O  O67  1  0.60029764  0.90073140  0.74935527  1
  O  O68  1  0.74935527  0.60029764  0.90073140  1
  O  O69  1  0.90073140  0.74935527  0.60029764  1
  O  O70  1  0.65383136  0.82328013  0.96993262  1
  O  O71  1  0.82328013  0.96993262  0.65383136  1
  O  O72  1  0.96993262  0.65383136  0.82328013  1
