# generated using pymatgen
data_Al3P2H14(O5F)3
_symmetry_space_group_name_H-M   'P 1'
_cell_length_a   9.37195405
_cell_length_b   10.16570820
_cell_length_c   7.13976132
_cell_angle_alpha   97.62566876
_cell_angle_beta   100.06827424
_cell_angle_gamma   95.73271811
_symmetry_Int_Tables_number   1
_chemical_formula_structural   Al3P2H14(O5F)3
_chemical_formula_sum   'Al6 P4 H28 O30 F6'
_cell_volume   658.52351981
_cell_formula_units_Z   2
loop_
 _symmetry_equiv_pos_site_id
 _symmetry_equiv_pos_as_xyz
  1  'x, y, z'
loop_
 _atom_site_type_symbol
 _atom_site_label
 _atom_site_symmetry_multiplicity
 _atom_site_fract_x
 _atom_site_fract_y
 _atom_site_fract_z
 _atom_site_occupancy
  Al  Al0  1  0.31772755  0.15178501  0.38281265  1
  Al  Al1  1  0.68227245  0.84821499  0.61718735  1
  Al  Al2  1  0.55419544  0.29344466  0.82397539  1
  Al  Al3  1  0.44580456  0.70655534  0.17602461  1
  Al  Al4  1  0.77086333  0.37597575  0.29311208  1
  Al  Al5  1  0.22913667  0.62402425  0.70688792  1
  P  P6  1  0.66550006  0.12886686  0.47119009  1
  P  P7  1  0.33449994  0.87113314  0.52880991  1
  P  P8  1  0.42956234  0.39835522  0.19391159  1
  P  P9  1  0.57043766  0.60164478  0.80608841  1
  H  H10  1  0.25265735  0.93531248  0.13893777  1
  H  H11  1  0.74734265  0.06468752  0.86106223  1
  H  H12  1  0.18377395  0.04146182  0.00841089  1
  H  H13  1  0.81622605  0.95853818  0.99158911  1
  H  H14  1  0.04060024  0.09172210  0.34269345  1
  H  H15  1  0.95939976  0.90827790  0.65730655  1
  H  H16  1  0.06507084  0.24765771  0.34188942  1
  H  H17  1  0.93492916  0.75234229  0.65811058  1
  H  H18  1  0.48785672  0.03131414  0.80573125  1
  H  H19  1  0.51214328  0.96868586  0.19426875  1
  H  H20  1  0.41515477  0.10854520  0.96922280  1
  H  H21  1  0.58484523  0.89145480  0.03077720  1
  H  H22  1  0.91034179  0.52220078  0.61451291  1
  H  H23  1  0.08965821  0.47779922  0.38548709  1
  H  H24  1  0.75017691  0.45704350  0.63379208  1
  H  H25  1  0.24982309  0.54295650  0.36620792  1
  H  H26  1  0.89936431  0.59658945  0.19806669  1
  H  H27  1  0.10063569  0.40341055  0.80193331  1
  H  H28  1  0.72485273  0.59436634  0.16180954  1
  H  H29  1  0.27514727  0.40563366  0.83819046  1
  H  H30  1  0.16137758  0.05410314  0.69449289  1
  H  H31  1  0.83862242  0.94589686  0.30550711  1
  H  H32  1  0.05551302  0.14069612  0.79879058  1
  H  H33  1  0.94448698  0.85930388  0.20120942  1
  H  H34  1  0.87636223  0.28081339  0.79521241  1
  H  H35  1  0.12363777  0.71918661  0.20478759  1
  H  H36  1  0.97006311  0.31206495  0.00391915  1
  H  H37  1  0.02993689  0.68793505  0.99608085  1
  O  O38  1  0.50442858  0.10171867  0.35992486  1
  O  O39  1  0.49557142  0.89828133  0.64007514  1
  O  O40  1  0.27334391  0.00613739  0.51063666  1
  O  O41  1  0.72665609  0.99386261  0.48936334  1
  O  O42  1  0.32026824  0.29563894  0.25234690  1
  O  O43  1  0.67973176  0.70436106  0.74765310  1
  O  O44  1  0.25227452  0.03097232  0.12970742  1
  O  O45  1  0.74772548  0.96902768  0.87029258  1
  O  O46  1  0.11227953  0.17266673  0.39017673  1
  O  O47  1  0.88772047  0.82733327  0.60982327  1
  O  O48  1  0.67390339  0.20467143  0.67838129  1
  O  O49  1  0.32609661  0.79532857  0.32161871  1
  O  O50  1  0.42566761  0.36005339  0.97373226  1
  O  O51  1  0.57433239  0.63994661  0.02626774  1
  O  O52  1  0.62525775  0.46222482  0.77122419  1
  O  O53  1  0.37474225  0.53777518  0.22877581  1
  O  O54  1  0.49050242  0.11785110  0.89246879  1
  O  O55  1  0.50949758  0.88214890  0.10753121  1
  O  O56  1  0.76022456  0.20438281  0.35746560  1
  O  O57  1  0.23977544  0.79561719  0.64253440  1
  O  O58  1  0.58355372  0.40324824  0.30989838  1
  O  O59  1  0.41644628  0.59675176  0.69010162  1
  O  O60  1  0.83232938  0.44672024  0.56092844  1
  O  O61  1  0.16767062  0.55327976  0.43907156  1
  O  O62  1  0.80812316  0.55350233  0.22924793  1
  O  O63  1  0.19187684  0.44649767  0.77075207  1
  O  O64  1  0.09449771  0.05272390  0.78790221  1
  O  O65  1  0.90550229  0.94727610  0.21209779  1
  O  O66  1  0.97678338  0.28796180  0.86786357  1
  O  O67  1  0.02321662  0.71203820  0.13213643  1
  F  F68  1  0.39641725  0.25991119  0.61528239  1
  F  F69  1  0.60358275  0.74008881  0.38471761  1
  F  F70  1  0.70890321  0.30734570  0.03195325  1
  F  F71  1  0.29109679  0.69265430  0.96804675  1
  F  F72  1  0.96107086  0.36152354  0.26147135  1
  F  F73  1  0.03892914  0.63847646  0.73852865  1
