# generated using pymatgen
data_Na5P5(H9O7)2
_symmetry_space_group_name_H-M   'P 1'
_cell_length_a   11.21269798
_cell_length_b   13.71575563
_cell_length_c   13.04292189
_cell_angle_alpha   90.00000000
_cell_angle_beta   104.00708936
_cell_angle_gamma   90.00000000
_symmetry_Int_Tables_number   1
_chemical_formula_structural   Na5P5(H9O7)2
_chemical_formula_sum   'Na20 P20 H72 O56'
_cell_volume   1946.23587555
_cell_formula_units_Z   4
loop_
 _symmetry_equiv_pos_site_id
 _symmetry_equiv_pos_as_xyz
  1  'x, y, z'
loop_
 _atom_site_type_symbol
 _atom_site_label
 _atom_site_symmetry_multiplicity
 _atom_site_fract_x
 _atom_site_fract_y
 _atom_site_fract_z
 _atom_site_occupancy
  Na  Na0  1  0.23477159  0.23985798  0.49731804  1
  Na  Na1  1  0.73477159  0.26014202  0.99731804  1
  Na  Na2  1  0.76522841  0.76014202  0.50268196  1
  Na  Na3  1  0.26522841  0.73985798  0.00268196  1
  Na  Na4  1  0.11982773  0.43078353  0.35549206  1
  Na  Na5  1  0.61982773  0.06921647  0.85549206  1
  Na  Na6  1  0.88017227  0.56921647  0.64450794  1
  Na  Na7  1  0.38017227  0.93078353  0.14450794  1
  Na  Na8  1  0.62869529  0.93671151  0.35723534  1
  Na  Na9  1  0.12869529  0.56328849  0.85723534  1
  Na  Na10  1  0.37130471  0.06328849  0.64276466  1
  Na  Na11  1  0.87130471  0.43671151  0.14276466  1
  Na  Na12  1  0.56217242  0.17446896  0.54277148  1
  Na  Na13  1  0.06217242  0.32553104  0.04277148  1
  Na  Na14  1  0.43782758  0.82553104  0.45722852  1
  Na  Na15  1  0.93782758  0.67446896  0.95722852  1
  Na  Na16  1  0.07285672  0.67699408  0.54141536  1
  Na  Na17  1  0.57285672  0.82300592  0.04141536  1
  Na  Na18  1  0.92714328  0.32300592  0.45858464  1
  Na  Na19  1  0.42714328  0.17699408  0.95858464  1
  P  P20  1  0.49017768  0.29705611  0.74712197  1
  P  P21  1  0.99017768  0.20294389  0.24712197  1
  P  P22  1  0.50982232  0.70294389  0.25287803  1
  P  P23  1  0.00982232  0.79705611  0.75287803  1
  P  P24  1  0.43463261  0.39085948  0.41959516  1
  P  P25  1  0.93463261  0.10914052  0.91959516  1
  P  P26  1  0.56536739  0.60914052  0.58040484  1
  P  P27  1  0.06536739  0.89085948  0.08040484  1
  P  P28  1  0.96066479  0.89887662  0.38131054  1
  P  P29  1  0.46066479  0.60112338  0.88131054  1
  P  P30  1  0.03933521  0.10112338  0.61868946  1
  P  P31  1  0.53933521  0.39887662  0.11868946  1
  P  P32  1  0.16769403  0.44459529  0.63864426  1
  P  P33  1  0.66769403  0.05540471  0.13864426  1
  P  P34  1  0.83230597  0.55540471  0.36135574  1
  P  P35  1  0.33230597  0.94459529  0.86135574  1
  P  P36  1  0.66928601  0.95082053  0.64215812  1
  P  P37  1  0.16928601  0.54917947  0.14215812  1
  P  P38  1  0.33071399  0.04917947  0.35784188  1
  P  P39  1  0.83071399  0.45082053  0.85784188  1
  H  H40  1  0.57591007  0.36216815  0.71882156  1
  H  H41  1  0.07591007  0.13783185  0.21882156  1
  H  H42  1  0.42408993  0.63783185  0.28117844  1
  H  H43  1  0.92408993  0.86216815  0.78117844  1
  H  H44  1  0.09527146  0.86314567  0.72576912  1
  H  H45  1  0.59527146  0.63685433  0.22576912  1
  H  H46  1  0.90472854  0.13685433  0.27423088  1
  H  H47  1  0.40472854  0.36314567  0.77423088  1
  H  H48  1  0.44654852  0.47209829  0.35469925  1
  H  H49  1  0.94654852  0.02790171  0.85469925  1
  H  H50  1  0.55345148  0.52790171  0.64530075  1
  H  H51  1  0.05345148  0.97209829  0.14530075  1
  H  H52  1  0.97408486  0.91175580  0.27635850  1
  H  H53  1  0.47408486  0.58824420  0.77635850  1
  H  H54  1  0.02591514  0.08824420  0.72364150  1
  H  H55  1  0.52591514  0.41175580  0.22364150  1
  H  H56  1  0.42252086  0.43566413  0.51489036  1
  H  H57  1  0.92252086  0.06433587  0.01489036  1
  H  H58  1  0.57747914  0.56433587  0.48510964  1
  H  H59  1  0.07747914  0.93566413  0.98510964  1
  H  H60  1  0.97305639  0.99610926  0.41997243  1
  H  H61  1  0.47305639  0.50389074  0.91997243  1
  H  H62  1  0.02694361  0.00389074  0.58002757  1
  H  H63  1  0.52694361  0.49610926  0.08002757  1
  H  H64  1  0.18593697  0.37697715  0.72390274  1
  H  H65  1  0.68593697  0.12302285  0.22390274  1
  H  H66  1  0.81406303  0.62302285  0.27609726  1
  H  H67  1  0.31406303  0.87697715  0.77609726  1
  H  H68  1  0.69279594  0.88195192  0.72612163  1
  H  H69  1  0.19279594  0.61804808  0.22612163  1
  H  H70  1  0.30720406  0.11804808  0.27387837  1
  H  H71  1  0.80720406  0.38195192  0.77387837  1
  H  H72  1  0.28870342  0.48065961  0.64439624  1
  H  H73  1  0.78870342  0.01934039  0.14439624  1
  H  H74  1  0.71129658  0.51934039  0.35560376  1
  H  H75  1  0.21129658  0.98065961  0.85560376  1
  H  H76  1  0.78643907  0.99570054  0.64937651  1
  H  H77  1  0.28643907  0.50429946  0.14937651  1
  H  H78  1  0.21356093  0.00429946  0.35062349  1
  H  H79  1  0.71356093  0.49570054  0.85062349  1
  H  H80  1  0.29518000  0.60137773  0.47996035  1
  H  H81  1  0.79518000  0.89862227  0.97996035  1
  H  H82  1  0.70482000  0.39862227  0.52003965  1
  H  H83  1  0.20482000  0.10137773  0.02003965  1
  H  H84  1  0.78276615  0.10321470  0.47989802  1
  H  H85  1  0.28276615  0.39678530  0.97989802  1
  H  H86  1  0.21723385  0.89678530  0.52010198  1
  H  H87  1  0.71723385  0.60321470  0.02010198  1
  H  H88  1  0.21131559  0.64682843  0.38229995  1
  H  H89  1  0.71131559  0.85317157  0.88229995  1
  H  H90  1  0.78868441  0.35317157  0.61770005  1
  H  H91  1  0.28868441  0.14682843  0.11770005  1
  H  H92  1  0.69957688  0.14780526  0.38065179  1
  H  H93  1  0.19957688  0.35219474  0.88065179  1
  H  H94  1  0.30042312  0.85219474  0.61934821  1
  H  H95  1  0.80042312  0.64780526  0.11934821  1
  H  H96  1  0.77422365  0.20554697  0.73530014  1
  H  H97  1  0.27422365  0.29445303  0.23530014  1
  H  H98  1  0.22577635  0.79445303  0.26469986  1
  H  H99  1  0.72577635  0.70554697  0.76469986  1
  H  H100  1  0.27708310  0.69123290  0.73117958  1
  H  H101  1  0.77708310  0.80876710  0.23117958  1
  H  H102  1  0.72291690  0.30876710  0.26882042  1
  H  H103  1  0.22291690  0.19123290  0.76882042  1
  H  H104  1  0.82184194  0.19627022  0.63098797  1
  H  H105  1  0.32184194  0.30372978  0.13098797  1
  H  H106  1  0.17815806  0.80372978  0.36901203  1
  H  H107  1  0.67815806  0.69627022  0.86901203  1
  H  H108  1  0.33708889  0.69250249  0.63311635  1
  H  H109  1  0.83708889  0.80749751  0.13311635  1
  H  H110  1  0.66291111  0.30749751  0.36688365  1
  H  H111  1  0.16291111  0.19250249  0.86688365  1
  O  O112  1  0.42703722  0.23994038  0.64889353  1
  O  O113  1  0.92703722  0.26005962  0.14889353  1
  O  O114  1  0.57296278  0.76005962  0.35110647  1
  O  O115  1  0.07296278  0.73994038  0.85110647  1
  O  O116  1  0.94669109  0.74175360  0.65348078  1
  O  O117  1  0.44669109  0.75824640  0.15348078  1
  O  O118  1  0.05330891  0.25824640  0.34651922  1
  O  O119  1  0.55330891  0.24175360  0.84651922  1
  O  O120  1  0.31420008  0.33905683  0.37158912  1
  O  O121  1  0.81420008  0.16094317  0.87158912  1
  O  O122  1  0.68579992  0.66094317  0.62841088  1
  O  O123  1  0.18579992  0.83905683  0.12841088  1
  O  O124  1  0.83043958  0.86385964  0.37576094  1
  O  O125  1  0.33043958  0.63614036  0.87576094  1
  O  O126  1  0.16956042  0.13614036  0.62423906  1
  O  O127  1  0.66956042  0.36385964  0.12423906  1
  O  O128  1  0.55529037  0.33393400  0.44315247  1
  O  O129  1  0.05529037  0.16606600  0.94315247  1
  O  O130  1  0.44470963  0.66606600  0.55684753  1
  O  O131  1  0.94470963  0.83393400  0.05684753  1
  O  O132  1  0.06958833  0.83897707  0.44220532  1
  O  O133  1  0.56958833  0.66102293  0.94220532  1
  O  O134  1  0.93041167  0.16102293  0.55779468  1
  O  O135  1  0.43041167  0.33897707  0.05779468  1
  O  O136  1  0.12694075  0.38621730  0.53700244  1
  O  O137  1  0.62694075  0.11378270  0.03700244  1
  O  O138  1  0.87305925  0.61378270  0.46299756  1
  O  O139  1  0.37305925  0.88621730  0.96299756  1
  O  O140  1  0.63528737  0.89366693  0.53944567  1
  O  O141  1  0.13528737  0.60633307  0.03944567  1
  O  O142  1  0.36471263  0.10633307  0.46055433  1
  O  O143  1  0.86471263  0.39366693  0.96055433  1
  O  O144  1  0.09071334  0.52905488  0.66204496  1
  O  O145  1  0.59071334  0.97094512  0.16204496  1
  O  O146  1  0.90928666  0.47094512  0.33795504  1
  O  O147  1  0.40928666  0.02905488  0.83795504  1
  O  O148  1  0.58345988  0.02865971  0.66629855  1
  O  O149  1  0.08345988  0.47134029  0.16629855  1
  O  O150  1  0.41654012  0.97134029  0.33370145  1
  O  O151  1  0.91654012  0.52865971  0.83370145  1
  O  O152  1  0.21285594  0.59220447  0.43226698  1
  O  O153  1  0.71285594  0.90779553  0.93226698  1
  O  O154  1  0.78714406  0.40779553  0.56773302  1
  O  O155  1  0.28714406  0.09220447  0.06773302  1
  O  O156  1  0.69974808  0.09586310  0.43317866  1
  O  O157  1  0.19974808  0.40413690  0.93317866  1
  O  O158  1  0.30025192  0.90413690  0.56682134  1
  O  O159  1  0.80025192  0.59586310  0.06682134  1
  O  O160  1  0.75652013  0.22625747  0.66014043  1
  O  O161  1  0.25652013  0.27374253  0.16014043  1
  O  O162  1  0.24347987  0.77374253  0.33985957  1
  O  O163  1  0.74347987  0.72625747  0.83985957  1
  O  O164  1  0.26759928  0.71847224  0.65946662  1
  O  O165  1  0.76759928  0.78152776  0.15946662  1
  O  O166  1  0.73240072  0.28152776  0.34053338  1
  O  O167  1  0.23240072  0.21847224  0.84053338  1
