# generated using pymatgen
data_PH6(NO)2
_symmetry_space_group_name_H-M   'P 1'
_cell_length_a   7.79657933
_cell_length_b   8.34161103
_cell_length_c   7.04153479
_cell_angle_alpha   90.00000000
_cell_angle_beta   116.60596624
_cell_angle_gamma   90.00000000
_symmetry_Int_Tables_number   1
_chemical_formula_structural   PH6(NO)2
_chemical_formula_sum   'P4 H24 N8 O8'
_cell_volume   409.45969271
_cell_formula_units_Z   4
loop_
 _symmetry_equiv_pos_site_id
 _symmetry_equiv_pos_as_xyz
  1  'x, y, z'
loop_
 _atom_site_type_symbol
 _atom_site_label
 _atom_site_symmetry_multiplicity
 _atom_site_fract_x
 _atom_site_fract_y
 _atom_site_fract_z
 _atom_site_occupancy
  P  P0  1  0.86768801  0.47358506  0.85210773  1
  P  P1  1  0.13231199  0.97358506  0.64789227  1
  P  P2  1  0.13231199  0.52641494  0.14789227  1
  P  P3  1  0.86768801  0.02641494  0.35210773  1
  H  H4  1  0.92933438  0.20495812  0.81972979  1
  H  H5  1  0.07066562  0.70495812  0.68027021  1
  H  H6  1  0.07066562  0.79504188  0.18027021  1
  H  H7  1  0.92933438  0.29504188  0.31972979  1
  H  H8  1  0.78911642  0.22678088  0.93988321  1
  H  H9  1  0.21088358  0.72678088  0.56011679  1
  H  H10  1  0.21088358  0.77321912  0.06011679  1
  H  H11  1  0.78911642  0.27321912  0.43988321  1
  H  H12  1  0.30792948  0.40590529  0.86785018  1
  H  H13  1  0.69207052  0.90590529  0.63214982  1
  H  H14  1  0.69207052  0.59409471  0.13214982  1
  H  H15  1  0.30792948  0.09409471  0.36785018  1
  H  H16  1  0.24453358  0.43019996  0.59961680  1
  H  H17  1  0.75546642  0.93019996  0.90038320  1
  H  H18  1  0.75546642  0.56980004  0.40038320  1
  H  H19  1  0.24453358  0.06980004  0.09961680  1
  H  H20  1  0.47888392  0.42972640  0.78367339  1
  H  H21  1  0.52111608  0.92972640  0.71632661  1
  H  H22  1  0.52111608  0.57027360  0.21632661  1
  H  H23  1  0.47888392  0.07027360  0.28367339  1
  H  H24  1  0.34224479  0.25712370  0.72069895  1
  H  H25  1  0.65775521  0.75712370  0.77930105  1
  H  H26  1  0.65775521  0.74287630  0.27930105  1
  H  H27  1  0.34224479  0.24287630  0.22069895  1
  N  N28  1  0.82518863  0.27604775  0.82943249  1
  N  N29  1  0.17481137  0.77604775  0.67056751  1
  N  N30  1  0.17481137  0.72395225  0.17056751  1
  N  N31  1  0.82518863  0.22395225  0.32943249  1
  N  N32  1  0.34367545  0.38094217  0.74483308  1
  N  N33  1  0.65632455  0.88094217  0.75516692  1
  N  N34  1  0.65632455  0.61905783  0.25516692  1
  N  N35  1  0.34367545  0.11905783  0.24483308  1
  O  O36  1  0.90470105  0.52729951  0.66744850  1
  O  O37  1  0.09529895  0.02729951  0.83255150  1
  O  O38  1  0.09529895  0.47270049  0.33255150  1
  O  O39  1  0.90470105  0.97270049  0.16744850  1
  O  O40  1  0.69924458  0.55249662  0.87534716  1
  O  O41  1  0.30075542  0.05249662  0.62465284  1
  O  O42  1  0.30075542  0.44750338  0.12465284  1
  O  O43  1  0.69924458  0.94750338  0.37534716  1
