# generated using pymatgen
data_MgB3H15O13
_symmetry_space_group_name_H-M   'P 1'
_cell_length_a   6.84912184
_cell_length_b   13.16383690
_cell_length_c   12.10909688
_cell_angle_alpha   90.00000000
_cell_angle_beta   104.64145651
_cell_angle_gamma   90.00000000
_symmetry_Int_Tables_number   1
_chemical_formula_structural   MgB3H15O13
_chemical_formula_sum   'Mg4 B12 H60 O52'
_cell_volume   1056.31153405
_cell_formula_units_Z   4
loop_
 _symmetry_equiv_pos_site_id
 _symmetry_equiv_pos_as_xyz
  1  'x, y, z'
loop_
 _atom_site_type_symbol
 _atom_site_label
 _atom_site_symmetry_multiplicity
 _atom_site_fract_x
 _atom_site_fract_y
 _atom_site_fract_z
 _atom_site_occupancy
  Mg  Mg0  1  0.25434888  0.28455927  0.61662026  1
  Mg  Mg1  1  0.74565112  0.78455927  0.88337974  1
  Mg  Mg2  1  0.74565112  0.71544073  0.38337974  1
  Mg  Mg3  1  0.25434888  0.21544073  0.11662026  1
  B  B4  1  0.59972047  0.38187672  0.81429187  1
  B  B5  1  0.40027953  0.88187672  0.68570813  1
  B  B6  1  0.40027953  0.61812328  0.18570813  1
  B  B7  1  0.59972047  0.11812328  0.31429187  1
  B  B8  1  0.37930604  0.51397283  0.69238015  1
  B  B9  1  0.62069396  0.01397283  0.80761985  1
  B  B10  1  0.62069396  0.48602717  0.30761985  1
  B  B11  1  0.37930604  0.98602717  0.19238015  1
  B  B12  1  0.72242531  0.48368457  0.66951925  1
  B  B13  1  0.27757469  0.98368457  0.83048075  1
  B  B14  1  0.27757469  0.51631543  0.33048075  1
  B  B15  1  0.72242531  0.01631543  0.16951925  1
  H  H16  1  0.73868053  0.41135257  0.98567702  1
  H  H17  1  0.26131947  0.91135257  0.51432298  1
  H  H18  1  0.26131947  0.58864743  0.01432298  1
  H  H19  1  0.73868053  0.08864743  0.48567702  1
  H  H20  1  0.58212983  0.22805468  0.77158658  1
  H  H21  1  0.41787017  0.72805468  0.72841342  1
  H  H22  1  0.41787017  0.77194532  0.22841342  1
  H  H23  1  0.58212983  0.27194532  0.27158658  1
  H  H24  1  0.19281139  0.60962152  0.75394700  1
  H  H25  1  0.80718861  0.10962152  0.74605300  1
  H  H26  1  0.80718861  0.39037848  0.24605300  1
  H  H27  1  0.19281139  0.89037848  0.25394700  1
  H  H28  1  0.99514844  0.47288298  0.62478811  1
  H  H29  1  0.00485156  0.97288298  0.87521189  1
  H  H30  1  0.00485156  0.52711702  0.37521189  1
  H  H31  1  0.99514844  0.02711702  0.12478811  1
  H  H32  1  0.21013523  0.46471854  0.53576025  1
  H  H33  1  0.78986477  0.96471854  0.96423975  1
  H  H34  1  0.78986477  0.53528146  0.46423975  1
  H  H35  1  0.21013523  0.03528146  0.03576025  1
  H  H36  1  0.50834864  0.24197324  0.47405917  1
  H  H37  1  0.49165136  0.74197324  0.02594083  1
  H  H38  1  0.49165136  0.75802676  0.52594083  1
  H  H39  1  0.50834864  0.25802676  0.97405917  1
  H  H40  1  0.44414629  0.35769170  0.44797002  1
  H  H41  1  0.55585371  0.85769170  0.05202998  1
  H  H42  1  0.55585371  0.64230830  0.55202998  1
  H  H43  1  0.44414629  0.14230830  0.94797002  1
  H  H44  1  0.87819945  0.23095480  0.47063513  1
  H  H45  1  0.12180055  0.73095480  0.02936487  1
  H  H46  1  0.12180055  0.76904520  0.52936487  1
  H  H47  1  0.87819945  0.26904520  0.97063513  1
  H  H48  1  0.93252197  0.33730120  0.43045139  1
  H  H49  1  0.06747803  0.83730120  0.06954861  1
  H  H50  1  0.06747803  0.66269880  0.56954861  1
  H  H51  1  0.93252197  0.16269880  0.93045139  1
  H  H52  1  0.38554980  0.08357516  0.64187163  1
  H  H53  1  0.61445020  0.58357516  0.85812837  1
  H  H54  1  0.61445020  0.91642484  0.35812837  1
  H  H55  1  0.38554980  0.41642484  0.14187163  1
  H  H56  1  0.21702235  0.09557779  0.52898411  1
  H  H57  1  0.78297765  0.59557779  0.97101589  1
  H  H58  1  0.78297765  0.90442221  0.47101589  1
  H  H59  1  0.21702235  0.40442221  0.02898411  1
  H  H60  1  0.95438804  0.31408746  0.73836456  1
  H  H61  1  0.04561196  0.81408746  0.76163544  1
  H  H62  1  0.04561196  0.68591254  0.26163544  1
  H  H63  1  0.95438804  0.18591254  0.23836456  1
  H  H64  1  0.13741523  0.25346855  0.81308737  1
  H  H65  1  0.86258477  0.75346855  0.68691263  1
  H  H66  1  0.86258477  0.74653145  0.18691263  1
  H  H67  1  0.13741523  0.24653145  0.31308737  1
  H  H68  1  0.02566595  0.46544208  0.86415754  1
  H  H69  1  0.97433405  0.96544208  0.63584246  1
  H  H70  1  0.97433405  0.53455792  0.13584246  1
  H  H71  1  0.02566595  0.03455792  0.36415754  1
  H  H72  1  0.26501989  0.46647557  0.87032438  1
  H  H73  1  0.73498011  0.96647557  0.62967562  1
  H  H74  1  0.73498011  0.53352443  0.12967562  1
  H  H75  1  0.26501989  0.03352443  0.37032438  1
  O  O76  1  0.68611262  0.35380769  0.93481357  1
  O  O77  1  0.31388738  0.85380769  0.56518643  1
  O  O78  1  0.31388738  0.64619231  0.06518643  1
  O  O79  1  0.68611262  0.14619231  0.43481357  1
  O  O80  1  0.50012301  0.29104613  0.75446384  1
  O  O81  1  0.49987699  0.79104613  0.74553616  1
  O  O82  1  0.49987699  0.70895387  0.24553616  1
  O  O83  1  0.50012301  0.20895387  0.25446384  1
  O  O84  1  0.76873889  0.41547837  0.75915429  1
  O  O85  1  0.23126111  0.91547837  0.74084571  1
  O  O86  1  0.23126111  0.58452163  0.24084571  1
  O  O87  1  0.76873889  0.08452163  0.25915429  1
  O  O88  1  0.45556071  0.46687054  0.80426919  1
  O  O89  1  0.54443929  0.96687054  0.69573081  1
  O  O90  1  0.54443929  0.53312946  0.19573081  1
  O  O91  1  0.45556071  0.03312946  0.30426919  1
  O  O92  1  0.28063970  0.61310361  0.70220244  1
  O  O93  1  0.71936030  0.11310361  0.79779756  1
  O  O94  1  0.71936030  0.38689639  0.29779756  1
  O  O95  1  0.28063970  0.88689639  0.20220244  1
  O  O96  1  0.54262702  0.53473591  0.63632587  1
  O  O97  1  0.45737298  0.03473591  0.86367413  1
  O  O98  1  0.45737298  0.46526409  0.36367413  1
  O  O99  1  0.54262702  0.96526409  0.13632587  1
  O  O100  1  0.86065233  0.50749104  0.60788714  1
  O  O101  1  0.13934767  0.00749104  0.89211286  1
  O  O102  1  0.13934767  0.49250896  0.39211286  1
  O  O103  1  0.86065233  0.99250896  0.10788714  1
  O  O104  1  0.22930059  0.44305706  0.61675761  1
  O  O105  1  0.77069941  0.94305706  0.88324239  1
  O  O106  1  0.77069941  0.55694294  0.38324239  1
  O  O107  1  0.22930059  0.05694294  0.11675761  1
  O  O108  1  0.41945571  0.29602391  0.48984378  1
  O  O109  1  0.58054429  0.79602391  0.01015622  1
  O  O110  1  0.58054429  0.70397609  0.51015622  1
  O  O111  1  0.41945571  0.20397609  0.98984378  1
  O  O112  1  0.98869349  0.28280093  0.48473353  1
  O  O113  1  0.01130651  0.78280093  0.01526647  1
  O  O114  1  0.01130651  0.71719907  0.51526647  1
  O  O115  1  0.98869349  0.21719907  0.98473353  1
  O  O116  1  0.27644482  0.12998630  0.60339281  1
  O  O117  1  0.72355518  0.62998630  0.89660719  1
  O  O118  1  0.72355518  0.87001370  0.39660719  1
  O  O119  1  0.27644482  0.37001370  0.10339281  1
  O  O120  1  0.06307341  0.26617390  0.73397963  1
  O  O121  1  0.93692659  0.76617390  0.76602037  1
  O  O122  1  0.93692659  0.73382610  0.26602037  1
  O  O123  1  0.06307341  0.23382610  0.23397963  1
  O  O124  1  0.16038281  0.48108945  0.91366385  1
  O  O125  1  0.83961719  0.98108945  0.58633615  1
  O  O126  1  0.83961719  0.51891055  0.08633615  1
  O  O127  1  0.16038281  0.01891055  0.41366385  1
