# generated using pymatgen
data_Ca2B3(HO)13
_symmetry_space_group_name_H-M   'P 1'
_cell_length_a   8.03672258
_cell_length_b   9.91006100
_cell_length_c   7.40132830
_cell_angle_alpha   110.98232426
_cell_angle_beta   94.66792226
_cell_angle_gamma   107.27502430
_symmetry_Int_Tables_number   1
_chemical_formula_structural   Ca2B3(HO)13
_chemical_formula_sum   'Ca4 B6 H26 O26'
_cell_volume   513.77840647
_cell_formula_units_Z   2
loop_
 _symmetry_equiv_pos_site_id
 _symmetry_equiv_pos_as_xyz
  1  'x, y, z'
loop_
 _atom_site_type_symbol
 _atom_site_label
 _atom_site_symmetry_multiplicity
 _atom_site_fract_x
 _atom_site_fract_y
 _atom_site_fract_z
 _atom_site_occupancy
  Ca  Ca0  1  0.92243425  0.96739959  0.74565064  1
  Ca  Ca1  1  0.07756575  0.03260041  0.25434936  1
  Ca  Ca2  1  0.88488532  0.32694857  0.58253731  1
  Ca  Ca3  1  0.11511468  0.67305143  0.41746269  1
  B  B4  1  0.71634633  0.97157326  0.36693117  1
  B  B5  1  0.28365367  0.02842674  0.63306883  1
  B  B6  1  0.76262230  0.71361220  0.30831202  1
  B  B7  1  0.23737770  0.28638780  0.69168798  1
  B  B8  1  0.47097212  0.71545476  0.15038560  1
  B  B9  1  0.52902788  0.28454524  0.84961440  1
  H  H10  1  0.63281378  0.08027365  0.62826871  1
  H  H11  1  0.36718622  0.91972635  0.37173129  1
  H  H12  1  0.74790851  0.05952681  0.14737183  1
  H  H13  1  0.25209149  0.94047319  0.85262817  1
  H  H14  1  0.74714753  0.60504435  0.50869930  1
  H  H15  1  0.25285247  0.39495565  0.49130070  1
  H  H16  1  0.90652750  0.69792367  0.08755973  1
  H  H17  1  0.09347250  0.30207633  0.91244027  1
  H  H18  1  0.22897040  0.54360628  0.03675693  1
  H  H19  1  0.77102960  0.45639372  0.96324307  1
  H  H20  1  0.49454928  0.57800463  0.87907267  1
  H  H21  1  0.50545072  0.42199537  0.12092733  1
  H  H22  1  0.80565903  0.77718370  0.93468537  1
  H  H23  1  0.19434097  0.22281630  0.06531463  1
  H  H24  1  0.57356811  0.85856203  0.89808247  1
  H  H25  1  0.42643189  0.14143797  0.10191753  1
  H  H26  1  0.56580718  0.99812164  0.83224295  1
  H  H27  1  0.43419282  0.00187836  0.16775705  1
  H  H28  1  0.99666824  0.68987351  0.80692009  1
  H  H29  1  0.00333176  0.31012649  0.19307991  1
  H  H30  1  0.14963019  0.62114130  0.82464931  1
  H  H31  1  0.85036981  0.37885870  0.17535069  1
  H  H32  1  0.56985726  0.35003419  0.35144560  1
  H  H33  1  0.43014274  0.64996581  0.64855440  1
  H  H34  1  0.54433885  0.37669669  0.57566058  1
  H  H35  1  0.45566115  0.62330331  0.42433942  1
  O  O36  1  0.74319371  0.06660798  0.58251018  1
  O  O37  1  0.25680629  0.93339202  0.41748982  1
  O  O38  1  0.79923253  0.09083295  0.28798105  1
  O  O39  1  0.20076747  0.90916705  0.71201895  1
  O  O40  1  0.83050780  0.87803561  0.34921626  1
  O  O41  1  0.16949220  0.12196439  0.65078374  1
  O  O42  1  0.81994248  0.69954903  0.49780221  1
  O  O43  1  0.18005752  0.30045097  0.50219779  1
  O  O44  1  0.86631317  0.63780198  0.16790393  1
  O  O45  1  0.13368683  0.36219802  0.83209607  1
  O  O46  1  0.56885034  0.64284004  0.24408192  1
  O  O47  1  0.43114966  0.35715996  0.75591808  1
  O  O48  1  0.27822093  0.64889191  0.14374787  1
  O  O49  1  0.72177907  0.35110809  0.85625213  1
  O  O50  1  0.50455576  0.68739466  0.94308081  1
  O  O51  1  0.49544424  0.31260534  0.05691919  1
  O  O52  1  0.53005173  0.88404490  0.26685618  1
  O  O53  1  0.46994827  0.11595510  0.73314382  1
  O  O54  1  0.93431539  0.81730426  0.94445233  1
  O  O55  1  0.06568461  0.18269574  0.05554767  1
  O  O56  1  0.64544890  0.95285537  0.88187539  1
  O  O57  1  0.35455110  0.04714463  0.11812461  1
  O  O58  1  0.04783344  0.60633399  0.72837800  1
  O  O59  1  0.95216656  0.39366601  0.27162200  1
  O  O60  1  0.63325558  0.39649221  0.49004701  1
  O  O61  1  0.36674442  0.60350779  0.50995299  1
