# generated using pymatgen
data_Gd4Mo7O27
_symmetry_space_group_name_H-M   'P 1'
_cell_length_a   13.82538479
_cell_length_b   13.82538415
_cell_length_c   14.56225261
_cell_angle_alpha   77.41160532
_cell_angle_beta   77.41160593
_cell_angle_gamma   65.23684543
_symmetry_Int_Tables_number   1
_chemical_formula_structural   Gd4Mo7O27
_chemical_formula_sum   'Gd16 Mo28 O108'
_cell_volume   2441.42056186
_cell_formula_units_Z   4
loop_
 _symmetry_equiv_pos_site_id
 _symmetry_equiv_pos_as_xyz
  1  'x, y, z'
loop_
 _atom_site_type_symbol
 _atom_site_label
 _atom_site_symmetry_multiplicity
 _atom_site_fract_x
 _atom_site_fract_y
 _atom_site_fract_z
 _atom_site_occupancy
  Gd  Gd0  1  0.18459776  0.57096964  0.43670394  1
  Gd  Gd1  1  0.55182779  0.67026943  0.85459115  1
  Gd  Gd2  1  0.07566015  0.68522719  0.93469771  1
  Gd  Gd3  1  0.82773541  0.94347100  0.64455090  1
  Gd  Gd4  1  0.17226459  0.05652900  0.35544910  1
  Gd  Gd5  1  0.92433985  0.31477281  0.06530229  1
  Gd  Gd6  1  0.44817221  0.32973057  0.14540885  1
  Gd  Gd7  1  0.05652900  0.17226459  0.85544910  1
  Gd  Gd8  1  0.67026943  0.55182779  0.35459115  1
  Gd  Gd9  1  0.42903036  0.81540224  0.06329606  1
  Gd  Gd10  1  0.94347100  0.82773541  0.14455090  1
  Gd  Gd11  1  0.81540224  0.42903036  0.56329606  1
  Gd  Gd12  1  0.31477281  0.92433985  0.56530229  1
  Gd  Gd13  1  0.57096964  0.18459776  0.93670394  1
  Gd  Gd14  1  0.32973057  0.44817221  0.64540885  1
  Gd  Gd15  1  0.68522719  0.07566015  0.43469771  1
  Mo  Mo16  1  0.83199602  0.63806251  0.70166520  1
  Mo  Mo17  1  0.11016296  0.35010491  0.61306412  1
  Mo  Mo18  1  0.74384239  0.13212763  0.14583004  1
  Mo  Mo19  1  0.05686040  0.45430505  0.83432536  1
  Mo  Mo20  1  0.75700170  0.36556448  0.85520579  1
  Mo  Mo21  1  0.98106936  0.88091366  0.39871149  1
  Mo  Mo22  1  0.35010491  0.11016296  0.11306412  1
  Mo  Mo23  1  0.48452460  0.37546490  0.39995740  1
  Mo  Mo24  1  0.86787237  0.25615761  0.35416996  1
  Mo  Mo25  1  0.36193749  0.16800398  0.79833480  1
  Mo  Mo26  1  0.45430505  0.05686040  0.33432536  1
  Mo  Mo27  1  0.25615761  0.86787237  0.85416996  1
  Mo  Mo28  1  0.16800398  0.36193749  0.29833480  1
  Mo  Mo29  1  0.13212763  0.74384239  0.64583004  1
  Mo  Mo30  1  0.24299830  0.63443552  0.14479421  1
  Mo  Mo31  1  0.63443552  0.24299830  0.64479421  1
  Mo  Mo32  1  0.01893064  0.11908634  0.60128851  1
  Mo  Mo33  1  0.88983704  0.64989509  0.38693588  1
  Mo  Mo34  1  0.54569495  0.94313960  0.66567464  1
  Mo  Mo35  1  0.88091366  0.98106936  0.89871149  1
  Mo  Mo36  1  0.51547540  0.62453510  0.60004260  1
  Mo  Mo37  1  0.37546490  0.48452460  0.89995740  1
  Mo  Mo38  1  0.11908634  0.01893064  0.10128851  1
  Mo  Mo39  1  0.63806251  0.83199602  0.20166520  1
  Mo  Mo40  1  0.36556448  0.75700170  0.35520579  1
  Mo  Mo41  1  0.62453510  0.51547540  0.10004260  1
  Mo  Mo42  1  0.94313960  0.54569495  0.16567464  1
  Mo  Mo43  1  0.64989509  0.88983704  0.88693588  1
  O  O44  1  0.39477285  0.44650460  0.78601622  1
  O  O45  1  0.28136686  0.68516925  0.37223956  1
  O  O46  1  0.34273066  0.26690547  0.69613887  1
  O  O47  1  0.19004701  0.43706442  0.78524258  1
  O  O48  1  0.40231174  0.20874356  0.88526582  1
  O  O49  1  0.85645714  0.95702259  0.47596107  1
  O  O50  1  0.41235278  0.57599441  0.61238688  1
  O  O51  1  0.90166204  0.29873288  0.23082115  1
  O  O52  1  0.95702259  0.85645714  0.97596107  1
  O  O53  1  0.92210856  0.68040701  0.25621510  1
  O  O54  1  0.80995299  0.56293558  0.21475742  1
  O  O55  1  0.09833796  0.70126712  0.76917885  1
  O  O56  1  0.56174118  0.81513093  0.91865311  1
  O  O57  1  0.18126167  0.22873346  0.56877694  1
  O  O58  1  0.43974959  0.98701499  0.59743273  1
  O  O59  1  0.01362335  0.58023911  0.43412429  1
  O  O60  1  0.58764722  0.42400559  0.38761312  1
  O  O61  1  0.31483075  0.71863314  0.12776044  1
  O  O62  1  0.39368801  0.80694494  0.23301196  1
  O  O63  1  0.36382870  0.45592234  0.47489383  1
  O  O64  1  0.48914567  0.66501044  0.39725065  1
  O  O65  1  0.94590537  0.25556761  0.55867508  1
  O  O66  1  0.56293558  0.80995299  0.71475742  1
  O  O67  1  0.56025041  0.01298501  0.40256727  1
  O  O68  1  0.19305506  0.60631199  0.26698804  1
  O  O69  1  0.19579575  0.62365620  0.58622852  1
  O  O70  1  0.05890904  0.11504289  0.71143547  1
  O  O71  1  0.16140029  0.98839902  0.89765026  1
  O  O72  1  0.77687933  0.19094499  0.37204609  1
  O  O73  1  0.18486907  0.43825882  0.58134689  1
  O  O74  1  0.65532585  0.95560169  0.57704106  1
  O  O75  1  0.11504289  0.05890904  0.21143547  1
  O  O76  1  0.44650460  0.39477285  0.28601622  1
  O  O77  1  0.01298501  0.56025041  0.90256727  1
  O  O78  1  0.70092097  0.12496641  0.58163451  1
  O  O79  1  0.66501044  0.48914567  0.89725065  1
  O  O80  1  0.20874356  0.40231174  0.38526582  1
  O  O81  1  0.81873833  0.77126654  0.43122306  1
  O  O82  1  0.94109096  0.88495711  0.28856453  1
  O  O83  1  0.80905501  0.22312067  0.12795391  1
  O  O84  1  0.57599441  0.41235278  0.11238688  1
  O  O85  1  0.68040701  0.92210856  0.75621510  1
  O  O86  1  0.46353562  0.76725373  0.55967691  1
  O  O87  1  0.74443239  0.05409463  0.94132492  1
  O  O88  1  0.03845486  0.46943929  0.26096985  1
  O  O89  1  0.51085433  0.33498956  0.60274935  1
  O  O90  1  0.14953516  0.24035733  0.34358454  1
  O  O91  1  0.55349540  0.60522715  0.71398378  1
  O  O92  1  0.29873288  0.90166204  0.73082115  1
  O  O93  1  0.88495711  0.94109096  0.78856453  1
  O  O94  1  0.70126712  0.09833796  0.26917885  1
  O  O95  1  0.94263899  0.07464357  0.87902626  1
  O  O96  1  0.04297741  0.14354286  0.02403893  1
  O  O97  1  0.01160098  0.83859971  0.60234974  1
  O  O98  1  0.60631199  0.19305506  0.76698804  1
  O  O99  1  0.63617130  0.54407766  0.52510617  1
  O  O100  1  0.12496641  0.70092097  0.08163451  1
  O  O101  1  0.98701499  0.43974959  0.09743273  1
  O  O102  1  0.41976089  0.98637665  0.06587571  1
  O  O103  1  0.87503359  0.29907903  0.91836549  1
  O  O104  1  0.46943929  0.03845486  0.76096985  1
  O  O105  1  0.33498956  0.51085433  0.10274935  1
  O  O106  1  0.05409463  0.74443239  0.44132492  1
  O  O107  1  0.79125644  0.59768826  0.61473418  1
  O  O108  1  0.80694494  0.39368801  0.73301196  1
  O  O109  1  0.85046484  0.75964267  0.65641546  1
  O  O110  1  0.26690547  0.34273066  0.19613887  1
  O  O111  1  0.92535643  0.05736101  0.62097374  1
  O  O112  1  0.37634380  0.80420425  0.91377148  1
  O  O113  1  0.43706442  0.19004701  0.28524258  1
  O  O114  1  0.07789144  0.31959299  0.74378490  1
  O  O115  1  0.96154514  0.53056071  0.73903015  1
  O  O116  1  0.43825882  0.18486907  0.08134689  1
  O  O117  1  0.05736101  0.92535643  0.12097374  1
  O  O118  1  0.53056071  0.96154514  0.23903015  1
  O  O119  1  0.73309453  0.65726934  0.80386113  1
  O  O120  1  0.34467415  0.04439831  0.42295894  1
  O  O121  1  0.71863314  0.31483075  0.62776044  1
  O  O122  1  0.80420425  0.37634380  0.41377148  1
  O  O123  1  0.24035733  0.14953516  0.84358454  1
  O  O124  1  0.53646438  0.23274627  0.44032309  1
  O  O125  1  0.65726934  0.73309453  0.30386113  1
  O  O126  1  0.54407766  0.63617130  0.02510617  1
  O  O127  1  0.22873346  0.18126167  0.06877694  1
  O  O128  1  0.83859971  0.01160098  0.10234974  1
  O  O129  1  0.23274627  0.53646438  0.94032309  1
  O  O130  1  0.75964267  0.85046484  0.15641546  1
  O  O131  1  0.45592234  0.36382870  0.97489383  1
  O  O132  1  0.25556761  0.94590537  0.05867508  1
  O  O133  1  0.60522715  0.55349540  0.21398378  1
  O  O134  1  0.14354286  0.04297741  0.52403893  1
  O  O135  1  0.77126654  0.81873833  0.93122306  1
  O  O136  1  0.58023911  0.01362335  0.93412429  1
  O  O137  1  0.81513093  0.56174118  0.41865311  1
  O  O138  1  0.62365620  0.19579575  0.08622852  1
  O  O139  1  0.22312067  0.80905501  0.62795391  1
  O  O140  1  0.98637665  0.41976089  0.56587571  1
  O  O141  1  0.98839902  0.16140029  0.39765026  1
  O  O142  1  0.07464357  0.94263899  0.37902626  1
  O  O143  1  0.31959299  0.07789144  0.24378490  1
  O  O144  1  0.29907903  0.87503359  0.41836549  1
  O  O145  1  0.68516925  0.28136686  0.87223956  1
  O  O146  1  0.76725373  0.46353562  0.05967691  1
  O  O147  1  0.95560169  0.65532585  0.07704106  1
  O  O148  1  0.42400559  0.58764722  0.88761312  1
  O  O149  1  0.04439831  0.34467415  0.92295894  1
  O  O150  1  0.59768826  0.79125644  0.11473418  1
  O  O151  1  0.19094499  0.77687933  0.87204609  1
