# generated using pymatgen
data_K2B5H5O11
_symmetry_space_group_name_H-M   'P 1'
_cell_length_a   12.57465564
_cell_length_b   6.75721787
_cell_length_c   11.66580057
_cell_angle_alpha   90.00000000
_cell_angle_beta   90.00000000
_cell_angle_gamma   90.00000000
_symmetry_Int_Tables_number   1
_chemical_formula_structural   K2B5H5O11
_chemical_formula_sum   'K8 B20 H20 O44'
_cell_volume   991.23943237
_cell_formula_units_Z   4
loop_
 _symmetry_equiv_pos_site_id
 _symmetry_equiv_pos_as_xyz
  1  'x, y, z'
loop_
 _atom_site_type_symbol
 _atom_site_label
 _atom_site_symmetry_multiplicity
 _atom_site_fract_x
 _atom_site_fract_y
 _atom_site_fract_z
 _atom_site_occupancy
  K  K0  1  0.54270955  0.35423946  0.99433115  1
  K  K1  1  0.45729045  0.64576054  0.49433115  1
  K  K2  1  0.95729045  0.85423946  0.49433115  1
  K  K3  1  0.04270955  0.14576054  0.99433115  1
  K  K4  1  0.75238530  0.00827040  0.19429896  1
  K  K5  1  0.24761470  0.99172960  0.69429896  1
  K  K6  1  0.74761470  0.50827040  0.69429896  1
  K  K7  1  0.25238530  0.49172960  0.19429896  1
  B  B8  1  0.78929301  0.50575737  0.02938776  1
  B  B9  1  0.21070699  0.49424263  0.52938776  1
  B  B10  1  0.71070699  0.00575737  0.52938776  1
  B  B11  1  0.28929301  0.99424263  0.02938776  1
  B  B12  1  0.66258162  0.33709396  0.43798696  1
  B  B13  1  0.33741838  0.66290604  0.93798696  1
  B  B14  1  0.83741838  0.83709396  0.93798696  1
  B  B15  1  0.16258162  0.16290604  0.43798696  1
  B  B16  1  0.52077408  0.11224032  0.51648879  1
  B  B17  1  0.47922592  0.88775968  0.01648879  1
  B  B18  1  0.97922592  0.61224032  0.01648879  1
  B  B19  1  0.02077408  0.38775968  0.51648879  1
  B  B20  1  0.72188435  0.45764972  0.24182465  1
  B  B21  1  0.27811565  0.54235028  0.74182465  1
  B  B22  1  0.77811565  0.95764972  0.74182465  1
  B  B23  1  0.22188435  0.04235028  0.24182465  1
  B  B24  1  0.77745908  0.18993370  0.90003649  1
  B  B25  1  0.22254092  0.81006630  0.40003649  1
  B  B26  1  0.72254092  0.68993370  0.40003649  1
  B  B27  1  0.27745908  0.31006630  0.90003649  1
  H  H28  1  0.86089906  0.33775616  0.50962160  1
  H  H29  1  0.13910094  0.66224384  0.00962160  1
  H  H30  1  0.63910094  0.83775616  0.00962160  1
  H  H31  1  0.36089906  0.16224384  0.50962160  1
  H  H32  1  0.93637701  0.31377447  0.17534213  1
  H  H33  1  0.06362299  0.68622553  0.67534213  1
  H  H34  1  0.56362299  0.81377447  0.67534213  1
  H  H35  1  0.43637701  0.18622553  0.17534213  1
  H  H36  1  0.00631535  0.22831356  0.27790005  1
  H  H37  1  0.99368465  0.77168644  0.77790005  1
  H  H38  1  0.49368465  0.72831356  0.77790005  1
  H  H39  1  0.50631535  0.27168644  0.27790005  1
  H  H40  1  0.92921711  0.70520436  0.24069986  1
  H  H41  1  0.07078289  0.29479564  0.74069986  1
  H  H42  1  0.57078289  0.20520436  0.74069986  1
  H  H43  1  0.42921711  0.79479564  0.24069986  1
  H  H44  1  0.01618202  0.86365525  0.22141519  1
  H  H45  1  0.98381798  0.13634475  0.72141519  1
  H  H46  1  0.48381798  0.36365525  0.72141519  1
  H  H47  1  0.51618202  0.63634475  0.22141519  1
  O  O48  1  0.90523097  0.47752455  0.05542540  1
  O  O49  1  0.09476903  0.52247545  0.55542540  1
  O  O50  1  0.59476903  0.97752455  0.55542540  1
  O  O51  1  0.40523097  0.02247545  0.05542540  1
  O  O52  1  0.72733948  0.42245914  0.12678817  1
  O  O53  1  0.27266052  0.57754086  0.62678817  1
  O  O54  1  0.77266052  0.92245914  0.62678817  1
  O  O55  1  0.22733948  0.07754086  0.12678817  1
  O  O56  1  0.67789740  0.31613611  0.31150031  1
  O  O57  1  0.32210260  0.68386389  0.81150031  1
  O  O58  1  0.82210260  0.81613611  0.81150031  1
  O  O59  1  0.17789740  0.18386389  0.31150031  1
  O  O60  1  0.54899192  0.28427359  0.46198695  1
  O  O61  1  0.45100808  0.71572641  0.96198695  1
  O  O62  1  0.95100808  0.78427359  0.96198695  1
  O  O63  1  0.04899192  0.21572641  0.46198695  1
  O  O64  1  0.73473847  0.21418321  0.50596116  1
  O  O65  1  0.26526153  0.78581679  0.00596116  1
  O  O66  1  0.76526153  0.71418321  0.00596116  1
  O  O67  1  0.23473847  0.28581679  0.50596116  1
  O  O68  1  0.75965161  0.38316919  0.92711227  1
  O  O69  1  0.24034839  0.61683081  0.42711227  1
  O  O70  1  0.74034839  0.88316919  0.42711227  1
  O  O71  1  0.25965161  0.11683081  0.92711227  1
  O  O72  1  0.82378316  0.05109522  0.96939340  1
  O  O73  1  0.17621684  0.94890478  0.46939340  1
  O  O74  1  0.67621684  0.55109522  0.46939340  1
  O  O75  1  0.32378316  0.44890478  0.96939340  1
  O  O76  1  0.91519060  0.43609772  0.53526470  1
  O  O77  1  0.08480940  0.56390228  0.03526470  1
  O  O78  1  0.58480940  0.93609772  0.03526470  1
  O  O79  1  0.41519060  0.06390228  0.53526470  1
  O  O80  1  0.74299439  0.13728757  0.78824820  1
  O  O81  1  0.25700561  0.86271243  0.28824820  1
  O  O82  1  0.75700561  0.63728757  0.28824820  1
  O  O83  1  0.24299439  0.36271243  0.78824820  1
  O  O84  1  0.95258120  0.19299300  0.22033214  1
  O  O85  1  0.04741880  0.80700700  0.72033214  1
  O  O86  1  0.54741880  0.69299300  0.72033214  1
  O  O87  1  0.45258120  0.30700700  0.22033214  1
  O  O88  1  0.50174184  0.25129582  0.76985368  1
  O  O89  1  0.49825816  0.74870418  0.26985368  1
  O  O90  1  0.99825816  0.75129582  0.26985368  1
  O  O91  1  0.00174184  0.24870418  0.76985368  1
