# generated using pymatgen
data_LiFePO4
_symmetry_space_group_name_H-M   'P 1'
_cell_length_a   18.73264522
_cell_length_b   5.62009735
_cell_length_c   8.37811639
_cell_angle_alpha   89.99998185
_cell_angle_beta   89.99181290
_cell_angle_gamma   90.00063778
_symmetry_Int_Tables_number   1
_chemical_formula_structural   LiFePO4
_chemical_formula_sum   'Li12 Fe12 P12 O48'
_cell_volume   882.04213407
_cell_formula_units_Z   12
loop_
 _symmetry_equiv_pos_site_id
 _symmetry_equiv_pos_as_xyz
  1  'x, y, z'
loop_
 _atom_site_type_symbol
 _atom_site_label
 _atom_site_symmetry_multiplicity
 _atom_site_fract_x
 _atom_site_fract_y
 _atom_site_fract_z
 _atom_site_occupancy
  Li  Li0  1  0.58263291  0.24497762  0.41606230  1
  Li  Li1  1  0.24915330  0.22953621  0.41288393  1
  Li  Li2  1  0.91734175  0.74496386  0.91608895  1
  Li  Li3  1  0.91568604  0.23192114  0.41380053  1
  Li  Li4  1  0.74917267  0.22955477  0.08702449  1
  Li  Li5  1  0.41572201  0.23190864  0.08625426  1
  Li  Li6  1  0.25081338  0.72954218  0.91298113  1
  Li  Li7  1  0.08432239  0.73191738  0.58620026  1
  Li  Li8  1  0.41736962  0.74495871  0.58387827  1
  Li  Li9  1  0.58427650  0.73192490  0.91378371  1
  Li  Li10  1  0.75085241  0.72953563  0.58709750  1
  Li  Li11  1  0.08265305  0.24497448  0.08391386  1
  Fe  Fe12  1  0.16655812  0.23616833  0.74874888  1
  Fe  Fe13  1  0.66656093  0.23623001  0.75121414  1
  Fe  Fe14  1  0.83326574  0.23670190  0.75204914  1
  Fe  Fe15  1  0.66670637  0.73675760  0.25203366  1
  Fe  Fe16  1  0.16671587  0.73674083  0.24797444  1
  Fe  Fe17  1  0.99979497  0.23482731  0.74903055  1
  Fe  Fe18  1  0.33343660  0.73614140  0.24870694  1
  Fe  Fe19  1  0.50020424  0.73484643  0.24911320  1
  Fe  Fe20  1  0.00021852  0.73485236  0.25096660  1
  Fe  Fe21  1  0.83342798  0.73619131  0.25125376  1
  Fe  Fe22  1  0.33325960  0.23672700  0.74802670  1
  Fe  Fe23  1  0.49981368  0.23478529  0.75092778  1
  P  P24  1  0.74964568  0.23780555  0.40198401  1
  P  P25  1  0.24950399  0.23777830  0.09803386  1
  P  P26  1  0.41640456  0.23624808  0.39966599  1
  P  P27  1  0.91626261  0.23626444  0.10030411  1
  P  P28  1  0.58272587  0.23388978  0.10106293  1
  P  P29  1  0.08285528  0.23390841  0.39892453  1
  P  P30  1  0.41730044  0.73388169  0.89895339  1
  P  P31  1  0.58362250  0.73627081  0.60034066  1
  P  P32  1  0.75042867  0.73779847  0.90199298  1
  P  P33  1  0.91716369  0.73387238  0.60107367  1
  P  P34  1  0.08376898  0.73625718  0.89964474  1
  P  P35  1  0.25031337  0.73778459  0.59800717  1
  O  O36  1  0.25025336  0.51551868  0.71285218  1
  O  O37  1  0.91675622  0.45824423  0.21491636  1
  O  O38  1  0.25005782  0.96150085  0.71093239  1
  O  O39  1  0.01463284  0.23336253  0.50232504  1
  O  O40  1  0.58321065  0.95822595  0.71491121  1
  O  O41  1  0.41684082  0.51130483  0.78518857  1
  O  O42  1  0.51466136  0.23336406  0.99774202  1
  O  O43  1  0.68260254  0.73616401  0.00601936  1
  O  O44  1  0.08325430  0.95822044  0.78508985  1
  O  O45  1  0.41682035  0.45821059  0.28510198  1
  O  O46  1  0.84812485  0.23683740  0.99799437  1
  O  O47  1  0.65046629  0.23598987  0.99675228  1
  O  O48  1  0.31837628  0.73787702  0.49467941  1
  O  O49  1  0.08322182  0.01133728  0.28519761  1
  O  O50  1  0.65192754  0.73683389  0.49793815  1
  O  O51  1  0.58316832  0.01135963  0.21481955  1
  O  O52  1  0.74973891  0.01552201  0.28713073  1
  O  O53  1  0.34954108  0.73597942  0.00322741  1
  O  O54  1  0.91678706  0.51131919  0.71478797  1
  O  O55  1  0.81834064  0.73788708  0.00522099  1
  O  O56  1  0.98536963  0.73336338  0.49769405  1
  O  O57  1  0.48533958  0.73336308  0.00225576  1
  O  O58  1  0.15044591  0.23597829  0.50318996  1
  O  O59  1  0.58336489  0.51229430  0.71360106  1
  O  O60  1  0.98388572  0.23546639  0.99537268  1
  O  O61  1  0.18165220  0.23788230  0.99476684  1
  O  O62  1  0.74993819  0.46151502  0.28904585  1
  O  O63  1  0.41710006  0.95719751  0.78492423  1
  O  O64  1  0.48385751  0.23545708  0.50457437  1
  O  O65  1  0.75007811  0.96147710  0.78907362  1
  O  O66  1  0.58291154  0.45723341  0.21506391  1
  O  O67  1  0.84955411  0.73597857  0.49683769  1
  O  O68  1  0.18264771  0.73616642  0.49407081  1
  O  O69  1  0.51616020  0.73546452  0.49545307  1
  O  O70  1  0.24988790  0.46146206  0.21092902  1
  O  O71  1  0.08341206  0.51229080  0.78640128  1
  O  O72  1  0.91704536  0.95720965  0.71504890  1
  O  O73  1  0.81733693  0.23617308  0.50596450  1
  O  O74  1  0.34808045  0.23682527  0.50207746  1
  O  O75  1  0.15188236  0.73684110  0.00199601  1
  O  O76  1  0.24968332  0.01547499  0.21280902  1
  O  O77  1  0.08296886  0.45719204  0.28495300  1
  O  O78  1  0.01611345  0.73545944  0.00463629  1
  O  O79  1  0.31739616  0.23615768  0.99398622  1
  O  O80  1  0.68160912  0.23789091  0.50524168  1
  O  O81  1  0.75028303  0.51548237  0.78718004  1
  O  O82  1  0.91659681  0.01229166  0.21360483  1
  O  O83  1  0.41666047  0.01227166  0.28641742  1
