# generated using pymatgen
data_BaSi2(H3O4)2
_symmetry_space_group_name_H-M   'P 1'
_cell_length_a   7.93030359
_cell_length_b   10.71225458
_cell_length_c   8.57420627
_cell_angle_alpha   90.00000000
_cell_angle_beta   94.82196775
_cell_angle_gamma   90.00000000
_symmetry_Int_Tables_number   1
_chemical_formula_structural   BaSi2(H3O4)2
_chemical_formula_sum   'Ba4 Si8 H24 O32'
_cell_volume   725.81309992
_cell_formula_units_Z   4
loop_
 _symmetry_equiv_pos_site_id
 _symmetry_equiv_pos_as_xyz
  1  'x, y, z'
loop_
 _atom_site_type_symbol
 _atom_site_label
 _atom_site_symmetry_multiplicity
 _atom_site_fract_x
 _atom_site_fract_y
 _atom_site_fract_z
 _atom_site_occupancy
  Ba  Ba0  1  0.20404105  0.35281258  0.62819679  1
  Ba  Ba1  1  0.79595895  0.85281258  0.87180321  1
  Ba  Ba2  1  0.79595895  0.64718742  0.37180321  1
  Ba  Ba3  1  0.20404105  0.14718742  0.12819679  1
  Si  Si4  1  0.48990488  0.11718038  0.77395274  1
  Si  Si5  1  0.51009512  0.61718038  0.72604726  1
  Si  Si6  1  0.51009512  0.88281962  0.22604726  1
  Si  Si7  1  0.48990488  0.38281962  0.27395274  1
  Si  Si8  1  0.70107566  0.25378534  0.03183310  1
  Si  Si9  1  0.29892434  0.75378534  0.46816690  1
  Si  Si10  1  0.29892434  0.74621466  0.96816690  1
  Si  Si11  1  0.70107566  0.24621466  0.53183310  1
  H  H12  1  0.11919229  0.08909970  0.80863926  1
  H  H13  1  0.88080771  0.58909970  0.69136074  1
  H  H14  1  0.88080771  0.91090030  0.19136074  1
  H  H15  1  0.11919229  0.41090030  0.30863926  1
  H  H16  1  0.93646724  0.14156096  0.77072697  1
  H  H17  1  0.06353276  0.64156096  0.72927303  1
  H  H18  1  0.06353276  0.85843904  0.22927303  1
  H  H19  1  0.93646724  0.35843904  0.27072697  1
  H  H20  1  0.99656711  0.38517277  0.95241666  1
  H  H21  1  0.00343289  0.88517277  0.54758334  1
  H  H22  1  0.00343289  0.61482723  0.04758334  1
  H  H23  1  0.99656711  0.11482723  0.45241666  1
  H  H24  1  0.16345933  0.46504460  0.99640323  1
  H  H25  1  0.83654067  0.96504460  0.50359677  1
  H  H26  1  0.83654067  0.53495540  0.00359677  1
  H  H27  1  0.16345933  0.03495540  0.49640323  1
  H  H28  1  0.81710605  0.32778166  0.76485912  1
  H  H29  1  0.18289395  0.82778166  0.73514088  1
  H  H30  1  0.18289395  0.67221834  0.23514088  1
  H  H31  1  0.81710605  0.17221834  0.26485912  1
  H  H32  1  0.58740595  0.43311261  0.84109929  1
  H  H33  1  0.41259405  0.93311261  0.65890071  1
  H  H34  1  0.41259405  0.56688739  0.15890071  1
  H  H35  1  0.58740595  0.06688739  0.34109929  1
  O  O36  1  0.53535757  0.21105996  0.62853323  1
  O  O37  1  0.46464243  0.71105996  0.87146677  1
  O  O38  1  0.46464243  0.78894004  0.37146677  1
  O  O39  1  0.53535757  0.28894004  0.12853323  1
  O  O40  1  0.51499422  0.97120148  0.71894810  1
  O  O41  1  0.48500578  0.47120148  0.78105190  1
  O  O42  1  0.48500578  0.02879852  0.28105190  1
  O  O43  1  0.51499422  0.52879852  0.21894810  1
  O  O44  1  0.30637234  0.15270889  0.82295345  1
  O  O45  1  0.69362766  0.65270889  0.67704655  1
  O  O46  1  0.69362766  0.84729111  0.17704655  1
  O  O47  1  0.30637234  0.34729111  0.32295345  1
  O  O48  1  0.64182871  0.13308555  0.91873716  1
  O  O49  1  0.35817129  0.63308555  0.58126284  1
  O  O50  1  0.35817129  0.86691445  0.08126284  1
  O  O51  1  0.64182871  0.36691445  0.41873716  1
  O  O52  1  0.76729116  0.36834394  0.92995504  1
  O  O53  1  0.23270884  0.86834394  0.57004496  1
  O  O54  1  0.23270884  0.63165606  0.07004496  1
  O  O55  1  0.76729116  0.13165606  0.42995504  1
  O  O56  1  0.85573641  0.21001392  0.16299518  1
  O  O57  1  0.14426359  0.71001392  0.33700482  1
  O  O58  1  0.14426359  0.78998608  0.83700482  1
  O  O59  1  0.85573641  0.28998608  0.66299518  1
  O  O60  1  0.12233791  0.38252876  0.95752462  1
  O  O61  1  0.87766209  0.88252876  0.54247538  1
  O  O62  1  0.87766209  0.61747124  0.04247538  1
  O  O63  1  0.12233791  0.11747124  0.45752462  1
  O  O64  1  0.99779281  0.07604052  0.83278575  1
  O  O65  1  0.00220719  0.57604052  0.66721425  1
  O  O66  1  0.00220719  0.92395948  0.16721425  1
  O  O67  1  0.99779281  0.42395948  0.33278575  1
