# generated using pymatgen
data_Na13Ca7S12(ClO16)3
_symmetry_space_group_name_H-M   'P 1'
_cell_length_a   9.79741077
_cell_length_b   9.72334254
_cell_length_c   13.77041029
_cell_angle_alpha   89.90200317
_cell_angle_beta   90.03053079
_cell_angle_gamma   120.21301899
_symmetry_Int_Tables_number   1
_chemical_formula_structural   Na13Ca7S12(ClO16)3
_chemical_formula_sum   'Na13 Ca7 S12 Cl3 O48'
_cell_volume   1133.62004855
_cell_formula_units_Z   1
loop_
 _symmetry_equiv_pos_site_id
 _symmetry_equiv_pos_as_xyz
  1  'x, y, z'
loop_
 _atom_site_type_symbol
 _atom_site_label
 _atom_site_symmetry_multiplicity
 _atom_site_fract_x
 _atom_site_fract_y
 _atom_site_fract_z
 _atom_site_occupancy
  Na  Na0  1  0.26937697  0.99892335  0.12659986  1
  Na  Na1  1  0.00277103  0.27200150  0.12547517  1
  Na  Na2  1  0.00637319  0.26365665  0.62035408  1
  Na  Na3  1  0.33113562  0.66426093  0.00164340  1
  Na  Na4  1  0.32003571  0.65353395  0.50470975  1
  Na  Na5  1  0.32693288  0.66048961  0.74474979  1
  Na  Na6  1  0.26595137  0.26132041  0.37402660  1
  Na  Na7  1  0.73045874  0.73162578  0.12477842  1
  Na  Na8  1  0.66628160  0.33925284  0.25151418  1
  Na  Na9  1  0.67237163  0.33300915  0.75217862  1
  Na  Na10  1  0.67188130  0.33725884  0.49429856  1
  Na  Na11  1  0.66691054  0.33606518  0.00700234  1
  Na  Na12  1  0.99090092  0.73416326  0.37186857  1
  Ca  Ca13  1  0.25133896  0.99742387  0.61854473  1
  Ca  Ca14  1  0.32155645  0.66080694  0.24660605  1
  Ca  Ca15  1  0.25514984  0.25621363  0.87542859  1
  Ca  Ca16  1  0.74183981  0.74642066  0.62097815  1
  Ca  Ca17  1  0.00121609  0.74652171  0.87499865  1
  Ca  Ca18  1  0.74483702  0.01096957  0.37677440  1
  Ca  Ca19  1  0.74601670  0.00358834  0.87551903  1
  S  S20  1  0.03416277  0.39830773  0.37413284  1
  S  S21  1  0.03340199  0.39851722  0.87588427  1
  S  S22  1  0.37263834  0.96719983  0.37442705  1
  S  S23  1  0.36871689  0.96957547  0.87454475  1
  S  S24  1  0.39404197  0.36814549  0.12625623  1
  S  S25  1  0.40313114  0.36969934  0.62789840  1
  S  S26  1  0.60012602  0.63586933  0.37441898  1
  S  S27  1  0.60166456  0.63387608  0.87460607  1
  S  S28  1  0.63019402  0.02339136  0.12786762  1
  S  S29  1  0.62624542  0.02595570  0.62829783  1
  S  S30  1  0.97149315  0.60538487  0.12538648  1
  S  S31  1  0.96514522  0.60064792  0.62821483  1
  Cl  Cl32  1  0.99804414  0.99735361  0.44779980  1
  Cl  Cl33  1  0.00052992  0.99794511  0.71331942  1
  Cl  Cl34  1  0.99971636  0.00108867  0.96805255  1
  O  O35  1  0.28225065  0.91323284  0.46698400  1
  O  O36  1  0.26510465  0.90484369  0.96136539  1
  O  O37  1  0.26142840  0.91634380  0.29173032  1
  O  O38  1  0.26009770  0.91821715  0.78789720  1
  O  O39  1  0.14604345  0.66513518  0.12798317  1
  O  O40  1  0.14121253  0.68349497  0.62980714  1
  O  O41  1  0.10660912  0.57563398  0.36220791  1
  O  O42  1  0.10293869  0.57449910  0.86579927  1
  O  O43  1  0.08619919  0.33981193  0.28983324  1
  O  O44  1  0.08681955  0.33985723  0.79197805  1
  O  O45  1  0.09485728  0.36907882  0.46549370  1
  O  O46  1  0.09865221  0.36663729  0.96530413  1
  O  O47  1  0.46976109  0.89536742  0.86780052  1
  O  O48  1  0.46415265  0.87921507  0.36550027  1
  O  O49  1  0.33516626  0.48408013  0.12908140  1
  O  O50  1  0.33410292  0.47421379  0.62886991  1
  O  O51  1  0.51358892  0.84843513  0.13118165  1
  O  O52  1  0.52816750  0.84883172  0.62942601  1
  O  O53  1  0.42468708  0.54421185  0.36027961  1
  O  O54  1  0.42662684  0.53186738  0.86607731  1
  O  O55  1  0.34890864  0.28011448  0.03191859  1
  O  O56  1  0.35919380  0.26714374  0.71721778  1
  O  O57  1  0.32307337  0.25001274  0.20571224  1
  O  O58  1  0.34568373  0.25841797  0.54361419  1
  O  O59  1  0.63180317  0.72722007  0.46765682  1
  O  O60  1  0.63899169  0.73727247  0.96144874  1
  O  O61  1  0.67236189  0.75662195  0.29502552  1
  O  O62  1  0.66114415  0.74411027  0.78820374  1
  O  O63  1  0.56980631  0.45616020  0.13328789  1
  O  O64  1  0.57999721  0.46712825  0.62419154  1
  O  O65  1  0.48530253  0.14102036  0.37514014  1
  O  O66  1  0.46608962  0.14603875  0.87762384  1
  O  O67  1  0.66544643  0.52807302  0.37691979  1
  O  O68  1  0.67966895  0.53675186  0.87844172  1
  O  O69  1  0.54710160  0.11551526  0.13373625  1
  O  O70  1  0.52548820  0.10114656  0.62541671  1
  O  O71  1  0.92919064  0.64992240  0.03072669  1
  O  O72  1  0.91256699  0.66312587  0.54563801  1
  O  O73  1  0.92675126  0.67849857  0.20423518  1
  O  O74  1  0.90407729  0.63767433  0.71906282  1
  O  O75  1  0.88220679  0.42859394  0.13362159  1
  O  O76  1  0.89262145  0.42600370  0.62080024  1
  O  O77  1  0.85723912  0.31764349  0.37575211  1
  O  O78  1  0.85738293  0.31537949  0.87891210  1
  O  O79  1  0.74524190  0.06799158  0.20973883  1
  O  O80  1  0.72708135  0.08502888  0.71660450  1
  O  O81  1  0.72302104  0.06547366  0.03607924  1
  O  O82  1  0.73150095  0.07844479  0.54151794  1
