# generated using pymatgen
data_AlP2H5O9
_symmetry_space_group_name_H-M   'P 1'
_cell_length_a   7.96566716
_cell_length_b   9.36576417
_cell_length_c   9.32963351
_cell_angle_alpha   90.00000000
_cell_angle_beta   110.45606327
_cell_angle_gamma   90.00000000
_symmetry_Int_Tables_number   1
_chemical_formula_structural   AlP2H5O9
_chemical_formula_sum   'Al4 P8 H20 O36'
_cell_volume   652.14167522
_cell_formula_units_Z   4
loop_
 _symmetry_equiv_pos_site_id
 _symmetry_equiv_pos_as_xyz
  1  'x, y, z'
loop_
 _atom_site_type_symbol
 _atom_site_label
 _atom_site_symmetry_multiplicity
 _atom_site_fract_x
 _atom_site_fract_y
 _atom_site_fract_z
 _atom_site_occupancy
  Al  Al0  1  0.13237612  0.28787161  0.93290811  1
  Al  Al1  1  0.86762388  0.78787161  0.56709189  1
  Al  Al2  1  0.86762388  0.71212839  0.06709189  1
  Al  Al3  1  0.13237612  0.21212839  0.43290811  1
  P  P4  1  0.87312585  0.12134881  0.63312947  1
  P  P5  1  0.12687415  0.62134881  0.86687053  1
  P  P6  1  0.12687415  0.87865119  0.36687053  1
  P  P7  1  0.87312585  0.37865119  0.13312947  1
  P  P8  1  0.37415274  0.10896639  0.76646827  1
  P  P9  1  0.62584726  0.60896639  0.73353173  1
  P  P10  1  0.62584726  0.89103361  0.23353173  1
  P  P11  1  0.37415274  0.39103361  0.26646827  1
  H  H12  1  0.13270916  0.08825956  0.13717044  1
  H  H13  1  0.86729084  0.58825956  0.36282956  1
  H  H14  1  0.86729084  0.91174044  0.86282956  1
  H  H15  1  0.13270916  0.41174044  0.63717044  1
  H  H16  1  0.25191708  0.04000999  0.04345938  1
  H  H17  1  0.74808292  0.54000999  0.45654062  1
  H  H18  1  0.74808292  0.95999001  0.95654062  1
  H  H19  1  0.25191708  0.45999001  0.54345938  1
  H  H20  1  0.57411130  0.14279827  0.57668875  1
  H  H21  1  0.42588870  0.64279827  0.92331125  1
  H  H22  1  0.42588870  0.85720173  0.42331125  1
  H  H23  1  0.57411130  0.35720173  0.07668875  1
  H  H24  1  0.22354166  0.90141787  0.72407284  1
  H  H25  1  0.77645834  0.40141787  0.77592716  1
  H  H26  1  0.77645834  0.09858213  0.27592716  1
  H  H27  1  0.22354166  0.59858213  0.22407284  1
  H  H28  1  0.62246481  0.19910231  0.92031820  1
  H  H29  1  0.37753519  0.69910231  0.57968180  1
  H  H30  1  0.37753519  0.80089769  0.07968180  1
  H  H31  1  0.62246481  0.30089769  0.42031820  1
  O  O32  1  0.15415871  0.10535344  0.03986505  1
  O  O33  1  0.84584129  0.60535344  0.46013495  1
  O  O34  1  0.84584129  0.89464656  0.96013495  1
  O  O35  1  0.15415871  0.39464656  0.53986505  1
  O  O36  1  0.97094366  0.35453993  0.02165220  1
  O  O37  1  0.02905634  0.85453993  0.47834780  1
  O  O38  1  0.02905634  0.64546007  0.97834780  1
  O  O39  1  0.97094366  0.14546007  0.52165220  1
  O  O40  1  0.93143273  0.22173096  0.76982870  1
  O  O41  1  0.06856727  0.72173096  0.73017130  1
  O  O42  1  0.06856727  0.77826904  0.23017130  1
  O  O43  1  0.93143273  0.27826904  0.26982870  1
  O  O44  1  0.28948833  0.21416836  0.84298252  1
  O  O45  1  0.71051167  0.71416836  0.65701748  1
  O  O46  1  0.71051167  0.78583164  0.15701748  1
  O  O47  1  0.28948833  0.28583164  0.34298252  1
  O  O48  1  0.33712322  0.36102866  0.09762748  1
  O  O49  1  0.66287678  0.86102866  0.40237252  1
  O  O50  1  0.66287678  0.63897134  0.90237252  1
  O  O51  1  0.33712322  0.13897134  0.59762748  1
  O  O52  1  0.12127987  0.46313804  0.81868936  1
  O  O53  1  0.87872013  0.96313804  0.68131064  1
  O  O54  1  0.87872013  0.53686196  0.18131064  1
  O  O55  1  0.12127987  0.03686196  0.31868936  1
  O  O56  1  0.66837350  0.16246945  0.53244398  1
  O  O57  1  0.33162650  0.66246945  0.96755602  1
  O  O58  1  0.33162650  0.83753055  0.46755602  1
  O  O59  1  0.66837350  0.33753055  0.03244398  1
  O  O60  1  0.33046624  0.94908356  0.79558019  1
  O  O61  1  0.66953376  0.44908356  0.70441981  1
  O  O62  1  0.66953376  0.05091644  0.20441981  1
  O  O63  1  0.33046624  0.55091644  0.29558019  1
  O  O64  1  0.58498131  0.11129818  0.85331350  1
  O  O65  1  0.41501869  0.61129818  0.64668650  1
  O  O66  1  0.41501869  0.88870182  0.14668650  1
  O  O67  1  0.58498131  0.38870182  0.35331350  1
