# generated using pymatgen
data_CuH8(ClO5)2
_symmetry_space_group_name_H-M   'P 1'
_cell_length_a   12.94879938
_cell_length_b   9.65810210
_cell_length_c   7.32512813
_cell_angle_alpha   89.99989049
_cell_angle_beta   89.99942130
_cell_angle_gamma   89.99993090
_symmetry_Int_Tables_number   1
_chemical_formula_structural   CuH8(ClO5)2
_chemical_formula_sum   'Cu4 H32 Cl8 O40'
_cell_volume   916.08657802
_cell_formula_units_Z   4
loop_
 _symmetry_equiv_pos_site_id
 _symmetry_equiv_pos_as_xyz
  1  'x, y, z'
loop_
 _atom_site_type_symbol
 _atom_site_label
 _atom_site_symmetry_multiplicity
 _atom_site_fract_x
 _atom_site_fract_y
 _atom_site_fract_z
 _atom_site_occupancy
  Cu  Cu0  1  0.49999036  0.99999481  0.49997767  1
  Cu  Cu1  1  0.99999861  0.49999935  0.49999075  1
  Cu  Cu2  1  0.49992343  0.50005149  0.00008991  1
  Cu  Cu3  1  0.00012583  0.00003857  0.00010978  1
  H  H4  1  0.62186457  0.96685176  0.22424616  1
  H  H5  1  0.12186162  0.53314691  0.77574398  1
  H  H6  1  0.37813176  0.46685195  0.27575252  1
  H  H7  1  0.87813805  0.03314853  0.72425372  1
  H  H8  1  0.37813649  0.03314599  0.77573998  1
  H  H9  1  0.87813746  0.46685153  0.22425069  1
  H  H10  1  0.62186105  0.53314662  0.72425484  1
  H  H11  1  0.12186553  0.96685168  0.27575539  1
  H  H12  1  0.65346818  0.85247774  0.37630930  1
  H  H13  1  0.15346868  0.64751579  0.62368075  1
  H  H14  1  0.34652966  0.35247362  0.12367906  1
  H  H15  1  0.84652972  0.14751116  0.87631177  1
  H  H16  1  0.34653037  0.14751930  0.62368337  1
  H  H17  1  0.84652809  0.35247966  0.37631181  1
  H  H18  1  0.65346775  0.64751890  0.87630951  1
  H  H19  1  0.15347250  0.85247701  0.12367645  1
  H  H20  1  0.35534352  0.81451306  0.48817570  1
  H  H21  1  0.85534226  0.68548683  0.51182636  1
  H  H22  1  0.64465412  0.31452428  0.01182065  1
  H  H23  1  0.14466055  0.18549084  0.98815698  1
  H  H24  1  0.64465411  0.18548347  0.51181706  1
  H  H25  1  0.14465688  0.31450968  0.48816663  1
  H  H26  1  0.35534034  0.68548272  0.98816499  1
  H  H27  1  0.85534175  0.81452005  0.01182477  1
  H  H28  1  0.46208732  0.74437866  0.42301818  1
  H  H29  1  0.96208702  0.75561967  0.57696499  1
  H  H30  1  0.53791354  0.24438031  0.07696218  1
  H  H31  1  0.03790611  0.25561946  0.92303885  1
  H  H32  1  0.53791272  0.25561711  0.57697522  1
  H  H33  1  0.03790984  0.24437574  0.42302801  1
  H  H34  1  0.46209048  0.75562162  0.92302847  1
  H  H35  1  0.96208344  0.74438152  0.07695393  1
  Cl  Cl36  1  0.83698247  0.06942906  0.34962980  1
  Cl  Cl37  1  0.33699350  0.43055549  0.65036692  1
  Cl  Cl38  1  0.16300799  0.56943195  0.15037038  1
  Cl  Cl39  1  0.66301394  0.93056196  0.84963158  1
  Cl  Cl40  1  0.16300956  0.93055946  0.65036709  1
  Cl  Cl41  1  0.66301211  0.56943485  0.34963137  1
  Cl  Cl42  1  0.83698161  0.43055985  0.84962883  1
  Cl  Cl43  1  0.33699382  0.06943371  0.15036797  1
  O  O44  1  0.62322381  0.94651558  0.35828989  1
  O  O45  1  0.12322659  0.55348176  0.64170192  1
  O  O46  1  0.37675473  0.44651240  0.14172868  1
  O  O47  1  0.87680089  0.05347255  0.85832841  1
  O  O48  1  0.37677099  0.05348214  0.64170299  1
  O  O49  1  0.87677426  0.44651595  0.35829295  1
  O  O50  1  0.62320643  0.55347800  0.85831471  1
  O  O51  1  0.12325478  0.94650665  0.14173639  1
  O  O52  1  0.42181331  0.83132017  0.42464506  1
  O  O53  1  0.92181948  0.66867578  0.57534767  1
  O  O54  1  0.57817307  0.33133946  0.07535074  1
  O  O55  1  0.07819593  0.16868707  0.92464397  1
  O  O56  1  0.57817883  0.16866936  0.57534017  1
  O  O57  1  0.07818128  0.33131839  0.42464531  1
  O  O58  1  0.42180130  0.66867550  0.92464886  1
  O  O59  1  0.92183744  0.83132842  0.07535859  1
  O  O60  1  0.93781634  0.12370914  0.27384004  1
  O  O61  1  0.43781299  0.37629157  0.72615222  1
  O  O62  1  0.06218943  0.62370398  0.22615437  1
  O  O63  1  0.56218111  0.87629419  0.77383567  1
  O  O64  1  0.06218980  0.87629359  0.72615216  1
  O  O65  1  0.56217836  0.62371045  0.27383938  1
  O  O66  1  0.93781473  0.37629256  0.77383690  1
  O  O67  1  0.43780984  0.12370059  0.22615520  1
  O  O68  1  0.78207311  0.19625823  0.42749444  1
  O  O69  1  0.28207854  0.30373543  0.57249292  1
  O  O70  1  0.21792583  0.69626453  0.07249399  1
  O  O71  1  0.71791841  0.80374095  0.92749420  1
  O  O72  1  0.21792703  0.80374042  0.57249691  1
  O  O73  1  0.71791759  0.69626191  0.42749760  1
  O  O74  1  0.78207466  0.30374290  0.92749505  1
  O  O75  1  0.28207754  0.19626284  0.07249576  1
  O  O76  1  0.86036590  0.97476478  0.50613210  1
  O  O77  1  0.36037056  0.52523331  0.49385189  1
  O  O78  1  0.13963282  0.47476282  0.99385604  1
  O  O79  1  0.63962538  0.02523308  0.00614129  1
  O  O80  1  0.13963232  0.02523448  0.49384839  1
  O  O81  1  0.63962771  0.47476589  0.50613187  1
  O  O82  1  0.86036720  0.52523537  0.00613844  1
  O  O83  1  0.36037096  0.97476409  0.99385255  1
