# generated using pymatgen
data_NiB6(H8O9)2
_symmetry_space_group_name_H-M   'P 1'
_cell_length_a   9.01952593
_cell_length_b   21.85209023
_cell_length_c   7.21587051
_cell_angle_alpha   90.00000000
_cell_angle_beta   90.00000000
_cell_angle_gamma   99.65453917
_symmetry_Int_Tables_number   1
_chemical_formula_structural   NiB6(H8O9)2
_chemical_formula_sum   'Ni4 B24 H64 O72'
_cell_volume   1402.07250650
_cell_formula_units_Z   4
loop_
 _symmetry_equiv_pos_site_id
 _symmetry_equiv_pos_as_xyz
  1  'x, y, z'
loop_
 _atom_site_type_symbol
 _atom_site_label
 _atom_site_symmetry_multiplicity
 _atom_site_fract_x
 _atom_site_fract_y
 _atom_site_fract_z
 _atom_site_occupancy
  Ni  Ni0  1  0.36266042  0.60492334  0.39689755  1
  Ni  Ni1  1  0.63733958  0.89507666  0.89689755  1
  Ni  Ni2  1  0.63733958  0.39507666  0.60310245  1
  Ni  Ni3  1  0.36266042  0.10492334  0.10310245  1
  B  B4  1  0.60747482  0.57931416  0.10019360  1
  B  B5  1  0.39252518  0.92068584  0.60019360  1
  B  B6  1  0.39252518  0.42068584  0.89980640  1
  B  B7  1  0.60747482  0.07931416  0.39980640  1
  B  B8  1  0.67356594  0.68668793  0.26603140  1
  B  B9  1  0.32643406  0.81331207  0.76603140  1
  B  B10  1  0.32643406  0.31331207  0.73396860  1
  B  B11  1  0.67356594  0.18668793  0.23396860  1
  B  B12  1  0.84536243  0.60161137  0.32518857  1
  B  B13  1  0.15463757  0.89838863  0.82518857  1
  B  B14  1  0.15463757  0.39838863  0.67481143  1
  B  B15  1  0.84536243  0.10161137  0.17481143  1
  B  B16  1  0.80742120  0.51233983  0.10704628  1
  B  B17  1  0.19257880  0.98766017  0.60704628  1
  B  B18  1  0.19257880  0.48766017  0.89295372  1
  B  B19  1  0.80742120  0.01233983  0.39295372  1
  B  B20  1  0.58563144  0.67805685  0.93722929  1
  B  B21  1  0.41436856  0.82194315  0.43722929  1
  B  B22  1  0.41436856  0.32194315  0.06277071  1
  B  B23  1  0.58563144  0.17805685  0.56277071  1
  B  B24  1  0.93931601  0.71240801  0.36697304  1
  B  B25  1  0.06068399  0.78759199  0.86697304  1
  B  B26  1  0.06068399  0.28759199  0.63302696  1
  B  B27  1  0.93931601  0.21240801  0.13302696  1
  H  H28  1  0.40443390  0.52428364  0.13691036  1
  H  H29  1  0.59556610  0.97571636  0.63691036  1
  H  H30  1  0.59556610  0.47571636  0.86308964  1
  H  H31  1  0.40443390  0.02428364  0.36308964  1
  H  H32  1  0.57072595  0.68954283  0.52287345  1
  H  H33  1  0.42927405  0.81045717  0.02287345  1
  H  H34  1  0.42927405  0.31045717  0.47712655  1
  H  H35  1  0.57072595  0.18954283  0.97712655  1
  H  H36  1  0.68613844  0.58222546  0.53882160  1
  H  H37  1  0.31386156  0.91777454  0.03882160  1
  H  H38  1  0.31386156  0.41777454  0.46117840  1
  H  H39  1  0.68613844  0.08222546  0.96117840  1
  H  H40  1  0.91909795  0.43799610  0.11204756  1
  H  H41  1  0.08090205  0.06200390  0.61204756  1
  H  H42  1  0.08090205  0.56200390  0.88795244  1
  H  H43  1  0.91909795  0.93799610  0.38795244  1
  H  H44  1  0.55693275  0.75082521  0.78583646  1
  H  H45  1  0.44306725  0.74917479  0.28583646  1
  H  H46  1  0.44306725  0.24917479  0.21416354  1
  H  H47  1  0.55693275  0.25082521  0.71416354  1
  H  H48  1  0.14500391  0.74807618  0.45714604  1
  H  H49  1  0.85499609  0.75192382  0.95714604  1
  H  H50  1  0.85499609  0.25192382  0.54285396  1
  H  H51  1  0.14500391  0.24807618  0.04285396  1
  H  H52  1  0.45837477  0.51957963  0.63915040  1
  H  H53  1  0.54162523  0.98042037  0.13915040  1
  H  H54  1  0.54162523  0.48042037  0.36084960  1
  H  H55  1  0.45837477  0.01957963  0.86084960  1
  H  H56  1  0.49284854  0.58383684  0.73763884  1
  H  H57  1  0.50715146  0.91616316  0.23763884  1
  H  H58  1  0.50715146  0.41616316  0.26236116  1
  H  H59  1  0.49284854  0.08383684  0.76236116  1
  H  H60  1  0.23513282  0.61360662  0.08730927  1
  H  H61  1  0.76486718  0.88639338  0.58730927  1
  H  H62  1  0.76486718  0.38639338  0.91269073  1
  H  H63  1  0.23513282  0.11360662  0.41269073  1
  H  H64  1  0.15757527  0.65109471  0.23546955  1
  H  H65  1  0.84242473  0.84890529  0.73546955  1
  H  H66  1  0.84242473  0.34890529  0.76453045  1
  H  H67  1  0.15757527  0.15109471  0.26453045  1
  H  H68  1  0.16693019  0.64084545  0.65730147  1
  H  H69  1  0.83306981  0.85915455  0.15730147  1
  H  H70  1  0.83306981  0.35915455  0.34269853  1
  H  H71  1  0.16693019  0.14084545  0.84269853  1
  H  H72  1  0.31181367  0.69422024  0.63289931  1
  H  H73  1  0.68818633  0.80577976  0.13289931  1
  H  H74  1  0.68818633  0.30577976  0.36710069  1
  H  H75  1  0.31181367  0.19422024  0.86710069  1
  H  H76  1  0.18185391  0.49213423  0.43827779  1
  H  H77  1  0.81814609  0.00786577  0.93827779  1
  H  H78  1  0.81814609  0.50786577  0.56172221  1
  H  H79  1  0.18185391  0.99213423  0.06172221  1
  H  H80  1  0.08814059  0.53848782  0.33278791  1
  H  H81  1  0.91185941  0.96151218  0.83278791  1
  H  H82  1  0.91185941  0.46151218  0.66721209  1
  H  H83  1  0.08814059  0.03848782  0.16721209  1
  H  H84  1  0.02187952  0.34328914  0.14643357  1
  H  H85  1  0.97812048  0.15671086  0.64643357  1
  H  H86  1  0.97812048  0.65671086  0.85356643  1
  H  H87  1  0.02187952  0.84328914  0.35356643  1
  H  H88  1  0.08396298  0.39188463  0.30519512  1
  H  H89  1  0.91603702  0.10811537  0.80519512  1
  H  H90  1  0.91603702  0.60811537  0.69480488  1
  H  H91  1  0.08396298  0.89188463  0.19480488  1
  O  O92  1  0.47440761  0.55349307  0.21539443  1
  O  O93  1  0.52559239  0.94650693  0.71539443  1
  O  O94  1  0.52559239  0.44650693  0.78460557  1
  O  O95  1  0.47440761  0.05349307  0.28460557  1
  O  O96  1  0.54218031  0.67927601  0.39269137  1
  O  O97  1  0.45781969  0.82072399  0.89269137  1
  O  O98  1  0.45781969  0.32072399  0.60730863  1
  O  O99  1  0.54218031  0.17927601  0.10730863  1
  O  O100  1  0.79348099  0.58163795  0.51536076  1
  O  O101  1  0.20651901  0.91836205  0.01536076  1
  O  O102  1  0.20651901  0.41836205  0.48463924  1
  O  O103  1  0.79348099  0.08163795  0.98463924  1
  O  O104  1  0.83902763  0.45607622  0.04846766  1
  O  O105  1  0.16097237  0.04392378  0.54846766  1
  O  O106  1  0.16097237  0.54392378  0.95153234  1
  O  O107  1  0.83902763  0.95607622  0.45153234  1
  O  O108  1  0.56022215  0.70635614  0.77118072  1
  O  O109  1  0.43977785  0.79364386  0.27118072  1
  O  O110  1  0.43977785  0.29364386  0.22881928  1
  O  O111  1  0.56022215  0.20635614  0.72881928  1
  O  O112  1  0.05029492  0.76076145  0.42209489  1
  O  O113  1  0.94970508  0.73923855  0.92209489  1
  O  O114  1  0.94970508  0.23923855  0.57790511  1
  O  O115  1  0.05029492  0.26076145  0.07790511  1
  O  O116  1  0.67873843  0.52868189  0.03299737  1
  O  O117  1  0.32126157  0.97131811  0.53299737  1
  O  O118  1  0.32126157  0.47131811  0.96700263  1
  O  O119  1  0.67873843  0.02868189  0.46700263  1
  O  O120  1  0.56390324  0.61443840  0.94028688  1
  O  O121  1  0.43609676  0.88556160  0.44028688  1
  O  O122  1  0.43609676  0.38556160  0.05971312  1
  O  O123  1  0.56390324  0.11443840  0.55971312  1
  O  O124  1  0.63432877  0.71308409  0.08926529  1
  O  O125  1  0.36567123  0.78691591  0.58926529  1
  O  O126  1  0.36567123  0.28691591  0.91073471  1
  O  O127  1  0.63432877  0.21308409  0.41073471  1
  O  O128  1  0.79861849  0.72637189  0.34775802  1
  O  O129  1  0.20138151  0.77362811  0.84775802  1
  O  O130  1  0.20138151  0.27362811  0.65224198  1
  O  O131  1  0.79861849  0.22637189  0.15224198  1
  O  O132  1  0.89549779  0.54989318  0.23027258  1
  O  O133  1  0.10450221  0.95010682  0.73027258  1
  O  O134  1  0.10450221  0.45010682  0.76972742  1
  O  O135  1  0.89549779  0.04989318  0.26972742  1
  O  O136  1  0.97025212  0.65370650  0.33479734  1
  O  O137  1  0.02974788  0.84629350  0.83479734  1
  O  O138  1  0.02974788  0.34629350  0.66520266  1
  O  O139  1  0.97025212  0.15370650  0.16520266  1
  O  O140  1  0.71393242  0.62226545  0.22182159  1
  O  O141  1  0.28606758  0.87773455  0.72182159  1
  O  O142  1  0.28606758  0.37773455  0.77817841  1
  O  O143  1  0.71393242  0.12226545  0.27817841  1
  O  O144  1  0.48187441  0.56413793  0.61149275  1
  O  O145  1  0.51812559  0.93586207  0.11149275  1
  O  O146  1  0.51812559  0.43586207  0.38850725  1
  O  O147  1  0.48187441  0.06413793  0.88850725  1
  O  O148  1  0.25688123  0.64556609  0.18491201  1
  O  O149  1  0.74311877  0.85443391  0.68491201  1
  O  O150  1  0.74311877  0.35443391  0.81508799  1
  O  O151  1  0.25688123  0.14556609  0.31508799  1
  O  O152  1  0.25729942  0.65564025  0.58052238  1
  O  O153  1  0.74270058  0.84435975  0.08052238  1
  O  O154  1  0.74270058  0.34435975  0.41947762  1
  O  O155  1  0.25729942  0.15564025  0.91947762  1
  O  O156  1  0.17530203  0.53653992  0.41346708  1
  O  O157  1  0.82469797  0.96346008  0.91346708  1
  O  O158  1  0.82469797  0.46346008  0.58653292  1
  O  O159  1  0.17530203  0.03653992  0.08653292  1
  O  O160  1  0.00139781  0.38040919  0.21317423  1
  O  O161  1  0.99860219  0.11959081  0.71317423  1
  O  O162  1  0.99860219  0.61959081  0.78682577  1
  O  O163  1  0.00139781  0.88040919  0.28682577  1
