# generated using pymatgen
data_Cr2Hg2H2O9
_symmetry_space_group_name_H-M   'P 1'
_cell_length_a   6.59140290
_cell_length_b   6.59140290
_cell_length_c   14.91891372
_cell_angle_alpha   61.89760320
_cell_angle_beta   118.10239680
_cell_angle_gamma   132.30108720
_symmetry_Int_Tables_number   1
_chemical_formula_structural   Cr2Hg2H2O9
_chemical_formula_sum   'Cr4 Hg4 H4 O18'
_cell_volume   410.93179005
_cell_formula_units_Z   2
loop_
 _symmetry_equiv_pos_site_id
 _symmetry_equiv_pos_as_xyz
  1  'x, y, z'
loop_
 _atom_site_type_symbol
 _atom_site_label
 _atom_site_symmetry_multiplicity
 _atom_site_fract_x
 _atom_site_fract_y
 _atom_site_fract_z
 _atom_site_occupancy
  Cr  Cr0  1  0.75913878  0.36048495  0.59827118  1
  Cr  Cr1  1  0.36048495  0.75913878  0.90172882  1
  Cr  Cr2  1  0.24086122  0.63951505  0.40172882  1
  Cr  Cr3  1  0.63951505  0.24086122  0.09827118  1
  Hg  Hg4  1  0.97048174  0.97343531  0.62464696  1
  Hg  Hg5  1  0.97343531  0.97048174  0.87535304  1
  Hg  Hg6  1  0.02951826  0.02656469  0.37535304  1
  Hg  Hg7  1  0.02656469  0.02951826  0.12464696  1
  H  H8  1  0.56511292  0.41718762  0.78865763  1
  H  H9  1  0.41718762  0.56511292  0.71134237  1
  H  H10  1  0.43488708  0.58281238  0.21134237  1
  H  H11  1  0.58281238  0.43488708  0.28865763  1
  O  O12  1  0.97618597  0.24468109  0.66520573  1
  O  O13  1  0.24468109  0.97618597  0.83479427  1
  O  O14  1  0.02381403  0.75531891  0.33479427  1
  O  O15  1  0.75531891  0.02381403  0.16520573  1
  O  O16  1  0.54606786  0.22007755  0.66775074  1
  O  O17  1  0.22007755  0.54606786  0.83224926  1
  O  O18  1  0.45393214  0.77992245  0.33224926  1
  O  O19  1  0.77992245  0.45393214  0.16775074  1
  O  O20  1  0.96920693  0.72475483  0.57348658  1
  O  O21  1  0.72475483  0.96920693  0.92651342  1
  O  O22  1  0.03079307  0.27524517  0.42651342  1
  O  O23  1  0.27524517  0.03079307  0.07348658  1
  O  O24  1  0.57852114  0.27518160  0.48665187  1
  O  O25  1  0.27518160  0.57852114  0.01334813  1
  O  O26  1  0.42147886  0.72481840  0.51334813  1
  O  O27  1  0.72481840  0.42147886  0.98665187  1
  O  O28  1  0.60462605  0.60462605  0.75000000  1
  O  O29  1  0.39537395  0.39537395  0.25000000  1
