# generated using pymatgen
data_Cu2H2Se2O7
_symmetry_space_group_name_H-M   'P 1'
_cell_length_a   8.55119751
_cell_length_b   7.63796660
_cell_length_c   10.63132450
_cell_angle_alpha   90.00000000
_cell_angle_beta   111.62299786
_cell_angle_gamma   90.00000000
_symmetry_Int_Tables_number   1
_chemical_formula_structural   Cu2H2Se2O7
_chemical_formula_sum   'Cu8 H8 Se8 O28'
_cell_volume   645.50790755
_cell_formula_units_Z   4
loop_
 _symmetry_equiv_pos_site_id
 _symmetry_equiv_pos_as_xyz
  1  'x, y, z'
loop_
 _atom_site_type_symbol
 _atom_site_label
 _atom_site_symmetry_multiplicity
 _atom_site_fract_x
 _atom_site_fract_y
 _atom_site_fract_z
 _atom_site_occupancy
  Cu  Cu0  1  0.92088449  0.30215839  0.47301854  1
  Cu  Cu1  1  0.07911551  0.80215839  0.02698146  1
  Cu  Cu2  1  0.07911551  0.69784161  0.52698146  1
  Cu  Cu3  1  0.92088449  0.19784161  0.97301854  1
  Cu  Cu4  1  0.65811318  0.29027080  0.11065039  1
  Cu  Cu5  1  0.34188682  0.79027080  0.38934961  1
  Cu  Cu6  1  0.34188682  0.70972920  0.88934961  1
  Cu  Cu7  1  0.65811318  0.20972920  0.61065039  1
  H  H8  1  0.27228874  0.25872453  0.57463826  1
  H  H9  1  0.72771126  0.75872453  0.92536174  1
  H  H10  1  0.72771126  0.74127547  0.42536174  1
  H  H11  1  0.27228874  0.24127547  0.07463826  1
  H  H12  1  0.17296854  0.08668479  0.60353012  1
  H  H13  1  0.82703146  0.58668479  0.89646988  1
  H  H14  1  0.82703146  0.91331521  0.39646988  1
  H  H15  1  0.17296854  0.41331521  0.10353012  1
  Se  Se16  1  0.05894678  0.40191566  0.78529466  1
  Se  Se17  1  0.94105322  0.90191566  0.71470534  1
  Se  Se18  1  0.94105322  0.59808434  0.21470534  1
  Se  Se19  1  0.05894678  0.09808434  0.28529466  1
  Se  Se20  1  0.51263506  0.43827159  0.32902893  1
  Se  Se21  1  0.48736494  0.93827159  0.17097107  1
  Se  Se22  1  0.48736494  0.56172841  0.67097107  1
  Se  Se23  1  0.51263506  0.06172841  0.82902893  1
  O  O24  1  0.12895354  0.59871005  0.87144536  1
  O  O25  1  0.87104646  0.09871005  0.62855464  1
  O  O26  1  0.87104646  0.40128995  0.12855464  1
  O  O27  1  0.12895354  0.90128995  0.37144536  1
  O  O28  1  0.97087473  0.48245314  0.61986057  1
  O  O29  1  0.02912527  0.98245314  0.88013943  1
  O  O30  1  0.02912527  0.51754686  0.38013943  1
  O  O31  1  0.97087473  0.01754686  0.11986057  1
  O  O32  1  0.87571300  0.37395505  0.82308013  1
  O  O33  1  0.12428700  0.87395505  0.67691987  1
  O  O34  1  0.12428700  0.62604495  0.17691987  1
  O  O35  1  0.87571300  0.12604495  0.32308013  1
  O  O36  1  0.60079882  0.47833107  0.21078381  1
  O  O37  1  0.39920118  0.97833107  0.28921619  1
  O  O38  1  0.39920118  0.52166893  0.78921619  1
  O  O39  1  0.60079882  0.02166893  0.71078381  1
  O  O40  1  0.53889854  0.64599113  0.40243904  1
  O  O41  1  0.46110146  0.14599113  0.09756096  1
  O  O42  1  0.46110146  0.35400887  0.59756096  1
  O  O43  1  0.53889854  0.85400887  0.90243904  1
  O  O44  1  0.67739110  0.31809455  0.44754739  1
  O  O45  1  0.32260890  0.81809455  0.05245261  1
  O  O46  1  0.32260890  0.68190545  0.55245261  1
  O  O47  1  0.67739110  0.18190545  0.94754739  1
  O  O48  1  0.16141814  0.20173546  0.55932292  1
  O  O49  1  0.83858186  0.70173546  0.94067708  1
  O  O50  1  0.83858186  0.79826454  0.44067708  1
  O  O51  1  0.16141814  0.29826454  0.05932292  1
