# generated using pymatgen
data_LiCuF4
_symmetry_space_group_name_H-M   'P 1'
_cell_length_a   4.69082158
_cell_length_b   5.53447441
_cell_length_c   10.07058112
_cell_angle_alpha   90.00009893
_cell_angle_beta   89.96985242
_cell_angle_gamma   89.99992918
_symmetry_Int_Tables_number   1
_chemical_formula_structural   LiCuF4
_chemical_formula_sum   'Li4 Cu4 F16'
_cell_volume   261.44465644
_cell_formula_units_Z   4
loop_
 _symmetry_equiv_pos_site_id
 _symmetry_equiv_pos_as_xyz
  1  'x, y, z'
loop_
 _atom_site_type_symbol
 _atom_site_label
 _atom_site_symmetry_multiplicity
 _atom_site_fract_x
 _atom_site_fract_y
 _atom_site_fract_z
 _atom_site_occupancy
  Li  Li0  1  0.00002228  0.49973147  0.99995289  1
  Li  Li1  1  0.99997788  0.49973156  0.50004721  1
  Li  Li2  1  0.50009328  0.00024984  0.00000858  1
  Li  Li3  1  0.49990728  0.00024963  0.49999156  1
  Cu  Cu4  1  0.99999936  0.81868952  0.24999771  1
  Cu  Cu5  1  0.00000075  0.18121814  0.75000172  1
  Cu  Cu6  1  0.50000226  0.31873385  0.24999814  1
  Cu  Cu7  1  0.49999957  0.68131173  0.75000209  1
  F  F8  1  0.18081524  0.80435218  0.08561188  1
  F  F9  1  0.18086584  0.19570449  0.58547756  1
  F  F10  1  0.24339034  0.56339713  0.32097854  1
  F  F11  1  0.24382195  0.43710975  0.82094807  1
  F  F12  1  0.25613956  0.06290639  0.32095683  1
  F  F13  1  0.25662078  0.93659134  0.82103220  1
  F  F14  1  0.31909276  0.30432970  0.08559214  1
  F  F15  1  0.31911199  0.69565010  0.58569902  1
  F  F16  1  0.68090749  0.30432935  0.41440826  1
  F  F17  1  0.68088817  0.69565012  0.91430093  1
  F  F18  1  0.74386037  0.06290744  0.17904361  1
  F  F19  1  0.74337912  0.93659161  0.67896703  1
  F  F20  1  0.75660982  0.56339670  0.17902182  1
  F  F21  1  0.75617825  0.43711030  0.67905190  1
  F  F22  1  0.81913421  0.19570438  0.91452267  1
  F  F23  1  0.81918142  0.80435326  0.41438766  1
