# generated using pymatgen
data_ZrO2
_symmetry_space_group_name_H-M   'P 1'
_cell_length_a   4.06299005
_cell_length_b   6.11032969
_cell_length_c   4.06298129
_cell_angle_alpha   70.57596277
_cell_angle_beta   90.00000000
_cell_angle_gamma   109.41870569
_symmetry_Int_Tables_number   1
_chemical_formula_structural   ZrO2
_chemical_formula_sum   'Zr2 O4'
_cell_volume   89.02004203
_cell_formula_units_Z   2
loop_
 _symmetry_equiv_pos_site_id
 _symmetry_equiv_pos_as_xyz
  1  'x, y, z'
loop_
 _atom_site_type_symbol
 _atom_site_label
 _atom_site_symmetry_multiplicity
 _atom_site_fract_x
 _atom_site_fract_y
 _atom_site_fract_z
 _atom_site_occupancy
  Zr  Zr0  1  0.00000069  0.00000139  0.99994495  1
  Zr  Zr1  1  0.74999931  0.49999861  0.75005505  1
  O  O2  1  0.79821089  0.59642278  0.20179745  1
  O  O3  1  0.20178462  0.40357025  0.79798872  1
  O  O4  1  0.95178911  0.90357722  0.54820255  1
  O  O5  1  0.54821538  0.09642975  0.95201128  1
