# generated using pymatgen
data_Hg2SeO4
_symmetry_space_group_name_H-M   'P 1'
_cell_length_a   4.84604963
_cell_length_b   6.42865407
_cell_length_c   8.86581388
_cell_angle_alpha   92.25812856
_cell_angle_beta   90.00000000
_cell_angle_gamma   90.00000000
_symmetry_Int_Tables_number   1
_chemical_formula_structural   Hg2SeO4
_chemical_formula_sum   'Hg4 Se2 O8'
_cell_volume   275.98732977
_cell_formula_units_Z   2
loop_
 _symmetry_equiv_pos_site_id
 _symmetry_equiv_pos_as_xyz
  1  'x, y, z'
loop_
 _atom_site_type_symbol
 _atom_site_label
 _atom_site_symmetry_multiplicity
 _atom_site_fract_x
 _atom_site_fract_y
 _atom_site_fract_z
 _atom_site_occupancy
  O  O0  1  0.77126789  0.49463031  0.40437043  1
  O  O1  1  0.77126789  0.50536969  0.09562957  1
  O  O2  1  0.22873211  0.50536969  0.59562957  1
  O  O3  1  0.22873211  0.49463031  0.90437043  1
  O  O4  1  0.37944350  0.27997594  0.23614533  1
  O  O5  1  0.37944350  0.72002406  0.26385467  1
  O  O6  1  0.62055650  0.27997594  0.73614533  1
  O  O7  1  0.62055650  0.72002406  0.76385467  1
  Se  Se8  1  0.44299227  0.50000000  0.75000000  1
  Se  Se9  1  0.55700773  0.50000000  0.25000000  1
  Hg  Hg10  1  0.07233027  0.80973296  0.52178769  1
  Hg  Hg11  1  0.07233027  0.19026704  0.97821231  1
  Hg  Hg12  1  0.92766973  0.19026704  0.47821231  1
  Hg  Hg13  1  0.92766973  0.80973296  0.02178769  1
