# generated using pymatgen
data_Rb3ErO3
_symmetry_space_group_name_H-M   'P 1'
_cell_length_a   7.30107484
_cell_length_b   7.30107515
_cell_length_c   7.23968552
_cell_angle_alpha   85.14542996
_cell_angle_beta   94.85457599
_cell_angle_gamma   63.89458307
_symmetry_Int_Tables_number   1
_chemical_formula_structural   Rb3ErO3
_chemical_formula_sum   'Rb6 Er2 O6'
_cell_volume   342.08676087
_cell_formula_units_Z   2
loop_
 _symmetry_equiv_pos_site_id
 _symmetry_equiv_pos_as_xyz
  1  'x, y, z'
loop_
 _atom_site_type_symbol
 _atom_site_label
 _atom_site_symmetry_multiplicity
 _atom_site_fract_x
 _atom_site_fract_y
 _atom_site_fract_z
 _atom_site_occupancy
  Rb  Rb0  1  0.20422685  0.20422685  0.50000000  1
  Rb  Rb1  1  0.26088655  0.26088655  0.00000000  1
  Rb  Rb2  1  0.36397841  0.63602159  0.64353527  1
  Rb  Rb3  1  0.63602159  0.36397841  0.35646473  1
  Rb  Rb4  1  0.73911345  0.73911345  1.00000000  1
  Rb  Rb5  1  0.79577315  0.79577315  0.50000000  1
  Er  Er6  1  0.17628275  0.82371725  0.14882030  1
  Er  Er7  1  0.82371725  0.17628275  0.85117970  1
  O  O8  1  0.16600028  0.55732228  0.26744198  1
  O  O9  1  0.10169811  0.89830189  0.84442204  1
  O  O10  1  0.55732228  0.16600028  0.73255802  1
  O  O11  1  0.44267772  0.83399972  0.26744198  1
  O  O12  1  0.89830189  0.10169811  0.15557796  1
  O  O13  1  0.83399972  0.44267772  0.73255802  1
