# generated using pymatgen
data_NaTmO2
_symmetry_space_group_name_H-M   'P 1'
_cell_length_a   4.56010739
_cell_length_b   4.56010739
_cell_length_c   6.04804727
_cell_angle_alpha   67.85263052
_cell_angle_beta   67.85263307
_cell_angle_gamma   89.99999005
_symmetry_Int_Tables_number   1
_chemical_formula_structural   NaTmO2
_chemical_formula_sum   'Na2 Tm2 O4'
_cell_volume   106.40158612
_cell_formula_units_Z   2
loop_
 _symmetry_equiv_pos_site_id
 _symmetry_equiv_pos_as_xyz
  1  'x, y, z'
loop_
 _atom_site_type_symbol
 _atom_site_label
 _atom_site_symmetry_multiplicity
 _atom_site_fract_x
 _atom_site_fract_y
 _atom_site_fract_z
 _atom_site_occupancy
  Na  Na0  1  0.25000000  0.75000000  0.50000000  1
  Na  Na1  1  0.50000000  0.50000000  0.00000000  1
  Tm  Tm2  1  0.75000000  0.25000000  0.50000000  1
  Tm  Tm3  1  0.00000000  0.00000000  0.00000000  1
  O  O4  1  0.53023192  0.03023192  0.93953717  1
  O  O5  1  0.21976808  0.21976808  0.56046283  1
  O  O6  1  0.78023192  0.78023192  0.43953717  1
  O  O7  1  0.96976808  0.46976808  0.06046283  1
