# generated using pymatgen
data_HfP2O7
_symmetry_space_group_name_H-M   'P 1'
_cell_length_a   8.44067359
_cell_length_b   7.15329491
_cell_length_c   5.03334447
_cell_angle_alpha   107.16567287
_cell_angle_beta   92.85095385
_cell_angle_gamma   91.33146554
_symmetry_Int_Tables_number   1
_chemical_formula_structural   HfP2O7
_chemical_formula_sum   'Hf2 P4 O14'
_cell_volume   289.78062959
_cell_formula_units_Z   2
loop_
 _symmetry_equiv_pos_site_id
 _symmetry_equiv_pos_as_xyz
  1  'x, y, z'
loop_
 _atom_site_type_symbol
 _atom_site_label
 _atom_site_symmetry_multiplicity
 _atom_site_fract_x
 _atom_site_fract_y
 _atom_site_fract_z
 _atom_site_occupancy
  Hf  Hf0  1  0.00000000  0.00000000  0.00000000  1
  Hf  Hf1  1  0.50000000  0.50000000  0.50000000  1
  P  P2  1  0.23802251  0.86455372  0.47473896  1
  P  P3  1  0.30905237  0.24920199  0.87833912  1
  P  P4  1  0.69094763  0.75079801  0.12166088  1
  P  P5  1  0.76197749  0.13544628  0.52526104  1
  O  O6  1  0.09205612  0.83740746  0.63197384  1
  O  O7  1  0.13685738  0.23374930  0.95772420  1
  O  O8  1  0.19224091  0.93134079  0.22046574  1
  O  O9  1  0.32961761  0.39011351  0.70570903  1
  O  O10  1  0.33890213  0.68537971  0.40026648  1
  O  O11  1  0.35270510  0.03407455  0.68495044  1
  O  O12  1  0.42783159  0.29269556  0.12927690  1
  O  O13  1  0.57216841  0.70730444  0.87072310  1
  O  O14  1  0.64729490  0.96592545  0.31504956  1
  O  O15  1  0.66109787  0.31462029  0.59973352  1
  O  O16  1  0.67038239  0.60988649  0.29429097  1
  O  O17  1  0.80775909  0.06865921  0.77953426  1
  O  O18  1  0.86314262  0.76625070  0.04227580  1
  O  O19  1  0.90794388  0.16259254  0.36802616  1
