# generated using pymatgen
data_Cu6OF11
_symmetry_space_group_name_H-M   'P 1'
_cell_length_a   7.00920962
_cell_length_b   5.63268795
_cell_length_c   6.05140707
_cell_angle_alpha   69.00160460
_cell_angle_beta   103.80644062
_cell_angle_gamma   106.78817111
_symmetry_Int_Tables_number   1
_chemical_formula_structural   Cu6OF11
_chemical_formula_sum   'Cu6 O1 F11'
_cell_volume   211.08610819
_cell_formula_units_Z   1
loop_
 _symmetry_equiv_pos_site_id
 _symmetry_equiv_pos_as_xyz
  1  'x, y, z'
loop_
 _atom_site_type_symbol
 _atom_site_label
 _atom_site_symmetry_multiplicity
 _atom_site_fract_x
 _atom_site_fract_y
 _atom_site_fract_z
 _atom_site_occupancy
  Cu  Cu0  1  0.99924121  0.00017302  0.99729067  1
  Cu  Cu1  1  0.49936630  0.01848142  0.01871867  1
  Cu  Cu2  1  0.34258731  0.32780200  0.32982861  1
  Cu  Cu3  1  0.82117211  0.33165241  0.33205701  1
  Cu  Cu4  1  0.16805049  0.66506942  0.66485747  1
  Cu  Cu5  1  0.66546839  0.66713995  0.66899082  1
  O  O6  1  0.54198603  0.24119084  0.24219281  1
  F  F7  1  0.79339247  0.08896811  0.08881359  1
  F  F8  1  0.12164912  0.41345196  0.41074130  1
  F  F9  1  0.84488070  0.64297932  0.04991586  1
  F  F10  1  0.48623336  0.68701005  0.28237721  1
  F  F11  1  0.82138963  0.02381745  0.61717520  1
  F  F12  1  0.18372832  0.97424445  0.38553598  1
  F  F13  1  0.51187012  0.31013116  0.71767479  1
  F  F14  1  0.15426243  0.35853244  0.94570139  1
  F  F15  1  0.87695056  0.57875637  0.57719901  1
  F  F16  1  0.45739604  0.75932203  0.75782189  1
  F  F17  1  0.21037641  0.91127660  0.91310873  1
