# generated using pymatgen
data_PrAsO4
_symmetry_space_group_name_H-M   'P 1'
_cell_length_a   5.19905362
_cell_length_b   5.19905362
_cell_length_c   6.97415387
_cell_angle_alpha   111.88452496
_cell_angle_beta   111.88452496
_cell_angle_gamma   90.00000000
_symmetry_Int_Tables_number   1
_chemical_formula_structural   PrAsO4
_chemical_formula_sum   'Pr2 As2 O8'
_cell_volume   160.19502200
_cell_formula_units_Z   2
loop_
 _symmetry_equiv_pos_site_id
 _symmetry_equiv_pos_as_xyz
  1  'x, y, z'
loop_
 _atom_site_type_symbol
 _atom_site_label
 _atom_site_symmetry_multiplicity
 _atom_site_fract_x
 _atom_site_fract_y
 _atom_site_fract_z
 _atom_site_occupancy
  Pr  Pr0  1  0.62500000  0.87500000  0.25000000  1
  Pr  Pr1  1  0.37500000  0.12500000  0.75000000  1
  As  As2  1  0.12500000  0.37500000  0.25000000  1
  As  As3  1  0.87500000  0.62500000  0.75000000  1
  O  O4  1  0.29585230  0.43263945  0.09568083  1
  O  O5  1  0.79982853  0.16304138  0.09568083  1
  O  O6  1  0.93263945  0.29982853  0.59568083  1
  O  O7  1  0.66304138  0.79585230  0.59568083  1
  O  O8  1  0.70414770  0.56736055  0.90431917  1
  O  O9  1  0.20017147  0.83695862  0.90431917  1
  O  O10  1  0.06736055  0.70017147  0.40431917  1
  O  O11  1  0.33695862  0.20414770  0.40431917  1
