# generated using pymatgen
data_Ca4Nb2O9
_symmetry_space_group_name_H-M   'P 1'
_cell_length_a   16.84729091
_cell_length_b   5.84876667
_cell_length_c   8.02633902
_cell_angle_alpha   90.00000000
_cell_angle_beta   90.44131351
_cell_angle_gamma   90.00000000
_symmetry_Int_Tables_number   1
_chemical_formula_structural   Ca4Nb2O9
_chemical_formula_sum   'Ca16 Nb8 O36'
_cell_volume   790.85886683
_cell_formula_units_Z   4
loop_
 _symmetry_equiv_pos_site_id
 _symmetry_equiv_pos_as_xyz
  1  'x, y, z'
loop_
 _atom_site_type_symbol
 _atom_site_label
 _atom_site_symmetry_multiplicity
 _atom_site_fract_x
 _atom_site_fract_y
 _atom_site_fract_z
 _atom_site_occupancy
  Ca  Ca0  1  0.00125374  0.50029593  0.49751693  1
  Ca  Ca1  1  0.00433902  0.94456194  0.74449625  1
  Ca  Ca2  1  0.15955739  0.44885422  0.74992070  1
  Ca  Ca3  1  0.17377561  0.55114578  0.25007930  1
  Ca  Ca4  1  0.32899398  0.05543806  0.25550375  1
  Ca  Ca5  1  0.33207926  0.49970407  0.50248307  1
  Ca  Ca6  1  0.33455849  0.93514895  0.74566862  1
  Ca  Ca7  1  0.49877451  0.43514895  0.75433138  1
  Ca  Ca8  1  0.50125374  0.99970407  0.99751693  1
  Ca  Ca9  1  0.50433902  0.55543806  0.24449625  1
  Ca  Ca10  1  0.65955739  0.05114578  0.24992070  1
  Ca  Ca11  1  0.67377561  0.94885422  0.75007930  1
  Ca  Ca12  1  0.82899398  0.44456194  0.75550375  1
  Ca  Ca13  1  0.83207926  0.00029593  0.00248307  1
  Ca  Ca14  1  0.83455849  0.56485105  0.24566862  1
  Ca  Ca15  1  0.99877451  0.06485105  0.25433138  1
  Nb  Nb16  1  0.99661824  0.51298653  0.00942492  1
  Nb  Nb17  1  0.16666700  0.00000000  0.00000000  1
  Nb  Nb18  1  0.16666700  0.00000000  0.50000000  1
  Nb  Nb19  1  0.33671476  0.48701347  0.99057508  1
  Nb  Nb20  1  0.49661824  0.98701347  0.50942492  1
  Nb  Nb21  1  0.66666700  0.50000000  0.00000000  1
  Nb  Nb22  1  0.66666700  0.50000000  0.50000000  1
  Nb  Nb23  1  0.83671476  0.01298653  0.49057508  1
  O  O24  1  0.04451663  0.44568993  0.22898812  1
  O  O25  1  0.07097373  0.19514607  0.94269976  1
  O  O26  1  0.06788595  0.17014961  0.55202018  1
  O  O27  1  0.10362555  0.71294881  0.94636306  1
  O  O28  1  0.11064898  0.71280891  0.55719163  1
  O  O29  1  0.13285588  0.96122001  0.24573202  1
  O  O30  1  0.20047712  0.03877999  0.75426798  1
  O  O31  1  0.22268402  0.28719109  0.44280837  1
  O  O32  1  0.22970745  0.28705119  0.05363694  1
  O  O33  1  0.26544705  0.82985039  0.44797982  1
  O  O34  1  0.26236027  0.80485393  0.05730024  1
  O  O35  1  0.28881737  0.55431007  0.77101188  1
  O  O36  1  0.36607290  0.45351757  0.22901133  1
  O  O37  1  0.38769590  0.20827048  0.92641713  1
  O  O38  1  0.40689067  0.17790327  0.55663150  1
  O  O39  1  0.42644233  0.67790327  0.94336850  1
  O  O40  1  0.44563810  0.70827048  0.57358287  1
  O  O41  1  0.46726110  0.95351757  0.27098867  1
  O  O42  1  0.54451663  0.05431007  0.72898812  1
  O  O43  1  0.57097373  0.30485393  0.44269976  1
  O  O44  1  0.56788595  0.32985039  0.05202018  1
  O  O45  1  0.60362555  0.78705119  0.44636306  1
  O  O46  1  0.61064898  0.78719109  0.05719163  1
  O  O47  1  0.63285588  0.53877999  0.74573202  1
  O  O48  1  0.70047712  0.46122001  0.25426798  1
  O  O49  1  0.72268402  0.21280891  0.94280837  1
  O  O50  1  0.72970745  0.21294881  0.55363694  1
  O  O51  1  0.76544705  0.67014961  0.94797982  1
  O  O52  1  0.76236027  0.69514607  0.55730024  1
  O  O53  1  0.78881737  0.94568993  0.27101188  1
  O  O54  1  0.86607290  0.04648243  0.72901133  1
  O  O55  1  0.88769590  0.29172952  0.42641713  1
  O  O56  1  0.90689067  0.32209673  0.05663150  1
  O  O57  1  0.92644233  0.82209673  0.44336850  1
  O  O58  1  0.94563810  0.79172952  0.07358287  1
  O  O59  1  0.96726110  0.54648243  0.77098867  1
