# generated using pymatgen
data_Zn5P6H22(NO11)2
_symmetry_space_group_name_H-M   'P 1'
_cell_length_a   7.30351916
_cell_length_b   9.90210120
_cell_length_c   10.40329046
_cell_angle_alpha   63.46351032
_cell_angle_beta   86.95580376
_cell_angle_gamma   72.88707871
_symmetry_Int_Tables_number   1
_chemical_formula_structural   Zn5P6H22(NO11)2
_chemical_formula_sum   'Zn5 P6 H22 N2 O22'
_cell_volume   640.59829089
_cell_formula_units_Z   1
loop_
 _symmetry_equiv_pos_site_id
 _symmetry_equiv_pos_as_xyz
  1  'x, y, z'
loop_
 _atom_site_type_symbol
 _atom_site_label
 _atom_site_symmetry_multiplicity
 _atom_site_fract_x
 _atom_site_fract_y
 _atom_site_fract_z
 _atom_site_occupancy
  Zn  Zn0  1  0.50000000  0.00000000  0.50000000  1
  Zn  Zn1  1  0.36241897  0.35644542  0.98071213  1
  Zn  Zn2  1  0.33553372  0.70357828  0.33677209  1
  Zn  Zn3  1  0.66446628  0.29642172  0.66322791  1
  Zn  Zn4  1  0.63758103  0.64355458  0.01928787  1
  P  P5  1  0.25088962  0.06087302  0.20325541  1
  P  P6  1  0.23882982  0.59116485  0.11939264  1
  P  P7  1  0.23808437  0.50441981  0.65120434  1
  P  P8  1  0.76191563  0.49558019  0.34879566  1
  P  P9  1  0.76117018  0.40883515  0.88060736  1
  P  P10  1  0.74911038  0.93912698  0.79674459  1
  H  H11  1  0.08481383  0.06910404  0.80960408  1
  H  H12  1  0.09645719  0.16300690  0.23531023  1
  H  H13  1  0.05737485  0.50269383  0.61258277  1
  H  H14  1  0.05047954  0.65827410  0.05098907  1
  H  H15  1  0.23218386  0.09669304  0.91398733  1
  H  H16  1  0.32132750  0.05536999  0.77723629  1
  H  H17  1  0.27669209  0.30263379  0.34771728  1
  H  H18  1  0.33138110  0.27601637  0.50271103  1
  H  H19  1  0.25984182  0.80908802  0.59883593  1
  H  H20  1  0.26392764  0.91524772  0.92458485  1
  H  H21  1  0.61561085  0.21514941  0.27314841  1
  H  H22  1  0.38438915  0.78485059  0.72685159  1
  H  H23  1  0.73607236  0.08475228  0.07541515  1
  H  H24  1  0.74015818  0.19091198  0.40116407  1
  H  H25  1  0.66861890  0.72398363  0.49728897  1
  H  H26  1  0.72330791  0.69736621  0.65228272  1
  H  H27  1  0.67867250  0.94463001  0.22276371  1
  H  H28  1  0.76781614  0.90330696  0.08601267  1
  H  H29  1  0.94952046  0.34172590  0.94901093  1
  H  H30  1  0.94262515  0.49730617  0.38741723  1
  H  H31  1  0.90354281  0.83699310  0.76468977  1
  H  H32  1  0.91518617  0.93089596  0.19039592  1
  N  N33  1  0.22386125  0.03664717  0.85470791  1
  N  N34  1  0.77613875  0.96335283  0.14529209  1
  O  O35  1  0.29481502  0.15754389  0.04650808  1
  O  O36  1  0.28965032  0.22660133  0.45073770  1
  O  O37  1  0.42439502  0.00010367  0.31243160  1
  O  O38  1  0.22703463  0.58509924  0.26933370  1
  O  O39  1  0.22499146  0.51147759  0.79616449  1
  O  O40  1  0.31476601  0.41995967  0.13737674  1
  O  O41  1  0.17965542  0.92552885  0.21025878  1
  O  O42  1  0.38124805  0.34963171  0.65883432  1
  O  O43  1  0.27473186  0.65726544  0.53553033  1
  O  O44  1  0.35205928  0.70187337  0.01830180  1
  O  O45  1  0.30735657  0.86859717  0.63806777  1
  O  O46  1  0.69264343  0.13140283  0.36193223  1
  O  O47  1  0.64794072  0.29812663  0.98169820  1
  O  O48  1  0.72526814  0.34273456  0.46446967  1
  O  O49  1  0.61875195  0.65036829  0.34116568  1
  O  O50  1  0.82034458  0.07447115  0.78974122  1
  O  O51  1  0.68523399  0.58004033  0.86262326  1
  O  O52  1  0.77500854  0.48852241  0.20383551  1
  O  O53  1  0.77296537  0.41490076  0.73066630  1
  O  O54  1  0.57560498  0.99989633  0.68756840  1
  O  O55  1  0.71034968  0.77339867  0.54926230  1
  O  O56  1  0.70518498  0.84245611  0.95349192  1
