# generated using pymatgen
data_Sr16Cu8O23
_symmetry_space_group_name_H-M   'P 1'
_cell_length_a   6.87251104
_cell_length_b   10.20548079
_cell_length_c   12.47900589
_cell_angle_alpha   114.41246208
_cell_angle_beta   101.81383088
_cell_angle_gamma   105.43594868
_symmetry_Int_Tables_number   1
_chemical_formula_structural   Sr16Cu8O23
_chemical_formula_sum   'Sr16 Cu8 O23'
_cell_volume   717.15560381
_cell_formula_units_Z   1
loop_
 _symmetry_equiv_pos_site_id
 _symmetry_equiv_pos_as_xyz
  1  'x, y, z'
loop_
 _atom_site_type_symbol
 _atom_site_label
 _atom_site_symmetry_multiplicity
 _atom_site_fract_x
 _atom_site_fract_y
 _atom_site_fract_z
 _atom_site_occupancy
  Sr  Sr0  1  0.15687751  0.44659583  0.74978343  1
  Sr  Sr1  1  0.59364623  0.30232825  0.75046433  1
  Sr  Sr2  1  0.09211211  0.79282956  0.74598962  1
  Sr  Sr3  1  0.78258504  0.07336514  0.50050498  1
  Sr  Sr4  1  0.34241496  0.05163486  0.24949502  1
  Sr  Sr5  1  0.71966354  0.42638152  0.49872855  1
  Sr  Sr6  1  0.28000178  0.57258417  0.49806846  1
  Sr  Sr7  1  0.64104876  0.94349022  0.74624449  1
  Sr  Sr8  1  0.21795920  0.92785914  0.49970179  1
  Sr  Sr9  1  0.90704080  0.19714086  0.25029821  1
  Sr  Sr10  1  0.40533646  0.69861848  0.25127145  1
  Sr  Sr11  1  0.48395124  0.18150978  0.00375551  1
  Sr  Sr12  1  0.03288789  0.33217044  0.00401038  1
  Sr  Sr13  1  0.84499822  0.55241583  0.25193154  1
  Sr  Sr14  1  0.96812249  0.67840417  0.00021657  1
  Sr  Sr15  1  0.53135377  0.82267175  0.99953567  1
  Cu  Cu16  1  0.12131835  0.12189088  0.75452369  1
  Cu  Cu17  1  0.62563450  0.62480468  0.75052739  1
  Cu  Cu18  1  0.25268314  0.25146836  0.49918842  1
  Cu  Cu19  1  0.75099619  0.75216198  0.50163985  1
  Cu  Cu20  1  0.00368165  0.00310912  0.99547631  1
  Cu  Cu21  1  0.37400381  0.37283802  0.24836015  1
  Cu  Cu22  1  0.49936550  0.50019532  0.99947261  1
  Cu  Cu23  1  0.87231686  0.87353164  0.25081158  1
  O  O24  1  0.34416743  0.04498745  0.75959299  1
  O  O25  1  0.89358664  0.19388966  0.75952219  1
  O  O26  1  0.19179297  0.19102404  0.62106450  1
  O  O27  1  0.56250000  0.56250000  0.87500000  1
  O  O28  1  0.38905007  0.70086501  0.75000940  1
  O  O29  1  0.85768590  0.54367875  0.74996988  1
  O  O30  1  0.01787655  0.32822166  0.49715950  1
  O  O31  1  0.48686304  0.17349587  0.49890795  1
  O  O32  1  0.31270915  0.31139083  0.37528616  1
  O  O33  1  0.68920770  0.68987492  0.62790878  1
  O  O34  1  0.51542692  0.83001368  0.50113646  1
  O  O35  1  0.98402718  0.67240585  0.49973980  1
  O  O36  1  0.60957308  0.29498632  0.24886354  1
  O  O37  1  0.14097282  0.45259415  0.25026020  1
  O  O38  1  0.43579230  0.43512508  0.12209122  1
  O  O39  1  0.81229085  0.81360917  0.37471384  1
  O  O40  1  0.78083257  0.08001255  0.99040701  1
  O  O41  1  0.10712345  0.79677834  0.25284050  1
  O  O42  1  0.63813696  0.95150413  0.25109205  1
  O  O43  1  0.26731410  0.58132125  0.00003012  1
  O  O44  1  0.73594993  0.42413499  0.99999060  1
  O  O45  1  0.93320703  0.93397596  0.12893550  1
  O  O46  1  0.23141336  0.93111034  0.99047781  1
