# generated using pymatgen
data_Co5CuO8
_symmetry_space_group_name_H-M   'P 1'
_cell_length_a   5.81060110
_cell_length_b   5.81060110
_cell_length_c   5.76483223
_cell_angle_alpha   60.26022177
_cell_angle_beta   90.00000000
_cell_angle_gamma   120.52044355
_symmetry_Int_Tables_number   1
_chemical_formula_structural   Co5CuO8
_chemical_formula_sum   'Co5 Cu1 O8'
_cell_volume   137.08074222
_cell_formula_units_Z   1
loop_
 _symmetry_equiv_pos_site_id
 _symmetry_equiv_pos_as_xyz
  1  'x, y, z'
loop_
 _atom_site_type_symbol
 _atom_site_label
 _atom_site_symmetry_multiplicity
 _atom_site_fract_x
 _atom_site_fract_y
 _atom_site_fract_z
 _atom_site_occupancy
  Co  Co0  1  0.62500000  0.25000000  0.12500000  1
  Co  Co1  1  0.00080559  0.99838982  0.00080559  1
  Co  Co2  1  0.62500000  0.25000000  0.62500000  1
  Co  Co3  1  0.24919441  0.50161018  0.24919441  1
  Co  Co4  1  0.12500000  0.75000000  0.62500000  1
  Cu  Cu5  1  0.62500000  0.75000000  0.62500000  1
  O  O6  1  0.83734394  0.23741273  0.38129313  1
  O  O7  1  0.38780048  0.22440004  0.38780048  1
  O  O8  1  0.86219952  0.27559996  0.86219952  1
  O  O9  1  0.86870687  0.71863707  0.41265606  1
  O  O10  1  0.41265606  0.26258727  0.86870687  1
  O  O11  1  0.86870687  0.71863707  0.86870687  1
  O  O12  1  0.38129313  0.78136293  0.38129313  1
  O  O13  1  0.38129313  0.78136293  0.83734394  1
