# generated using pymatgen
data_Na13Ti24O54
_symmetry_space_group_name_H-M   'P 1'
_cell_length_a   10.73424154
_cell_length_b   8.86437918
_cell_length_c   12.46903584
_cell_angle_alpha   69.22300269
_cell_angle_beta   101.87644126
_cell_angle_gamma   89.98129771
_symmetry_Int_Tables_number   1
_chemical_formula_structural   Na13Ti24O54
_chemical_formula_sum   'Na13 Ti24 O54'
_cell_volume   1082.06273828
_cell_formula_units_Z   1
loop_
 _symmetry_equiv_pos_site_id
 _symmetry_equiv_pos_as_xyz
  1  'x, y, z'
loop_
 _atom_site_type_symbol
 _atom_site_label
 _atom_site_symmetry_multiplicity
 _atom_site_fract_x
 _atom_site_fract_y
 _atom_site_fract_z
 _atom_site_occupancy
  Na  Na0  1  0.90011533  0.31655579  0.71544083  1
  Na  Na1  1  0.60437934  0.19822034  0.27254522  1
  Na  Na2  1  0.60436714  0.52853473  0.27362345  1
  Na  Na3  1  0.59503511  0.86299091  0.27521661  1
  Na  Na4  1  0.69560347  0.08775714  0.85875686  1
  Na  Na5  1  0.70693233  0.71322971  0.85375069  1
  Na  Na6  1  0.30498651  0.24536407  0.14019089  1
  Na  Na7  1  0.30129823  0.61346202  0.14134404  1
  Na  Na8  1  0.39669385  0.13524642  0.72693335  1
  Na  Na9  1  0.40643937  0.47003499  0.72625577  1
  Na  Na10  1  0.39663046  0.80511873  0.72524169  1
  Na  Na11  1  0.09917597  0.04349326  0.28551508  1
  Na  Na12  1  0.09864491  0.67204727  0.28506372  1
  Ti  Ti13  1  0.80855052  0.10545275  0.12209091  1
  Ti  Ti14  1  0.81821951  0.43781419  0.12582265  1
  Ti  Ti15  1  0.80842040  0.77287228  0.12024534  1
  Ti  Ti16  1  0.88301739  0.28684777  0.42896065  1
  Ti  Ti17  1  0.87674994  0.61819798  0.43057602  1
  Ti  Ti18  1  0.87552492  0.95014728  0.43344821  1
  Ti  Ti19  1  0.49054960  0.99458442  0.00974828  1
  Ti  Ti20  1  0.51099843  0.33740702  0.99171110  1
  Ti  Ti21  1  0.50101457  0.66696055  0.99849433  1
  Ti  Ti22  1  0.62769553  0.05692736  0.55592301  1
  Ti  Ti23  1  0.62007102  0.39033577  0.55190329  1
  Ti  Ti24  1  0.62984526  0.71836297  0.55980452  1
  Ti  Ti25  1  0.36917219  0.27867582  0.44022254  1
  Ti  Ti26  1  0.37558574  0.61407445  0.44420519  1
  Ti  Ti27  1  0.37883298  0.94218531  0.44745260  1
  Ti  Ti28  1  0.00776624  0.99852558  0.00624813  1
  Ti  Ti29  1  0.99375951  0.33658081  0.99412388  1
  Ti  Ti30  1  0.99840562  0.66958361  0.99709264  1
  Ti  Ti31  1  0.11852690  0.04637466  0.57041119  1
  Ti  Ti32  1  0.12537397  0.38245581  0.56854557  1
  Ti  Ti33  1  0.11890510  0.71358511  0.57264502  1
  Ti  Ti34  1  0.19400946  0.22784959  0.87915472  1
  Ti  Ti35  1  0.18778090  0.56082071  0.87805540  1
  Ti  Ti36  1  0.18470235  0.89543347  0.87432413  1
  O  O37  1  0.94242247  0.25528775  0.14852854  1
  O  O38  1  0.94373936  0.59408023  0.15089681  1
  O  O39  1  0.94450313  0.92426366  0.15273567  1
  O  O40  1  0.99133248  0.12759277  0.40722782  1
  O  O41  1  0.99211605  0.46635737  0.40531769  1
  O  O42  1  0.99108605  0.79627140  0.40609882  1
  O  O43  1  0.78271225  0.02827250  0.27420951  1
  O  O44  1  0.78241263  0.36410492  0.27454817  1
  O  O45  1  0.78114183  0.69642000  0.27403553  1
  O  O46  1  0.69558721  0.30387067  0.06242449  1
  O  O47  1  0.69578638  0.63441093  0.05977230  1
  O  O48  1  0.69376185  0.97058102  0.05967528  1
  O  O49  1  0.77803200  0.09380265  0.48118973  1
  O  O50  1  0.78262141  0.42246916  0.48603253  1
  O  O51  1  0.77881139  0.75812976  0.48398851  1
  O  O52  1  0.87699602  0.18648278  0.95269957  1
  O  O53  1  0.87531689  0.52173076  0.95924241  1
  O  O54  1  0.87455843  0.85541071  0.95703913  1
  O  O55  1  0.67889693  0.17457734  0.65558274  1
  O  O56  1  0.68103035  0.50309452  0.65349298  1
  O  O57  1  0.67237476  0.83995406  0.65653867  1
  O  O58  1  0.48971016  0.11319760  0.10985615  1
  O  O59  1  0.48295243  0.44855985  0.10626774  1
  O  O60  1  0.48764145  0.77516716  0.11228063  1
  O  O61  1  0.55065777  0.28595643  0.42947226  1
  O  O62  1  0.55250236  0.61865952  0.42930184  1
  O  O63  1  0.55325360  0.95087935  0.43047285  1
  O  O64  1  0.44598345  0.05035205  0.56713618  1
  O  O65  1  0.44472224  0.38371362  0.56786977  1
  O  O66  1  0.44767227  0.71430432  0.56944446  1
  O  O67  1  0.51041516  0.22048135  0.89064892  1
  O  O68  1  0.51369778  0.55811852  0.88761916  1
  O  O69  1  0.51684222  0.88567554  0.89337802  1
  O  O70  1  0.31808041  0.15928581  0.34202123  1
  O  O71  1  0.31783018  0.49807931  0.34184809  1
  O  O72  1  0.31198253  0.82714677  0.34758660  1
  O  O73  1  0.12375331  0.14497345  0.04968786  1
  O  O74  1  0.12485509  0.47820890  0.04119178  1
  O  O75  1  0.12407423  0.80658895  0.04876542  1
  O  O76  1  0.22194252  0.24036454  0.51719709  1
  O  O77  1  0.21763425  0.57724549  0.51234120  1
  O  O78  1  0.21807602  0.90979364  0.51547684  1
  O  O79  1  0.30524275  0.02788933  0.93977479  1
  O  O80  1  0.30629801  0.36400600  0.94005614  1
  O  O81  1  0.30457322  0.69860702  0.93900485  1
  O  O82  1  0.21981180  0.30455075  0.72650497  1
  O  O83  1  0.22012480  0.63572738  0.72612701  1
  O  O84  1  0.21910459  0.97002463  0.72597451  1
  O  O85  1  0.01001472  0.20731220  0.59170864  1
  O  O86  1  0.00957949  0.53425433  0.59318805  1
  O  O87  1  0.00875194  0.86988684  0.59242209  1
  O  O88  1  0.06030498  0.07610854  0.85371506  1
  O  O89  1  0.05827361  0.40373468  0.84968734  1
  O  O90  1  0.05878166  0.74233757  0.85106007  1
