# generated using pymatgen
data_KCoH3(CO2)3
_symmetry_space_group_name_H-M   'P 1'
_cell_length_a   6.83792547
_cell_length_b   7.05963983
_cell_length_c   7.05963983
_cell_angle_alpha   80.24465599
_cell_angle_beta   92.95831356
_cell_angle_gamma   92.95831356
_symmetry_Int_Tables_number   1
_chemical_formula_structural   KCoH3(CO2)3
_chemical_formula_sum   'K2 Co2 H6 C6 O12'
_cell_volume   335.09844370
_cell_formula_units_Z   2
loop_
 _symmetry_equiv_pos_site_id
 _symmetry_equiv_pos_as_xyz
  1  'x, y, z'
loop_
 _atom_site_type_symbol
 _atom_site_label
 _atom_site_symmetry_multiplicity
 _atom_site_fract_x
 _atom_site_fract_y
 _atom_site_fract_z
 _atom_site_occupancy
  K  K0  1  0.75000000  0.90023706  0.09976194  1
  K  K1  1  0.25000000  0.09976194  0.90023706  1
  Co  Co2  1  -0.00000000  0.50000000  -0.00000000  1
  Co  Co3  1  0.50000000  -0.00000000  0.50000000  1
  H  H4  1  0.50747317  0.43405262  0.32217877  1
  H  H5  1  0.25000000  0.62340300  0.37659600  1
  H  H6  1  0.00747317  0.32217877  0.43405262  1
  H  H7  1  0.99252783  0.67782123  0.56594738  1
  H  H8  1  0.75000000  0.37659600  0.62340300  1
  H  H9  1  0.49252783  0.56594738  0.67782123  1
  C  C10  1  0.25000000  0.74526230  0.25473670  1
  C  C11  1  0.63660859  0.37951074  0.26252936  1
  C  C12  1  0.13660859  0.26252936  0.37951074  1
  C  C13  1  0.86339041  0.73747164  0.62048926  1
  C  C14  1  0.36339041  0.62048926  0.73747164  1
  C  C15  1  0.75000000  0.25473670  0.74526230  1
  O  O16  1  0.12211989  0.74033947  0.11848858  1
  O  O17  1  0.74835685  0.50449653  0.16658672  1
  O  O18  1  0.15886221  0.29800382  0.19887365  1
  O  O19  1  0.37788011  0.88151042  0.25966053  1
  O  O20  1  0.65886221  0.19887365  0.29800382  1
  O  O21  1  0.75164315  0.83341428  0.49550347  1
  O  O22  1  0.24835685  0.16658672  0.50449653  1
  O  O23  1  0.34113879  0.80112735  0.70199718  1
  O  O24  1  0.62211989  0.11848858  0.74033947  1
  O  O25  1  0.84113879  0.70199718  0.80112735  1
  O  O26  1  0.25164315  0.49550347  0.83341428  1
  O  O27  1  0.87788011  0.25966053  0.88151042  1
