# generated using pymatgen
data_Na2CdO2
_symmetry_space_group_name_H-M   'P 1'
_cell_length_a   9.39789417
_cell_length_b   9.39789417
_cell_length_c   9.40453640
_cell_angle_alpha   109.44428183
_cell_angle_beta   109.07747080
_cell_angle_gamma   109.86453023
_symmetry_Int_Tables_number   1
_chemical_formula_structural   Na2CdO2
_chemical_formula_sum   'Na16 Cd8 O16'
_cell_volume   639.59913128
_cell_formula_units_Z   8
loop_
 _symmetry_equiv_pos_site_id
 _symmetry_equiv_pos_as_xyz
  1  'x, y, z'
loop_
 _atom_site_type_symbol
 _atom_site_label
 _atom_site_symmetry_multiplicity
 _atom_site_fract_x
 _atom_site_fract_y
 _atom_site_fract_z
 _atom_site_occupancy
  Na  Na0  1  0.74195144  0.23999204  0.27798938  1
  Na  Na1  1  0.76820035  0.03801060  0.49165552  1
  Na  Na2  1  0.27785693  0.02186186  0.04878417  1
  Na  Na3  1  0.95763827  0.50182189  0.23121171  1
  Na  Na4  1  0.47307769  0.22907276  0.45121583  1
  Na  Na5  1  0.77061017  0.72642656  0.26878829  1
  Na  Na6  1  0.46200266  0.46396206  0.22201062  1
  Na  Na7  1  0.04635509  0.27654583  0.00834448  1
  Na  Na8  1  0.71961857  0.25568716  0.76878024  1
  Na  Na9  1  0.01080598  0.05129700  0.27622765  1
  Na  Na10  1  0.49095331  0.76034513  0.04539013  1
  Na  Na11  1  0.77044673  0.54291279  0.52697580  1
  Na  Na12  1  0.21495400  0.44556318  0.45460987  1
  Na  Na13  1  0.51593800  0.24347093  0.97302420  1
  Na  Na14  1  0.27506935  0.73457833  0.22377235  1
  Na  Na15  1  0.98690593  0.95083833  0.73121976  1
  Cd  Cd16  1  0.54550641  0.53266205  0.76541533  1
  Cd  Cd17  1  0.96549368  0.73236926  0.00080350  1
  Cd  Cd18  1  0.53937622  0.76829905  0.53606430  1
  Cd  Cd19  1  0.22395728  0.27012461  0.74895632  1
  Cd  Cd20  1  0.02116828  0.47500096  0.75104368  1
  Cd  Cd21  1  0.73223475  0.00331192  0.96393570  1
  Cd  Cd22  1  0.23156576  0.96469018  0.49919650  1
  Cd  Cd23  1  0.26724672  0.78009108  0.73458467  1
  O  O24  1  0.95923096  0.24197997  0.20546165  1
  O  O25  1  0.49776893  0.98752149  0.98809153  1
  O  O26  1  0.77052485  0.02052485  0.75000000  1
  O  O27  1  0.71682280  0.46682280  0.25000000  1
  O  O28  1  0.75756744  0.28692893  0.54073386  1
  O  O29  1  0.74749422  0.77423039  0.01570613  1
  O  O30  1  0.53651832  0.75376931  0.29453835  1
  O  O31  1  0.49943096  0.50967739  0.51190847  1
  O  O32  1  0.45506547  0.25235207  0.71002359  1
  O  O33  1  0.01429939  0.00740070  0.50777733  1
  O  O34  1  0.99962337  0.50652206  0.99222267  1
  O  O35  1  0.25852426  0.73178909  0.48429387  1
  O  O36  1  0.24619406  0.21683357  0.95926614  1
  O  O37  1  0.21210920  0.96210920  0.25000000  1
  O  O38  1  0.27756172  0.52756172  0.75000000  1
  O  O39  1  0.04232848  0.74504189  0.78997641  1
