# generated using pymatgen
data_Li(Fe3P2)2
_symmetry_space_group_name_H-M   'P 1'
_cell_length_a   6.70344352
_cell_length_b   6.70128929
_cell_length_c   3.23213787
_cell_angle_alpha   90.00000000
_cell_angle_beta   90.00000000
_cell_angle_gamma   120.00734535
_symmetry_Int_Tables_number   1
_chemical_formula_structural   Li(Fe3P2)2
_chemical_formula_sum   'Li1 Fe6 P4'
_cell_volume   125.73166916
_cell_formula_units_Z   1
loop_
 _symmetry_equiv_pos_site_id
 _symmetry_equiv_pos_as_xyz
  1  'x, y, z'
loop_
 _atom_site_type_symbol
 _atom_site_label
 _atom_site_symmetry_multiplicity
 _atom_site_fract_x
 _atom_site_fract_y
 _atom_site_fract_z
 _atom_site_occupancy
  Li  Li0  1  0.99968049  -0.00003498  0.00000000  1
  Fe  Fe1  1  0.19925505  0.80038568  0.50000000  1
  Fe  Fe2  1  0.19923977  0.39897934  0.50000000  1
  Fe  Fe3  1  0.60073197  0.80043354  0.50000000  1
  Fe  Fe4  1  0.53920242  0.46059740  0.00000000  1
  Fe  Fe5  1  0.53935495  0.07866038  0.00000000  1
  Fe  Fe6  1  0.92187508  0.46081448  0.00000000  1
  P  P7  1  0.33522443  0.66756743  0.00000000  1
  P  P8  1  0.35957830  0.17981977  0.50000000  1
  P  P9  1  0.81955577  0.64095460  0.50000000  1
  P  P10  1  0.81966176  0.17858336  0.50000000  1
