# generated using pymatgen
data_Ta5Pb11O26
_symmetry_space_group_name_H-M   'P 1'
_cell_length_a   7.67019678
_cell_length_b   7.67973997
_cell_length_c   13.46593779
_cell_angle_alpha   107.01451197
_cell_angle_beta   90.00000003
_cell_angle_gamma   60.04110402
_symmetry_Int_Tables_number   1
_chemical_formula_structural   Ta5Pb11O26
_chemical_formula_sum   'Ta5 Pb11 O26'
_cell_volume   646.84442171
_cell_formula_units_Z   1
loop_
 _symmetry_equiv_pos_site_id
 _symmetry_equiv_pos_as_xyz
  1  'x, y, z'
loop_
 _atom_site_type_symbol
 _atom_site_label
 _atom_site_symmetry_multiplicity
 _atom_site_fract_x
 _atom_site_fract_y
 _atom_site_fract_z
 _atom_site_occupancy
  Ta  Ta0  1  0.00000000  0.50000000  0.00000000  1
  Ta  Ta1  1  0.50000000  0.00000000  0.00000000  1
  Ta  Ta2  1  0.00000000  0.00000000  0.00000000  1
  Ta  Ta3  1  0.00000000  0.00000000  0.50000000  1
  Ta  Ta4  1  0.50000000  0.00000000  0.50000000  1
  Pb  Pb5  1  0.50000000  0.50000000  0.00000000  1
  Pb  Pb6  1  0.74388359  0.50454087  0.25731473  1
  Pb  Pb7  1  0.25157554  0.50454087  0.25731473  1
  Pb  Pb8  1  0.24862935  0.00274131  0.25668864  1
  Pb  Pb9  1  0.00000000  0.50000000  0.50000000  1
  Pb  Pb10  1  0.50000000  0.50000000  0.50000000  1
  Pb  Pb11  1  0.75093420  0.99813059  0.24579178  1
  Pb  Pb12  1  0.25611641  0.49545913  0.74268527  1
  Pb  Pb13  1  0.74842446  0.49545913  0.74268527  1
  Pb  Pb14  1  0.75137065  0.99725869  0.74331136  1
  Pb  Pb15  1  0.24906580  0.00186941  0.75420822  1
  O  O16  1  0.28436991  0.93126018  0.02012034  1
  O  O17  1  0.92063067  0.65873966  0.15512547  1
  O  O18  1  0.57200061  0.93477495  0.34452964  1
  O  O19  1  0.28337775  0.30601201  0.02243076  1
  O  O20  1  0.99322444  0.93477495  0.34452964  1
  O  O21  1  0.43183488  0.63633023  0.19905971  1
  O  O22  1  0.91061024  0.30601201  0.02243076  1
  O  O23  1  0.77279382  0.95441236  0.52438212  1
  O  O24  1  0.49581400  0.07790406  0.15589640  1
  O  O25  1  0.62172084  0.68615287  0.46703974  1
  O  O26  1  0.92628194  0.07790406  0.15589640  1
  O  O27  1  0.19212628  0.68615287  0.46703974  1
  O  O28  1  0.57727242  0.34545516  0.32877773  1
  O  O29  1  0.42272758  0.65454484  0.67122227  1
  O  O30  1  0.07371806  0.92209594  0.84410360  1
  O  O31  1  0.80787372  0.31384713  0.53296026  1
  O  O32  1  0.50418600  0.92209594  0.84410360  1
  O  O33  1  0.37827916  0.31384713  0.53296026  1
  O  O34  1  0.22720618  0.04558764  0.47561788  1
  O  O35  1  0.08938976  0.69398799  0.97756924  1
  O  O36  1  0.00677556  0.06522505  0.65547036  1
  O  O37  1  0.71662225  0.69398799  0.97756924  1
  O  O38  1  0.56816512  0.36366977  0.80094029  1
  O  O39  1  0.42799939  0.06522505  0.65547036  1
  O  O40  1  0.07936933  0.34126034  0.84487453  1
  O  O41  1  0.71563009  0.06873982  0.97987966  1
