# generated using pymatgen
data_LiMnPO4
_symmetry_space_group_name_H-M   'P 1'
_cell_length_a   5.03867920
_cell_length_b   8.84907276
_cell_length_c   5.04849374
_cell_angle_alpha   108.24166248
_cell_angle_beta   61.63636933
_cell_angle_gamma   90.80919701
_symmetry_Int_Tables_number   1
_chemical_formula_structural   LiMnPO4
_chemical_formula_sum   'Li2 Mn2 P2 O8'
_cell_volume   185.66736990
_cell_formula_units_Z   2
loop_
 _symmetry_equiv_pos_site_id
 _symmetry_equiv_pos_as_xyz
  1  'x, y, z'
loop_
 _atom_site_type_symbol
 _atom_site_label
 _atom_site_symmetry_multiplicity
 _atom_site_fract_x
 _atom_site_fract_y
 _atom_site_fract_z
 _atom_site_occupancy
  Li  Li0  1  0.55366772  0.50354760  0.94671327  1
  Li  Li1  1  0.94102514  0.00152279  0.05930597  1
  Mn  Mn2  1  0.20281262  0.24836696  0.54498966  1
  Mn  Mn3  1  0.79647399  0.74996815  0.45511774  1
  P  P4  1  0.58038355  0.12632839  0.79522342  1
  P  P5  1  0.16938440  0.62530802  0.70811074  1
  O  O6  1  0.25238544  0.15178295  0.08501274  1
  O  O7  1  0.55490705  0.09428732  0.48726050  1
  O  O8  1  0.73021853  0.27905659  0.85771525  1
  O  O9  1  0.26585395  0.47743671  0.76618686  1
  O  O10  1  0.43397572  0.65175199  0.40678265  1
  O  O11  1  0.89158064  0.59581451  0.65284831  1
  O  O12  1  0.08218255  0.77712802  0.01106957  1
  O  O13  1  0.78927671  0.97968899  0.74473731  1
