# generated using pymatgen
data_La9Mn10O30
_symmetry_space_group_name_H-M   'P 1'
_cell_length_a   9.63317709
_cell_length_b   7.86049545
_cell_length_c   9.53795677
_cell_angle_alpha   113.56143642
_cell_angle_beta   99.00438818
_cell_angle_gamma   66.18182775
_symmetry_Int_Tables_number   1
_chemical_formula_structural   La9Mn10O30
_chemical_formula_sum   'La9 Mn10 O30'
_cell_volume   605.62463160
_cell_formula_units_Z   1
loop_
 _symmetry_equiv_pos_site_id
 _symmetry_equiv_pos_as_xyz
  1  'x, y, z'
loop_
 _atom_site_type_symbol
 _atom_site_label
 _atom_site_symmetry_multiplicity
 _atom_site_fract_x
 _atom_site_fract_y
 _atom_site_fract_z
 _atom_site_occupancy
  La  La0  1  0.89956592  0.44755491  0.29940585  1
  La  La1  1  0.70839709  0.34315894  0.89179449  1
  La  La2  1  0.70180671  0.85174614  0.90162323  1
  La  La3  1  0.90513182  0.95065900  0.31040332  1
  La  La4  1  0.49956588  0.25461487  0.50254256  1
  La  La5  1  0.49084688  0.75658191  0.50578454  1
  La  La6  1  0.10159041  0.54922811  0.69992416  1
  La  La7  1  0.29346075  0.15037895  0.09221144  1
  La  La8  1  0.29813861  0.64645913  0.09717804  1
  Mn  Mn9  1  0.80334095  0.39725809  0.60030842  1
  Mn  Mn10  1  0.80147586  0.90123311  0.60162961  1
  Mn  Mn11  1  0.39648991  0.19963769  0.79911975  1
  Mn  Mn12  1  0.59940348  0.80009452  0.19968033  1
  Mn  Mn13  1  0.60001458  0.29986020  0.19892504  1
  Mn  Mn14  1  0.39755071  0.70236688  0.79934287  1
  Mn  Mn15  1  0.19944828  0.09981477  0.40229306  1
  Mn  Mn16  1  0.19975037  0.60384169  0.40363949  1
  Mn  Mn17  1  0.00109293  0.49686289  0.99830005  1
  Mn  Mn18  1  0.00109800  0.99918960  0.99671120  1
  O  O19  1  0.96031558  0.27414944  0.00661667  1
  O  O20  1  0.91177371  0.89463627  0.79317622  1
  O  O21  1  0.87456650  0.50159257  0.81402384  1
  O  O22  1  0.98523772  0.71293613  0.47474083  1
  O  O23  1  0.81298063  0.14578184  0.60470235  1
  O  O24  1  0.75974770  0.66413999  0.58803312  1
  O  O25  1  0.81023572  0.69352891  0.12635902  1
  O  O26  1  0.61326304  0.08140852  0.72541432  1
  O  O27  1  0.52927029  0.69799106  0.98729848  1
  O  O28  1  0.72344159  0.30381549  0.38676230  1
  O  O29  1  0.78867538  0.11665451  0.07875792  1
  O  O30  1  0.59007520  0.51967402  0.67961860  1
  O  O31  1  0.67453792  0.89563132  0.41044394  1
  O  O32  1  0.63480829  0.53896833  0.21116478  1
  O  O33  1  0.43693222  0.93804110  0.81384973  1
  O  O34  1  0.56015284  0.06306442  0.18634559  1
  O  O35  1  0.36950503  0.45877990  0.78723151  1
  O  O36  1  0.21933367  0.86908586  0.93488117  1
  O  O37  1  0.41226704  0.48384903  0.32094493  1
  O  O38  1  0.33597130  0.11134308  0.58222131  1
  O  O39  1  0.38981280  0.91227752  0.27352750  1
  O  O40  1  0.48041479  0.29291864  0.00982650  1
  O  O41  1  0.29223076  0.66673755  0.60419552  1
  O  O42  1  0.19587018  0.33822964  0.89251958  1
  O  O43  1  0.23374916  0.33665597  0.40660171  1
  O  O44  1  0.17354989  0.84824020  0.37185360  1
  O  O45  1  0.11966879  0.50465459  0.19011879  1
  O  O46  1  0.00491612  0.29963651  0.51236330  1
  O  O47  1  0.07754171  0.09420253  0.21189084  1
  O  O48  1  0.03098530  0.74083067  0.01369460  1
