# generated using pymatgen
data_KMn2P2HO9
_symmetry_space_group_name_H-M   'P 1'
_cell_length_a   6.56688602
_cell_length_b   6.78175541
_cell_length_c   8.94472468
_cell_angle_alpha   90.00000000
_cell_angle_beta   109.97017316
_cell_angle_gamma   90.00000000
_symmetry_Int_Tables_number   1
_chemical_formula_structural   KMn2P2HO9
_chemical_formula_sum   'K2 Mn4 P4 H2 O18'
_cell_volume   374.40066845
_cell_formula_units_Z   2
loop_
 _symmetry_equiv_pos_site_id
 _symmetry_equiv_pos_as_xyz
  1  'x, y, z'
loop_
 _atom_site_type_symbol
 _atom_site_label
 _atom_site_symmetry_multiplicity
 _atom_site_fract_x
 _atom_site_fract_y
 _atom_site_fract_z
 _atom_site_occupancy
  K  K0  1  0.07165874  0.75000000  0.20061450  1
  K  K1  1  0.92834126  0.25000000  0.79938550  1
  Mn  Mn2  1  0.53211171  0.75000000  0.70940822  1
  Mn  Mn3  1  0.46788829  0.25000000  0.29059178  1
  Mn  Mn4  1  0.50000000  0.50000000  0.00000000  1
  Mn  Mn5  1  0.50000000  0.00000000  0.00000000  1
  P  P6  1  0.09803828  0.75000000  0.80977031  1
  P  P7  1  0.40673123  0.25000000  0.64148998  1
  P  P8  1  0.59326877  0.75000000  0.35851002  1
  P  P9  1  0.90196172  0.25000000  0.19022969  1
  H  H10  1  0.97699592  0.25000000  0.45235657  1
  H  H11  1  0.02300408  0.75000000  0.54764343  1
  O  O12  1  0.19005057  0.56297892  0.90954942  1
  O  O13  1  0.19005057  0.93702108  0.90954942  1
  O  O14  1  0.16018018  0.25000000  0.58368367  1
  O  O15  1  0.16814852  0.75000000  0.65592814  1
  O  O16  1  0.14575602  0.25000000  0.24399566  1
  O  O17  1  0.57392960  0.75000000  0.93322278  1
  O  O18  1  0.50357273  0.06561196  0.74891586  1
  O  O19  1  0.50357273  0.43438804  0.74891586  1
  O  O20  1  0.48180236  0.75000000  0.48755430  1
  O  O21  1  0.51819764  0.25000000  0.51244570  1
  O  O22  1  0.49642727  0.56561196  0.25108414  1
  O  O23  1  0.49642727  0.93438804  0.25108414  1
  O  O24  1  0.42607040  0.25000000  0.06677722  1
  O  O25  1  0.85424398  0.75000000  0.75600434  1
  O  O26  1  0.83185148  0.25000000  0.34407186  1
  O  O27  1  0.83981982  0.75000000  0.41631633  1
  O  O28  1  0.80994943  0.06297892  0.09045058  1
  O  O29  1  0.80994943  0.43702108  0.09045058  1
