# generated using pymatgen
data_Li7V3P8O29
_symmetry_space_group_name_H-M   'P 1'
_cell_length_a   9.87823893
_cell_length_b   9.87423105
_cell_length_c   13.92386376
_cell_angle_alpha   90.43614692
_cell_angle_beta   90.34101261
_cell_angle_gamma   59.74873998
_symmetry_Int_Tables_number   1
_chemical_formula_structural   Li7V3P8O29
_chemical_formula_sum   'Li14 V6 P16 O58'
_cell_volume   1173.15168922
_cell_formula_units_Z   2
loop_
 _symmetry_equiv_pos_site_id
 _symmetry_equiv_pos_as_xyz
  1  'x, y, z'
loop_
 _atom_site_type_symbol
 _atom_site_label
 _atom_site_symmetry_multiplicity
 _atom_site_fract_x
 _atom_site_fract_y
 _atom_site_fract_z
 _atom_site_occupancy
  Li  Li0  1  0.90882649  0.77847480  0.06317751  1
  Li  Li1  1  0.75968099  0.89818311  0.55998609  1
  Li  Li2  1  0.90452229  0.32459187  0.55635829  1
  Li  Li3  1  0.66880557  0.66418672  0.88554375  1
  Li  Li4  1  0.77417676  0.30834106  0.06259799  1
  Li  Li5  1  0.31670594  0.90720751  0.06269669  1
  Li  Li6  1  0.67843163  0.23128462  0.43581242  1
  Li  Li7  1  0.33123867  0.76306536  0.55978871  1
  Li  Li8  1  0.21904026  0.69190923  0.93929428  1
  Li  Li9  1  0.33143333  0.34459842  0.61445054  1
  Li  Li10  1  0.33621925  0.32948876  0.11563681  1
  Li  Li11  1  0.23201422  0.08903976  0.43444940  1
  Li  Li12  1  0.08060947  0.22360306  0.94024202  1
  Li  Li13  1  0.01113730  0.92476525  0.48546509  1
  V  V14  1  0.56456630  0.43305709  0.25267763  1
  V  V15  1  0.43363977  0.56894675  0.75058550  1
  V  V16  1  0.56812801  0.00156385  0.75256784  1
  V  V17  1  0.43908958  0.99767614  0.25021033  1
  V  V18  1  0.00355127  0.56534490  0.25365468  1
  V  V19  1  0.99617558  0.43818031  0.74681795  1
  P  P20  1  0.90888173  0.76899198  0.84503967  1
  P  P21  1  0.77317279  0.91548067  0.34238040  1
  P  P22  1  0.91455826  0.31706970  0.34331229  1
  P  P23  1  0.67357897  0.66129442  0.12762775  1
  P  P24  1  0.66629569  0.67070143  0.62425550  1
  P  P25  1  0.76937636  0.32443756  0.84344617  1
  P  P26  1  0.68101773  0.22837794  0.65803615  1
  P  P27  1  0.32222683  0.91318989  0.84324997  1
  P  P28  1  0.68312777  0.08990337  0.15838107  1
  P  P29  1  0.31261292  0.77370926  0.34339476  1
  P  P30  1  0.22818178  0.67849909  0.15754946  1
  P  P31  1  0.33448759  0.33011511  0.37409289  1
  P  P32  1  0.32730493  0.33507435  0.87324415  1
  P  P33  1  0.08494872  0.69085681  0.65939299  1
  P  P34  1  0.23044504  0.08937018  0.65581378  1
  P  P35  1  0.09097376  0.23167928  0.15850299  1
  O  O36  1  0.98242492  0.79463417  0.58011443  1
  O  O37  1  0.91481591  0.75157400  0.33554028  1
  O  O38  1  0.76880503  0.98793759  0.07610992  1
  O  O39  1  0.74785006  0.91699418  0.83964550  1
  O  O40  1  0.88502839  0.62616208  0.82496682  1
  O  O41  1  0.82234963  0.66194640  0.17026866  1
  O  O42  1  0.90820980  0.47487906  0.33074644  1
  O  O43  1  0.99760216  0.24870116  0.06849915  1
  O  O44  1  0.92381404  0.33050876  0.83748969  1
  O  O45  1  0.66764924  0.81910849  0.66994195  1
  O  O46  1  0.61773978  0.91462037  0.33135903  1
  O  O47  1  0.81506027  0.51820431  0.66777035  1
  O  O48  1  0.68034138  0.66047840  0.01970299  1
  O  O49  1  0.68331021  0.67115877  0.51812958  1
  O  O50  1  0.67085283  0.51696360  0.16550560  1
  O  O51  1  0.49027105  0.88386355  0.82605431  1
  O  O52  1  0.52488772  0.81861382  0.16415109  1
  O  O53  1  0.75260647  0.33154230  0.34500411  1
  O  O54  1  0.78178474  0.21684180  0.75152213  1
  O  O55  1  0.76680999  0.23428650  0.56956907  1
  O  O56  1  0.75808590  0.25158798  0.93352726  1
  O  O57  1  0.63130962  0.49308085  0.82463102  1
  O  O58  1  0.51524354  0.67439128  0.65872706  1
  O  O59  1  0.66514896  0.25333828  0.15489989  1
  O  O60  1  0.47049414  0.62293156  0.33470022  1
  O  O61  1  0.33226225  0.92007562  0.33587066  1
  O  O62  1  0.78004858  0.01826130  0.25727939  1
  O  O63  1  0.77865839  0.99560334  0.43571868  1
  O  O64  1  0.23488897  0.99534179  0.56889764  1
  O  O65  1  0.66934244  0.07800539  0.65841024  1
  O  O66  1  0.51504825  0.37098737  0.66923019  1
  O  O67  1  0.32708539  0.75583719  0.84432244  1
  O  O68  1  0.48873500  0.31746651  0.33927006  1
  O  O69  1  0.36694564  0.51029583  0.17192870  1
  O  O70  1  0.24559490  0.75635777  0.06946910  1
  O  O71  1  0.22093452  0.78823608  0.43301872  1
  O  O72  1  0.20814825  0.78827218  0.24961428  1
  O  O73  1  0.24996313  0.66864240  0.65592064  1
  O  O74  1  0.46970581  0.18278319  0.82631091  1
  O  O75  1  0.51522574  0.11171727  0.17585565  1
  O  O76  1  0.33395979  0.48097266  0.84120168  1
  O  O77  1  0.32169280  0.32043779  0.97960561  1
  O  O78  1  0.32483982  0.33691716  0.48180898  1
  O  O79  1  0.18864747  0.47881095  0.32794271  1
  O  O80  1  0.37802129  0.10579754  0.66631247  1
  O  O81  1  0.32790789  0.18216331  0.33546329  1
  O  O82  1  0.07650618  0.66963997  0.15649527  1
  O  O83  1  0.01320027  0.77811625  0.76030350  1
  O  O84  1  0.99883098  0.74804767  0.93634171  1
  O  O85  1  0.09798546  0.52704401  0.66568765  1
  O  O86  1  0.17700874  0.34271644  0.82605518  1
  O  O87  1  0.11648842  0.37215481  0.17400136  1
  O  O88  1  0.25386126  0.08014960  0.15784709  1
  O  O89  1  0.24839053  0.00848636  0.93249759  1
  O  O90  1  0.21611294  0.00669156  0.75153589  1
  O  O91  1  0.08186263  0.25369877  0.65456020  1
  O  O92  1  0.00788918  0.22781568  0.43069784  1
  O  O93  1  0.00028381  0.21382632  0.24815859  1
