# generated using pymatgen
data_Mn2PH2CO7
_symmetry_space_group_name_H-M   'P 1'
_cell_length_a   10.34499060
_cell_length_b   6.59415255
_cell_length_c   10.17523094
_cell_angle_alpha   90.00000000
_cell_angle_beta   116.48807272
_cell_angle_gamma   90.00000000
_symmetry_Int_Tables_number   1
_chemical_formula_structural   Mn2PH2CO7
_chemical_formula_sum   'Mn8 P4 H8 C4 O28'
_cell_volume   621.25459276
_cell_formula_units_Z   4
loop_
 _symmetry_equiv_pos_site_id
 _symmetry_equiv_pos_as_xyz
  1  'x, y, z'
loop_
 _atom_site_type_symbol
 _atom_site_label
 _atom_site_symmetry_multiplicity
 _atom_site_fract_x
 _atom_site_fract_y
 _atom_site_fract_z
 _atom_site_occupancy
  Mn  Mn0  1  0.11635118  0.85368188  0.97424717  1
  Mn  Mn1  1  0.11635118  0.64631812  0.47424717  1
  Mn  Mn2  1  0.23453144  0.02628586  0.73292682  1
  Mn  Mn3  1  0.23453144  0.47371414  0.23292682  1
  Mn  Mn4  1  0.76546856  0.52628586  0.76707318  1
  Mn  Mn5  1  0.76546856  0.97371414  0.26707318  1
  Mn  Mn6  1  0.88364882  0.35368188  0.52575283  1
  Mn  Mn7  1  0.88364882  0.14631812  0.02575283  1
  P  P8  1  0.10184497  0.34868101  0.89456288  1
  P  P9  1  0.10184497  0.15131899  0.39456288  1
  P  P10  1  0.89815503  0.84868101  0.60543712  1
  P  P11  1  0.89815503  0.65131899  0.10543712  1
  H  H12  1  0.26550964  0.54446874  0.77852766  1
  H  H13  1  0.37805044  0.62156657  0.72177641  1
  H  H14  1  0.26550964  0.95553126  0.27852766  1
  H  H15  1  0.37805044  0.87843343  0.22177641  1
  H  H16  1  0.62194956  0.12156657  0.77822359  1
  H  H17  1  0.73449036  0.04446874  0.72147234  1
  H  H18  1  0.62194956  0.37843343  0.27822359  1
  H  H19  1  0.73449036  0.45553126  0.22147234  1
  C  C20  1  0.54052058  0.04597371  0.95849627  1
  C  C21  1  0.45947942  0.54597371  0.54150373  1
  C  C22  1  0.54052058  0.45402629  0.45849627  1
  C  C23  1  0.45947942  0.95402629  0.04150373  1
  O  O24  1  0.07814257  0.17309685  0.98542192  1
  O  O25  1  0.04496990  0.90115082  0.73857236  1
  O  O26  1  0.21373164  0.29920574  0.83805264  1
  O  O27  1  0.07814257  0.32690315  0.48542192  1
  O  O28  1  0.32807111  0.90952581  0.96316692  1
  O  O29  1  0.15656716  0.96666289  0.50261805  1
  O  O30  1  0.04496990  0.59884918  0.23857236  1
  O  O31  1  0.28226455  0.65069425  0.71834079  1
  O  O32  1  0.21373164  0.20079426  0.33805264  1
  O  O33  1  0.47177558  0.06958499  0.82063063  1
  O  O34  1  0.32807111  0.59047419  0.46316692  1
  O  O35  1  0.15656716  0.53333711  0.00261805  1
  O  O36  1  0.28226455  0.84930575  0.21834079  1
  O  O37  1  0.52822442  0.56958499  0.67936937  1
  O  O38  1  0.47177558  0.43041501  0.32063063  1
  O  O39  1  0.71773545  0.15069425  0.78165921  1
  O  O40  1  0.84343284  0.46666289  0.99738195  1
  O  O41  1  0.67192889  0.40952581  0.53683308  1
  O  O42  1  0.52822442  0.93041501  0.17936937  1
  O  O43  1  0.78626836  0.79920574  0.66194736  1
  O  O44  1  0.71773545  0.34930575  0.28165921  1
  O  O45  1  0.95503010  0.40115082  0.76142764  1
  O  O46  1  0.84343284  0.03333711  0.49738195  1
  O  O47  1  0.67192889  0.09047419  0.03683308  1
  O  O48  1  0.92185743  0.67309685  0.51457808  1
  O  O49  1  0.78626836  0.70079426  0.16194736  1
  O  O50  1  0.95503010  0.09884918  0.26142764  1
  O  O51  1  0.92185743  0.82690315  0.01457808  1
