# generated using pymatgen
data_V3OF11
_symmetry_space_group_name_H-M   'P 1'
_cell_length_a   5.45794285
_cell_length_b   5.26240131
_cell_length_c   14.89432450
_cell_angle_alpha   90.00000000
_cell_angle_beta   100.21868963
_cell_angle_gamma   90.00000000
_symmetry_Int_Tables_number   1
_chemical_formula_structural   V3OF11
_chemical_formula_sum   'V6 O2 F22'
_cell_volume   421.00734104
_cell_formula_units_Z   2
loop_
 _symmetry_equiv_pos_site_id
 _symmetry_equiv_pos_as_xyz
  1  'x, y, z'
loop_
 _atom_site_type_symbol
 _atom_site_label
 _atom_site_symmetry_multiplicity
 _atom_site_fract_x
 _atom_site_fract_y
 _atom_site_fract_z
 _atom_site_occupancy
  V  V0  1  0.03964322  0.97538818  0.00300771  1
  V  V1  1  0.16660969  0.49984381  0.33329537  1
  V  V2  1  0.32293920  0.99210677  0.66749530  1
  V  V3  1  0.51039480  0.49210677  0.99917070  1
  V  V4  1  0.66672331  0.99984381  0.33337163  1
  V  V5  1  0.79368978  0.47538818  0.66365829  1
  O  O6  1  0.54248394  0.29443828  0.64468706  1
  O  O7  1  0.29084906  0.79443828  0.02197894  1
  F  F8  1  0.02387535  0.20973089  0.64226313  1
  F  F9  1  0.19637230  0.28667848  0.97613918  1
  F  F10  1  0.13889453  0.70689743  0.68993405  1
  F  F11  1  0.03125280  0.09238491  0.11393485  1
  F  F12  1  0.20856090  0.41430583  0.44975581  1
  F  F13  1  0.38116616  0.08782103  0.78327221  1
  F  F14  1  0.12558004  0.58707516  0.21699412  1
  F  F15  1  0.29608009  0.92402320  0.54977660  1
  F  F16  1  0.45216684  0.58782103  0.88339479  1
  F  F17  1  0.35628043  0.19797370  0.30872250  1
  F  F18  1  0.69443847  0.20689743  0.97673195  1
  F  F19  1  0.47705257  0.69797370  0.35794450  1
  F  F20  1  0.63696170  0.78667848  0.69052782  1
  F  F21  1  0.53725391  0.42402320  0.11688940  1
  F  F22  1  0.70775296  0.08707516  0.44967188  1
  F  F23  1  0.89422351  0.42929499  0.78213529  1
  F  F24  1  0.62477310  0.91430583  0.21691119  1
  F  F25  1  0.80208020  0.59238491  0.55273115  1
  F  F26  1  0.93910949  0.92929499  0.88453171  1
  F  F27  1  0.85661132  0.30203635  0.30886132  1
  F  F28  1  0.80945765  0.70973089  0.02440387  1
  F  F29  1  0.97672168  0.80203635  0.35780568  1
