# generated using pymatgen
data_Li2CrP4(H4O5)4
_symmetry_space_group_name_H-M   'P 1'
_cell_length_a   7.18496553
_cell_length_b   10.70109103
_cell_length_c   10.99444999
_cell_angle_alpha   90.00000000
_cell_angle_beta   80.68730757
_cell_angle_gamma   90.00000000
_symmetry_Int_Tables_number   1
_chemical_formula_structural   Li2CrP4(H4O5)4
_chemical_formula_sum   'Li4 Cr2 P8 H32 O40'
_cell_volume   834.18840902
_cell_formula_units_Z   2
loop_
 _symmetry_equiv_pos_site_id
 _symmetry_equiv_pos_as_xyz
  1  'x, y, z'
loop_
 _atom_site_type_symbol
 _atom_site_label
 _atom_site_symmetry_multiplicity
 _atom_site_fract_x
 _atom_site_fract_y
 _atom_site_fract_z
 _atom_site_occupancy
  Li  Li0  1  0.25356082  0.66370277  0.54223975  1
  Li  Li1  1  0.24643918  0.16370277  0.95776025  1
  Li  Li2  1  0.75356082  0.83629723  0.04223975  1
  Li  Li3  1  0.74643918  0.33629723  0.45776025  1
  Cr  Cr4  1  0.00000000  0.00000000  0.50000000  1
  Cr  Cr5  1  0.50000000  0.50000000  0.00000000  1
  P  P6  1  0.23243426  0.76006088  0.08367455  1
  P  P7  1  0.26756574  0.26006088  0.41632545  1
  P  P8  1  0.23752197  0.95510960  0.72197401  1
  P  P9  1  0.26247803  0.45510960  0.77802599  1
  P  P10  1  0.73752197  0.54489040  0.22197401  1
  P  P11  1  0.76247803  0.04489040  0.27802599  1
  P  P12  1  0.73243426  0.73993912  0.58367455  1
  P  P13  1  0.76756574  0.23993912  0.91632545  1
  H  H14  1  0.14710423  0.40162679  0.10685488  1
  H  H15  1  0.14265697  0.03888592  0.19171491  1
  H  H16  1  0.12182703  0.43296101  0.39529802  1
  H  H17  1  0.18272285  0.62283555  0.31075790  1
  H  H18  1  0.19384382  0.82702535  0.34161268  1
  H  H19  1  0.07474993  0.29017787  0.78858649  1
  H  H20  1  0.30615618  0.32702535  0.15838732  1
  H  H21  1  0.31727715  0.12283555  0.18924210  1
  H  H22  1  0.16450321  0.58605886  0.92491786  1
  H  H23  1  0.15228561  0.89402757  0.94513672  1
  H  H24  1  0.37817297  0.93296101  0.10470198  1
  H  H25  1  0.35734303  0.53888592  0.30828509  1
  H  H26  1  0.35289577  0.90162679  0.39314412  1
  H  H27  1  0.34771439  0.39402757  0.55486328  1
  H  H28  1  0.33549679  0.08605886  0.57508214  1
  H  H29  1  0.42525007  0.79017787  0.71141351  1
  H  H30  1  0.57474993  0.20982213  0.28858649  1
  H  H31  1  0.66450321  0.91394114  0.42491786  1
  H  H32  1  0.65228561  0.60597243  0.44513672  1
  H  H33  1  0.64710423  0.09837321  0.60685488  1
  H  H34  1  0.64265697  0.46111408  0.69171491  1
  H  H35  1  0.62182703  0.06703899  0.89529802  1
  H  H36  1  0.84771439  0.10597243  0.05486328  1
  H  H37  1  0.83549679  0.41394114  0.07508214  1
  H  H38  1  0.68272285  0.87716445  0.81075790  1
  H  H39  1  0.69384382  0.67297465  0.84161268  1
  H  H40  1  0.92525007  0.70982213  0.21141351  1
  H  H41  1  0.80615618  0.17297465  0.65838732  1
  H  H42  1  0.81727715  0.37716445  0.68924210  1
  H  H43  1  0.87817297  0.56703899  0.60470198  1
  H  H44  1  0.85734303  0.96111408  0.80828509  1
  H  H45  1  0.85289577  0.59837321  0.89314512  1
  O  O46  1  0.08826565  0.83309298  0.01537674  1
  O  O47  1  0.13342440  0.74172057  0.21707127  1
  O  O48  1  0.08288185  0.34329509  0.42098920  1
  O  O49  1  0.04693929  0.97410780  0.68086659  1
  O  O50  1  0.26235275  0.06144379  0.13661588  1
  O  O51  1  0.26388237  0.35381773  0.08075228  1
  O  O52  1  0.29012263  0.63869651  0.01587500  1
  O  O53  1  0.20987737  0.13869651  0.48412500  1
  O  O54  1  0.23611763  0.85381773  0.41924772  1
  O  O55  1  0.23764725  0.56144379  0.36338412  1
  O  O56  1  0.10596451  0.53848774  0.85974505  1
  O  O57  1  0.20669841  0.31279896  0.80622142  1
  O  O58  1  0.41711815  0.84329509  0.07901080  1
  O  O59  1  0.25917163  0.48594656  0.64273935  1
  O  O60  1  0.36657560  0.24172057  0.28292873  1
  O  O61  1  0.24082837  0.98594656  0.85726065  1
  O  O62  1  0.29330159  0.81279896  0.69377858  1
  O  O63  1  0.41173435  0.33309298  0.48462326  1
  O  O64  1  0.39403549  0.03848774  0.64025495  1
  O  O65  1  0.54693929  0.52589220  0.18086659  1
  O  O66  1  0.45306071  0.47410780  0.81913341  1
  O  O67  1  0.60596451  0.96151226  0.35974505  1
  O  O68  1  0.58826565  0.66690702  0.51537674  1
  O  O69  1  0.70669841  0.18720104  0.30622142  1
  O  O70  1  0.75917163  0.01405344  0.14273935  1
  O  O71  1  0.63342440  0.75827943  0.71707127  1
  O  O72  1  0.74082837  0.51405344  0.35726065  1
  O  O73  1  0.58288185  0.15670491  0.92098920  1
  O  O74  1  0.79330159  0.68720104  0.19377858  1
  O  O75  1  0.89403549  0.46151226  0.14025595  1
  O  O76  1  0.76235275  0.43855621  0.63661588  1
  O  O77  1  0.76388237  0.14618227  0.58075228  1
  O  O78  1  0.79012263  0.86130349  0.51587500  1
  O  O79  1  0.70987737  0.36130349  0.98412500  1
  O  O80  1  0.73611763  0.64618227  0.91924772  1
  O  O81  1  0.73764725  0.93855621  0.86338412  1
  O  O82  1  0.95306071  0.02589220  0.31913341  1
  O  O83  1  0.91711815  0.65670491  0.57901080  1
  O  O84  1  0.86657560  0.25827943  0.78292873  1
  O  O85  1  0.91173435  0.16690702  0.98462326  1
