# generated using pymatgen
data_Li2Mn(PO4)2
_symmetry_space_group_name_H-M   'P 1'
_cell_length_a   9.08316259
_cell_length_b   8.95602735
_cell_length_c   13.43648159
_cell_angle_alpha   90.00000000
_cell_angle_beta   90.00000000
_cell_angle_gamma   90.00000000
_symmetry_Int_Tables_number   1
_chemical_formula_structural   Li2Mn(PO4)2
_chemical_formula_sum   'Li16 Mn8 P16 O64'
_cell_volume   1093.04504736
_cell_formula_units_Z   8
loop_
 _symmetry_equiv_pos_site_id
 _symmetry_equiv_pos_as_xyz
  1  'x, y, z'
loop_
 _atom_site_type_symbol
 _atom_site_label
 _atom_site_symmetry_multiplicity
 _atom_site_fract_x
 _atom_site_fract_y
 _atom_site_fract_z
 _atom_site_occupancy
  Li  Li0  1  0.04134314  0.21563712  0.37299711  1
  Li  Li1  1  0.04134314  0.28436288  0.87299711  1
  Li  Li2  1  0.22634078  0.95436662  0.37342294  1
  Li  Li3  1  0.22634078  0.54563338  0.87342294  1
  Li  Li4  1  0.27365922  0.04563338  0.87342294  1
  Li  Li5  1  0.27365922  0.45436662  0.37342294  1
  Li  Li6  1  0.45865686  0.71563712  0.37299711  1
  Li  Li7  1  0.45865686  0.78436288  0.87299711  1
  Li  Li8  1  0.54134314  0.21563712  0.12700289  1
  Li  Li9  1  0.54134314  0.28436288  0.62700289  1
  Li  Li10  1  0.72634078  0.54563338  0.62657706  1
  Li  Li11  1  0.72634078  0.95436662  0.12657706  1
  Li  Li12  1  0.77365922  0.04563338  0.62657706  1
  Li  Li13  1  0.77365922  0.45436662  0.12657706  1
  Li  Li14  1  0.95865686  0.78436288  0.62700289  1
  Li  Li15  1  0.95865686  0.71563712  0.12700289  1
  Mn  Mn16  1  0.13965281  0.10455430  0.12386537  1
  Mn  Mn17  1  0.13965281  0.39544570  0.62386537  1
  Mn  Mn18  1  0.36034719  0.89544570  0.62386537  1
  Mn  Mn19  1  0.36034719  0.60455430  0.12386537  1
  Mn  Mn20  1  0.63965281  0.10455430  0.37613463  1
  Mn  Mn21  1  0.63965281  0.39544570  0.87613463  1
  Mn  Mn22  1  0.86034719  0.60455430  0.37613463  1
  Mn  Mn23  1  0.86034719  0.89544570  0.87613463  1
  P  P24  1  0.07348658  0.06548342  0.71956507  1
  P  P25  1  0.07348658  0.43451658  0.21956507  1
  P  P26  1  0.15991823  0.81359234  0.98965482  1
  P  P27  1  0.15991823  0.68640766  0.48965482  1
  P  P28  1  0.34008177  0.18640766  0.48965482  1
  P  P29  1  0.34008177  0.31359234  0.98965482  1
  P  P30  1  0.42651342  0.56548342  0.71956507  1
  P  P31  1  0.42651342  0.93451658  0.21956507  1
  P  P32  1  0.57348658  0.43451658  0.28043493  1
  P  P33  1  0.57348658  0.06548342  0.78043493  1
  P  P34  1  0.65991823  0.68640766  0.01034518  1
  P  P35  1  0.65991823  0.81359234  0.51034518  1
  P  P36  1  0.84008177  0.18640766  0.01034518  1
  P  P37  1  0.84008177  0.31359234  0.51034518  1
  P  P38  1  0.92651342  0.56548342  0.78043493  1
  P  P39  1  0.92651342  0.93451658  0.28043493  1
  O  O40  1  0.99032975  0.70198029  0.47424614  1
  O  O41  1  0.99032975  0.79801971  0.97424614  1
  O  O42  1  0.02375502  0.00063288  0.35895449  1
  O  O43  1  0.02375502  0.49936712  0.85895449  1
  O  O44  1  0.02110984  0.46821702  0.33053009  1
  O  O45  1  0.02110984  0.03178298  0.83053009  1
  O  O46  1  0.07837214  0.25894812  0.22056490  1
  O  O47  1  0.07837214  0.24105188  0.72056490  1
  O  O48  1  0.18954482  0.72357442  0.08719701  1
  O  O49  1  0.18954482  0.77642558  0.58719701  1
  O  O50  1  0.20169813  0.97908623  0.01337469  1
  O  O51  1  0.20169813  0.52091377  0.51337469  1
  O  O52  1  0.23471396  0.00320341  0.71864831  1
  O  O53  1  0.23471396  0.49679659  0.21864831  1
  O  O54  1  0.24717718  0.73507847  0.40000935  1
  O  O55  1  0.24717718  0.76492153  0.90000935  1
  O  O56  1  0.25282282  0.23507847  0.40000935  1
  O  O57  1  0.25282282  0.26492153  0.90000935  1
  O  O58  1  0.26528604  0.99679659  0.21864831  1
  O  O59  1  0.26528604  0.50320341  0.71864831  1
  O  O60  1  0.29830187  0.02091377  0.51337469  1
  O  O61  1  0.29830187  0.47908623  0.01337469  1
  O  O62  1  0.31045518  0.22357442  0.08719701  1
  O  O63  1  0.31045518  0.27642558  0.58719701  1
  O  O64  1  0.42162786  0.74105188  0.72056490  1
  O  O65  1  0.42162786  0.75894812  0.22056490  1
  O  O66  1  0.47889016  0.53178298  0.83053009  1
  O  O67  1  0.47889016  0.96821702  0.33053009  1
  O  O68  1  0.47624498  0.50063288  0.35895449  1
  O  O69  1  0.47624498  0.99936712  0.85895449  1
  O  O70  1  0.50967025  0.20198029  0.47424614  1
  O  O71  1  0.50967025  0.29801971  0.97424614  1
  O  O72  1  0.49032975  0.70198029  0.02575386  1
  O  O73  1  0.49032975  0.79801971  0.52575386  1
  O  O74  1  0.52375502  0.49936712  0.64104551  1
  O  O75  1  0.52375502  0.00063288  0.14104551  1
  O  O76  1  0.52110984  0.46821702  0.16946991  1
  O  O77  1  0.52110984  0.03178298  0.66946991  1
  O  O78  1  0.57837214  0.24105188  0.77943510  1
  O  O79  1  0.57837214  0.25894812  0.27943510  1
  O  O80  1  0.68954482  0.72357442  0.41280299  1
  O  O81  1  0.68954482  0.77642558  0.91280299  1
  O  O82  1  0.70169813  0.52091377  0.98662531  1
  O  O83  1  0.70169813  0.97908623  0.48662531  1
  O  O84  1  0.73471396  0.00320341  0.78135169  1
  O  O85  1  0.73471396  0.49679659  0.28135169  1
  O  O86  1  0.74717718  0.73507847  0.09999065  1
  O  O87  1  0.74717718  0.76492153  0.59999065  1
  O  O88  1  0.75282282  0.23507847  0.09999065  1
  O  O89  1  0.75282282  0.26492153  0.59999065  1
  O  O90  1  0.76528604  0.50320341  0.78135169  1
  O  O91  1  0.76528604  0.99679659  0.28135169  1
  O  O92  1  0.79830187  0.02091377  0.98662531  1
  O  O93  1  0.79830187  0.47908623  0.48662531  1
  O  O94  1  0.81045518  0.22357442  0.41280299  1
  O  O95  1  0.81045518  0.27642558  0.91280299  1
  O  O96  1  0.92162786  0.74105188  0.77943510  1
  O  O97  1  0.92162786  0.75894812  0.27943510  1
  O  O98  1  0.97889016  0.53178298  0.66946991  1
  O  O99  1  0.97889016  0.96821702  0.16946991  1
  O  O100  1  0.97624498  0.99936712  0.64104551  1
  O  O101  1  0.97624498  0.50063288  0.14104551  1
  O  O102  1  0.00967025  0.20198029  0.02575386  1
  O  O103  1  0.00967025  0.29801971  0.52575386  1
