# generated using pymatgen
data_LiMn2F7
_symmetry_space_group_name_H-M   'P 1'
_cell_length_a   5.12114633
_cell_length_b   10.46479721
_cell_length_c   5.60197363
_cell_angle_alpha   121.10072943
_cell_angle_beta   90.00000000
_cell_angle_gamma   75.83681346
_symmetry_Int_Tables_number   1
_chemical_formula_structural   LiMn2F7
_chemical_formula_sum   'Li2 Mn4 F14'
_cell_volume   246.34690124
_cell_formula_units_Z   2
loop_
 _symmetry_equiv_pos_site_id
 _symmetry_equiv_pos_as_xyz
  1  'x, y, z'
loop_
 _atom_site_type_symbol
 _atom_site_label
 _atom_site_symmetry_multiplicity
 _atom_site_fract_x
 _atom_site_fract_y
 _atom_site_fract_z
 _atom_site_occupancy
  Li  Li0  1  0.50000000  0.50000000  0.50000000  1
  Li  Li1  1  0.00000000  0.50000000  0.00000000  1
  Mn  Mn2  1  0.85036142  0.78843978  0.57387452  1
  Mn  Mn3  1  0.36119880  0.78843978  0.07387452  1
  Mn  Mn4  1  0.63880120  0.21156022  0.92612548  1
  Mn  Mn5  1  0.14963858  0.21156022  0.42612548  1
  F  F6  1  0.64534857  0.84613627  0.90579941  1
  F  F7  1  0.50851516  0.84613627  0.40579941  1
  F  F8  1  0.21233520  0.72301754  0.72929275  1
  F  F9  1  0.06464625  0.72301754  0.22929275  1
  F  F10  1  0.59828674  0.58611147  0.89027457  1
  F  F11  1  0.81560179  0.58611147  0.39027457  1
  F  F12  1  0.18439821  0.41388853  0.60972543  1
  F  F13  1  0.40171326  0.41388853  0.10972543  1
  F  F14  1  0.93535375  0.27698246  0.77070725  1
  F  F15  1  0.78766480  0.27698246  0.27070725  1
  F  F16  1  0.49148484  0.15386373  0.59420059  1
  F  F17  1  0.35465143  0.15386373  0.09420059  1
  F  F18  1  0.88046286  0.00000000  0.75000000  1
  F  F19  1  0.11953714  0.00000000  0.25000000  1
