# generated using pymatgen
data_V4O5F7
_symmetry_space_group_name_H-M   'P 1'
_cell_length_a   5.26916736
_cell_length_b   5.37102816
_cell_length_c   17.32967889
_cell_angle_alpha   91.75358953
_cell_angle_beta   98.32823214
_cell_angle_gamma   60.41721964
_symmetry_Int_Tables_number   1
_chemical_formula_structural   V4O5F7
_chemical_formula_sum   'V8 O10 F14'
_cell_volume   421.53697344
_cell_formula_units_Z   2
loop_
 _symmetry_equiv_pos_site_id
 _symmetry_equiv_pos_as_xyz
  1  'x, y, z'
loop_
 _atom_site_type_symbol
 _atom_site_label
 _atom_site_symmetry_multiplicity
 _atom_site_fract_x
 _atom_site_fract_y
 _atom_site_fract_z
 _atom_site_occupancy
  V  V0  1  0.75505481  0.60364272  0.12029462  1
  V  V1  1  0.76989526  0.09072375  0.61982353  1
  V  V2  1  0.49317562  0.21028059  0.25180944  1
  V  V3  1  0.50045206  0.70555974  0.75229440  1
  V  V4  1  0.27380693  0.85221932  0.36875940  1
  V  V5  1  0.28497585  0.34557618  0.86896445  1
  V  V6  1  0.96362355  0.01906282  0.99696738  1
  V  V7  1  0.00646513  0.47166880  0.49464169  1
  O  O8  1  0.94554534  0.32141403  0.06698386  1
  O  O9  1  0.94969359  0.81474626  0.56465163  1
  O  O10  1  0.54898244  0.94696113  0.19000560  1
  O  O11  1  0.44246675  0.57417551  0.31334492  1
  O  O12  1  0.55536938  0.44434579  0.69061077  1
  O  O13  1  0.41505136  0.09271946  0.32999241  1
  O  O14  1  0.41910140  0.59488604  0.83096573  1
  O  O15  1  0.60420742  0.20039677  0.95772791  1
  O  O16  1  0.44686622  0.07503880  0.81070355  1
  O  O17  1  0.04974459  0.19639576  0.43878665  1
  F  F18  1  0.92052191  0.83609359  0.08716612  1
  F  F19  1  0.90603652  0.06443770  0.28969557  1
  F  F20  1  0.92958251  0.33244125  0.58760498  1
  F  F21  1  0.90987200  0.56432955  0.79118930  1
  F  F22  1  0.40608778  0.80790254  0.04226042  1
  F  F23  1  0.55867078  0.43528393  0.16888505  1
  F  F24  1  0.56790714  0.93092705  0.66792246  1
  F  F25  1  0.57680295  0.71396535  0.46193359  1
  F  F26  1  0.42433951  0.30844584  0.53993537  1
  F  F27  1  0.06255510  0.69028246  0.41614701  1
  F  F28  1  0.07965437  0.46178269  0.21226708  1
  F  F29  1  0.08541757  0.95789744  0.71170752  1
  F  F30  1  0.05983933  0.67080075  0.93941837  1
  F  F31  1  0.08823183  0.16559839  0.91653923  1
