# generated using pymatgen
data_Li2VP4(H4O5)4
_symmetry_space_group_name_H-M   'P 1'
_cell_length_a   7.19374483
_cell_length_b   10.70935970
_cell_length_c   11.04412125
_cell_angle_alpha   90.00000000
_cell_angle_beta   79.78822660
_cell_angle_gamma   90.00000000
_symmetry_Int_Tables_number   1
_chemical_formula_structural   Li2VP4(H4O5)4
_chemical_formula_sum   'Li4 V2 P8 H32 O40'
_cell_volume   837.36548603
_cell_formula_units_Z   2
loop_
 _symmetry_equiv_pos_site_id
 _symmetry_equiv_pos_as_xyz
  1  'x, y, z'
loop_
 _atom_site_type_symbol
 _atom_site_label
 _atom_site_symmetry_multiplicity
 _atom_site_fract_x
 _atom_site_fract_y
 _atom_site_fract_z
 _atom_site_occupancy
  Li  Li0  1  0.25121051  0.65932554  0.54641782  1
  Li  Li1  1  0.24878949  0.15932554  0.95358218  1
  Li  Li2  1  0.75121051  0.84067446  0.04641782  1
  Li  Li3  1  0.74878949  0.34067446  0.45358218  1
  V  V4  1  0.00000000  0.00000000  0.50000000  1
  V  V5  1  0.50000000  0.50000000  0.00000000  1
  P  P6  1  0.23347814  0.75990123  0.08404339  1
  P  P7  1  0.26652186  0.25990123  0.41595661  1
  P  P8  1  0.23789490  0.95535800  0.72336944  1
  P  P9  1  0.26210510  0.45535800  0.77663056  1
  P  P10  1  0.73789490  0.54464200  0.22336944  1
  P  P11  1  0.76210510  0.04464200  0.27663056  1
  P  P12  1  0.73347814  0.74009877  0.58404339  1
  P  P13  1  0.76652186  0.24009877  0.91595661  1
  H  H14  1  0.15480116  0.40580577  0.10500836  1
  H  H15  1  0.14089295  0.03964908  0.19189852  1
  H  H16  1  0.12244917  0.43306197  0.39548260  1
  H  H17  1  0.18313886  0.62235764  0.31085824  1
  H  H18  1  0.18783992  0.83062841  0.34244909  1
  H  H19  1  0.07382210  0.29090246  0.78929426  1
  H  H20  1  0.31216008  0.33062841  0.15755091  1
  H  H21  1  0.31686114  0.12235764  0.18914176  1
  H  H22  1  0.16557480  0.58636622  0.92421031  1
  H  H23  1  0.15510135  0.89185819  0.94549460  1
  H  H24  1  0.37755083  0.93306197  0.10451740  1
  H  H25  1  0.35910705  0.53964908  0.30810148  1
  H  H26  1  0.34519884  0.90580577  0.39499164  1
  H  H27  1  0.34489865  0.39185819  0.55450540  1
  H  H28  1  0.33442520  0.08636622  0.57578969  1
  H  H29  1  0.42617790  0.79090246  0.71070574  1
  H  H30  1  0.57382210  0.20909754  0.28929426  1
  H  H31  1  0.66557480  0.91363378  0.42421031  1
  H  H32  1  0.65510135  0.60814181  0.44549460  1
  H  H33  1  0.65480116  0.09419423  0.60500836  1
  H  H34  1  0.64089295  0.46035092  0.69189852  1
  H  H35  1  0.62244917  0.06693803  0.89548260  1
  H  H36  1  0.84489865  0.10814181  0.05450540  1
  H  H37  1  0.83442520  0.41363378  0.07578969  1
  H  H38  1  0.68313886  0.87764236  0.81085824  1
  H  H39  1  0.68783992  0.66937159  0.84244909  1
  H  H40  1  0.92617790  0.70909754  0.21070574  1
  H  H41  1  0.81216008  0.16937159  0.65755091  1
  H  H42  1  0.81686114  0.37764236  0.68914176  1
  H  H43  1  0.87755083  0.56693803  0.60451740  1
  H  H44  1  0.85910705  0.96035092  0.80810148  1
  H  H45  1  0.84519884  0.59419423  0.89499164  1
  O  O46  1  0.08963153  0.83224015  0.01658808  1
  O  O47  1  0.13468382  0.74189040  0.21794079  1
  O  O48  1  0.08184288  0.34362183  0.42167612  1
  O  O49  1  0.04643028  0.97356937  0.68513495  1
  O  O50  1  0.26178358  0.06209099  0.13623859  1
  O  O51  1  0.27916576  0.36557863  0.08047453  1
  O  O52  1  0.29022201  0.63911456  0.01529427  1
  O  O53  1  0.20977799  0.13911456  0.48470573  1
  O  O54  1  0.22083424  0.86557863  0.41952547  1
  O  O55  1  0.23821642  0.56209099  0.36376141  1
  O  O56  1  0.10612972  0.53993876  0.85981851  1
  O  O57  1  0.20491309  0.31334216  0.80718396  1
  O  O58  1  0.41815712  0.84362183  0.07832388  1
  O  O59  1  0.25657743  0.48521176  0.64252337  1
  O  O60  1  0.36531618  0.24189040  0.28205921  1
  O  O61  1  0.24342257  0.98521176  0.85747663  1
  O  O62  1  0.29508691  0.81334216  0.69281604  1
  O  O63  1  0.41036847  0.33224015  0.48341192  1
  O  O64  1  0.39387028  0.03993876  0.64018149  1
  O  O65  1  0.54643028  0.52643063  0.18513495  1
  O  O66  1  0.45356972  0.47356937  0.81486505  1
  O  O67  1  0.60612972  0.96006124  0.35981851  1
  O  O68  1  0.58963153  0.66775985  0.51658808  1
  O  O69  1  0.70491309  0.18665784  0.30718396  1
  O  O70  1  0.75657743  0.01478824  0.14252337  1
  O  O71  1  0.63468382  0.75810960  0.71794079  1
  O  O72  1  0.74342257  0.51478824  0.35747663  1
  O  O73  1  0.58184288  0.15637817  0.92167612  1
  O  O74  1  0.79508691  0.68665784  0.19281604  1
  O  O75  1  0.89387028  0.46006124  0.14018149  1
  O  O76  1  0.76178358  0.43790901  0.63623859  1
  O  O77  1  0.77916576  0.13442137  0.58047453  1
  O  O78  1  0.79022201  0.86088544  0.51529427  1
  O  O79  1  0.70977799  0.36088544  0.98470573  1
  O  O80  1  0.72083424  0.63442137  0.91952547  1
  O  O81  1  0.73821642  0.93790901  0.86376141  1
  O  O82  1  0.95356972  0.02643063  0.31486505  1
  O  O83  1  0.91815712  0.65637817  0.57832388  1
  O  O84  1  0.86531618  0.25810960  0.78205921  1
  O  O85  1  0.91036847  0.16775985  0.98341192  1
