# generated using pymatgen
data_Li3MnFeCo(PO4)3
_symmetry_space_group_name_H-M   'P 1'
_cell_length_a   10.41749856
_cell_length_b   6.10044474
_cell_length_c   14.31565581
_cell_angle_alpha   90.00000000
_cell_angle_beta   89.76193730
_cell_angle_gamma   90.00000000
_symmetry_Int_Tables_number   1
_chemical_formula_structural   Li3MnFeCo(PO4)3
_chemical_formula_sum   'Li12 Mn4 Fe4 Co4 P12 O48'
_cell_volume   909.77174699
_cell_formula_units_Z   4
loop_
 _symmetry_equiv_pos_site_id
 _symmetry_equiv_pos_as_xyz
  1  'x, y, z'
loop_
 _atom_site_type_symbol
 _atom_site_label
 _atom_site_symmetry_multiplicity
 _atom_site_fract_x
 _atom_site_fract_y
 _atom_site_fract_z
 _atom_site_occupancy
  Li  Li0  1  0.99602343  0.49950114  0.66715737  1
  Li  Li1  1  -0.00047848  0.00083834  0.99912144  1
  Li  Li2  1  -0.00047848  0.49916166  0.99912144  1
  Li  Li3  1  0.99707847  0.99869687  0.33381754  1
  Li  Li4  1  0.99707847  0.50130313  0.33381754  1
  Li  Li5  1  0.99602343  0.00049886  0.66715737  1
  Li  Li6  1  0.50306648  -0.00018833  0.50047172  1
  Li  Li7  1  0.50306648  0.50018833  0.50047172  1
  Li  Li8  1  0.50145832  -0.00010588  0.16545382  1
  Li  Li9  1  0.50145832  0.50010588  0.16545382  1
  Li  Li10  1  0.50319168  -0.00028781  0.83370501  1
  Li  Li11  1  0.50319168  0.50028781  0.83370501  1
  Mn  Mn12  1  0.21847351  0.75000000  0.15927517  1
  Mn  Mn13  1  0.21920891  0.75000000  0.49402752  1
  Mn  Mn14  1  0.28190276  0.25000000  0.66064756  1
  Mn  Mn15  1  0.28132693  0.25000000  0.32638375  1
  Fe  Fe16  1  0.21732951  0.75000000  0.82665535  1
  Fe  Fe17  1  0.28273505  0.25000000  0.99068067  1
  Fe  Fe18  1  0.71888711  0.75000000  0.00844912  1
  Fe  Fe19  1  0.71932677  0.75000000  0.34202734  1
  Co  Co20  1  0.72276960  0.75000000  0.67127438  1
  Co  Co21  1  0.78086126  0.25000000  0.83942694  1
  Co  Co22  1  0.77699743  0.25000000  0.50482827  1
  Co  Co23  1  0.78097546  0.25000000  0.17233498  1
  P  P24  1  0.09307153  0.25000000  0.80746318  1
  P  P25  1  0.09282917  0.25000000  0.13774664  1
  P  P26  1  0.09002456  0.25000000  0.47291182  1
  P  P27  1  0.40912619  0.75000000  0.30539215  1
  P  P28  1  0.40875750  0.75000000  0.64007856  1
  P  P29  1  0.40545599  0.75000000  0.97171151  1
  P  P30  1  0.59810105  0.25000000  0.36053872  1
  P  P31  1  0.59549029  0.25000000  0.02677234  1
  P  P32  1  0.59924776  0.25000000  0.69479656  1
  P  P33  1  0.90193610  0.75000000  0.86032063  1
  P  P34  1  0.90234971  0.75000000  0.19446038  1
  P  P35  1  0.90178483  0.75000000  0.52815465  1
  O  O36  1  0.04051129  0.75000000  0.23578902  1
  O  O37  1  0.03994005  0.75000000  0.56928271  1
  O  O38  1  0.04082140  0.75000000  0.90072325  1
  O  O39  1  0.09556350  0.25000000  0.58031930  1
  O  O40  1  0.09752389  0.25000000  0.91463201  1
  O  O41  1  0.09716774  0.25000000  0.24531906  1
  O  O42  1  0.16346071  0.04849720  0.09245322  1
  O  O43  1  0.16346071  0.45150280  0.09245322  1
  O  O44  1  0.16022390  0.04801358  0.42748894  1
  O  O45  1  0.16022390  0.45198642  0.42748894  1
  O  O46  1  0.16395582  0.04697677  0.76286849  1
  O  O47  1  0.16395582  0.45302323  0.76286849  1
  O  O48  1  0.33970590  0.54794729  0.59415478  1
  O  O49  1  0.33970590  0.95205271  0.59415478  1
  O  O50  1  0.33915564  0.54762343  0.26086151  1
  O  O51  1  0.33915564  0.95237657  0.26086151  1
  O  O52  1  0.33428812  0.54720408  0.92773052  1
  O  O53  1  0.33428812  0.95279592  0.92773052  1
  O  O54  1  0.40453126  0.75000000  0.41299162  1
  O  O55  1  0.40281346  0.75000000  0.07913470  1
  O  O56  1  0.40182055  0.75000000  0.74737614  1
  O  O57  1  0.46037755  0.25000000  0.40303044  1
  O  O58  1  0.45649953  0.25000000  0.06720725  1
  O  O59  1  0.46028452  0.25000000  0.73525969  1
  O  O60  1  0.54755648  0.75000000  0.26431761  1
  O  O61  1  0.54366351  0.75000000  0.93031927  1
  O  O62  1  0.54888467  0.75000000  0.60024125  1
  O  O63  1  0.60076819  0.25000000  0.25312076  1
  O  O64  1  0.60003258  0.25000000  0.91937218  1
  O  O65  1  0.60237594  0.25000000  0.58651208  1
  O  O66  1  0.66586378  0.04767026  0.07204236  1
  O  O67  1  0.66913858  0.04773493  0.40559850  1
  O  O68  1  0.66829997  0.04680300  0.73997261  1
  O  O69  1  0.66829997  0.45319700  0.73997261  1
  O  O70  1  0.66586378  0.45232974  0.07204236  1
  O  O71  1  0.66913858  0.45226507  0.40559850  1
  O  O72  1  0.83226305  0.54544214  0.90472531  1
  O  O73  1  0.83226305  0.95455786  0.90472531  1
  O  O74  1  0.83251076  0.54527213  0.23892553  1
  O  O75  1  0.83128840  0.54674248  0.57342834  1
  O  O76  1  0.83251076  0.95472787  0.23892553  1
  O  O77  1  0.83128840  0.95325752  0.57342834  1
  O  O78  1  0.89922510  0.75000000  0.75237056  1
  O  O79  1  0.90112566  0.75000000  0.42061712  1
  O  O80  1  0.90027933  0.75000000  0.08686495  1
  O  O81  1  0.95448557  0.25000000  0.76716992  1
  O  O82  1  0.95328576  0.25000000  0.09844082  1
  O  O83  1  0.95050048  0.25000000  0.43327907  1
