# generated using pymatgen
data_W7(OF5)6
_symmetry_space_group_name_H-M   'P 1'
_cell_length_a   9.49051336
_cell_length_b   9.53198796
_cell_length_c   9.27907653
_cell_angle_alpha   100.21306286
_cell_angle_beta   99.91020706
_cell_angle_gamma   115.50565993
_symmetry_Int_Tables_number   1
_chemical_formula_structural   W7(OF5)6
_chemical_formula_sum   'W7 O6 F30'
_cell_volume   715.84376327
_cell_formula_units_Z   1
loop_
 _symmetry_equiv_pos_site_id
 _symmetry_equiv_pos_as_xyz
  1  'x, y, z'
loop_
 _atom_site_type_symbol
 _atom_site_label
 _atom_site_symmetry_multiplicity
 _atom_site_fract_x
 _atom_site_fract_y
 _atom_site_fract_z
 _atom_site_occupancy
  W  W0  1  0.07564343  0.39455848  0.24466706  1
  W  W1  1  0.00000000  0.00000000  0.00000000  1
  W  W2  1  0.24212645  0.24111024  0.77172069  1
  W  W3  1  0.60299495  0.91635698  0.75156690  1
  W  W4  1  0.39700505  0.08364302  0.24843310  1
  W  W5  1  0.75787355  0.75888976  0.22827931  1
  W  W6  1  0.92435657  0.60544152  0.75533294  1
  O  O7  1  0.08819221  0.14867049  0.88194028  1
  O  O8  1  0.04724318  0.18063403  0.16892833  1
  O  O9  1  0.78635901  0.97735964  0.92003075  1
  O  O10  1  0.21364099  0.02264036  0.07996925  1
  O  O11  1  0.95275682  0.81936597  0.83107167  1
  O  O12  1  0.91180779  0.85132951  0.11805972  1
  F  F13  1  0.07695239  0.64809401  0.93954233  1
  F  F14  1  0.09290841  0.68035795  0.66177019  1
  F  F15  1  0.09869157  0.60435017  0.30127692  1
  F  F16  1  0.07492822  0.17114341  0.59176371  1
  F  F17  1  0.24187818  0.44128124  0.81930262  1
  F  F18  1  0.45601797  0.86133026  0.87047491  1
  F  F19  1  0.37127396  0.87207435  0.20318060  1
  F  F20  1  0.22596430  0.43664774  0.42865172  1
  F  F21  1  0.43382643  0.85294070  0.57516664  1
  F  F22  1  0.24609995  0.47404482  0.15285122  1
  F  F23  1  0.24408251  0.04086293  0.72390532  1
  F  F24  1  0.41126162  0.31407926  0.95240497  1
  F  F25  1  0.39885691  0.31839878  0.66637670  1
  F  F26  1  0.57308364  0.70276459  0.70563270  1
  F  F27  1  0.25020339  0.02918267  0.36865294  1
  F  F28  1  0.74979661  0.97081733  0.63134706  1
  F  F29  1  0.42691636  0.29723541  0.29436730  1
  F  F30  1  0.60114309  0.68160122  0.33362330  1
  F  F31  1  0.58873838  0.68592074  0.04759503  1
  F  F32  1  0.75591749  0.95913707  0.27609468  1
  F  F33  1  0.75390005  0.52595518  0.84714878  1
  F  F34  1  0.56617357  0.14705930  0.42483336  1
  F  F35  1  0.77403570  0.56335226  0.57134828  1
  F  F36  1  0.62872604  0.12792565  0.79681940  1
  F  F37  1  0.54398203  0.13866974  0.12952509  1
  F  F38  1  0.75812182  0.55871876  0.18069738  1
  F  F39  1  0.92507178  0.82885659  0.40823629  1
  F  F40  1  0.90130843  0.39564983  0.69872308  1
  F  F41  1  0.90709159  0.31964205  0.33822981  1
  F  F42  1  0.92304761  0.35190599  0.06045767  1
