# generated using pymatgen
data_W7(OF5)6
_symmetry_space_group_name_H-M   'P 1'
_cell_length_a   9.32325932
_cell_length_b   10.98010519
_cell_length_c   9.32325891
_cell_angle_alpha   115.12233073
_cell_angle_beta   60.00000212
_cell_angle_gamma   115.12233018
_symmetry_Int_Tables_number   1
_chemical_formula_structural   W7(OF5)6
_chemical_formula_sum   'W7 O6 F30'
_cell_volume   720.42074903
_cell_formula_units_Z   1
loop_
 _symmetry_equiv_pos_site_id
 _symmetry_equiv_pos_as_xyz
  1  'x, y, z'
loop_
 _atom_site_type_symbol
 _atom_site_label
 _atom_site_symmetry_multiplicity
 _atom_site_fract_x
 _atom_site_fract_y
 _atom_site_fract_z
 _atom_site_occupancy
  W  W0  1  0.00000000  0.00000000  0.00000000  1
  W  W1  1  0.07942269  0.24143327  0.39477394  1
  W  W2  1  0.23276336  0.75856673  0.92057731  1
  W  W3  1  0.60522606  0.75856673  0.23276336  1
  W  W4  1  0.39477394  0.24143327  0.76723664  1
  W  W5  1  0.76723664  0.24143327  0.07942269  1
  W  W6  1  0.92057731  0.75856673  0.60522606  1
  O  O7  1  0.09110837  0.88273272  0.02260537  1
  O  O8  1  0.02260537  0.88273272  0.76901998  1
  O  O9  1  0.76901998  0.88273272  0.09110837  1
  O  O10  1  0.23098002  0.11726728  0.90889163  1
  O  O11  1  0.97739463  0.11726728  0.23098002  1
  O  O12  1  0.90889163  0.11726728  0.97739463  1
  F  F13  1  0.08998768  0.66095977  0.09025071  1
  F  F14  1  0.05456145  0.87769850  0.45942891  1
  F  F15  1  0.36370815  0.87769850  0.05456145  1
  F  F16  1  0.09025071  0.66095977  0.48072137  1
  F  F17  1  0.21140792  0.36392117  0.25244856  1
  F  F18  1  0.09993531  0.63607883  0.78859208  1
  F  F19  1  0.48072137  0.66095977  0.08998768  1
  F  F20  1  0.45942891  0.87769850  0.36370815  1
  F  F21  1  0.19875144  0.35949548  0.53951822  1
  F  F22  1  0.24912009  0.14279540  0.27085856  1
  F  F23  1  0.37718326  0.85720460  0.75087991  1
  F  F24  1  0.46048178  0.64050452  0.37877417  1
  F  F25  1  0.37877417  0.64050452  0.80124856  1
  F  F26  1  0.74755144  0.63607883  0.09993531  1
  F  F27  1  0.72914144  0.85720460  0.37718326  1
  F  F28  1  0.27085856  0.14279540  0.62281674  1
  F  F29  1  0.25244856  0.36392117  0.90006469  1
  F  F30  1  0.62122583  0.35949548  0.19875144  1
  F  F31  1  0.53951822  0.35949548  0.62122583  1
  F  F32  1  0.62281674  0.14279540  0.24912009  1
  F  F33  1  0.75087991  0.85720460  0.72914144  1
  F  F34  1  0.80124856  0.64050452  0.46048178  1
  F  F35  1  0.54057109  0.12230150  0.63629185  1
  F  F36  1  0.51927863  0.33904023  0.91001232  1
  F  F37  1  0.90006469  0.36392117  0.21140792  1
  F  F38  1  0.78859208  0.63607883  0.74755144  1
  F  F39  1  0.90974929  0.33904023  0.51927863  1
  F  F40  1  0.63629185  0.12230150  0.94543855  1
  F  F41  1  0.94543855  0.12230150  0.54057109  1
  F  F42  1  0.91001232  0.33904023  0.90974929  1
