# generated using pymatgen
data_Li3MnFeCo(PO4)3
_symmetry_space_group_name_H-M   'P 1'
_cell_length_a   10.46044994
_cell_length_b   6.09230517
_cell_length_c   14.27796603
_cell_angle_alpha   90.00000000
_cell_angle_beta   89.88988537
_cell_angle_gamma   90.00000000
_symmetry_Int_Tables_number   1
_chemical_formula_structural   Li3MnFeCo(PO4)3
_chemical_formula_sum   'Li12 Mn4 Fe4 Co4 P12 O48'
_cell_volume   909.90815492
_cell_formula_units_Z   4
loop_
 _symmetry_equiv_pos_site_id
 _symmetry_equiv_pos_as_xyz
  1  'x, y, z'
loop_
 _atom_site_type_symbol
 _atom_site_label
 _atom_site_symmetry_multiplicity
 _atom_site_fract_x
 _atom_site_fract_y
 _atom_site_fract_z
 _atom_site_occupancy
  Li  Li0  1  0.99755657  0.49920728  0.66716339  1
  Li  Li1  1  0.99867671  0.00047494  0.99965102  1
  Li  Li2  1  0.99867671  0.49952506  0.99965102  1
  Li  Li3  1  0.99810708  0.00102397  0.33307387  1
  Li  Li4  1  0.99810708  0.49897603  0.33307387  1
  Li  Li5  1  0.99755657  0.00079272  0.66716339  1
  Li  Li6  1  0.50240505  0.00074602  0.50092780  1
  Li  Li7  1  0.50240505  0.49925398  0.50092780  1
  Li  Li8  1  0.50151878  0.00045019  0.16675554  1
  Li  Li9  1  0.50151878  0.49954981  0.16675554  1
  Li  Li10  1  0.50257729  -0.00015625  0.83285339  1
  Li  Li11  1  0.50257729  0.50015625  0.83285339  1
  Mn  Mn12  1  0.21804316  0.75000000  0.16019210  1
  Mn  Mn13  1  0.21854586  0.75000000  0.49381045  1
  Mn  Mn14  1  0.21809090  0.75000000  0.82668994  1
  Mn  Mn15  1  0.28183447  0.25000000  0.66003689  1
  Fe  Fe16  1  0.28033949  0.25000000  0.99289353  1
  Fe  Fe17  1  0.28187397  0.25000000  0.32576091  1
  Fe  Fe18  1  0.71993426  0.75000000  0.00716456  1
  Fe  Fe19  1  0.72009388  0.75000000  0.34099161  1
  Co  Co20  1  0.72155326  0.75000000  0.67405358  1
  Co  Co21  1  0.77819814  0.25000000  0.83914146  1
  Co  Co22  1  0.78016511  0.25000000  0.50693679  1
  Co  Co23  1  0.77908004  0.25000000  0.17296571  1
  P  P24  1  0.09046502  0.25000000  0.80603399  1
  P  P25  1  0.09242335  0.25000000  0.13837392  1
  P  P26  1  0.09161023  0.25000000  0.47058487  1
  P  P27  1  0.40868948  0.75000000  0.30690910  1
  P  P28  1  0.41067372  0.75000000  0.63918585  1
  P  P29  1  0.40834930  0.75000000  0.97358178  1
  P  P30  1  0.59646195  0.25000000  0.36055039  1
  P  P31  1  0.59567545  0.25000000  0.02733474  1
  P  P32  1  0.59783773  0.25000000  0.69414818  1
  P  P33  1  0.90210498  0.75000000  0.86067912  1
  P  P34  1  0.90256944  0.75000000  0.19419667  1
  P  P35  1  0.90208008  0.75000000  0.52778275  1
  O  O36  1  0.04030425  0.75000000  0.23623576  1
  O  O37  1  0.03932228  0.75000000  0.56988970  1
  O  O38  1  0.03973207  0.75000000  0.90286352  1
  O  O39  1  0.09548552  0.25000000  0.57797983  1
  O  O40  1  0.09603729  0.25000000  0.91358725  1
  O  O41  1  0.09856683  0.25000000  0.24589112  1
  O  O42  1  0.16300525  0.04893037  0.09228842  1
  O  O43  1  0.16300525  0.45106963  0.09228842  1
  O  O44  1  0.16233141  0.04818241  0.42532279  1
  O  O45  1  0.16233141  0.45181759  0.42532279  1
  O  O46  1  0.16080502  0.04809977  0.76084686  1
  O  O47  1  0.16080502  0.45190023  0.76084686  1
  O  O48  1  0.34000061  0.54813549  0.59427859  1
  O  O49  1  0.34000061  0.95186451  0.59427859  1
  O  O50  1  0.33731121  0.54684475  0.26317454  1
  O  O51  1  0.33731121  0.95315525  0.26317454  1
  O  O52  1  0.33717985  0.54685404  0.92997408  1
  O  O53  1  0.33717985  0.95314596  0.92997408  1
  O  O54  1  0.40676831  0.75000000  0.41415801  1
  O  O55  1  0.40623466  0.75000000  0.08123846  1
  O  O56  1  0.40518501  0.75000000  0.74673677  1
  O  O57  1  0.45820988  0.25000000  0.40153722  1
  O  O58  1  0.45788314  0.25000000  0.06876431  1
  O  O59  1  0.46044897  0.25000000  0.73670908  1
  O  O60  1  0.54569466  0.75000000  0.26441390  1
  O  O61  1  0.54524414  0.75000000  0.93129816  1
  O  O62  1  0.54858026  0.75000000  0.59892723  1
  O  O63  1  0.59936462  0.25000000  0.25284215  1
  O  O64  1  0.59811779  0.25000000  0.91965624  1
  O  O65  1  0.59822549  0.25000000  0.58649315  1
  O  O66  1  0.66630346  0.04750300  0.07195561  1
  O  O67  1  0.66629733  0.04765035  0.40557137  1
  O  O68  1  0.66835035  0.04646706  0.73869870  1
  O  O69  1  0.66835035  0.45353294  0.73869870  1
  O  O70  1  0.66630346  0.45249700  0.07195561  1
  O  O71  1  0.66629733  0.45234965  0.40557137  1
  O  O72  1  0.83235135  0.54600859  0.90507533  1
  O  O73  1  0.83235135  0.95399141  0.90507533  1
  O  O74  1  0.83285457  0.54584649  0.23842382  1
  O  O75  1  0.83124472  0.54665343  0.57179800  1
  O  O76  1  0.83285457  0.95415351  0.23842382  1
  O  O77  1  0.83124472  0.95334657  0.57179800  1
  O  O78  1  0.90188803  0.75000000  0.75303729  1
  O  O79  1  0.90192194  0.75000000  0.41986707  1
  O  O80  1  0.90220939  0.75000000  0.08660534  1
  O  O81  1  0.95269386  0.25000000  0.76576422  1
  O  O82  1  0.95415840  0.25000000  0.09935616  1
  O  O83  1  0.95328170  0.25000000  0.43048395  1
