# generated using pymatgen
data_Mn2Cr3O12
_symmetry_space_group_name_H-M   'P 1'
_cell_length_a   8.75306054
_cell_length_b   12.46186081
_cell_length_c   9.08557374
_cell_angle_alpha   90.00000000
_cell_angle_beta   90.00000000
_cell_angle_gamma   92.21082345
_symmetry_Int_Tables_number   1
_chemical_formula_structural   Mn2Cr3O12
_chemical_formula_sum   'Mn8 Cr12 O48'
_cell_volume   990.31144234
_cell_formula_units_Z   4
loop_
 _symmetry_equiv_pos_site_id
 _symmetry_equiv_pos_as_xyz
  1  'x, y, z'
loop_
 _atom_site_type_symbol
 _atom_site_label
 _atom_site_symmetry_multiplicity
 _atom_site_fract_x
 _atom_site_fract_y
 _atom_site_fract_z
 _atom_site_occupancy
  Mn  Mn0  1  0.25269437  0.88470570  0.02956848  1
  Mn  Mn1  1  0.24730563  0.61529430  0.52956848  1
  Mn  Mn2  1  0.25252327  0.38234629  0.96781258  1
  Mn  Mn3  1  0.24747673  0.11765371  0.46781258  1
  Mn  Mn4  1  0.75252327  0.88234629  0.53218742  1
  Mn  Mn5  1  0.74747673  0.61765371  0.03218742  1
  Mn  Mn6  1  0.75269437  0.38470570  0.47043152  1
  Mn  Mn7  1  0.74730563  0.11529330  0.97043152  1
  Cr  Cr8  1  0.04265154  0.49002830  0.24989751  1
  Cr  Cr9  1  0.11292545  0.85498286  0.37583917  1
  Cr  Cr10  1  0.11421541  0.14661227  0.11375301  1
  Cr  Cr11  1  0.38707455  0.64501714  0.87583917  1
  Cr  Cr12  1  0.38578459  0.35338773  0.61375301  1
  Cr  Cr13  1  0.45734846  0.00997170  0.74989751  1
  Cr  Cr14  1  0.54265154  0.99002830  0.25010249  1
  Cr  Cr15  1  0.61421541  0.64661227  0.38624699  1
  Cr  Cr16  1  0.61292545  0.35498286  0.12416083  1
  Cr  Cr17  1  0.88578459  0.85338773  0.88624699  1
  Cr  Cr18  1  0.88707455  0.14501714  0.62416083  1
  Cr  Cr19  1  0.95734846  0.50997170  0.75010249  1
  O  O20  1  0.05980817  0.44806100  0.87117047  1
  O  O21  1  0.06787918  0.89775906  0.89370668  1
  O  O22  1  0.06607981  0.60563792  0.66608103  1
  O  O23  1  0.06022578  0.18491879  0.57552065  1
  O  O24  1  0.10962440  0.58378955  0.36875928  1
  O  O25  1  0.12418158  0.84149566  0.18978840  1
  O  O26  1  0.13727616  0.98506654  0.42211021  1
  O  O27  1  0.13291029  0.25234232  0.99936553  1
  O  O28  1  0.16393187  0.18166833  0.28532845  1
  O  O29  1  0.18892416  0.43439854  0.16446883  1
  O  O30  1  0.23722232  0.78129776  0.46142182  1
  O  O31  1  0.26277768  0.71870224  0.96142182  1
  O  O32  1  0.22830779  0.05211407  0.06124438  1
  O  O33  1  0.27169221  0.44788593  0.56124438  1
  O  O34  1  0.31107584  0.06560146  0.66446883  1
  O  O35  1  0.33606813  0.31833167  0.78532845  1
  O  O36  1  0.36272384  0.51493346  0.92211021  1
  O  O37  1  0.36708971  0.24765768  0.49936553  1
  O  O38  1  0.37581842  0.65850434  0.68978840  1
  O  O39  1  0.39037560  0.91621045  0.86875928  1
  O  O40  1  0.43392019  0.89436208  0.16608103  1
  O  O41  1  0.43212082  0.60224094  0.39370668  1
  O  O42  1  0.43977422  0.31508121  0.07552065  1
  O  O43  1  0.44019183  0.05193900  0.37117047  1
  O  O44  1  0.55980817  0.94806100  0.62882953  1
  O  O45  1  0.56022578  0.68491879  0.92447935  1
  O  O46  1  0.56787918  0.39775906  0.60629332  1
  O  O47  1  0.56607981  0.10563792  0.83391897  1
  O  O48  1  0.60962440  0.08378955  0.13124072  1
  O  O49  1  0.62418158  0.34149566  0.31021160  1
  O  O50  1  0.63291029  0.75234232  0.50063447  1
  O  O51  1  0.63727616  0.48506654  0.07788979  1
  O  O52  1  0.66393187  0.68166833  0.21467155  1
  O  O53  1  0.68892416  0.93439854  0.33553117  1
  O  O54  1  0.72830779  0.55211407  0.43875562  1
  O  O55  1  0.77169221  0.94788593  0.93875562  1
  O  O56  1  0.73722232  0.28129776  0.03857818  1
  O  O57  1  0.76277768  0.21870224  0.53857818  1
  O  O58  1  0.81107584  0.56560146  0.83553117  1
  O  O59  1  0.83606813  0.81833167  0.71467155  1
  O  O60  1  0.86708971  0.74765768  0.00063447  1
  O  O61  1  0.86272384  0.01493346  0.57788979  1
  O  O62  1  0.87581842  0.15850434  0.81021160  1
  O  O63  1  0.89037560  0.41621045  0.63124072  1
  O  O64  1  0.93977422  0.81508121  0.42447935  1
  O  O65  1  0.93392019  0.39436208  0.33391897  1
  O  O66  1  0.93212082  0.10224094  0.10629332  1
  O  O67  1  0.94019183  0.55193900  0.12882953  1
