# generated using pymatgen
data_V2(OF)3
_symmetry_space_group_name_H-M   'P 1'
_cell_length_a   5.23707484
_cell_length_b   13.24669762
_cell_length_c   5.23703084
_cell_angle_alpha   89.79642220
_cell_angle_beta   120.26236675
_cell_angle_gamma   89.90403403
_symmetry_Int_Tables_number   1
_chemical_formula_structural   V2(OF)3
_chemical_formula_sum   'V6 O9 F9'
_cell_volume   313.79908072
_cell_formula_units_Z   3
loop_
 _symmetry_equiv_pos_site_id
 _symmetry_equiv_pos_as_xyz
  1  'x, y, z'
loop_
 _atom_site_type_symbol
 _atom_site_label
 _atom_site_symmetry_multiplicity
 _atom_site_fract_x
 _atom_site_fract_y
 _atom_site_fract_z
 _atom_site_occupancy
  V  V0  1  0.04466178  0.49141800  0.02073499  1
  V  V1  1  0.01459940  0.99376248  0.01971886  1
  V  V2  1  0.63753589  0.82513537  0.35098667  1
  V  V3  1  0.31642330  0.66603222  0.70760989  1
  V  V4  1  0.72867591  0.33287499  0.35015055  1
  V  V5  1  0.34397760  0.15289895  0.63813613  1
  O  O6  1  0.41760114  0.74665040  0.99237702  1
  O  O7  1  0.32773953  0.41652727  0.08846430  1
  O  O8  1  0.09401035  0.08790271  0.33759559  1
  O  O9  1  0.31285107  0.91805673  0.22615256  1
  O  O10  1  0.99969921  0.25305757  0.57438078  1
  O  O11  1  0.09263478  0.58545275  0.75270189  1
  O  O12  1  0.56981382  0.75304087  0.57124262  1
  O  O13  1  0.90668853  0.41556518  0.24813870  1
  O  O14  1  0.65476472  0.08463728  0.75037655  1
  F  F15  1  0.00270525  0.75165226  0.41520019  1
  F  F16  1  0.25212040  0.58844708  0.33780334  1
  F  F17  1  0.57880882  0.25192740  0.00295241  1
  F  F18  1  0.73267464  0.91681670  0.07104952  1
  F  F19  1  0.41850210  0.25314423  0.42230768  1
  F  F20  1  0.24341861  0.08935526  0.90963467  1
  F  F21  1  0.73871125  0.41742553  0.65819786  1
  F  F22  1  0.90771972  0.92178064  0.64776837  1
  F  F23  1  0.66366018  0.58643613  0.90631884  1
