# generated using pymatgen
data_Li11V4F24
_symmetry_space_group_name_H-M   'P 1'
_cell_length_a   9.94380144
_cell_length_b   11.38667800
_cell_length_c   9.94380114
_cell_angle_alpha   64.11018168
_cell_angle_beta   89.99999902
_cell_angle_gamma   64.11018006
_symmetry_Int_Tables_number   1
_chemical_formula_structural   Li11V4F24
_chemical_formula_sum   'Li22 V8 F48'
_cell_volume   885.60005302
_cell_formula_units_Z   2
loop_
 _symmetry_equiv_pos_site_id
 _symmetry_equiv_pos_as_xyz
  1  'x, y, z'
loop_
 _atom_site_type_symbol
 _atom_site_label
 _atom_site_symmetry_multiplicity
 _atom_site_fract_x
 _atom_site_fract_y
 _atom_site_fract_z
 _atom_site_occupancy
  Li  Li0  1  0.12500000  0.25000000  0.87500000  1
  Li  Li1  1  0.15110856  0.19778188  0.40110856  1
  Li  Li2  1  0.36265583  0.24453639  0.63545411  1
  Li  Li3  1  0.69066306  0.11112955  0.68346555  1
  Li  Li4  1  0.59889144  0.30221812  0.84889144  1
  Li  Li5  1  0.10719223  0.75546361  0.87999050  1
  Li  Li6  1  0.20540491  0.61112955  0.69066306  1
  Li  Li7  1  0.31653445  0.38887045  0.30179161  1
  Li  Li8  1  0.69820839  0.11112955  0.20540491  1
  Li  Li9  1  0.87999050  0.25546361  0.63734417  1
  Li  Li10  1  0.36454589  0.25546361  0.10719223  1
  Li  Li11  1  0.63545411  0.74453639  0.89280777  1
  Li  Li12  1  0.12000950  0.74453639  0.36265583  1
  Li  Li13  1  0.30179161  0.88887045  0.79459509  1
  Li  Li14  1  0.68346555  0.61112955  0.69820839  1
  Li  Li15  1  0.79459509  0.38887045  0.30933694  1
  Li  Li16  1  0.89280777  0.24453639  0.12000950  1
  Li  Li17  1  0.40110856  0.69778188  0.15110856  1
  Li  Li18  1  0.30933694  0.88887045  0.31653445  1
  Li  Li19  1  0.63734417  0.75546361  0.36454589  1
  Li  Li20  1  0.84889144  0.80221812  0.59889144  1
  Li  Li21  1  0.87500000  0.75000000  0.12500000  1
  V  V22  1  0.00000000  0.00000000  0.50000000  1
  V  V23  1  0.50000000  0.00000000  0.50000000  1
  V  V24  1  0.00000000  0.00000000  0.00000000  1
  V  V25  1  0.00000000  0.50000000  0.50000000  1
  V  V26  1  0.50000000  0.00000000  0.00000000  1
  V  V27  1  0.50000000  0.50000000  0.50000000  1
  V  V28  1  0.00000000  0.50000000  0.00000000  1
  V  V29  1  0.50000000  0.50000000  0.00000000  1
  F  F30  1  0.16762542  0.33933012  0.98368881  1
  F  F31  1  0.32301994  0.16066988  0.83237458  1
  F  F32  1  0.33728242  0.01865421  0.61028646  1
  F  F33  1  0.62966393  0.00290537  0.86211777  1
  F  F34  1  0.14406337  0.01865421  0.37105933  1
  F  F35  1  0.51587846  0.14930545  0.53742123  1
  F  F36  1  0.03669777  0.64744650  0.82064295  1
  F  F37  1  0.82064295  0.14744650  0.81585573  1
  F  F38  1  0.01631119  0.16066988  0.00695554  1
  F  F39  1  0.18414427  0.35255350  0.46808945  1
  F  F40  1  0.38971354  0.48134579  0.85593663  1
  F  F41  1  0.33317339  0.17664099  0.31303481  1
  F  F42  1  0.13497686  0.50290537  0.62966393  1
  F  F43  1  0.48967579  0.32335901  0.66682661  1
  F  F44  1  0.31303481  0.67664099  0.99018662  1
  F  F45  1  0.62894067  0.48134579  0.66271758  1
  F  F46  1  0.53191055  0.14744650  0.03669777  1
  F  F47  1  0.53742123  0.64930545  0.83481610  1
  F  F48  1  0.00695554  0.66066988  0.32301994  1
  F  F49  1  0.99018662  0.17664099  0.51032421  1
  F  F50  1  0.86743070  0.00290537  0.13497686  1
  F  F51  1  0.83481610  0.14930545  0.31327333  1
  F  F52  1  0.68672667  0.35069455  0.48412154  1
  F  F53  1  0.13788223  0.49709463  0.13256930  1
  F  F54  1  0.86211777  0.50290537  0.86743070  1
  F  F55  1  0.31327333  0.64930545  0.51587846  1
  F  F56  1  0.16518390  0.85069455  0.68672667  1
  F  F57  1  0.13256930  0.99709463  0.86502314  1
  F  F58  1  0.00981338  0.82335901  0.48967579  1
  F  F59  1  0.99304446  0.33933012  0.67698006  1
  F  F60  1  0.46257877  0.35069455  0.16518390  1
  F  F61  1  0.46808945  0.85255350  0.96330223  1
  F  F62  1  0.37105933  0.51865421  0.33728242  1
  F  F63  1  0.68696519  0.32335901  0.00981338  1
  F  F64  1  0.51032421  0.67664099  0.33317339  1
  F  F65  1  0.86502314  0.49709463  0.37033607  1
  F  F66  1  0.66682661  0.82335901  0.68696519  1
  F  F67  1  0.61028646  0.51865421  0.14406337  1
  F  F68  1  0.81585573  0.64744650  0.53191055  1
  F  F69  1  0.98368881  0.83933012  0.99304446  1
  F  F70  1  0.17935705  0.85255350  0.18414427  1
  F  F71  1  0.96330223  0.35255350  0.17935705  1
  F  F72  1  0.48412154  0.85069455  0.46257877  1
  F  F73  1  0.85593663  0.98134579  0.62894067  1
  F  F74  1  0.37033607  0.99709463  0.13788223  1
  F  F75  1  0.66271758  0.98134579  0.38971354  1
  F  F76  1  0.67698006  0.83933012  0.16762542  1
  F  F77  1  0.83237458  0.66066988  0.01631119  1
