# generated using pymatgen
data_Li3MnFeCo(PO4)3
_symmetry_space_group_name_H-M   'P 1'
_cell_length_a   10.47933952
_cell_length_b   6.08136858
_cell_length_c   14.33390587
_cell_angle_alpha   90.00000000
_cell_angle_beta   89.60521339
_cell_angle_gamma   90.00000000
_symmetry_Int_Tables_number   1
_chemical_formula_structural   Li3MnFeCo(PO4)3
_chemical_formula_sum   'Li12 Mn4 Fe4 Co4 P12 O48'
_cell_volume   913.45987657
_cell_formula_units_Z   4
loop_
 _symmetry_equiv_pos_site_id
 _symmetry_equiv_pos_as_xyz
  1  'x, y, z'
loop_
 _atom_site_type_symbol
 _atom_site_label
 _atom_site_symmetry_multiplicity
 _atom_site_fract_x
 _atom_site_fract_y
 _atom_site_fract_z
 _atom_site_occupancy
  Li  Li0  1  -0.00073164  0.49979493  0.66532761  1
  Li  Li1  1  0.99619262  0.99772663  0.00099746  1
  Li  Li2  1  0.99619262  0.50227337  0.00099746  1
  Li  Li3  1  0.99818286  0.00104664  0.33343394  1
  Li  Li4  1  0.99818286  0.49895336  0.33343394  1
  Li  Li5  1  -0.00073164  0.00020507  0.66532761  1
  Li  Li6  1  0.50197374  -0.00008698  0.50014240  1
  Li  Li7  1  0.50197374  0.50008698  0.50014240  1
  Li  Li8  1  0.50204932  0.99939608  0.16636523  1
  Li  Li9  1  0.50204932  0.50060392  0.16636523  1
  Li  Li10  1  0.50174599  0.99935076  0.83324130  1
  Li  Li11  1  0.50174599  0.50064924  0.83324130  1
  Mn  Mn12  1  0.21799028  0.75000000  0.16150413  1
  Mn  Mn13  1  0.21816595  0.75000000  0.82735667  1
  Mn  Mn14  1  0.28169895  0.25000000  0.99480941  1
  Mn  Mn15  1  0.28393919  0.25000000  0.33013882  1
  Fe  Fe16  1  0.21778355  0.75000000  0.49557993  1
  Fe  Fe17  1  0.28001441  0.25000000  0.66160687  1
  Fe  Fe18  1  0.72082174  0.75000000  0.00641232  1
  Fe  Fe19  1  0.71945558  0.75000000  0.33879810  1
  Co  Co20  1  0.71766168  0.75000000  0.67004489  1
  Co  Co21  1  0.78226011  0.25000000  0.83834686  1
  Co  Co22  1  0.77976927  0.25000000  0.50522426  1
  Co  Co23  1  0.77833339  0.25000000  0.16981940  1
  P  P24  1  0.09292597  0.25000000  0.80530622  1
  P  P25  1  0.09015647  0.25000000  0.13929449  1
  P  P26  1  0.09327080  0.25000000  0.47432553  1
  P  P27  1  0.40636774  0.75000000  0.30603349  1
  P  P28  1  0.40521032  0.75000000  0.63859072  1
  P  P29  1  0.40710547  0.75000000  0.97205334  1
  P  P30  1  0.59928069  0.25000000  0.36055097  1
  P  P31  1  0.59849089  0.25000000  0.02821483  1
  P  P32  1  0.59840488  0.25000000  0.69347946  1
  P  P33  1  0.90223540  0.75000000  0.86000148  1
  P  P34  1  0.90264485  0.75000000  0.19441817  1
  P  P35  1  0.90250327  0.75000000  0.52667319  1
  O  O36  1  0.04018939  0.75000000  0.23509227  1
  O  O37  1  0.04018810  0.75000000  0.56707551  1
  O  O38  1  0.03931589  0.75000000  0.90136718  1
  O  O39  1  0.09699648  0.25000000  0.58126138  1
  O  O40  1  0.09781038  0.25000000  0.91226704  1
  O  O41  1  0.09569944  0.25000000  0.24670933  1
  O  O42  1  0.16001668  0.04773978  0.09389354  1
  O  O43  1  0.16001668  0.45226022  0.09389354  1
  O  O44  1  0.16366572  0.04656181  0.42977352  1
  O  O45  1  0.16366572  0.45343819  0.42977352  1
  O  O46  1  0.16367072  0.04917752  0.75906003  1
  O  O47  1  0.16367072  0.45082248  0.75906003  1
  O  O48  1  0.33602878  0.54652049  0.59379591  1
  O  O49  1  0.33602878  0.95347951  0.59379591  1
  O  O50  1  0.33790688  0.54696916  0.26104003  1
  O  O51  1  0.33790688  0.95303084  0.26104003  1
  O  O52  1  0.33741918  0.54740400  0.92736532  1
  O  O53  1  0.33741918  0.95259600  0.92736532  1
  O  O54  1  0.40054782  0.75000000  0.41380481  1
  O  O55  1  0.40163411  0.75000000  0.07946469  1
  O  O56  1  0.40026142  0.75000000  0.74562012  1
  O  O57  1  0.46237241  0.25000000  0.40239520  1
  O  O58  1  0.46058369  0.25000000  0.06926182  1
  O  O59  1  0.45986534  0.25000000  0.73335464  1
  O  O60  1  0.54500350  0.75000000  0.26608839  1
  O  O61  1  0.54500098  0.75000000  0.93184493  1
  O  O62  1  0.54404366  0.75000000  0.59817310  1
  O  O63  1  0.60380182  0.25000000  0.25324991  1
  O  O64  1  0.60362296  0.25000000  0.92069494  1
  O  O65  1  0.60302540  0.25000000  0.58585734  1
  O  O66  1  0.66798738  0.04700052  0.07371824  1
  O  O67  1  0.66890707  0.04652919  0.40592072  1
  O  O68  1  0.66798466  0.04614697  0.73849498  1
  O  O69  1  0.66798466  0.45385303  0.73849498  1
  O  O70  1  0.66798738  0.45299948  0.07371824  1
  O  O71  1  0.66890707  0.45347081  0.40592072  1
  O  O72  1  0.83201134  0.54666928  0.90559228  1
  O  O73  1  0.83201134  0.95333072  0.90559228  1
  O  O74  1  0.83364328  0.54548688  0.23922405  1
  O  O75  1  0.83213957  0.54692838  0.57237616  1
  O  O76  1  0.83364328  0.95451312  0.23922405  1
  O  O77  1  0.83213957  0.95307162  0.57237616  1
  O  O78  1  0.89925399  0.75000000  0.75270336  1
  O  O79  1  0.90030385  0.75000000  0.41961268  1
  O  O80  1  0.90079884  0.75000000  0.08693499  1
  O  O81  1  0.95462761  0.25000000  0.76598266  1
  O  O82  1  0.95178665  0.25000000  0.09897678  1
  O  O83  1  0.95518508  0.25000000  0.43409093  1
