# generated using pymatgen
data_SnP4O11
_symmetry_space_group_name_H-M   'P 1'
_cell_length_a   9.90325138
_cell_length_b   9.95871511
_cell_length_c   11.45079018
_cell_angle_alpha   68.80709321
_cell_angle_beta   109.64894274
_cell_angle_gamma   92.00815897
_symmetry_Int_Tables_number   1
_chemical_formula_structural   SnP4O11
_chemical_formula_sum   'Sn4 P16 O44'
_cell_volume   986.80389894
_cell_formula_units_Z   4
loop_
 _symmetry_equiv_pos_site_id
 _symmetry_equiv_pos_as_xyz
  1  'x, y, z'
loop_
 _atom_site_type_symbol
 _atom_site_label
 _atom_site_symmetry_multiplicity
 _atom_site_fract_x
 _atom_site_fract_y
 _atom_site_fract_z
 _atom_site_occupancy
  Sn  Sn0  1  0.24220633  0.77867177  0.97990027  1
  Sn  Sn1  1  0.72946483  0.73150206  0.50111957  1
  Sn  Sn2  1  0.27053517  0.26849794  0.49888043  1
  Sn  Sn3  1  0.75779367  0.22132823  0.02009973  1
  P  P4  1  0.07803494  0.57383613  0.77467833  1
  P  P5  1  0.23807311  0.90772735  0.43701380  1
  P  P6  1  0.08306555  0.24972799  0.92761981  1
  P  P7  1  0.59811018  0.77090218  0.90676355  1
  P  P8  1  0.25849732  0.58703432  0.60988534  1
  P  P9  1  0.38748316  0.92121643  0.23811482  1
  P  P10  1  0.07065053  0.12453884  0.71338949  1
  P  P11  1  0.56693941  0.57409827  0.74836049  1
  P  P12  1  0.43306059  0.42590173  0.25163951  1
  P  P13  1  0.92934947  0.87546116  0.28661051  1
  P  P14  1  0.61251684  0.07878357  0.76188518  1
  P  P15  1  0.74150268  0.41296568  0.39011466  1
  P  P16  1  0.40188982  0.22909782  0.09323645  1
  P  P17  1  0.91693445  0.75027201  0.07238019  1
  P  P18  1  0.76192689  0.09227265  0.56298620  1
  P  P19  1  0.92196506  0.42616387  0.22532167  1
  O  O20  1  0.97388449  0.81360389  0.96312448  1
  O  O21  1  0.18846632  0.00400100  0.78826802  1
  O  O22  1  0.07851486  0.94826048  0.33533892  1
  O  O23  1  0.20672724  0.60624147  0.87046533  1
  O  O24  1  0.03009987  0.41582774  0.84815553  1
  O  O25  1  0.47818688  0.77247052  0.95528980  1
  O  O26  1  0.23773266  0.76090268  0.55564287  1
  O  O27  1  0.59552136  0.90651873  0.77959049  1
  O  O28  1  0.13295360  0.53764880  0.66688286  1
  O  O29  1  0.33002061  0.86669208  0.36474738  1
  O  O30  1  0.03347647  0.18046620  0.81871028  1
  O  O31  1  0.25515147  0.24063693  0.97276548  1
  O  O32  1  0.26878777  0.92357608  0.11488362  1
  O  O33  1  0.39922414  0.54338564  0.74022531  1
  O  O34  1  0.61674230  0.63745166  0.86988020  1
  O  O35  1  0.71006914  0.97824717  0.50989831  1
  O  O36  1  0.25945034  0.52851556  0.50905011  1
  O  O37  1  0.07864769  0.25208502  0.59783866  1
  O  O38  1  0.55964664  0.69308735  0.62048283  1
  O  O39  1  0.53021826  0.83987686  0.28495863  1
  O  O40  1  0.05724281  0.32661223  0.29683102  1
  O  O41  1  0.34419414  0.56573733  0.19883395  1
  O  O42  1  0.65580586  0.43426267  0.80116605  1
  O  O43  1  0.94275719  0.67338777  0.70316898  1
  O  O44  1  0.46978174  0.16012314  0.71504137  1
  O  O45  1  0.44035336  0.30691265  0.37951717  1
  O  O46  1  0.92135231  0.74791498  0.40216134  1
  O  O47  1  0.74054966  0.47148444  0.49094989  1
  O  O48  1  0.28993086  0.02175283  0.49010169  1
  O  O49  1  0.38325770  0.36254834  0.13011980  1
  O  O50  1  0.60077586  0.45661436  0.25977469  1
  O  O51  1  0.73121223  0.07642392  0.88511638  1
  O  O52  1  0.74484853  0.75936307  0.02723452  1
  O  O53  1  0.96652353  0.81953380  0.18128972  1
  O  O54  1  0.66997939  0.13330792  0.63525262  1
  O  O55  1  0.86704640  0.46235120  0.33311714  1
  O  O56  1  0.40447864  0.09348127  0.22040951  1
  O  O57  1  0.76226734  0.23909732  0.44435713  1
  O  O58  1  0.52181312  0.22752948  0.04471020  1
  O  O59  1  0.96990013  0.58417226  0.15184447  1
  O  O60  1  0.79327276  0.39375853  0.12953467  1
  O  O61  1  0.92148514  0.05173952  0.66466108  1
  O  O62  1  0.81153368  0.99599900  0.21173198  1
  O  O63  1  0.02611551  0.18639611  0.03687552  1
