# generated using pymatgen
data_Ti16CuS32
_symmetry_space_group_name_H-M   'P 1'
_cell_length_a   6.98630916
_cell_length_b   6.98630916
_cell_length_c   23.15748820
_cell_angle_alpha   98.67580677
_cell_angle_beta   90.00000000
_cell_angle_gamma   120.00000000
_symmetry_Int_Tables_number   1
_chemical_formula_structural   Ti16CuS32
_chemical_formula_sum   'Ti16 Cu1 S32'
_cell_volume   963.89072433
_cell_formula_units_Z   1
loop_
 _symmetry_equiv_pos_site_id
 _symmetry_equiv_pos_as_xyz
  1  'x, y, z'
loop_
 _atom_site_type_symbol
 _atom_site_label
 _atom_site_symmetry_multiplicity
 _atom_site_fract_x
 _atom_site_fract_y
 _atom_site_fract_z
 _atom_site_occupancy
  Ti  Ti0  1  0.37247297  0.74494493  0.12740406  1
  Ti  Ti1  1  0.12446568  0.75091726  0.37538394  1
  Ti  Ti2  1  0.37247297  0.25493109  0.12740406  1
  Ti  Ti3  1  0.49844570  0.99689141  0.99533611  1
  Ti  Ti4  1  0.25096543  0.50193187  0.25289730  1
  Ti  Ti5  1  0.88245813  0.25493109  0.12740406  1
  Ti  Ti6  1  0.12446568  0.24893236  0.37538394  1
  Ti  Ti7  1  0.62645158  0.75091726  0.37538394  1
  Ti  Ti8  1  0.00009804  0.00019708  0.50029512  1
  Ti  Ti9  1  0.37425427  0.24954049  0.62482571  1
  Ti  Ti10  1  0.87528522  0.75057044  0.62482571  1
  Ti  Ti11  1  0.12689274  0.75013254  0.87337335  1
  Ti  Ti12  1  0.87528522  0.24954049  0.62482571  1
  Ti  Ti13  1  0.62323981  0.75013254  0.87337335  1
  Ti  Ti14  1  0.74946643  0.49893385  0.74840028  1
  Ti  Ti15  1  0.62323981  0.24647961  0.87337335  1
  Cu  Cu16  1  0.84380541  0.68761082  0.03141523  1
  S  S17  1  0.20199187  0.88280000  0.06360813  1
  S  S18  1  0.68080813  0.88280000  0.06360813  1
  S  S19  1  0.18835739  0.37671477  0.06507216  1
  S  S20  1  0.06569294  0.62087083  0.18656376  1
  S  S21  1  0.06569294  0.13138587  0.18656376  1
  S  S22  1  0.55517789  0.62087083  0.18656376  1
  S  S23  1  0.68080813  0.36161626  0.06360813  1
  S  S24  1  0.43321256  0.86642613  0.31276496  1
  S  S25  1  0.43321256  0.37955139  0.31276496  1
  S  S26  1  0.18358985  0.87972478  0.56331463  1
  S  S27  1  0.31163047  0.62325995  0.43489042  1
  S  S28  1  0.56150858  0.12301616  0.18452474  1
  S  S29  1  0.93830844  0.87661687  0.31492531  1
  S  S30  1  0.81621577  0.63243153  0.43648803  1
  S  S31  1  0.30405649  0.12027226  0.43648803  1
  S  S32  1  0.05369374  0.62038215  0.68707055  1
  S  S33  1  0.94633883  0.37955139  0.31276496  1
  S  S34  1  0.69613593  0.87972478  0.56331463  1
  S  S35  1  0.18358985  0.36717970  0.56331463  1
  S  S36  1  0.06169016  0.12338032  0.68507048  1
  S  S37  1  0.68836515  0.37672931  0.56509446  1
  S  S38  1  0.81621577  0.12027226  0.43648803  1
  S  S39  1  0.56668840  0.62038215  0.68707055  1
  S  S40  1  0.43807184  0.87614267  0.81421451  1
  S  S41  1  0.31656732  0.63313565  0.93692316  1
  S  S42  1  0.56668840  0.13337781  0.68707055  1
  S  S43  1  0.44617127  0.38009250  0.81401373  1
  S  S44  1  0.93392123  0.86784346  0.81401373  1
  S  S45  1  0.93392123  0.38009250  0.81401373  1
  S  S46  1  0.81130294  0.62260689  0.93390983  1
  S  S47  1  0.31656732  0.12035583  0.93692316  1
  S  S48  1  0.80378751  0.12035583  0.93692316  1
