# generated using pymatgen
data_LiV3Fe2CuO12
_symmetry_space_group_name_H-M   'P 1'
_cell_length_a   8.23908645
_cell_length_b   9.96514469
_cell_length_c   6.71519904
_cell_angle_alpha   103.49641166
_cell_angle_beta   102.46599622
_cell_angle_gamma   107.05740490
_symmetry_Int_Tables_number   1
_chemical_formula_structural   LiV3Fe2CuO12
_chemical_formula_sum   'Li2 V6 Fe4 Cu2 O24'
_cell_volume   487.97366110
_cell_formula_units_Z   2
loop_
 _symmetry_equiv_pos_site_id
 _symmetry_equiv_pos_as_xyz
  1  'x, y, z'
loop_
 _atom_site_type_symbol
 _atom_site_label
 _atom_site_symmetry_multiplicity
 _atom_site_fract_x
 _atom_site_fract_y
 _atom_site_fract_z
 _atom_site_occupancy
  Li  Li0  1  0.01138533  0.02016756  0.05698914  1
  Li  Li1  1  0.95717305  0.92284086  0.60088993  1
  V  V2  1  0.16326287  0.76406919  0.22124481  1
  V  V3  1  0.22843028  0.37528983  0.40944045  1
  V  V4  1  0.39230229  0.16061674  0.88204533  1
  V  V5  1  0.60306661  0.83548237  0.11707737  1
  V  V6  1  0.77065360  0.62318747  0.58668575  1
  V  V7  1  0.83753906  0.23370232  0.77472238  1
  Fe  Fe8  1  0.29602666  0.48596753  0.95603210  1
  Fe  Fe9  1  0.55277555  0.89356400  0.62119110  1
  Fe  Fe10  1  0.44487730  0.10640225  0.37794007  1
  Fe  Fe11  1  0.70417421  0.51245649  0.04458006  1
  Cu  Cu12  1  0.21489738  0.70522065  0.72083932  1
  Cu  Cu13  1  0.78008525  0.28459085  0.26798020  1
  O  O14  1  0.05628640  0.32184318  0.81704279  1
  O  O15  1  0.19889893  0.94684575  0.22308056  1
  O  O16  1  0.21605935  0.66430769  0.99840244  1
  O  O17  1  0.00609674  0.26112949  0.30310643  1
  O  O18  1  0.27830382  0.76346683  0.47933133  1
  O  O19  1  0.27114384  0.50914095  0.66071804  1
  O  O20  1  0.17422528  0.06870450  0.83448524  1
  O  O21  1  0.49272530  0.85220514  0.87430241  1
  O  O22  1  0.28581061  0.46865647  0.23395198  1
  O  O23  1  0.43788791  0.35198731  0.91781921  1
  O  O24  1  0.52976740  0.92193776  0.33095897  1
  O  O25  1  0.34822736  0.25871909  0.43247818  1
  O  O26  1  0.66263024  0.74761295  0.55879000  1
  O  O27  1  0.46705975  0.07674213  0.66878667  1
  O  O28  1  0.55820152  0.64308063  0.07901580  1
  O  O29  1  0.71849615  0.53586491  0.76923028  1
  O  O30  1  0.51012511  0.14771775  0.12393113  1
  O  O31  1  0.82143480  0.92299226  0.17628461  1
  O  O32  1  0.72589198  0.48901162  0.33800416  1
  O  O33  1  0.72288591  0.23499857  0.51865867  1
  O  O34  1  0.99393211  0.74199865  0.67660589  1
  O  O35  1  0.77912989  0.33189203  0.99446375  1
  O  O36  1  0.80636082  0.04848968  0.76595054  1
  O  O37  1  0.94386733  0.67919656  0.18594292  1
