# generated using pymatgen
data_NiAgTe2
_symmetry_space_group_name_H-M   'P 1'
_cell_length_a   7.40957348
_cell_length_b   7.40957348
_cell_length_c   7.40957335
_cell_angle_alpha   31.35860708
_cell_angle_beta   31.35860708
_cell_angle_gamma   31.35861246
_symmetry_Int_Tables_number   1
_chemical_formula_structural   NiAgTe2
_chemical_formula_sum   'Ni1 Ag1 Te2'
_cell_volume   97.78276396
_cell_formula_units_Z   1
loop_
 _symmetry_equiv_pos_site_id
 _symmetry_equiv_pos_as_xyz
  1  'x, y, z'
loop_
 _atom_site_type_symbol
 _atom_site_label
 _atom_site_symmetry_multiplicity
 _atom_site_fract_x
 _atom_site_fract_y
 _atom_site_fract_z
 _atom_site_occupancy
  Ni  Ni0  1  0.99858559  0.99858559  0.99858559  1
  Ag  Ag1  1  0.14434359  0.14434359  0.14434359  1
  Te  Te2  1  0.27242646  0.27242646  0.27242646  1
  Te  Te3  1  0.72864336  0.72864336  0.72864336  1
