# generated using pymatgen
data_LiMn3(OF3)2
_symmetry_space_group_name_H-M   'P 1'
_cell_length_a   10.31321821
_cell_length_b   4.76770088
_cell_length_c   5.61662408
_cell_angle_alpha   90.00000000
_cell_angle_beta   95.24061077
_cell_angle_gamma   90.00000000
_symmetry_Int_Tables_number   1
_chemical_formula_structural   LiMn3(OF3)2
_chemical_formula_sum   'Li2 Mn6 O4 F12'
_cell_volume   275.01689184
_cell_formula_units_Z   2
loop_
 _symmetry_equiv_pos_site_id
 _symmetry_equiv_pos_as_xyz
  1  'x, y, z'
loop_
 _atom_site_type_symbol
 _atom_site_label
 _atom_site_symmetry_multiplicity
 _atom_site_fract_x
 _atom_site_fract_y
 _atom_site_fract_z
 _atom_site_occupancy
  Li  Li0  1  0.00000000  0.00000000  0.00000000  1
  Li  Li1  1  0.50000000  0.50000000  0.00000000  1
  Mn  Mn2  1  0.00000000  0.50000000  0.50000000  1
  Mn  Mn3  1  0.24895881  0.98161526  0.73453324  1
  Mn  Mn4  1  0.25104119  0.48161526  0.26546676  1
  Mn  Mn5  1  0.50000000  0.00000000  0.50000000  1
  Mn  Mn6  1  0.74895881  0.51838474  0.73453324  1
  Mn  Mn7  1  0.75104119  0.01838474  0.26546676  1
  O  O8  1  0.17093912  0.67432469  0.50568927  1
  O  O9  1  0.32906088  0.17432469  0.49431073  1
  O  O10  1  0.67093912  0.82567531  0.50568927  1
  O  O11  1  0.82906088  0.32567531  0.49431073  1
  F  F12  1  0.07953044  0.19101912  0.71532399  1
  F  F13  1  0.07606497  0.29677624  0.21684522  1
  F  F14  1  0.18060987  0.79367426  0.00390464  1
  F  F15  1  0.31939013  0.29367426  0.99609536  1
  F  F16  1  0.42393503  0.79677624  0.78315478  1
  F  F17  1  0.42046956  0.69101912  0.28467601  1
  F  F18  1  0.57953044  0.30898088  0.71532399  1
  F  F19  1  0.57606497  0.20322376  0.21684522  1
  F  F20  1  0.68060987  0.70632574  0.00390464  1
  F  F21  1  0.81939013  0.20632574  0.99609536  1
  F  F22  1  0.92393503  0.70322376  0.78315478  1
  F  F23  1  0.92046956  0.80898088  0.28467601  1
