# generated using pymatgen
data_Na2LuPCO7
_symmetry_space_group_name_H-M   'P 1'
_cell_length_a   9.14869919
_cell_length_b   6.90230459
_cell_length_c   5.27465105
_cell_angle_alpha   90.00000000
_cell_angle_beta   90.62490900
_cell_angle_gamma   90.00000000
_symmetry_Int_Tables_number   1
_chemical_formula_structural   Na2LuPCO7
_chemical_formula_sum   'Na4 Lu2 P2 C2 O14'
_cell_volume   333.05915103
_cell_formula_units_Z   2
loop_
 _symmetry_equiv_pos_site_id
 _symmetry_equiv_pos_as_xyz
  1  'x, y, z'
loop_
 _atom_site_type_symbol
 _atom_site_label
 _atom_site_symmetry_multiplicity
 _atom_site_fract_x
 _atom_site_fract_y
 _atom_site_fract_z
 _atom_site_occupancy
  Na  Na0  1  0.21688397  0.00144625  0.23405833  1
  Na  Na1  1  0.21688397  0.49855375  0.23405833  1
  Na  Na2  1  0.78311603  0.50144625  0.76594167  1
  Na  Na3  1  0.78311603  0.99855375  0.76594167  1
  Lu  Lu4  1  0.36098701  0.75000000  0.77870499  1
  Lu  Lu5  1  0.63901299  0.25000000  0.22129501  1
  P  P6  1  0.41993914  0.25000000  0.70828298  1
  P  P7  1  0.58006086  0.75000000  0.29171702  1
  C  C8  1  0.06967031  0.75000000  0.73200783  1
  C  C9  1  0.93032969  0.25000000  0.26799217  1
  O  O10  1  0.06762014  0.25000000  0.29622269  1
  O  O11  1  0.13515466  0.75000000  0.95509113  1
  O  O12  1  0.16028299  0.75000000  0.53675319  1
  O  O13  1  0.34145622  0.06584521  0.80213661  1
  O  O14  1  0.34145622  0.43415479  0.80213661  1
  O  O15  1  0.41752128  0.75000000  0.19000741  1
  O  O16  1  0.42653378  0.25000000  0.41211030  1
  O  O17  1  0.57346622  0.75000000  0.58788970  1
  O  O18  1  0.58247872  0.25000000  0.80999259  1
  O  O19  1  0.65854378  0.56584521  0.19786339  1
  O  O20  1  0.65854378  0.93415479  0.19786339  1
  O  O21  1  0.83971701  0.25000000  0.46324681  1
  O  O22  1  0.86484534  0.25000000  0.04490887  1
  O  O23  1  0.93237986  0.75000000  0.70377731  1
