# generated using pymatgen
data_Hf3Sc4O12
_symmetry_space_group_name_H-M   'P 1'
_cell_length_a   6.17800347
_cell_length_b   6.18630312
_cell_length_c   12.31602392
_cell_angle_alpha   99.32635108
_cell_angle_beta   99.30290427
_cell_angle_gamma   99.51399605
_symmetry_Int_Tables_number   1
_chemical_formula_structural   Hf3Sc4O12
_chemical_formula_sum   'Hf6 Sc8 O24'
_cell_volume   449.42574040
_cell_formula_units_Z   2
loop_
 _symmetry_equiv_pos_site_id
 _symmetry_equiv_pos_as_xyz
  1  'x, y, z'
loop_
 _atom_site_type_symbol
 _atom_site_label
 _atom_site_symmetry_multiplicity
 _atom_site_fract_x
 _atom_site_fract_y
 _atom_site_fract_z
 _atom_site_occupancy
  Hf  Hf0  1  0.14142587  0.61242319  0.65659194  1
  Hf  Hf1  1  0.68350646  0.85782257  0.19387856  1
  Hf  Hf2  1  0.99521251  0.99757327  0.50076475  1
  Hf  Hf3  1  0.00478749  0.00242673  0.99923525  1
  Hf  Hf4  1  0.31649354  0.14217743  0.30612144  1
  Hf  Hf5  1  0.85857413  0.38757681  0.84340806  1
  Sc  Sc6  1  0.13707880  0.60519793  0.15609128  1
  Sc  Sc7  1  0.39058311  0.68707949  0.93029790  1
  Sc  Sc8  1  0.39270000  0.68168567  0.43107362  1
  Sc  Sc9  1  0.68008642  0.85960560  0.69446449  1
  Sc  Sc10  1  0.31991358  0.14039440  0.80553551  1
  Sc  Sc11  1  0.60941689  0.31292051  0.56970210  1
  Sc  Sc12  1  0.60730000  0.31831433  0.06892638  1
  Sc  Sc13  1  0.86292120  0.39480207  0.34390872  1
  O  O14  1  0.09268445  0.93915577  0.66045464  1
  O  O15  1  0.09054534  0.94533975  0.16206803  1
  O  O16  1  0.05202345  0.67924530  0.95097534  1
  O  O17  1  0.05987410  0.67657906  0.46013600  1
  O  O18  1  0.41527655  0.81740500  0.78723111  1
  O  O19  1  0.42700568  0.82501749  0.28960001  1
  O  O20  1  0.17927054  0.41735106  0.28700162  1
  O  O21  1  0.17462336  0.41928562  0.78586966  1
  O  O22  1  0.67657003  0.90802143  0.52755924  1
  O  O23  1  0.68261537  0.90813333  0.03191497  1
  O  O24  1  0.41995528  0.57354060  0.59021420  1
  O  O25  1  0.42354509  0.58478485  0.09149486  1
  O  O26  1  0.58004472  0.42645940  0.90978580  1
  O  O27  1  0.57645491  0.41521515  0.40850514  1
  O  O28  1  0.32342997  0.09197857  0.97244076  1
  O  O29  1  0.31738463  0.09186667  0.46808503  1
  O  O30  1  0.82537664  0.58071438  0.71413034  1
  O  O31  1  0.82072946  0.58264894  0.21299838  1
  O  O32  1  0.57299432  0.17498251  0.21039999  1
  O  O33  1  0.58472345  0.18259500  0.71276889  1
  O  O34  1  0.94797655  0.32075470  0.54902466  1
  O  O35  1  0.94012590  0.32342094  0.03986400  1
  O  O36  1  0.90731555  0.06084423  0.83954536  1
  O  O37  1  0.90945466  0.05466025  0.33793097  1
