# generated using pymatgen
data_MnFe3(PO4)4
_symmetry_space_group_name_H-M   'P 1'
_cell_length_a   4.89737466
_cell_length_b   9.91878553
_cell_length_c   11.93836404
_cell_angle_alpha   90.00000000
_cell_angle_beta   90.00000000
_cell_angle_gamma   90.00000000
_symmetry_Int_Tables_number   1
_chemical_formula_structural   MnFe3(PO4)4
_chemical_formula_sum   'Mn2 Fe6 P8 O32'
_cell_volume   579.91807801
_cell_formula_units_Z   2
loop_
 _symmetry_equiv_pos_site_id
 _symmetry_equiv_pos_as_xyz
  1  'x, y, z'
loop_
 _atom_site_type_symbol
 _atom_site_label
 _atom_site_symmetry_multiplicity
 _atom_site_fract_x
 _atom_site_fract_y
 _atom_site_fract_z
 _atom_site_occupancy
  Mn  Mn0  1  0.06270624  0.71773365  0.87500000  1
  Mn  Mn1  1  0.43729376  0.21773365  0.37500000  1
  Fe  Fe2  1  0.03083358  0.72717426  0.37500000  1
  Fe  Fe3  1  0.46916642  0.22717426  0.87500000  1
  Fe  Fe4  1  0.53458724  0.77459238  0.62613547  1
  Fe  Fe5  1  0.53458724  0.77459238  0.12386453  1
  Fe  Fe6  1  0.96541276  0.27459238  0.12613547  1
  Fe  Fe7  1  0.96541276  0.27459238  0.62386453  1
  P  P8  1  0.08304924  0.59712839  0.62331475  1
  P  P9  1  0.08304924  0.59712839  0.12668525  1
  P  P10  1  0.41695076  0.09712839  0.62668525  1
  P  P11  1  0.41695076  0.09712839  0.12331475  1
  P  P12  1  0.58126712  0.89939590  0.87500000  1
  P  P13  1  0.57991178  0.90429421  0.37500000  1
  P  P14  1  0.91873288  0.39939590  0.37500000  1
  P  P15  1  0.92008822  0.40429421  0.87500000  1
  O  O16  1  0.15327910  0.44685610  0.62557744  1
  O  O17  1  0.15327910  0.44685610  0.12442256  1
  O  O18  1  0.22915895  0.67234884  0.02657394  1
  O  O19  1  0.22816378  0.67194936  0.22655001  1
  O  O20  1  0.22816378  0.67194936  0.52344999  1
  O  O21  1  0.22915895  0.67234884  0.72342606  1
  O  O22  1  0.23254054  0.37983564  0.37500000  1
  O  O23  1  0.22911535  0.38309166  0.87500000  1
  O  O24  1  0.27088465  0.88309166  0.37500000  1
  O  O25  1  0.26745946  0.87983564  0.87500000  1
  O  O26  1  0.27183622  0.17194936  0.02344999  1
  O  O27  1  0.27084105  0.17234884  0.22342606  1
  O  O28  1  0.27183622  0.17194936  0.72655001  1
  O  O29  1  0.27084105  0.17234884  0.52657394  1
  O  O30  1  0.34672090  0.94685610  0.12557744  1
  O  O31  1  0.34672090  0.94685610  0.62442256  1
  O  O32  1  0.64833633  0.05596142  0.37500000  1
  O  O33  1  0.64021229  0.05128493  0.87500000  1
  O  O34  1  0.72589317  0.83096188  0.47539100  1
  O  O35  1  0.71899134  0.82754447  0.77305343  1
  O  O36  1  0.72589317  0.83096188  0.27460900  1
  O  O37  1  0.71899134  0.82754447  0.97694657  1
  O  O38  1  0.72537919  0.11923325  0.62641328  1
  O  O39  1  0.72537919  0.11923325  0.12358672  1
  O  O40  1  0.77462081  0.61923325  0.12641328  1
  O  O41  1  0.77462081  0.61923325  0.62358672  1
  O  O42  1  0.78100866  0.32754447  0.47694657  1
  O  O43  1  0.77410683  0.33096188  0.77460900  1
  O  O44  1  0.77410683  0.33096188  0.97539100  1
  O  O45  1  0.78100866  0.32754447  0.27305343  1
  O  O46  1  0.85978771  0.55128493  0.37500000  1
  O  O47  1  0.85166367  0.55596142  0.87500000  1
