# generated using pymatgen
data_Li6V2OF11
_symmetry_space_group_name_H-M   'P 1'
_cell_length_a   5.12322242
_cell_length_b   5.50395417
_cell_length_c   9.06299600
_cell_angle_alpha   85.41501984
_cell_angle_beta   72.82212767
_cell_angle_gamma   117.42453799
_symmetry_Int_Tables_number   1
_chemical_formula_structural   Li6V2OF11
_chemical_formula_sum   'Li6 V2 O1 F11'
_cell_volume   209.57384469
_cell_formula_units_Z   1
loop_
 _symmetry_equiv_pos_site_id
 _symmetry_equiv_pos_as_xyz
  1  'x, y, z'
loop_
 _atom_site_type_symbol
 _atom_site_label
 _atom_site_symmetry_multiplicity
 _atom_site_fract_x
 _atom_site_fract_y
 _atom_site_fract_z
 _atom_site_occupancy
  Li  Li0  1  0.14364244  0.34445868  0.05678651  1
  Li  Li1  1  0.36130076  0.40708023  0.69252951  1
  Li  Li2  1  0.64561318  0.60768696  0.33319058  1
  Li  Li3  1  0.82514385  0.61427055  0.93165979  1
  Li  Li4  1  0.87931706  0.14983931  0.41294196  1
  Li  Li5  1  0.64087419  0.13475383  0.81470047  1
  V  V6  1  0.17636248  0.89652626  0.56477533  1
  V  V7  1  0.34211279  0.85799226  0.16932405  1
  O  O8  1  0.39027548  0.87547985  0.38459533  1
  F  F9  1  0.07015548  0.55284210  0.70704386  1
  F  F10  1  0.06792502  0.02413583  0.21960734  1
  F  F11  1  0.56069510  0.64153984  0.13496186  1
  F  F12  1  0.24901146  0.27179761  0.47326188  1
  F  F13  1  0.25455983  0.78035674  0.97189826  1
  F  F14  1  0.77072466  0.72772265  0.53319484  1
  F  F15  1  0.73472999  0.20327856  0.03596790  1
  F  F16  1  0.45384394  0.37457128  0.87482746  1
  F  F17  1  0.55232232  0.11081692  0.61577657  1
  F  F18  1  0.95278680  0.48107267  0.27465171  1
  F  F19  1  0.95849815  0.97145689  0.76252478  1
