# generated using pymatgen
data_Li7V5O12
_symmetry_space_group_name_H-M   'P 1'
_cell_length_a   5.08884231
_cell_length_b   5.16459385
_cell_length_c   19.50175067
_cell_angle_alpha   92.00008866
_cell_angle_beta   86.05030252
_cell_angle_gamma   119.46632201
_symmetry_Int_Tables_number   1
_chemical_formula_structural   Li7V5O12
_chemical_formula_sum   'Li14 V10 O24'
_cell_volume   445.18124264
_cell_formula_units_Z   2
loop_
 _symmetry_equiv_pos_site_id
 _symmetry_equiv_pos_as_xyz
  1  'x, y, z'
loop_
 _atom_site_type_symbol
 _atom_site_label
 _atom_site_symmetry_multiplicity
 _atom_site_fract_x
 _atom_site_fract_y
 _atom_site_fract_z
 _atom_site_occupancy
  Li  Li0  1  0.89873859  0.82546831  0.24823481  1
  Li  Li1  1  0.40193170  0.82586282  0.74870514  1
  Li  Li2  1  0.65607310  0.81769357  0.00195386  1
  Li  Li3  1  0.74455298  0.48477550  0.74881199  1
  Li  Li4  1  0.61850159  0.49544233  0.12498648  1
  Li  Li5  1  0.83761101  0.16537396  0.50170228  1
  Li  Li6  1  0.49392838  0.49858630  0.50133153  1
  Li  Li7  1  0.15280739  0.81182834  0.50225924  1
  Li  Li8  1  0.99658429  0.50631366  0.00093025  1
  Li  Li9  1  0.57945182  0.17435215  0.24781933  1
  Li  Li10  1  0.12071673  0.49224759  0.62522258  1
  Li  Li11  1  0.24416573  0.48871816  0.24858097  1
  Li  Li12  1  0.33848533  0.17257153  0.00181982  1
  Li  Li13  1  0.08241314  0.17499461  0.74802936  1
  V  V14  1  0.87262119  0.49971663  0.37479029  1
  V  V15  1  0.03963934  0.83367840  0.87484556  1
  V  V16  1  0.53922785  0.83341719  0.37497359  1
  V  V17  1  0.70607136  0.16609335  0.87535007  1
  V  V18  1  0.37286375  0.49981920  0.87484753  1
  V  V19  1  0.20573387  0.16577808  0.37512690  1
  V  V20  1  0.78326171  0.81804918  0.62598123  1
  V  V21  1  0.28091430  0.82064704  0.12542428  1
  V  V22  1  0.95522566  0.16955399  0.12419107  1
  V  V23  1  0.45756048  0.16685377  0.62452294  1
  O  O24  1  0.72053827  0.83241495  0.81757933  1
  O  O25  1  0.85553890  0.83265084  0.43309773  1
  O  O26  1  0.50739014  0.84668501  0.56929860  1
  O  O27  1  0.58665780  0.84907636  0.18077048  1
  O  O28  1  0.95480260  0.49460810  0.18114378  1
  O  O29  1  0.35595058  0.83295205  0.93311372  1
  O  O30  1  0.69028740  0.49971449  0.93425136  1
  O  O31  1  0.78462233  0.49305721  0.56886243  1
  O  O32  1  0.22057584  0.83237181  0.31737232  1
  O  O33  1  0.08906575  0.84742946  0.68108001  1
  O  O34  1  0.88942648  0.16605981  0.31681051  1
  O  O35  1  0.45672776  0.49208178  0.68135897  1
  O  O36  1  0.55508853  0.50026949  0.31566533  1
  O  O37  1  0.73403797  0.13897640  0.68113636  1
  O  O38  1  0.00528756  0.84924007  0.06891596  1
  O  O39  1  0.18956349  0.49868331  0.43414910  1
  O  O40  1  0.38953057  0.16601181  0.81688217  1
  O  O41  1  0.52556004  0.16813159  0.43246868  1
  O  O42  1  0.05496624  0.49971288  0.81576333  1
  O  O43  1  0.65006904  0.14100434  0.06911864  1
  O  O44  1  0.28234834  0.49554612  0.06857021  1
  O  O45  1  0.02579736  0.16833928  0.93262316  1
  O  O46  1  0.15227693  0.13836979  0.56923158  1
  O  O47  1  0.23182580  0.14094835  0.18076613  1
