# generated using pymatgen
data_Sr5Ta4O15
_symmetry_space_group_name_H-M   'P 1'
_cell_length_a   5.71537446
_cell_length_b   5.71537583
_cell_length_c   11.71317517
_cell_angle_alpha   89.99922349
_cell_angle_beta   90.00000000
_cell_angle_gamma   119.99998626
_symmetry_Int_Tables_number   1
_chemical_formula_structural   Sr5Ta4O15
_chemical_formula_sum   'Sr5 Ta4 O15'
_cell_volume   331.35598094
_cell_formula_units_Z   1
loop_
 _symmetry_equiv_pos_site_id
 _symmetry_equiv_pos_as_xyz
  1  'x, y, z'
loop_
 _atom_site_type_symbol
 _atom_site_label
 _atom_site_symmetry_multiplicity
 _atom_site_fract_x
 _atom_site_fract_y
 _atom_site_fract_z
 _atom_site_occupancy
  Sr  Sr0  1  0.33326425  0.66665208  0.44387352  1
  Sr  Sr1  1  0.33330649  0.66665200  0.77825324  1
  Sr  Sr2  1  0.00001270  0.00000000  0.00000000  1
  Sr  Sr3  1  0.66665449  0.33334800  0.22174676  1
  Sr  Sr4  1  0.66661217  0.33334792  0.55612648  1
  Ta  Ta5  1  0.33333740  0.66666962  0.10394246  1
  Ta  Ta6  1  0.99998866  -0.00000341  0.31487426  1
  Ta  Ta7  1  0.99999208  0.00000341  0.68512574  1
  Ta  Ta8  1  0.66666877  0.33333038  0.89605754  1
  O  O9  1  0.16838559  0.83161242  0.61051182  1
  O  O10  1  0.00004159  0.50000362  0.99997011  1
  O  O11  1  0.16476550  0.83521236  0.19134901  1
  O  O12  1  0.16475528  0.32956060  0.19135507  1
  O  O13  1  0.16838860  0.33679404  0.61049787  1
  O  O14  1  0.33677417  0.16838758  0.38948818  1
  O  O15  1  0.67042975  0.83522500  0.19136498  1
  O  O16  1  0.50003797  0.49999638  0.00002989  1
  O  O17  1  0.32955314  0.16478764  0.80865099  1
  O  O18  1  0.66316927  0.83160475  0.61049373  1
  O  O19  1  0.50000661  0.00000000  0.00000000  1
  O  O20  1  0.83519468  0.67043940  0.80864493  1
  O  O21  1  0.83159356  0.66320596  0.38950213  1
  O  O22  1  0.83520376  0.16477500  0.80863502  1
  O  O23  1  0.83156452  0.16839525  0.38950627  1
