# generated using pymatgen
data_Li2Mn3Si3O10
_symmetry_space_group_name_H-M   'P 1'
_cell_length_a   4.92765893
_cell_length_b   8.45380612
_cell_length_c   10.59031803
_cell_angle_alpha   93.21881256
_cell_angle_beta   90.00000000
_cell_angle_gamma   73.05544373
_symmetry_Int_Tables_number   1
_chemical_formula_structural   Li2Mn3Si3O10
_chemical_formula_sum   'Li4 Mn6 Si6 O20'
_cell_volume   421.28602545
_cell_formula_units_Z   2
loop_
 _symmetry_equiv_pos_site_id
 _symmetry_equiv_pos_as_xyz
  1  'x, y, z'
loop_
 _atom_site_type_symbol
 _atom_site_label
 _atom_site_symmetry_multiplicity
 _atom_site_fract_x
 _atom_site_fract_y
 _atom_site_fract_z
 _atom_site_occupancy
  Li  Li0  1  0.25200412  0.88716740  0.02555022  1
  Li  Li1  1  0.86082948  0.88716740  0.52555022  1
  Li  Li2  1  0.13917052  0.11283260  0.47444978  1
  Li  Li3  1  0.74799588  0.11283260  0.97444978  1
  Mn  Mn4  1  0.37491029  0.69227219  0.29165272  1
  Mn  Mn5  1  0.93281752  0.69227219  0.79165272  1
  Mn  Mn6  1  0.50000000  0.50000000  0.00000000  1
  Mn  Mn7  1  0.00000000  0.50000000  0.50000000  1
  Mn  Mn8  1  0.06718248  0.30772781  0.20834728  1
  Mn  Mn9  1  0.62508971  0.30772781  0.70834728  1
  Si  Si10  1  0.83748343  0.69451388  0.09743768  1
  Si  Si11  1  0.46800169  0.69451388  0.59743768  1
  Si  Si12  1  0.53199831  0.30548612  0.40256232  1
  Si  Si13  1  0.16251657  0.30548612  0.90256232  1
  Si  Si14  1  0.80426376  0.00000000  0.25000000  1
  Si  Si15  1  0.19573624  0.00000000  0.75000000  1
  O  O16  1  0.02739522  0.91361546  0.35782340  1
  O  O17  1  0.64756356  0.86752495  0.17853082  1
  O  O18  1  0.05898932  0.91361546  0.85782340  1
  O  O19  1  0.48491049  0.86752495  0.67853082  1
  O  O20  1  0.16925205  0.69420374  0.10103434  1
  O  O21  1  0.60704077  0.70124597  0.45817693  1
  O  O22  1  0.13654421  0.69420374  0.60103434  1
  O  O23  1  0.69171326  0.70124597  0.95817693  1
  O  O24  1  0.76205628  0.54228568  0.16695088  1
  O  O25  1  0.69565804  0.54228568  0.66695088  1
  O  O26  1  0.30434196  0.45771432  0.33304912  1
  O  O27  1  0.23794372  0.45771432  0.83304912  1
  O  O28  1  0.30828674  0.29875403  0.04182307  1
  O  O29  1  0.86345579  0.30579626  0.39896566  1
  O  O30  1  0.39295923  0.29875403  0.54182307  1
  O  O31  1  0.83074795  0.30579626  0.89896566  1
  O  O32  1  0.51508951  0.13247505  0.32146918  1
  O  O33  1  0.94101068  0.08638454  0.14217660  1
  O  O34  1  0.35243644  0.13247505  0.82146918  1
  O  O35  1  0.97260478  0.08638454  0.64217660  1
