# generated using pymatgen
data_Li2V4Si4O13
_symmetry_space_group_name_H-M   'P 1'
_cell_length_a   10.28030363
_cell_length_b   8.00171962
_cell_length_c   6.96519865
_cell_angle_alpha   77.47557683
_cell_angle_beta   90.21237640
_cell_angle_gamma   111.12431933
_symmetry_Int_Tables_number   1
_chemical_formula_structural   Li2V4Si4O13
_chemical_formula_sum   'Li4 V8 Si8 O26'
_cell_volume   519.99094721
_cell_formula_units_Z   2
loop_
 _symmetry_equiv_pos_site_id
 _symmetry_equiv_pos_as_xyz
  1  'x, y, z'
loop_
 _atom_site_type_symbol
 _atom_site_label
 _atom_site_symmetry_multiplicity
 _atom_site_fract_x
 _atom_site_fract_y
 _atom_site_fract_z
 _atom_site_occupancy
  Li  Li0  1  0.11722620  0.60192114  0.22391176  1
  Li  Li1  1  0.42357790  0.43449226  0.74528141  1
  Li  Li2  1  0.57642210  0.56550774  0.25471859  1
  Li  Li3  1  0.88277380  0.39807886  0.77608824  1
  V  V4  1  0.00769866  0.81612754  0.91538544  1
  V  V5  1  0.01043276  0.81327634  0.42729597  1
  V  V6  1  0.38388644  0.81453410  0.42465355  1
  V  V7  1  0.38558764  0.81492595  0.91940094  1
  V  V8  1  0.61441236  0.18507405  0.08059906  1
  V  V9  1  0.61611356  0.18546590  0.57534645  1
  V  V10  1  0.98956724  0.18672366  0.57270403  1
  V  V11  1  0.99230134  0.18387246  0.08461456  1
  Si  Si12  1  0.17758270  0.58099318  0.73063375  1
  Si  Si13  1  0.28689856  0.40479663  0.27739341  1
  Si  Si14  1  0.28027324  0.10836148  0.62973401  1
  Si  Si15  1  0.28240513  0.10293746  0.07496573  1
  Si  Si16  1  0.71759487  0.89706254  0.92503427  1
  Si  Si17  1  0.71972676  0.89163852  0.37026599  1
  Si  Si18  1  0.71310144  0.59520337  0.72260659  1
  Si  Si19  1  0.82241730  0.41900682  0.26936625  1
  O  O20  1  0.11558871  0.99037459  0.13647857  1
  O  O21  1  0.07061992  0.36474032  0.78730674  1
  O  O22  1  0.15815856  0.67759442  0.50019679  1
  O  O23  1  0.15931457  0.68525666  0.90765654  1
  O  O24  1  0.11726786  0.34567223  0.28669005  1
  O  O25  1  0.11333437  0.00214076  0.61774157  1
  O  O26  1  0.38751810  0.99176472  0.13574342  1
  O  O27  1  0.38764447  0.00348887  0.61293704  1
  O  O28  1  0.34935008  0.62439953  0.72199949  1
  O  O29  1  0.37709778  0.62489984  0.21773297  1
  O  O30  1  0.30361443  0.17301296  0.83704562  1
  O  O31  1  0.33937229  0.32104498  0.48910693  1
  O  O32  1  0.34214398  0.30503994  0.12949510  1
  O  O33  1  0.65785602  0.69496006  0.87050490  1
  O  O34  1  0.66062771  0.67895502  0.51089307  1
  O  O35  1  0.69638557  0.82698704  0.16295438  1
  O  O36  1  0.62290222  0.37510016  0.78226703  1
  O  O37  1  0.65064992  0.37560047  0.27800051  1
  O  O38  1  0.61235553  0.99651113  0.38706296  1
  O  O39  1  0.61248190  0.00823528  0.86425658  1
  O  O40  1  0.88666563  0.99785924  0.38225843  1
  O  O41  1  0.88273214  0.65432777  0.71330995  1
  O  O42  1  0.84068543  0.31474334  0.09234346  1
  O  O43  1  0.84184144  0.32240558  0.49980321  1
  O  O44  1  0.92938008  0.63525968  0.21269326  1
  O  O45  1  0.88441129  0.00962541  0.86352143  1
