# generated using pymatgen
data_Na5Fe2P2(CO7)2
_symmetry_space_group_name_H-M   'P 1'
_cell_length_a   10.39082060
_cell_length_b   10.50574912
_cell_length_c   6.64418304
_cell_angle_alpha   90.00000000
_cell_angle_beta   90.00000000
_cell_angle_gamma   60.06978240
_symmetry_Int_Tables_number   1
_chemical_formula_structural   Na5Fe2P2(CO7)2
_chemical_formula_sum   'Na10 Fe4 P4 C4 O28'
_cell_volume   628.57057590
_cell_formula_units_Z   2
loop_
 _symmetry_equiv_pos_site_id
 _symmetry_equiv_pos_as_xyz
  1  'x, y, z'
loop_
 _atom_site_type_symbol
 _atom_site_label
 _atom_site_symmetry_multiplicity
 _atom_site_fract_x
 _atom_site_fract_y
 _atom_site_fract_z
 _atom_site_occupancy
  Na  Na0  1  0.91230823  0.43095252  0.75842374  1
  Na  Na1  1  0.92484593  0.91506500  0.74962739  1
  Na  Na2  1  0.73967371  0.26201788  0.50030405  1
  Na  Na3  1  0.73975446  0.26427527  0.99722707  1
  Na  Na4  1  0.73206054  0.75294217  0.51883664  1
  Na  Na5  1  0.26024554  0.23572473  0.49722707  1
  Na  Na6  1  0.26032629  0.23798212  0.00030405  1
  Na  Na7  1  0.26793946  0.74705783  0.01883664  1
  Na  Na8  1  0.08769177  0.06904748  0.25842374  1
  Na  Na9  1  0.07515407  0.58493500  0.24962739  1
  Fe  Fe10  1  0.64779690  0.06351321  0.24466636  1
  Fe  Fe11  1  0.64856288  0.57379370  0.24204293  1
  Fe  Fe12  1  0.35220310  0.43648679  0.74466636  1
  Fe  Fe13  1  0.35143712  0.92620630  0.74204293  1
  P  P14  1  0.58025345  0.06744088  0.74759073  1
  P  P15  1  0.58067062  0.56015275  0.75012338  1
  P  P16  1  0.41974655  0.43255912  0.24759073  1
  P  P17  1  0.41932938  0.93984725  0.25012338  1
  C  C18  1  0.94420600  0.38975980  0.25629046  1
  C  C19  1  0.92828483  0.90339657  0.24587845  1
  C  C20  1  0.05579400  0.11024020  0.75629046  1
  C  C21  1  0.07171517  0.59660343  0.74587845  1
  O  O22  1  0.91218260  0.18957806  0.74831792  1
  O  O23  1  0.93287742  0.67998048  0.72991389  1
  O  O24  1  0.86629220  0.04740861  0.24489231  1
  O  O25  1  0.88012591  0.53193329  0.26662159  1
  O  O26  1  0.86215335  0.32845933  0.25250953  1
  O  O27  1  0.83591484  0.85287947  0.26242089  1
  O  O28  1  0.67524441  0.05922904  0.93547528  1
  O  O29  1  0.67558129  0.05956632  0.55992984  1
  O  O30  1  0.68394070  0.52486501  0.93463043  1
  O  O31  1  0.67697984  0.54474162  0.56394243  1
  O  O32  1  0.56959322  0.28250039  0.24886875  1
  O  O33  1  0.56586276  0.79541301  0.26325707  1
  O  O34  1  0.54233170  0.43010568  0.74010481  1
  O  O35  1  0.54449596  0.94334504  0.74056706  1
  O  O36  1  0.45766830  0.06989432  0.24010481  1
  O  O37  1  0.45550404  0.55665496  0.24056706  1
  O  O38  1  0.43040678  0.21749961  0.74886875  1
  O  O39  1  0.43413724  0.70458699  0.76325707  1
  O  O40  1  0.32475559  0.44077096  0.43547528  1
  O  O41  1  0.32441871  0.44043368  0.05992984  1
  O  O42  1  0.32302016  0.95525838  0.06394243  1
  O  O43  1  0.31605930  0.97513499  0.43463043  1
  O  O44  1  0.13784665  0.17154067  0.75250953  1
  O  O45  1  0.16408516  0.64712053  0.76242089  1
  O  O46  1  0.13370780  0.45259139  0.74489331  1
  O  O47  1  0.11987409  0.96806671  0.76662159  1
  O  O48  1  0.08781740  0.31042194  0.24831792  1
  O  O49  1  0.06712258  0.82001952  0.22991389  1
