# generated using pymatgen
data_Li3V4(PO4)6
_symmetry_space_group_name_H-M   'P 1'
_cell_length_a   8.50707719
_cell_length_b   8.53375818
_cell_length_c   8.57564601
_cell_angle_alpha   60.63802634
_cell_angle_beta   60.87750928
_cell_angle_gamma   60.97775020
_symmetry_Int_Tables_number   1
_chemical_formula_structural   Li3V4(PO4)6
_chemical_formula_sum   'Li3 V4 P6 O24'
_cell_volume   448.46519345
_cell_formula_units_Z   1
loop_
 _symmetry_equiv_pos_site_id
 _symmetry_equiv_pos_as_xyz
  1  'x, y, z'
loop_
 _atom_site_type_symbol
 _atom_site_label
 _atom_site_symmetry_multiplicity
 _atom_site_fract_x
 _atom_site_fract_y
 _atom_site_fract_z
 _atom_site_occupancy
  Li  Li0  1  0.51542719  0.99965119  0.98236840  1
  Li  Li1  1  0.25211835  0.13613374  0.34233710  1
  Li  Li2  1  0.99295418  0.50855884  0.50143292  1
  V  V3  1  0.64276351  0.13809546  0.14196407  1
  V  V4  1  0.85578763  0.36525848  0.35100029  1
  V  V5  1  0.13629106  0.63674024  0.64768739  1
  V  V6  1  0.36310769  0.86201251  0.85480395  1
  P  P7  1  0.25000380  0.45936782  0.03583377  1
  P  P8  1  0.96130260  0.03831827  0.74923638  1
  P  P9  1  0.54019483  0.74529319  0.46773620  1
  P  P10  1  0.45242407  0.25057957  0.53762777  1
  P  P11  1  0.04668620  0.95770019  0.24983878  1
  P  P12  1  0.74718094  0.54562540  0.96019644  1
  O  O13  1  0.81378278  0.51314958  0.11789653  1
  O  O14  1  0.87655154  0.99492659  0.20635831  1
  O  O15  1  0.68382288  0.38315547  0.01161279  1
  O  O16  1  0.95391051  0.22547825  0.57448566  1
  O  O17  1  0.40617612  0.26206383  0.06069502  1
  O  O18  1  0.73526542  0.58527943  0.44190235  1
  O  O19  1  0.53375894  0.91590987  0.28024100  1
  O  O20  1  0.99768655  0.87273273  0.69591508  1
  O  O21  1  0.23497347  0.93591050  0.08134674  1
  O  O22  1  0.62703064  0.30619702  0.47958752  1
  O  O23  1  0.90927251  0.55856381  0.76692946  1
  O  O24  1  0.46650056  0.19240332  0.38748296  1
  O  O25  1  0.51417752  0.80753760  0.62311190  1
  O  O26  1  0.09049173  0.44041450  0.23430491  1
  O  O27  1  0.37742608  0.67752672  0.52392417  1
  O  O28  1  0.77083311  0.05980144  0.90999267  1
  O  O29  1  0.02652518  0.12318409  0.29670378  1
  O  O30  1  0.44560885  0.08817512  0.73169501  1
  O  O31  1  0.26190247  0.41584260  0.56280229  1
  O  O32  1  0.58569064  0.73909307  0.94280229  1
  O  O33  1  0.06816964  0.76715627  0.41628316  1
  O  O34  1  0.31341860  0.62222677  0.98716754  1
  O  O35  1  0.12911571  0.00471328  0.79951182  1
  O  O36  1  0.18046548  0.49038123  0.88451461  1
