# generated using pymatgen
data_TbZr
_symmetry_space_group_name_H-M   'P 1'
_cell_length_a   3.39949236
_cell_length_b   3.39948882
_cell_length_c   5.43099140
_cell_angle_alpha   89.99696148
_cell_angle_beta   90.00304729
_cell_angle_gamma   119.99875359
_symmetry_Int_Tables_number   1
_chemical_formula_structural   TbZr
_chemical_formula_sum   'Tb1 Zr1'
_cell_volume   54.35542390
_cell_formula_units_Z   1
loop_
 _symmetry_equiv_pos_site_id
 _symmetry_equiv_pos_as_xyz
  1  'x, y, z'
loop_
 _atom_site_type_symbol
 _atom_site_label
 _atom_site_symmetry_multiplicity
 _atom_site_fract_x
 _atom_site_fract_y
 _atom_site_fract_z
 _atom_site_occupancy
  Tb  Tb0  1  0.66667585  0.33332274  0.74999785  1
  Zr  Zr1  1  0.33332415  0.66667726  0.25000215  1
