# generated using pymatgen
data_Na2FePCO7
_symmetry_space_group_name_H-M   'P 1'
_cell_length_a   10.35270028
_cell_length_b   8.35632019
_cell_length_c   8.34284841
_cell_angle_alpha   77.49138191
_cell_angle_beta   71.91837617
_cell_angle_gamma   108.05068163
_symmetry_Int_Tables_number   1
_chemical_formula_structural   Na2FePCO7
_chemical_formula_sum   'Na8 Fe4 P4 C4 O28'
_cell_volume   612.03236165
_cell_formula_units_Z   4
loop_
 _symmetry_equiv_pos_site_id
 _symmetry_equiv_pos_as_xyz
  1  'x, y, z'
loop_
 _atom_site_type_symbol
 _atom_site_label
 _atom_site_symmetry_multiplicity
 _atom_site_fract_x
 _atom_site_fract_y
 _atom_site_fract_z
 _atom_site_occupancy
  Na  Na0  1  0.92764053  0.70587947  0.53930769  1
  Na  Na1  1  0.91322996  0.19980073  0.05423075  1
  Na  Na2  1  0.73187657  0.74759949  0.27241603  1
  Na  Na3  1  0.73275111  0.48176327  0.00048976  1
  Na  Na4  1  0.26724889  0.51823673  0.99951024  1
  Na  Na5  1  0.26812343  0.25240051  0.72758397  1
  Na  Na6  1  0.07235947  0.29412053  0.46069231  1
  Na  Na7  1  0.08677004  0.80019927  0.94576925  1
  Fe  Fe8  1  0.65691724  0.29951702  0.45057866  1
  Fe  Fe9  1  0.65380023  0.82160977  0.92886306  1
  Fe  Fe10  1  0.34619977  0.17839023  0.07113694  1
  Fe  Fe11  1  0.34308276  0.70048298  0.54942134  1
  P  P12  1  0.57372345  0.55703083  0.69174226  1
  P  P13  1  0.57799354  0.06071387  0.19094295  1
  P  P14  1  0.42627655  0.44296917  0.30825774  1
  P  P15  1  0.42200646  0.93928613  0.80905705  1
  C  C16  1  0.93598466  0.48181711  0.26379496  1
  C  C17  1  0.93459061  0.97527501  0.77902835  1
  C  C18  1  0.06540939  0.02472499  0.22097165  1
  C  C19  1  0.06401534  0.51818289  0.73620504  1
  O  O20  1  0.92558064  0.93740932  0.29769956  1
  O  O21  1  0.92346176  0.44122557  0.82394068  1
  O  O22  1  0.87356226  0.34037219  0.41030864  1
  O  O23  1  0.87025313  0.82749056  0.92190643  1
  O  O24  1  0.84423754  0.53744367  0.21443310  1
  O  O25  1  0.84319571  0.02449819  0.72349703  1
  O  O26  1  0.67569165  0.97829165  0.08466895  1
  O  O27  1  0.67127256  0.66352693  0.77425218  1
  O  O28  1  0.67608905  0.49074837  0.56926305  1
  O  O29  1  0.67949735  0.18336410  0.25762921  1
  O  O30  1  0.57027424  0.59831576  0.15678538  1
  O  O31  1  0.56632475  0.08613410  0.65762534  1
  O  O32  1  0.53693555  0.18360592  0.06373793  1
  O  O33  1  0.52616565  0.67803633  0.57321099  1
  O  O34  1  0.46306445  0.81639408  0.93626207  1
  O  O35  1  0.47383435  0.32196367  0.42678901  1
  O  O36  1  0.43367525  0.91386590  0.34237466  1
  O  O37  1  0.42972576  0.40168424  0.84321462  1
  O  O38  1  0.32050265  0.81663590  0.74237079  1
  O  O39  1  0.32391095  0.50925163  0.43073695  1
  O  O40  1  0.32872744  0.33647307  0.22574782  1
  O  O41  1  0.32430835  0.02170835  0.91533105  1
  O  O42  1  0.15680429  0.97550181  0.27650297  1
  O  O43  1  0.15576246  0.46255633  0.78556690  1
  O  O44  1  0.12974687  0.17250944  0.07809357  1
  O  O45  1  0.12643774  0.65962781  0.58969136  1
  O  O46  1  0.07653824  0.55877443  0.17605932  1
  O  O47  1  0.07441936  0.06259068  0.70230044  1
