# generated using pymatgen
data_P4WO12
_symmetry_space_group_name_H-M   'P 1'
_cell_length_a   7.34942830
_cell_length_b   7.35161980
_cell_length_c   9.98616174
_cell_angle_alpha   79.78523412
_cell_angle_beta   72.37856024
_cell_angle_gamma   110.41915744
_symmetry_Int_Tables_number   1
_chemical_formula_structural   P4WO12
_chemical_formula_sum   'P8 W2 O24'
_cell_volume   457.10375586
_cell_formula_units_Z   2
loop_
 _symmetry_equiv_pos_site_id
 _symmetry_equiv_pos_as_xyz
  1  'x, y, z'
loop_
 _atom_site_type_symbol
 _atom_site_label
 _atom_site_symmetry_multiplicity
 _atom_site_fract_x
 _atom_site_fract_y
 _atom_site_fract_z
 _atom_site_occupancy
  P  P0  1  0.01833879  0.31315378  0.69593164  1
  P  P1  1  0.26688529  0.72856602  0.48008056  1
  P  P2  1  0.70926093  0.74733366  0.01975266  1
  P  P3  1  0.49062357  0.28582643  0.19598532  1
  P  P4  1  0.50937643  0.71417357  0.80401468  1
  P  P5  1  0.29073907  0.25266634  0.98024734  1
  P  P6  1  0.73311471  0.27143398  0.51991944  1
  P  P7  1  0.98166121  0.68684622  0.30406836  1
  W  W8  1  0.19688277  0.94692786  0.75000984  1
  W  W9  1  0.80311723  0.05307214  0.24999016  1
  O  O10  1  0.02892243  0.64339119  0.16314726  1
  O  O11  1  0.10305510  0.25629335  0.09371686  1
  O  O12  1  0.17716886  0.71482871  0.35505465  1
  O  O13  1  0.15053243  0.80313956  0.59297827  1
  O  O14  1  0.22027420  0.49741908  0.55538537  1
  O  O15  1  0.06392043  0.12753770  0.68605484  1
  O  O16  1  0.44645673  0.22409561  0.05567593  1
  O  O17  1  0.30657484  0.19271645  0.33675776  1
  O  O18  1  0.50356340  0.84412366  0.40557609  1
  O  O19  1  0.31424949  0.75046911  0.81349738  1
  O  O20  1  0.57044069  0.53238899  0.14450807  1
  O  O21  1  0.75066820  0.90921336  0.09366056  1
  O  O22  1  0.24933180  0.09078664  0.90633944  1
  O  O23  1  0.42955931  0.46761101  0.85549193  1
  O  O24  1  0.68575051  0.24953189  0.18650262  1
  O  O25  1  0.49643660  0.15587634  0.59442391  1
  O  O26  1  0.69342516  0.80728355  0.66324224  1
  O  O27  1  0.55354327  0.77590439  0.94432407  1
  O  O28  1  0.93607957  0.87246230  0.31394516  1
  O  O29  1  0.77972580  0.50258092  0.44461463  1
  O  O30  1  0.84946757  0.19686044  0.40702173  1
  O  O31  1  0.82283114  0.28517129  0.64494535  1
  O  O32  1  0.89694490  0.74370665  0.90628314  1
  O  O33  1  0.97107757  0.35660881  0.83685274  1
