# generated using pymatgen
data_Na2FePCO7
_symmetry_space_group_name_H-M   'P 1'
_cell_length_a   17.82061654
_cell_length_b   5.20928934
_cell_length_c   6.56109681
_cell_angle_alpha   90.00000000
_cell_angle_beta   90.00000000
_cell_angle_gamma   89.70027717
_symmetry_Int_Tables_number   1
_chemical_formula_structural   Na2FePCO7
_chemical_formula_sum   'Na8 Fe4 P4 C4 O28'
_cell_volume   609.07631117
_cell_formula_units_Z   4
loop_
 _symmetry_equiv_pos_site_id
 _symmetry_equiv_pos_as_xyz
  1  'x, y, z'
loop_
 _atom_site_type_symbol
 _atom_site_label
 _atom_site_symmetry_multiplicity
 _atom_site_fract_x
 _atom_site_fract_y
 _atom_site_fract_z
 _atom_site_occupancy
  Na  Na0  1  0.04038745  0.76501968  0.24410789  1
  Na  Na1  1  0.13098003  0.25148222  0.48970216  1
  Na  Na2  1  0.36901997  0.74851778  0.51029784  1
  Na  Na3  1  0.45961255  0.23498032  0.75589211  1
  Na  Na4  1  0.54038745  0.76501968  0.25589211  1
  Na  Na5  1  0.63098003  0.25148222  0.01029784  1
  Na  Na6  1  0.86901997  0.74851778  0.98970216  1
  Na  Na7  1  0.95961255  0.23498032  0.74410789  1
  Fe  Fe8  1  0.17306931  0.78520735  0.76205181  1
  Fe  Fe9  1  0.32693069  0.21479265  0.23794819  1
  Fe  Fe10  1  0.67306931  0.78520735  0.73794819  1
  Fe  Fe11  1  0.82693069  0.21479265  0.26205181  1
  P  P12  1  0.21142424  0.70722361  0.25224001  1
  P  P13  1  0.28857576  0.29277639  0.74775999  1
  P  P14  1  0.71142424  0.70722361  0.24775999  1
  P  P15  1  0.78857576  0.29277639  0.75224001  1
  C  C16  1  0.03191232  0.73000648  0.74654116  1
  C  C17  1  0.46808768  0.26999352  0.25345884  1
  C  C18  1  0.53191232  0.73000648  0.75345884  1
  C  C19  1  0.96808768  0.26999352  0.24654116  1
  O  O20  1  0.03853617  0.29340403  0.26038154  1
  O  O21  1  0.06467106  0.95626046  0.74051713  1
  O  O22  1  0.07804871  0.53302303  0.74138760  1
  O  O23  1  0.16280183  0.76550715  0.06210810  1
  O  O24  1  0.16008227  0.77130807  0.43783174  1
  O  O25  1  0.21545677  0.13455883  0.74317287  1
  O  O26  1  0.23308727  0.41672523  0.26134777  1
  O  O27  1  0.26691273  0.58327477  0.73865223  1
  O  O28  1  0.28454323  0.86544117  0.25682713  1
  O  O29  1  0.33991773  0.22869193  0.56216826  1
  O  O30  1  0.33719817  0.23449285  0.93789190  1
  O  O31  1  0.42195129  0.46697697  0.25861240  1
  O  O32  1  0.43532894  0.04373954  0.25948287  1
  O  O33  1  0.46146383  0.70659597  0.73961846  1
  O  O34  1  0.53853617  0.29340403  0.23961846  1
  O  O35  1  0.56467106  0.95626046  0.75948287  1
  O  O36  1  0.57804871  0.53302303  0.75861240  1
  O  O37  1  0.66008227  0.77130807  0.06216826  1
  O  O38  1  0.66280183  0.76550715  0.43789190  1
  O  O39  1  0.71545677  0.13455883  0.75682713  1
  O  O40  1  0.73308727  0.41672523  0.23865223  1
  O  O41  1  0.76691273  0.58327477  0.76134777  1
  O  O42  1  0.78454323  0.86544117  0.24317287  1
  O  O43  1  0.83719817  0.23449285  0.56210810  1
  O  O44  1  0.83991773  0.22869193  0.93783174  1
  O  O45  1  0.92195129  0.46697697  0.24138760  1
  O  O46  1  0.93532894  0.04373954  0.24051713  1
  O  O47  1  0.96146383  0.70659597  0.76038154  1
