# generated using pymatgen
data_Li2FePCO7
_symmetry_space_group_name_H-M   'P 1'
_cell_length_a   16.63003151
_cell_length_b   5.09051532
_cell_length_c   6.51072477
_cell_angle_alpha   89.76786211
_cell_angle_beta   90.54223681
_cell_angle_gamma   85.13874622
_symmetry_Int_Tables_number   1
_chemical_formula_structural   Li2FePCO7
_chemical_formula_sum   'Li8 Fe4 P4 C4 O28'
_cell_volume   549.15445254
_cell_formula_units_Z   4
loop_
 _symmetry_equiv_pos_site_id
 _symmetry_equiv_pos_as_xyz
  1  'x, y, z'
loop_
 _atom_site_type_symbol
 _atom_site_label
 _atom_site_symmetry_multiplicity
 _atom_site_fract_x
 _atom_site_fract_y
 _atom_site_fract_z
 _atom_site_occupancy
  Li  Li0  1  0.04866371  0.76086266  0.26407463  1
  Li  Li1  1  0.13780542  0.24782756  0.03154062  1
  Li  Li2  1  0.36311016  0.75033256  0.96697408  1
  Li  Li3  1  0.45161665  0.23841832  0.74963419  1
  Li  Li4  1  0.54827014  0.76200266  0.24531661  1
  Li  Li5  1  0.63802700  0.24818106  0.46614528  1
  Li  Li6  1  0.86175276  0.75314701  0.96881976  1
  Li  Li7  1  0.95256174  0.24054066  0.73158050  1
  Fe  Fe8  1  0.16551175  0.79848704  0.73827391  1
  Fe  Fe9  1  0.33467188  0.20129202  0.25738147  1
  Fe  Fe10  1  0.66507887  0.79924413  0.76065191  1
  Fe  Fe11  1  0.83465176  0.19974416  0.26581347  1
  P  P12  1  0.21016452  0.72205082  0.23951150  1
  P  P13  1  0.28988320  0.27781638  0.75696830  1
  P  P14  1  0.70961216  0.72217909  0.25193747  1
  P  P15  1  0.79025631  0.27748037  0.75406779  1
  C  C16  1  0.02017217  0.70327920  0.76752062  1
  C  C17  1  0.48000674  0.29788415  0.25164952  1
  C  C18  1  0.52004452  0.70298331  0.74756410  1
  C  C19  1  0.97958024  0.29666570  0.23044578  1
  O  O20  1  0.03825104  0.94830687  0.74940684  1
  O  O21  1  0.05117159  0.36569513  0.21771752  1
  O  O22  1  0.08238132  0.52647983  0.76395967  1
  O  O23  1  0.15124189  0.82440985  0.06383477  1
  O  O24  1  0.16065408  0.78410560  0.43613420  1
  O  O25  1  0.21001557  0.14465209  0.76699136  1
  O  O26  1  0.23026004  0.41853717  0.21722768  1
  O  O27  1  0.26986929  0.58113767  0.78133971  1
  O  O28  1  0.29006094  0.85527400  0.23048449  1
  O  O29  1  0.33918736  0.21777650  0.55997991  1
  O  O30  1  0.34891376  0.17361959  0.93239042  1
  O  O31  1  0.41809411  0.47347942  0.22571305  1
  O  O32  1  0.44930707  0.63329114  0.77617086  1
  O  O33  1  0.46141730  0.05190763  0.25603864  1
  O  O34  1  0.53833017  0.94900518  0.74920531  1
  O  O35  1  0.55092972  0.36665400  0.27589095  1
  O  O36  1  0.58158242  0.52807806  0.72049367  1
  O  O37  1  0.65238568  0.78115678  0.06439989  1
  O  O38  1  0.65792631  0.82825618  0.43631571  1
  O  O39  1  0.71059568  0.14556370  0.72730903  1
  O  O40  1  0.73005784  0.41907159  0.27864822  1
  O  O41  1  0.76973956  0.58058794  0.77747052  1
  O  O42  1  0.78928468  0.85406216  0.22939354  1
  O  O43  1  0.84747509  0.21782638  0.56924572  1
  O  O44  1  0.84171549  0.17196300  0.94140496  1
  O  O45  1  0.91720505  0.47255245  0.23081353  1
  O  O46  1  0.94876604  0.63490111  0.78469164  1
  O  O47  1  0.96174120  0.05122707  0.24748067  1
