# generated using pymatgen
data_Li4Cr3NiO8
_symmetry_space_group_name_H-M   'P 1'
_cell_length_a   5.12241332
_cell_length_b   5.91160535
_cell_length_c   10.65475919
_cell_angle_alpha   106.16239109
_cell_angle_beta   85.50381600
_cell_angle_gamma   73.21516323
_symmetry_Int_Tables_number   1
_chemical_formula_structural   Li4Cr3NiO8
_chemical_formula_sum   'Li8 Cr6 Ni2 O16'
_cell_volume   292.23321605
_cell_formula_units_Z   2
loop_
 _symmetry_equiv_pos_site_id
 _symmetry_equiv_pos_as_xyz
  1  'x, y, z'
loop_
 _atom_site_type_symbol
 _atom_site_label
 _atom_site_symmetry_multiplicity
 _atom_site_fract_x
 _atom_site_fract_y
 _atom_site_fract_z
 _atom_site_occupancy
  Li  Li0  1  0.99566311  0.12938896  0.75021019  1
  Li  Li1  1  0.00353753  0.99604779  0.00059214  1
  Li  Li2  1  0.00560871  0.24497897  0.49909467  1
  Li  Li3  1  0.99472051  0.37979049  0.25027639  1
  Li  Li4  1  0.99845579  0.62283512  0.75127756  1
  Li  Li5  1  0.00094166  0.50295946  0.99950838  1
  Li  Li6  1  0.00148200  0.75145095  0.49749713  1
  Li  Li7  1  0.99938561  0.87273293  0.25152661  1
  Cr  Cr8  1  0.50138165  0.06214925  0.87498370  1
  Cr  Cr9  1  0.50020919  0.18665606  0.62452997  1
  Cr  Cr10  1  0.49874274  0.31278763  0.37516596  1
  Cr  Cr11  1  0.49964578  0.43991193  0.12554853  1
  Cr  Cr12  1  0.50040525  0.68744024  0.62457989  1
  Cr  Cr13  1  0.49959584  0.93593060  0.12548996  1
  Ni  Ni14  1  0.49950994  0.56268309  0.87543420  1
  Ni  Ni15  1  0.50040066  0.81223306  0.37453938  1
  O  O16  1  0.27298788  0.09277732  0.30940062  1
  O  O17  1  0.72695644  0.04448812  0.44123315  1
  O  O18  1  0.27494459  0.32272676  0.81097715  1
  O  O19  1  0.72357921  0.27320500  0.93840006  1
  O  O20  1  0.72462487  0.16476313  0.19068917  1
  O  O21  1  0.27598909  0.20929429  0.05727100  1
  O  O22  1  0.27219795  0.46259543  0.56148880  1
  O  O23  1  0.72559027  0.41266176  0.68757797  1
  O  O24  1  0.27216911  0.58144639  0.30964533  1
  O  O25  1  0.72554318  0.53346714  0.44158002  1
  O  O26  1  0.27795586  0.85062995  0.81058901  1
  O  O27  1  0.72617734  0.80145985  0.93817581  1
  O  O28  1  0.27080176  0.71411756  0.06306090  1
  O  O29  1  0.27234885  0.96362878  0.56434429  1
  O  O30  1  0.73154989  0.65887321  0.18410361  1
  O  O31  1  0.72690075  0.91388880  0.69120847  1
