# generated using pymatgen
data_PrBiO4
_symmetry_space_group_name_H-M   'P 1'
_cell_length_a   5.68529205
_cell_length_b   10.98335106
_cell_length_c   5.75566246
_cell_angle_alpha   89.99001669
_cell_angle_beta   89.99805664
_cell_angle_gamma   90.00681010
_symmetry_Int_Tables_number   1
_chemical_formula_structural   PrBiO4
_chemical_formula_sum   'Pr4 Bi4 O16'
_cell_volume   359.40403709
_cell_formula_units_Z   4
loop_
 _symmetry_equiv_pos_site_id
 _symmetry_equiv_pos_as_xyz
  1  'x, y, z'
loop_
 _atom_site_type_symbol
 _atom_site_label
 _atom_site_symmetry_multiplicity
 _atom_site_fract_x
 _atom_site_fract_y
 _atom_site_fract_z
 _atom_site_occupancy
  Pr  Pr0  1  0.19322691  0.75000575  0.24997913  1
  Pr  Pr1  1  0.30683962  0.25000109  0.25005970  1
  Pr  Pr2  1  0.69329206  0.75000614  0.74994695  1
  Pr  Pr3  1  0.80682292  0.24999553  0.75005371  1
  Bi  Bi4  1  0.25002984  0.00015844  0.70215851  1
  Bi  Bi5  1  0.24992771  0.49983138  0.79796196  1
  Bi  Bi6  1  0.74994240  0.49980446  0.20207633  1
  Bi  Bi7  1  0.75016343  0.00018234  0.29777903  1
  O  O8  1  0.98204670  0.61663495  0.94985037  1
  O  O9  1  0.98231174  0.88335669  0.55006693  1
  O  O10  1  0.12075318  0.12980234  0.92932604  1
  O  O11  1  0.12089807  0.37010343  0.57090345  1
  O  O12  1  0.37889596  0.63021562  0.57091921  1
  O  O13  1  0.37915974  0.86980119  0.92899792  1
  O  O14  1  0.51778947  0.11659006  0.55040096  1
  O  O15  1  0.51777719  0.38343805  0.94964210  1
  O  O16  1  0.48207406  0.61661637  0.05033043  1
  O  O17  1  0.48232697  0.88338397  0.44952800  1
  O  O18  1  0.62087314  0.12999920  0.07096824  1
  O  O19  1  0.62095524  0.36994680  0.42904767  1
  O  O20  1  0.87899738  0.63004756  0.42930898  1
  O  O21  1  0.87935621  0.87003636  0.07050941  1
  O  O22  1  0.01775968  0.11663949  0.44982712  1
  O  O23  1  0.01778037  0.38340277  0.05035785  1
