# generated using pymatgen
data_Lu2WO6
_symmetry_space_group_name_H-M   'P 1'
_cell_length_a   5.19281667
_cell_length_b   9.00335075
_cell_length_c   9.85550339
_cell_angle_alpha   90.00000000
_cell_angle_beta   90.00000000
_cell_angle_gamma   90.00000000
_symmetry_Int_Tables_number   1
_chemical_formula_structural   Lu2WO6
_chemical_formula_sum   'Lu8 W4 O24'
_cell_volume   460.77188474
_cell_formula_units_Z   4
loop_
 _symmetry_equiv_pos_site_id
 _symmetry_equiv_pos_as_xyz
  1  'x, y, z'
loop_
 _atom_site_type_symbol
 _atom_site_label
 _atom_site_symmetry_multiplicity
 _atom_site_fract_x
 _atom_site_fract_y
 _atom_site_fract_z
 _atom_site_occupancy
  Lu  Lu0  1  0.01889806  0.39729086  0.03452010  1
  Lu  Lu1  1  0.03849596  0.28050391  0.62770509  1
  Lu  Lu2  1  0.46150404  0.71949609  0.12770509  1
  Lu  Lu3  1  0.48110194  0.60270914  0.53452010  1
  Lu  Lu4  1  0.51889806  0.10270914  0.96547990  1
  Lu  Lu5  1  0.53849596  0.21949609  0.37229491  1
  Lu  Lu6  1  0.96150404  0.78050391  0.87229491  1
  Lu  Lu7  1  0.98110194  0.89729086  0.46547990  1
  W  W8  1  0.03882144  0.00560569  0.15274536  1
  W  W9  1  0.46117856  0.99439431  0.65274536  1
  W  W10  1  0.53882144  0.49439431  0.84725464  1
  W  W11  1  0.96117856  0.50560569  0.34725464  1
  O  O12  1  0.09025835  0.65981075  0.47042046  1
  O  O13  1  0.17950858  0.54698671  0.19823513  1
  O  O14  1  0.17498955  0.85978147  0.68137222  1
  O  O15  1  0.19581477  0.85729677  0.26609062  1
  O  O16  1  0.23589076  0.38407370  0.43330207  1
  O  O17  1  0.24979840  0.09038843  0.50381421  1
  O  O18  1  0.25020160  0.90961157  0.00381421  1
  O  O19  1  0.26410924  0.61592630  0.93330207  1
  O  O20  1  0.30418523  0.14270323  0.76609062  1
  O  O21  1  0.32501045  0.14021853  0.18137222  1
  O  O22  1  0.32049142  0.45301329  0.69823513  1
  O  O23  1  0.40974165  0.34018925  0.97042046  1
  O  O24  1  0.59025835  0.84018925  0.52957954  1
  O  O25  1  0.67950858  0.95301329  0.80176487  1
  O  O26  1  0.67498955  0.64021853  0.31862778  1
  O  O27  1  0.69581477  0.64270323  0.73390938  1
  O  O28  1  0.73589076  0.11592630  0.56669793  1
  O  O29  1  0.74979840  0.40961157  0.49618579  1
  O  O30  1  0.75020160  0.59038843  0.99618579  1
  O  O31  1  0.76410924  0.88407370  0.06669793  1
  O  O32  1  0.80418523  0.35729677  0.23390938  1
  O  O33  1  0.82501045  0.35978147  0.81862778  1
  O  O34  1  0.82049142  0.04698671  0.30176487  1
  O  O35  1  0.90974165  0.15981075  0.02957954  1
