# generated using pymatgen
data_Li5Fe3(SnO5)2
_symmetry_space_group_name_H-M   'P 1'
_cell_length_a   5.35512550
_cell_length_b   5.23068674
_cell_length_c   8.13837067
_cell_angle_alpha   109.60374944
_cell_angle_beta   101.12750799
_cell_angle_gamma   99.68382557
_symmetry_Int_Tables_number   1
_chemical_formula_structural   Li5Fe3(SnO5)2
_chemical_formula_sum   'Li5 Fe3 Sn2 O10'
_cell_volume   203.91045896
_cell_formula_units_Z   1
loop_
 _symmetry_equiv_pos_site_id
 _symmetry_equiv_pos_as_xyz
  1  'x, y, z'
loop_
 _atom_site_type_symbol
 _atom_site_label
 _atom_site_symmetry_multiplicity
 _atom_site_fract_x
 _atom_site_fract_y
 _atom_site_fract_z
 _atom_site_occupancy
  Li  Li0  1  0.23225315  0.91297085  0.40787834  1
  Li  Li1  1  0.40789913  0.29951084  0.79249225  1
  Li  Li2  1  0.50000000  0.50000000  0.50000000  1
  Li  Li3  1  0.59210087  0.70048916  0.20750775  1
  Li  Li4  1  0.76774685  0.08702915  0.59212166  1
  Fe  Fe5  1  0.00000000  0.50000000  0.00000000  1
  Fe  Fe6  1  0.69202294  0.89708544  0.89411249  1
  Fe  Fe7  1  0.30797706  0.10291456  0.10588751  1
  Sn  Sn8  1  0.10329407  0.70750080  0.69786992  1
  Sn  Sn9  1  0.89670593  0.29249920  0.30213008  1
  O  O10  1  0.05950469  0.10426575  0.85869050  1
  O  O11  1  0.32171133  0.68360006  0.93867144  1
  O  O12  1  0.14313750  0.31058999  0.54026397  1
  O  O13  1  0.21775520  0.49345022  0.23239832  1
  O  O14  1  0.44571244  0.89948808  0.66197325  1
  O  O15  1  0.55428756  0.10051292  0.33802675  1
  O  O16  1  0.78224480  0.50654978  0.76760168  1
  O  O17  1  0.85686250  0.68941001  0.45973603  1
  O  O18  1  0.67828867  0.31639994  0.06132856  1
  O  O19  1  0.94049531  0.89573425  0.14130950  1
