# generated using pymatgen
data_NaLiV2O6
_symmetry_space_group_name_H-M   'P 1'
_cell_length_a   7.02563011
_cell_length_b   7.02217040
_cell_length_c   11.87344750
_cell_angle_alpha   74.66994071
_cell_angle_beta   105.33835512
_cell_angle_gamma   97.48539695
_symmetry_Int_Tables_number   1
_chemical_formula_structural   NaLiV2O6
_chemical_formula_sum   'Na4 Li4 V8 O24'
_cell_volume   543.66540747
_cell_formula_units_Z   4
loop_
 _symmetry_equiv_pos_site_id
 _symmetry_equiv_pos_as_xyz
  1  'x, y, z'
loop_
 _atom_site_type_symbol
 _atom_site_label
 _atom_site_symmetry_multiplicity
 _atom_site_fract_x
 _atom_site_fract_y
 _atom_site_fract_z
 _atom_site_occupancy
  Na  Na0  1  0.71962407  0.71903631  0.87542955  1
  Na  Na1  1  0.08394252  0.08164537  0.37587568  1
  Na  Na2  1  0.71428950  0.71442405  0.37455531  1
  Na  Na3  1  0.28577645  0.28212240  0.12325111  1
  Li  Li4  1  0.09383650  0.09263697  0.87465691  1
  Li  Li5  1  0.24673196  0.24787691  0.62807279  1
  Li  Li6  1  0.90863369  0.90721364  0.62845247  1
  Li  Li7  1  0.90653175  0.90837042  0.12151743  1
  V  V8  1  0.19861029  0.61926942  0.87592676  1
  V  V9  1  0.38801613  0.80691474  0.63089691  1
  V  V10  1  0.19912039  0.61933773  0.37834568  1
  V  V11  1  0.38011759  0.79986657  0.12669310  1
  V  V12  1  0.61463856  0.20023557  0.87066239  1
  V  V13  1  0.80617522  0.38332058  0.62333994  1
  V  V14  1  0.62340826  0.19776176  0.37485284  1
  V  V15  1  0.79997920  0.38458673  0.11900915  1
  O  O16  1  0.02456654  0.78779045  0.82254923  1
  O  O17  1  0.22941269  0.98986824  0.58789804  1
  O  O18  1  0.01726789  0.77789267  0.31818920  1
  O  O19  1  0.09535559  0.38800942  0.89884300  1
  O  O20  1  0.36192300  0.64923473  0.77497826  1
  O  O21  1  0.21375054  0.97575722  0.07230903  1
  O  O22  1  0.62248639  0.89970150  0.65610311  1
  O  O23  1  0.34837887  0.65916187  0.52134977  1
  O  O24  1  0.10014323  0.38899770  0.41345784  1
  O  O25  1  0.35658770  0.64566423  0.27330534  1
  O  O26  1  0.64299457  0.36082448  0.97388137  1
  O  O27  1  0.61173269  0.90233992  0.15083735  1
  O  O28  1  0.38238459  0.09956004  0.84459020  1
  O  O29  1  0.34977857  0.64052732  0.02314491  1
  O  O30  1  0.64464884  0.34853348  0.72516616  1
  O  O31  1  0.90112953  0.61741008  0.59855739  1
  O  O32  1  0.65161595  0.35836476  0.47759530  1
  O  O33  1  0.39395659  0.09616937  0.34378961  1
  O  O34  1  0.78173329  0.02499020  0.92602899  1
  O  O35  1  0.65244620  0.34966789  0.22934815  1
  O  O36  1  0.90128065  0.61652548  0.09475123  1
  O  O37  1  0.98905979  0.22266308  0.67306716  1
  O  O38  1  0.78276545  0.01666200  0.43326056  1
  O  O39  1  0.97516878  0.21906572  0.16545778  1
