# generated using pymatgen
data_LiCoBO3
_symmetry_space_group_name_H-M   'P 1'
_cell_length_a   8.17064723
_cell_length_b   8.17138639
_cell_length_c   3.07066795
_cell_angle_alpha   90.00000000
_cell_angle_beta   90.00000000
_cell_angle_gamma   119.97936565
_symmetry_Int_Tables_number   1
_chemical_formula_structural   LiCoBO3
_chemical_formula_sum   'Li3 Co3 B3 O9'
_cell_volume   177.58486844
_cell_formula_units_Z   3
loop_
 _symmetry_equiv_pos_site_id
 _symmetry_equiv_pos_as_xyz
  1  'x, y, z'
loop_
 _atom_site_type_symbol
 _atom_site_label
 _atom_site_symmetry_multiplicity
 _atom_site_fract_x
 _atom_site_fract_y
 _atom_site_fract_z
 _atom_site_occupancy
  Li  Li0  1  0.28323156  0.98050716  0.50000000  1
  Li  Li1  1  0.01943463  0.30260383  0.50000000  1
  Li  Li2  1  0.69738400  0.71701654  0.50000000  1
  Co  Co3  1  0.37147557  0.36045782  0.00000000  1
  Co  Co4  1  0.63941037  0.01126887  0.00000000  1
  Co  Co5  1  0.98893851  0.62840272  0.00000000  1
  B  B6  1  0.33342078  0.66684583  0.50000000  1
  B  B7  1  0.99987829  0.99990787  0.00000000  1
  B  B8  1  0.66679790  0.33331528  0.50000000  1
  O  O9  1  0.10662525  0.91049692  0.00000000  1
  O  O10  1  0.13840423  0.58517885  0.50000000  1
  O  O11  1  0.08939841  0.19604268  0.00000000  1
  O  O12  1  0.44681619  0.86151430  0.50000000  1
  O  O13  1  0.41490339  0.55305406  0.50000000  1
  O  O14  1  0.47107797  0.25336680  0.50000000  1
  O  O15  1  0.80392257  0.89347495  0.00000000  1
  O  O16  1  0.78229597  0.52880969  0.50000000  1
  O  O17  1  0.74658440  0.21773583  0.50000000  1
