# generated using pymatgen
data_Li2FePCO7
_symmetry_space_group_name_H-M   'P 1'
_cell_length_a   8.29841638
_cell_length_b   5.09793096
_cell_length_c   6.50441936
_cell_angle_alpha   90.00000000
_cell_angle_beta   90.00000000
_cell_angle_gamma   84.74135325
_symmetry_Int_Tables_number   1
_chemical_formula_structural   Li2FePCO7
_chemical_formula_sum   'Li4 Fe2 P2 C2 O14'
_cell_volume   274.00970721
_cell_formula_units_Z   2
loop_
 _symmetry_equiv_pos_site_id
 _symmetry_equiv_pos_as_xyz
  1  'x, y, z'
loop_
 _atom_site_type_symbol
 _atom_site_label
 _atom_site_symmetry_multiplicity
 _atom_site_fract_x
 _atom_site_fract_y
 _atom_site_fract_z
 _atom_site_occupancy
  Li  Li0  1  0.09685139  0.76400703  0.24578310  1
  Li  Li1  1  0.27634495  0.25126581  0.46654535  1
  Li  Li2  1  0.72365505  0.74873419  0.96654535  1
  Li  Li3  1  0.90314861  0.23599297  0.74578310  1
  Fe  Fe4  1  0.32914086  0.79960714  0.75939336  1
  Fe  Fe5  1  0.67085914  0.20039286  0.25939336  1
  P  P6  1  0.41905682  0.72526436  0.25106047  1
  P  P7  1  0.58094318  0.27473564  0.75106047  1
  C  C8  1  0.04060532  0.69897491  0.74877649  1
  C  C9  1  0.95939468  0.30102509  0.24877649  1
  O  O10  1  0.07639473  0.94551064  0.75491805  1
  O  O11  1  0.09939787  0.37176159  0.27758324  1
  O  O12  1  0.16573470  0.52649126  0.71647298  1
  O  O13  1  0.30409751  0.78178344  0.06459886  1
  O  O14  1  0.31482760  0.83469107  0.43645241  1
  O  O15  1  0.42224029  0.14244173  0.72650637  1
  O  O16  1  0.46088258  0.42283029  0.27992132  1
  O  O17  1  0.53911742  0.57716971  0.77992132  1
  O  O18  1  0.57775971  0.85755827  0.22650637  1
  O  O19  1  0.69590249  0.21821656  0.56459886  1
  O  O20  1  0.68517240  0.16530893  0.93645241  1
  O  O21  1  0.83426530  0.47350874  0.21647298  1
  O  O22  1  0.90060213  0.62823841  0.77758324  1
  O  O23  1  0.92360527  0.05448936  0.25491805  1
