# generated using pymatgen
data_Li4Cr3NiO8
_symmetry_space_group_name_H-M   'P 1'
_cell_length_a   5.11837073
_cell_length_b   5.90069256
_cell_length_c   5.90271993
_cell_angle_alpha   120.01144899
_cell_angle_beta   90.00001425
_cell_angle_gamma   73.23737984
_symmetry_Int_Tables_number   1
_chemical_formula_structural   Li4Cr3NiO8
_chemical_formula_sum   'Li4 Cr3 Ni1 O8'
_cell_volume   145.55773612
_cell_formula_units_Z   1
loop_
 _symmetry_equiv_pos_site_id
 _symmetry_equiv_pos_as_xyz
  1  'x, y, z'
loop_
 _atom_site_type_symbol
 _atom_site_label
 _atom_site_symmetry_multiplicity
 _atom_site_fract_x
 _atom_site_fract_y
 _atom_site_fract_z
 _atom_site_occupancy
  Li  Li0  1  0.99673983  0.00374287  0.50187193  1
  Li  Li1  1  0.00326017  0.99625713  0.99812807  1
  Li  Li2  1  1.00000000  0.50000000  0.50387218  1
  Li  Li3  1  0.00000000  0.50000000  0.99612782  1
  Cr  Cr4  1  0.50000000  0.00000000  0.75000000  1
  Cr  Cr5  1  0.50000000  0.00000000  0.25000000  1
  Cr  Cr6  1  0.50000000  0.50000000  0.25000000  1
  Ni  Ni7  1  0.50000000  0.50000000  0.75000000  1
  O  O8  1  0.27188590  0.23476643  0.61738272  1
  O  O9  1  0.72704374  0.25356902  0.88318232  1
  O  O10  1  0.27253605  0.24241471  0.12120785  1
  O  O11  1  0.72704274  0.25357002  0.37038770  1
  O  O12  1  0.27295626  0.74643098  0.61681868  1
  O  O13  1  0.72811410  0.76523357  0.88261728  1
  O  O14  1  0.27295726  0.74642998  0.12961230  1
  O  O15  1  0.72746395  0.75758529  0.37879215  1
