# generated using pymatgen
data_Tb2(WO4)3
_symmetry_space_group_name_H-M   'P 1'
_cell_length_a   10.19760701
_cell_length_b   10.32268756
_cell_length_c   14.20741692
_cell_angle_alpha   90.00000000
_cell_angle_beta   90.40861740
_cell_angle_gamma   90.00000000
_symmetry_Int_Tables_number   1
_chemical_formula_structural   Tb2(WO4)3
_chemical_formula_sum   'Tb8 W12 O48'
_cell_volume   1495.53001830
_cell_formula_units_Z   4
loop_
 _symmetry_equiv_pos_site_id
 _symmetry_equiv_pos_as_xyz
  1  'x, y, z'
loop_
 _atom_site_type_symbol
 _atom_site_label
 _atom_site_symmetry_multiplicity
 _atom_site_fract_x
 _atom_site_fract_y
 _atom_site_fract_z
 _atom_site_occupancy
  Tb  Tb0  1  0.24830153  0.97057366  0.88170422  1
  Tb  Tb1  1  0.24460271  0.03365749  0.38199455  1
  Tb  Tb2  1  0.25539729  0.53365749  0.11800545  1
  Tb  Tb3  1  0.25169747  0.47057366  0.61829578  1
  Tb  Tb4  1  0.74830153  0.52942634  0.38170422  1
  Tb  Tb5  1  0.74460271  0.46634251  0.88199455  1
  Tb  Tb6  1  0.75539729  0.96634251  0.61800545  1
  Tb  Tb7  1  0.75169847  0.02942634  0.11829578  1
  W  W8  1  0.02587221  0.74890552  0.50007470  1
  W  W9  1  0.10388499  0.61901047  0.85676712  1
  W  W10  1  0.10753171  0.88056098  0.14261552  1
  W  W11  1  0.39246829  0.38056098  0.35738448  1
  W  W12  1  0.39611501  0.11901047  0.64323288  1
  W  W13  1  0.47412779  0.24890552  0.99992530  1
  W  W14  1  0.52587221  0.75109448  0.00007470  1
  W  W15  1  0.60388499  0.88098953  0.35676712  1
  W  W16  1  0.60753171  0.61943902  0.64261552  1
  W  W17  1  0.89246829  0.11943902  0.85738448  1
  W  W18  1  0.89611501  0.38098953  0.14323288  1
  W  W19  1  0.97412779  0.25109448  0.49992530  1
  O  O20  1  0.06804083  0.09697204  0.86717548  1
  O  O21  1  0.07664212  0.34279764  0.58058238  1
  O  O22  1  0.07674503  0.17479890  0.41217408  1
  O  O23  1  0.07089778  0.41138128  0.13721061  1
  O  O24  1  0.11385306  0.87287337  0.43571028  1
  O  O25  1  0.13390408  0.79004039  0.83524530  1
  O  O26  1  0.14271809  0.71137013  0.16654016  1
  O  O27  1  0.14138426  0.64188313  0.55776176  1
  O  O28  1  0.17135844  0.98082911  0.23721217  1
  O  O29  1  0.17584229  0.52325986  0.76310547  1
  O  O30  1  0.18041894  0.57566542  0.96784533  1
  O  O31  1  0.18331986  0.92707678  0.03300432  1
  O  O32  1  0.31668014  0.42707678  0.46699568  1
  O  O33  1  0.31958106  0.07566542  0.53215467  1
  O  O34  1  0.32415771  0.02325986  0.73689453  1
  O  O35  1  0.32864156  0.48082911  0.26278783  1
  O  O36  1  0.35861574  0.14188313  0.94223824  1
  O  O37  1  0.35728191  0.21137013  0.33345984  1
  O  O38  1  0.36609592  0.29004039  0.66475470  1
  O  O39  1  0.38614694  0.37287337  0.06428972  1
  O  O40  1  0.42335788  0.84279764  0.91941762  1
  O  O41  1  0.42910222  0.91138128  0.36278939  1
  O  O42  1  0.42325497  0.67479890  0.08782592  1
  O  O43  1  0.43195917  0.59697204  0.63282452  1
  O  O44  1  0.56804083  0.40302796  0.36717548  1
  O  O45  1  0.57674503  0.32520110  0.91217408  1
  O  O46  1  0.57089778  0.08861872  0.63721061  1
  O  O47  1  0.57664212  0.15720236  0.08058238  1
  O  O48  1  0.61385306  0.62712663  0.93571028  1
  O  O49  1  0.63390408  0.70995961  0.33524530  1
  O  O50  1  0.64271809  0.78862987  0.66654016  1
  O  O51  1  0.64138426  0.85811687  0.05776176  1
  O  O52  1  0.67135844  0.51917089  0.73721217  1
  O  O53  1  0.67584229  0.97674014  0.26310547  1
  O  O54  1  0.68041894  0.92433458  0.46784533  1
  O  O55  1  0.68331986  0.57292322  0.53300432  1
  O  O56  1  0.81668014  0.07292322  0.96699568  1
  O  O57  1  0.81958106  0.42433458  0.03215467  1
  O  O58  1  0.82415771  0.47674014  0.23689453  1
  O  O59  1  0.82864156  0.01917089  0.76278783  1
  O  O60  1  0.85861574  0.35811687  0.44223824  1
  O  O61  1  0.85728191  0.28862987  0.83345984  1
  O  O62  1  0.86609592  0.20995961  0.16475470  1
  O  O63  1  0.88614694  0.12712663  0.56428972  1
  O  O64  1  0.92910222  0.58861872  0.86278939  1
  O  O65  1  0.92325497  0.82520110  0.58782592  1
  O  O66  1  0.92335788  0.65720236  0.41941762  1
  O  O67  1  0.93195917  0.90302796  0.13282452  1
