# generated using pymatgen
data_Li5Mn2Ni3O10
_symmetry_space_group_name_H-M   'P 1'
_cell_length_a   5.04803090
_cell_length_b   5.08654540
_cell_length_c   7.64463536
_cell_angle_alpha   109.19759749
_cell_angle_beta   101.28006582
_cell_angle_gamma   100.81707685
_symmetry_Int_Tables_number   1
_chemical_formula_structural   Li5Mn2Ni3O10
_chemical_formula_sum   'Li5 Mn2 Ni3 O10'
_cell_volume   174.93617161
_cell_formula_units_Z   1
loop_
 _symmetry_equiv_pos_site_id
 _symmetry_equiv_pos_as_xyz
  1  'x, y, z'
loop_
 _atom_site_type_symbol
 _atom_site_label
 _atom_site_symmetry_multiplicity
 _atom_site_fract_x
 _atom_site_fract_y
 _atom_site_fract_z
 _atom_site_occupancy
  Li  Li0  1  0.21503744  0.90510017  0.40239666  1
  Li  Li1  1  0.39979472  0.29135224  0.79099900  1
  Li  Li2  1  0.50000000  0.50000000  0.50000000  1
  Li  Li3  1  0.60020528  0.70864776  0.20900100  1
  Li  Li4  1  0.78496256  0.09489983  0.59760334  1
  Mn  Mn5  1  0.10049030  0.69961370  0.69551939  1
  Mn  Mn6  1  0.89950970  0.30038630  0.30448061  1
  Ni  Ni7  1  0.00000000  0.50000000  0.00000000  1
  Ni  Ni8  1  0.69567966  0.89312113  0.89731830  1
  Ni  Ni9  1  0.30432034  0.10687887  0.10268170  1
  O  O10  1  0.05054135  0.07571112  0.84488586  1
  O  O11  1  0.32498552  0.69327084  0.93518991  1
  O  O12  1  0.13014918  0.32244314  0.54188280  1
  O  O13  1  0.22013691  0.48907067  0.23496793  1
  O  O14  1  0.43305266  0.88701325  0.65833115  1
  O  O15  1  0.56694734  0.11298675  0.34166885  1
  O  O16  1  0.77986309  0.51092933  0.76503207  1
  O  O17  1  0.86985082  0.67755686  0.45811720  1
  O  O18  1  0.67501448  0.30672916  0.06481009  1
  O  O19  1  0.94945865  0.92428888  0.15511414  1
