# generated using pymatgen
data_Li24Ti5Cr7O36
_symmetry_space_group_name_H-M   'P 1'
_cell_length_a   5.05174547
_cell_length_b   13.41088015
_cell_length_c   9.78415152
_cell_angle_alpha   97.27081571
_cell_angle_beta   94.66849812
_cell_angle_gamma   100.75299331
_symmetry_Int_Tables_number   1
_chemical_formula_structural   Li24Ti5Cr7O36
_chemical_formula_sum   'Li24 Ti5 Cr7 O36'
_cell_volume   642.22365291
_cell_formula_units_Z   1
loop_
 _symmetry_equiv_pos_site_id
 _symmetry_equiv_pos_as_xyz
  1  'x, y, z'
loop_
 _atom_site_type_symbol
 _atom_site_label
 _atom_site_symmetry_multiplicity
 _atom_site_fract_x
 _atom_site_fract_y
 _atom_site_fract_z
 _atom_site_occupancy
  Li  Li0  1  0.82877699  0.16691692  0.00119237  1
  Li  Li1  1  0.94898752  0.38613911  0.00077983  1
  Li  Li2  1  0.00110489  0.75027714  0.24998228  1
  Li  Li3  1  0.66677729  0.08253306  0.25053659  1
  Li  Li4  1  0.95001577  0.88688822  0.50071333  1
  Li  Li5  1  0.62508805  0.22166027  0.50160593  1
  Li  Li6  1  0.82900295  0.66662138  0.50156135  1
  Li  Li7  1  0.49376243  0.00128807  0.50027700  1
  Li  Li8  1  0.70947004  0.44445977  0.49985994  1
  Li  Li9  1  0.66695380  0.58298418  0.75036081  1
  Li  Li10  1  0.49924589  0.50039058  0.99916588  1
  Li  Li11  1  0.71661304  0.94645531  0.00109460  1
  Li  Li12  1  0.38404079  0.28056433  0.99974854  1
  Li  Li13  1  0.61915681  0.71911471  0.99992948  1
  Li  Li14  1  0.28804035  0.05342154  0.99902879  1
  Li  Li15  1  0.33525798  0.41720461  0.24926140  1
  Li  Li16  1  0.29091390  0.55502866  0.49912990  1
  Li  Li17  1  0.16480636  0.33417630  0.49748763  1
  Li  Li18  1  0.38482693  0.77931584  0.49900317  1
  Li  Li19  1  0.04825327  0.11201368  0.49909667  1
  Li  Li20  1  0.33637718  0.91819197  0.74929953  1
  Li  Li21  1  0.16473923  0.83364513  0.00013006  1
  Li  Li22  1  0.99978900  0.24942225  0.75012032  1
  Li  Li23  1  0.04853368  0.61358031  0.00077198  1
  Ti  Ti24  1  0.88419298  0.02633105  0.74466479  1
  Ti  Ti25  1  0.88519251  0.52685092  0.24858082  1
  Ti  Ti26  1  0.22306296  0.19185834  0.25232849  1
  Ti  Ti27  1  0.22543820  0.69480070  0.75360519  1
  Ti  Ti28  1  0.10724406  0.47235572  0.75030445  1
  Cr  Cr29  1  0.78063368  0.30600263  0.25026334  1
  Cr  Cr30  1  0.78292367  0.80694762  0.75028874  1
  Cr  Cr31  1  0.55882304  0.35935540  0.75162721  1
  Cr  Cr32  1  0.43718401  0.14019666  0.74974478  1
  Cr  Cr33  1  0.55430152  0.86413003  0.24883896  1
  Cr  Cr34  1  0.44678674  0.64143845  0.25136856  1
  Cr  Cr35  1  0.10692239  0.96830457  0.24933476  1
  O  O36  1  0.00095992  0.06941731  0.13656783  1
  O  O37  1  0.93138841  0.21325521  0.36686466  1
  O  O38  1  0.00159983  0.57106947  0.63540972  1
  O  O39  1  0.84842367  0.35479210  0.63665814  1
  O  O40  1  0.73493369  0.11951141  0.63556369  1
  O  O41  1  0.66307619  0.40544158  0.13597869  1
  O  O42  1  0.93224395  0.71436124  0.86683084  1
  O  O43  1  0.81204516  0.47695062  0.86423587  1
  O  O44  1  0.59539759  0.05025265  0.86527203  1
  O  O45  1  0.86609279  0.85952101  0.13854771  1
  O  O46  1  0.73224630  0.61993505  0.13512628  1
  O  O47  1  0.52860060  0.19073597  0.13765729  1
  O  O48  1  0.67039305  0.26523670  0.86071919  1
  O  O49  1  0.80208243  0.97304064  0.36292519  1
  O  O50  1  0.59868674  0.54844867  0.36694922  1
  O  O51  1  0.48004610  0.31023139  0.36174866  1
  O  O52  1  0.66501736  0.76075818  0.35948867  1
  O  O53  1  0.33238744  0.09336002  0.36255194  1
  O  O54  1  0.66211044  0.90562936  0.63537871  1
  O  O55  1  0.33005721  0.23385196  0.63887319  1
  O  O56  1  0.52813305  0.69179212  0.63817213  1
  O  O57  1  0.40522927  0.44942074  0.63534131  1
  O  O58  1  0.18773946  0.02257592  0.63585509  1
  O  O59  1  0.33591119  0.74096676  0.13807001  1
  O  O60  1  0.48154912  0.81184268  0.86184771  1
  O  O61  1  0.26540477  0.37993165  0.86387884  1
  O  O62  1  0.15143380  0.14400384  0.86372618  1
  O  O63  1  0.40848052  0.94962638  0.13500685  1
  O  O64  1  0.19345970  0.52507336  0.13758631  1
  O  O65  1  0.06192950  0.28545738  0.13521375  1
  O  O66  1  0.33414727  0.59565010  0.86443621  1
  O  O67  1  0.25791153  0.88426163  0.36427553  1
  O  O68  1  0.14791079  0.64480057  0.36215269  1
  O  O69  1  0.99858910  0.42519227  0.36235884  1
  O  O70  1  0.06206592  0.78666792  0.63519091  1
  O  O71  1  0.99907624  0.92607072  0.86244971  1
