# generated using pymatgen
data_Li5Fe2Ni5O12
_symmetry_space_group_name_H-M   'P 1'
_cell_length_a   5.09888294
_cell_length_b   5.09888267
_cell_length_c   9.78657872
_cell_angle_alpha   84.85796346
_cell_angle_beta   95.14203993
_cell_angle_gamma   59.41179227
_symmetry_Int_Tables_number   1
_chemical_formula_structural   Li5Fe2Ni5O12
_chemical_formula_sum   'Li5 Fe2 Ni5 O12'
_cell_volume   215.41951478
_cell_formula_units_Z   1
loop_
 _symmetry_equiv_pos_site_id
 _symmetry_equiv_pos_as_xyz
  1  'x, y, z'
loop_
 _atom_site_type_symbol
 _atom_site_label
 _atom_site_symmetry_multiplicity
 _atom_site_fract_x
 _atom_site_fract_y
 _atom_site_fract_z
 _atom_site_occupancy
  Li  Li0  1  0.17636514  0.67554029  0.50075779  1
  Li  Li1  1  0.32588507  0.82866596  0.99590391  1
  Li  Li2  1  0.67554029  0.17636514  0.99924221  1
  Li  Li3  1  0.82866596  0.32588507  0.50409609  1
  Li  Li4  1  0.91757511  0.91757511  0.75000000  1
  Fe  Fe5  1  0.25086916  0.25086916  0.75000000  1
  Fe  Fe6  1  0.75506309  0.75506309  0.25000000  1
  Ni  Ni7  1  0.08566879  0.08566879  0.25000000  1
  Ni  Ni8  1  0.00099621  0.50564865  0.99595532  1
  Ni  Ni9  1  0.50564865  0.00099621  0.50404468  1
  Ni  Ni10  1  0.41662932  0.41662932  0.25000000  1
  Ni  Ni11  1  0.57950300  0.57950300  0.75000000  1
  O  O12  1  0.93962923  0.24170843  0.86471270  1
  O  O13  1  0.24170843  0.93962923  0.63528730  1
  O  O14  1  0.12179787  0.37255314  0.37196532  1
  O  O15  1  0.37255314  0.12179787  0.12803468  1
  O  O16  1  0.30804489  0.52674037  0.86707660  1
  O  O17  1  0.52674037  0.30804489  0.63292340  1
  O  O18  1  0.44231453  0.73894992  0.36255435  1
  O  O19  1  0.73894992  0.44231453  0.13744565  1
  O  O20  1  0.61026762  0.85275550  0.86508884  1
  O  O21  1  0.85275550  0.61026762  0.63491116  1
  O  O22  1  0.79083855  0.03599016  0.37310347  1
  O  O23  1  0.03599016  0.79083855  0.12689653  1
