# generated using pymatgen
data_Li24Ti5Cr7O36
_symmetry_space_group_name_H-M   'P 1'
_cell_length_a   5.05169576
_cell_length_b   13.39815196
_cell_length_c   9.78413785
_cell_angle_alpha   97.18501220
_cell_angle_beta   94.68122923
_cell_angle_gamma   100.66401116
_symmetry_Int_Tables_number   1
_chemical_formula_structural   Li24Ti5Cr7O36
_chemical_formula_sum   'Li24 Ti5 Cr7 O36'
_cell_volume   641.93858893
_cell_formula_units_Z   1
loop_
 _symmetry_equiv_pos_site_id
 _symmetry_equiv_pos_as_xyz
  1  'x, y, z'
loop_
 _atom_site_type_symbol
 _atom_site_label
 _atom_site_symmetry_multiplicity
 _atom_site_fract_x
 _atom_site_fract_y
 _atom_site_fract_z
 _atom_site_occupancy
  Li  Li0  1  0.83535609  0.16683935  0.99871165  1
  Li  Li1  1  0.95033331  0.38552296  0.99923684  1
  Li  Li2  1  0.00236688  0.75018821  0.24906550  1
  Li  Li3  1  0.66687012  0.08281203  0.24965466  1
  Li  Li4  1  0.95379281  0.88771176  0.50271204  1
  Li  Li5  1  0.62337653  0.22109385  0.49910542  1
  Li  Li6  1  0.82641592  0.66713493  0.50114620  1
  Li  Li7  1  0.49882895  0.00115566  0.49787389  1
  Li  Li8  1  0.71562614  0.44524111  0.49863851  1
  Li  Li9  1  0.66507092  0.58478073  0.75028703  1
  Li  Li10  1  0.49069494  0.50218606  0.00075917  1
  Li  Li11  1  0.71760848  0.94741259  0.99914110  1
  Li  Li12  1  0.38565829  0.28163512  0.00221875  1
  Li  Li13  1  0.61823560  0.71960156  0.00067137  1
  Li  Li14  1  0.28144675  0.05254600  -0.00001178  1
  Li  Li15  1  0.33636961  0.41737802  0.24995594  1
  Li  Li16  1  0.29325714  0.55438492  0.50034241  1
  Li  Li17  1  0.15875567  0.33444873  0.50045216  1
  Li  Li18  1  0.37872361  0.77727213  0.49794124  1
  Li  Li19  1  0.04647229  0.11262182  0.50163623  1
  Li  Li20  1  0.33359525  0.91608584  0.74962684  1
  Li  Li21  1  0.16671170  0.83229735  0.00166534  1
  Li  Li22  1  0.99931056  0.24961718  0.74984382  1
  Li  Li23  1  0.05070523  0.61250564  0.00017640  1
  Ti  Ti24  1  0.88719394  0.52703534  0.24963700  1
  Ti  Ti25  1  0.55115732  0.36053173  0.74425014  1
  Ti  Ti26  1  0.44762199  0.13960584  0.75488804  1
  Ti  Ti27  1  0.22399712  0.19221584  0.25381567  1
  Ti  Ti28  1  0.22709250  0.69383048  0.75125491  1
  Cr  Cr29  1  0.89533556  0.02561578  0.75000371  1
  Cr  Cr30  1  0.78080608  0.30565870  0.24873286  1
  Cr  Cr31  1  0.77445915  0.80690615  0.74824672  1
  Cr  Cr32  1  0.55435395  0.86467383  0.24817508  1
  Cr  Cr33  1  0.44789395  0.64199186  0.25123147  1
  Cr  Cr34  1  0.10439865  0.47356182  0.75152091  1
  Cr  Cr35  1  0.10561574  0.96861301  0.24929620  1
  O  O36  1  0.00096527  0.06913462  0.13796447  1
  O  O37  1  0.93035575  0.21290763  0.36645190  1
  O  O38  1  0.00050902  0.56816006  0.63737031  1
  O  O39  1  0.85402855  0.35557214  0.63633155  1
  O  O40  1  0.73757601  0.11578309  0.63593384  1
  O  O41  1  0.66439346  0.40597137  0.13548243  1
  O  O42  1  0.92853826  0.71684267  0.86404895  1
  O  O43  1  0.81859103  0.47849800  0.86241300  1
  O  O44  1  0.59832186  0.04635475  0.86434353  1
  O  O45  1  0.86651881  0.85943020  0.13768552  1
  O  O46  1  0.73084134  0.61984899  0.13519837  1
  O  O47  1  0.52830970  0.19057356  0.13819100  1
  O  O48  1  0.66627204  0.26228965  0.86396183  1
  O  O49  1  0.80007754  0.97229625  0.36272844  1
  O  O50  1  0.60061725  0.54822431  0.36765461  1
  O  O51  1  0.48069528  0.31013989  0.36133759  1
  O  O52  1  0.66256974  0.76109264  0.35884175  1
  O  O53  1  0.33198305  0.09280089  0.36322466  1
  O  O54  1  0.66280775  0.90044355  0.63848409  1
  O  O55  1  0.33276755  0.23741781  0.63521074  1
  O  O56  1  0.52067541  0.68903618  0.63485276  1
  O  O57  1  0.40178995  0.45362852  0.63601084  1
  O  O58  1  0.18122680  0.02157792  0.63683129  1
  O  O59  1  0.33487928  0.74162626  0.13782240  1
  O  O60  1  0.48527643  0.81122374  0.86321359  1
  O  O61  1  0.26055255  0.38323529  0.86364700  1
  O  O62  1  0.14571071  0.14385910  0.86431034  1
  O  O63  1  0.40822987  0.94984839  0.13470446  1
  O  O64  1  0.19531136  0.52586135  0.13895799  1
  O  O65  1  0.06333512  0.28530623  0.13510964  1
  O  O66  1  0.33797665  0.59752846  0.86485596  1
  O  O67  1  0.25653307  0.88389020  0.36424090  1
  O  O68  1  0.14765354  0.64442643  0.36251338  1
  O  O69  1  0.99890378  0.42482289  0.36147963  1
  O  O70  1  0.06637453  0.78557806  0.63538510  1
  O  O71  1  0.00332392  0.93205495  0.86130371  1
