# generated using pymatgen
data_Li5Ti2Mn8O20
_symmetry_space_group_name_H-M   'P 1'
_cell_length_a   5.84097776
_cell_length_b   6.05319366
_cell_length_c   24.81875160
_cell_angle_alpha   99.84742119
_cell_angle_beta   90.00000000
_cell_angle_gamma   61.15310478
_symmetry_Int_Tables_number   1
_chemical_formula_structural   Li5Ti2Mn8O20
_chemical_formula_sum   'Li10 Ti4 Mn16 O40'
_cell_volume   753.82427550
_cell_formula_units_Z   2
loop_
 _symmetry_equiv_pos_site_id
 _symmetry_equiv_pos_as_xyz
  1  'x, y, z'
loop_
 _atom_site_type_symbol
 _atom_site_label
 _atom_site_symmetry_multiplicity
 _atom_site_fract_x
 _atom_site_fract_y
 _atom_site_fract_z
 _atom_site_occupancy
  Li  Li0  1  0.64241239  0.71517521  0.04940404  1
  Li  Li1  1  0.60758761  0.78482479  0.20059596  1
  Li  Li2  1  0.99713287  0.00573527  0.99923088  1
  Li  Li3  1  0.25286713  0.49426473  0.25076912  1
  Li  Li4  1  0.19325097  0.61349806  0.39978810  1
  Li  Li5  1  0.84908023  0.30183854  0.44957579  1
  Li  Li6  1  0.80242218  0.39515564  0.60251418  1
  Li  Li7  1  0.05674903  0.88650194  0.85021190  1
  Li  Li8  1  0.44757782  0.10484436  0.64748582  1
  Li  Li9  1  0.40091977  0.19816146  0.80042421  1
  Ti  Ti10  1  0.31307825  0.37384451  0.02656077  1
  Ti  Ti11  1  0.93692175  0.12615549  0.22343923  1
  Ti  Ti12  1  0.32664558  0.34670784  0.52519456  1
  Ti  Ti13  1  0.92335442  0.15329216  0.72480544  1
  Mn  Mn14  1  0.12500000  0.75000000  0.12500000  1
  Mn  Mn15  1  0.62500000  0.25000000  0.12500000  1
  Mn  Mn16  1  0.12500000  0.25000000  0.12500000  1
  Mn  Mn17  1  0.72330063  0.55339873  0.32471305  1
  Mn  Mn18  1  0.51957153  0.96085594  0.42521481  1
  Mn  Mn19  1  0.22318419  0.05647311  0.32490975  1
  Mn  Mn20  1  0.32956579  0.84428557  0.52513390  1
  Mn  Mn21  1  0.72034270  0.05647311  0.32490975  1
  Mn  Mn22  1  0.82614864  0.84428557  0.52513390  1
  Mn  Mn23  1  0.12500000  0.75000000  0.62500000  1
  Mn  Mn24  1  0.92043421  0.65571443  0.72486610  1
  Mn  Mn25  1  0.42385136  0.65571443  0.72486610  1
  Mn  Mn26  1  0.52669937  0.94660127  0.92528695  1
  Mn  Mn27  1  0.73042847  0.53914406  0.82478519  1
  Mn  Mn28  1  0.52965730  0.44352689  0.92509025  1
  Mn  Mn29  1  0.02681581  0.44352689  0.92509025  1
  O  O30  1  0.25172552  0.94301523  0.17618919  1
  O  O31  1  0.80526025  0.94301523  0.17618919  1
  O  O32  1  0.44473975  0.55698477  0.07381081  1
  O  O33  1  0.99827448  0.55698477  0.07381081  1
  O  O34  1  0.05655187  0.88689627  0.27838187  1
  O  O35  1  0.28192128  0.43615743  0.16695147  1
  O  O36  1  0.44952777  0.10094445  0.07341790  1
  O  O37  1  0.55967634  0.88064733  0.28163720  1
  O  O38  1  0.80047223  0.39905555  0.17658210  1
  O  O39  1  0.96807872  0.06384257  0.08304853  1
  O  O40  1  0.83279581  0.78613506  0.36929068  1
  O  O41  1  0.38106914  0.78613506  0.36929068  1
  O  O42  1  0.61252233  0.32361473  0.28002747  1
  O  O43  1  0.06386394  0.32361473  0.28002747  1
  O  O44  1  0.88583921  0.22832257  0.36780979  1
  O  O45  1  0.65796378  0.68407243  0.47716061  1
  O  O46  1  0.17626956  0.64746088  0.48361128  1
  O  O47  1  0.38614929  0.22770142  0.36870646  1
  O  O48  1  0.44540431  0.55066511  0.57586552  1
  O  O49  1  0.00393058  0.55066511  0.57586552  1
  O  O50  1  0.20177532  0.15027259  0.47600242  1
  O  O51  1  0.64795209  0.15027259  0.47600242  1
  O  O52  1  0.24606942  0.94933489  0.67413448  1
  O  O53  1  0.80459569  0.94933489  0.67413448  1
  O  O54  1  0.24883368  0.50233265  0.67477703  1
  O  O55  1  0.07373044  0.85253912  0.76638872  1
  O  O56  1  0.47600654  0.04798592  0.56567027  1
  O  O57  1  0.59203622  0.81592757  0.77283939  1
  O  O58  1  0.00116632  0.99766735  0.57522297  1
  O  O59  1  0.77399346  0.45201408  0.68432973  1
  O  O60  1  0.04822468  0.34972741  0.77399758  1
  O  O61  1  0.60204791  0.34972741  0.77399758  1
  O  O62  1  0.86893086  0.71386494  0.88070932  1
  O  O63  1  0.41720419  0.71386494  0.88070932  1
  O  O64  1  0.86385071  0.27229858  0.88129354  1
  O  O65  1  0.69032366  0.61935267  0.96836280  1
  O  O66  1  0.36416079  0.27167743  0.88219021  1
  O  O67  1  0.19344813  0.61310373  0.97161813  1
  O  O68  1  0.18613606  0.17638527  0.96997253  1
  O  O69  1  0.63747767  0.17638527  0.96997253  1
