# generated using pymatgen
data_Li2Fe(BO2)5
_symmetry_space_group_name_H-M   'P 1'
_cell_length_a   7.25566103
_cell_length_b   15.29615607
_cell_length_c   7.26866778
_cell_angle_alpha   90.00000000
_cell_angle_beta   90.81466368
_cell_angle_gamma   90.00000000
_symmetry_Int_Tables_number   1
_chemical_formula_structural   Li2Fe(BO2)5
_chemical_formula_sum   'Li8 Fe4 B20 O40'
_cell_volume   806.62227245
_cell_formula_units_Z   4
loop_
 _symmetry_equiv_pos_site_id
 _symmetry_equiv_pos_as_xyz
  1  'x, y, z'
loop_
 _atom_site_type_symbol
 _atom_site_label
 _atom_site_symmetry_multiplicity
 _atom_site_fract_x
 _atom_site_fract_y
 _atom_site_fract_z
 _atom_site_occupancy
  Li  Li0  1  0.10012750  0.17015628  0.99990416  1
  Li  Li1  1  0.10012750  0.32984372  0.49990416  1
  Li  Li2  1  0.30578019  0.92739517  0.58884987  1
  Li  Li3  1  0.30578019  0.57260483  0.08884987  1
  Li  Li4  1  0.69421981  0.42739517  0.91115013  1
  Li  Li5  1  0.69421981  0.07260483  0.41115013  1
  Li  Li6  1  0.89987250  0.67015628  0.50009584  1
  Li  Li7  1  0.89987250  0.82984372  0.00009584  1
  Fe  Fe8  1  0.14992081  0.12372359  0.53571512  1
  Fe  Fe9  1  0.14992081  0.37627641  0.03571512  1
  Fe  Fe10  1  0.85007919  0.62372359  0.96428488  1
  Fe  Fe11  1  0.85007919  0.87627641  0.46428488  1
  B  B12  1  0.20211461  0.02643516  0.90750690  1
  B  B13  1  0.20211461  0.47356484  0.40750690  1
  B  B14  1  0.21588265  0.77712608  0.52136159  1
  B  B15  1  0.21588265  0.72287392  0.02136159  1
  B  B16  1  0.24643801  0.50309538  0.73308320  1
  B  B17  1  0.24643801  0.99690462  0.23308320  1
  B  B18  1  0.31859330  0.62035750  0.50587794  1
  B  B19  1  0.31859330  0.87964250  0.00587794  1
  B  B20  1  0.45786380  0.25672248  0.50050062  1
  B  B21  1  0.45786380  0.24327752  0.00050062  1
  B  B22  1  0.54213620  0.75672248  0.99949938  1
  B  B23  1  0.54213620  0.74327752  0.49949938  1
  B  B24  1  0.68140570  0.12035750  0.99412206  1
  B  B25  1  0.68140570  0.37964250  0.49412206  1
  B  B26  1  0.75356199  0.00309538  0.76691680  1
  B  B27  1  0.75356199  0.49690462  0.26691680  1
  B  B28  1  0.78411735  0.27712608  0.97863841  1
  B  B29  1  0.78411735  0.22287392  0.47863841  1
  B  B30  1  0.79788539  0.52643516  0.59249310  1
  B  B31  1  0.79788539  0.97356484  0.09249310  1
  O  O32  1  0.09024873  0.84307980  0.53729151  1
  O  O33  1  0.09024873  0.65692020  0.03729151  1
  O  O34  1  0.15012372  0.08936540  0.78432988  1
  O  O35  1  0.15012372  0.41063460  0.28432988  1
  O  O36  1  0.17041754  0.80898349  0.99438458  1
  O  O37  1  0.16907051  0.45069897  0.59280961  1
  O  O38  1  0.17041754  0.69101651  0.49438458  1
  O  O39  1  0.16907051  0.04930103  0.09280961  1
  O  O40  1  0.24989983  0.47408347  0.91242853  1
  O  O41  1  0.24989983  0.02591653  0.41242853  1
  O  O42  1  0.27755503  0.23047499  0.51073165  1
  O  O43  1  0.27841758  0.94767829  0.86172498  1
  O  O44  1  0.27755503  0.26952501  0.01073165  1
  O  O45  1  0.27841758  0.55232171  0.36172498  1
  O  O46  1  0.31792166  0.58216849  0.69081971  1
  O  O47  1  0.31792166  0.91783151  0.19081971  1
  O  O48  1  0.40157226  0.80398463  0.53759447  1
  O  O49  1  0.40157226  0.69601537  0.03759447  1
  O  O50  1  0.50130195  0.34193651  0.52862865  1
  O  O51  1  0.49869805  0.84193651  0.97137135  1
  O  O52  1  0.50130195  0.15806349  0.02862865  1
  O  O53  1  0.49869805  0.65806349  0.47137135  1
  O  O54  1  0.59842774  0.30398463  0.96240553  1
  O  O55  1  0.59842774  0.19601537  0.46240553  1
  O  O56  1  0.68207834  0.08216849  0.80918029  1
  O  O57  1  0.68207834  0.41783151  0.30918029  1
  O  O58  1  0.72158242  0.44767829  0.63827502  1
  O  O59  1  0.72244497  0.73047499  0.98926835  1
  O  O60  1  0.72158242  0.05232171  0.13827502  1
  O  O61  1  0.72244497  0.76952501  0.48926835  1
  O  O62  1  0.75010017  0.97408347  0.58757147  1
  O  O63  1  0.75010017  0.52591653  0.08757147  1
  O  O64  1  0.83092949  0.95069897  0.90719039  1
  O  O65  1  0.82958246  0.30898349  0.50561542  1
  O  O66  1  0.83092949  0.54930103  0.40719039  1
  O  O67  1  0.82958246  0.19101651  0.00561542  1
  O  O68  1  0.84987628  0.58936540  0.71567012  1
  O  O69  1  0.84987628  0.91063460  0.21567012  1
  O  O70  1  0.90975127  0.34307980  0.96270849  1
  O  O71  1  0.90975127  0.15692020  0.46270849  1
