# generated using pymatgen
data_Li24Ti5Cr7O36
_symmetry_space_group_name_H-M   'P 1'
_cell_length_a   5.05055628
_cell_length_b   13.41770050
_cell_length_c   9.79533540
_cell_angle_alpha   97.45906229
_cell_angle_beta   94.62878341
_cell_angle_gamma   100.93523186
_symmetry_Int_Tables_number   1
_chemical_formula_structural   Li24Ti5Cr7O36
_chemical_formula_sum   'Li24 Ti5 Cr7 O36'
_cell_volume   642.43760492
_cell_formula_units_Z   1
loop_
 _symmetry_equiv_pos_site_id
 _symmetry_equiv_pos_as_xyz
  1  'x, y, z'
loop_
 _atom_site_type_symbol
 _atom_site_label
 _atom_site_symmetry_multiplicity
 _atom_site_fract_x
 _atom_site_fract_y
 _atom_site_fract_z
 _atom_site_occupancy
  Li  Li0  1  0.83772774  0.16709989  0.99944777  1
  Li  Li1  1  0.94599530  0.38415764  0.99900707  1
  Li  Li2  1  0.99876547  0.75072777  0.25122515  1
  Li  Li3  1  0.66577237  0.08148939  0.24967585  1
  Li  Li4  1  0.95234905  0.88804039  0.50147993  1
  Li  Li5  1  0.62399574  0.22220517  0.50111713  1
  Li  Li6  1  0.82814857  0.66717700  0.50177611  1
  Li  Li7  1  0.49940524  0.00140618  0.49816457  1
  Li  Li8  1  0.70827788  0.44381258  0.49925271  1
  Li  Li9  1  0.66569033  0.58347631  0.74976159  1
  Li  Li10  1  0.49580710  0.50091843  0.99966105  1
  Li  Li11  1  0.71544295  0.94681882  0.99975950  1
  Li  Li12  1  0.38733083  0.28209005  0.00147113  1
  Li  Li13  1  0.62012103  0.71893191  0.99899627  1
  Li  Li14  1  0.28140853  0.05113829  0.99985323  1
  Li  Li15  1  0.33282260  0.41707763  0.24905381  1
  Li  Li16  1  0.29212739  0.55480804  0.49886090  1
  Li  Li17  1  0.16769945  0.33385439  0.49938469  1
  Li  Li18  1  0.38342956  0.77889529  0.49804835  1
  Li  Li19  1  0.04182970  0.11065399  0.50000907  1
  Li  Li20  1  0.33389904  0.91701723  0.74941568  1
  Li  Li21  1  0.16589076  0.83441493  0.00029470  1
  Li  Li22  1  0.99699659  0.24847008  0.74994833  1
  Li  Li23  1  0.04947664  0.61323933  0.00105832  1
  Ti  Ti24  1  0.88375226  0.52588645  0.24496709  1
  Ti  Ti25  1  0.44905000  0.13999228  0.75299837  1
  Ti  Ti26  1  0.22305801  0.19295276  0.25313382  1
  Ti  Ti27  1  0.22633999  0.69519079  0.75302243  1
  Ti  Ti28  1  0.10487717  0.47191283  0.74520393  1
  Cr  Cr29  1  0.88573283  0.02561859  0.74697698  1
  Cr  Cr30  1  0.78089075  0.30546267  0.24980746  1
  Cr  Cr31  1  0.78456128  0.80805972  0.75147721  1
  Cr  Cr32  1  0.54926745  0.36000156  0.75050405  1
  Cr  Cr33  1  0.56322909  0.86418944  0.25158567  1
  Cr  Cr34  1  0.43931884  0.64127031  0.24970756  1
  Cr  Cr35  1  0.11177504  0.96976943  0.25049798  1
  O  O36  1  0.00257918  0.06914233  0.13754546  1
  O  O37  1  0.93075088  0.21392451  0.36623891  1
  O  O38  1  0.99983047  0.57137576  0.63478073  1
  O  O39  1  0.85243912  0.35490896  0.63831541  1
  O  O40  1  0.73417896  0.11845769  0.63319430  1
  O  O41  1  0.66169397  0.40441894  0.13605985  1
  O  O42  1  0.93262625  0.71513402  0.86698486  1
  O  O43  1  0.80561947  0.47536271  0.86130802  1
  O  O44  1  0.60309741  0.04734397  0.86574854  1
  O  O45  1  0.86375143  0.85953463  0.13819710  1
  O  O46  1  0.73547428  0.61950280  0.13577967  1
  O  O47  1  0.52979294  0.19064351  0.13871393  1
  O  O48  1  0.67093785  0.26102960  0.86469078  1
  O  O49  1  0.80501001  0.97515024  0.36280540  1
  O  O50  1  0.59484727  0.55048992  0.36443734  1
  O  O51  1  0.48030565  0.31087211  0.36239970  1
  O  O52  1  0.66650062  0.76585715  0.36179780  1
  O  O53  1  0.33225978  0.09406483  0.36343107  1
  O  O54  1  0.66591891  0.90833528  0.63963072  1
  O  O55  1  0.33598116  0.24104348  0.63840631  1
  O  O56  1  0.52768050  0.69258802  0.63820098  1
  O  O57  1  0.40177558  0.45280086  0.63351441  1
  O  O58  1  0.18531166  0.02257880  0.63787218  1
  O  O59  1  0.33469054  0.73584584  0.13946709  1
  O  O60  1  0.48098113  0.81184712  0.86263417  1
  O  O61  1  0.26974959  0.38038501  0.86392975  1
  O  O62  1  0.13980479  0.14136139  0.86254507  1
  O  O63  1  0.40704811  0.94810174  0.13522824  1
  O  O64  1  0.18666364  0.52222844  0.13569218  1
  O  O65  1  0.06529310  0.28535727  0.13559290  1
  O  O66  1  0.33232962  0.59586284  0.86395580  1
  O  O67  1  0.25906816  0.88399301  0.36308877  1
  O  O68  1  0.15189630  0.64443319  0.36305096  1
  O  O69  1  0.99729261  0.42563008  0.36187835  1
  O  O70  1  0.06353280  0.78661785  0.63515817  1
  O  O71  1  0.00102168  0.92554956  0.86112267  1
