# generated using pymatgen
data_Li24Ti5Cr7O36
_symmetry_space_group_name_H-M   'P 1'
_cell_length_a   5.05296717
_cell_length_b   13.40966447
_cell_length_c   9.78743440
_cell_angle_alpha   97.29308317
_cell_angle_beta   94.65953842
_cell_angle_gamma   100.77317416
_symmetry_Int_Tables_number   1
_chemical_formula_structural   Li24Ti5Cr7O36
_chemical_formula_sum   'Li24 Ti5 Cr7 O36'
_cell_volume   642.46332275
_cell_formula_units_Z   1
loop_
 _symmetry_equiv_pos_site_id
 _symmetry_equiv_pos_as_xyz
  1  'x, y, z'
loop_
 _atom_site_type_symbol
 _atom_site_label
 _atom_site_symmetry_multiplicity
 _atom_site_fract_x
 _atom_site_fract_y
 _atom_site_fract_z
 _atom_site_occupancy
  Li  Li0  1  0.82652517  0.16723068  0.00145393  1
  Li  Li1  1  0.94978249  0.38649181  0.00045110  1
  Li  Li2  1  -0.00022216  0.75069353  0.25033167  1
  Li  Li3  1  0.66672792  0.08322640  0.25054721  1
  Li  Li4  1  0.95078118  0.88686907  0.49969157  1
  Li  Li5  1  0.62554085  0.22238236  0.50137176  1
  Li  Li6  1  0.83551318  0.66551586  0.50075344  1
  Li  Li7  1  0.49520450  0.00097420  0.50057641  1
  Li  Li8  1  0.70886087  0.44447081  0.49916881  1
  Li  Li9  1  0.66609002  0.58192225  0.74961291  1
  Li  Li10  1  0.49945424  0.49966890  0.00044759  1
  Li  Li11  1  0.71744444  0.94783721  0.00203325  1
  Li  Li12  1  0.38491541  0.28015523  0.00040500  1
  Li  Li13  1  0.61265224  0.71880060  -0.00012410  1
  Li  Li14  1  0.28598587  0.05323966  0.99821247  1
  Li  Li15  1  0.33362855  0.41714988  0.24958394  1
  Li  Li16  1  0.29063456  0.55557246  0.50022014  1
  Li  Li17  1  0.16487417  0.33392847  0.49804538  1
  Li  Li18  1  0.38057627  0.77836557  0.49929284  1
  Li  Li19  1  0.04815805  0.11212931  0.49897451  1
  Li  Li20  1  0.33587713  0.91707014  0.75036887  1
  Li  Li21  1  0.17137925  0.83280848  0.99839528  1
  Li  Li22  1  0.00049107  0.25032435  0.75029407  1
  Li  Li23  1  0.05040236  0.61418891  0.00019125  1
  Ti  Ti24  1  0.89170449  0.02811912  0.75172610  1
  Ti  Ti25  1  0.88856752  0.52717128  0.24753065  1
  Ti  Ti26  1  0.77831168  0.80625307  0.75315194  1
  Ti  Ti27  1  0.22237662  0.19154548  0.25057867  1
  Ti  Ti28  1  0.10134384  0.47229241  0.74408734  1
  Cr  Cr29  1  0.77899863  0.30644806  0.25037700  1
  Cr  Cr30  1  0.54607456  0.35969087  0.74944473  1
  Cr  Cr31  1  0.45060779  0.14112227  0.75141928  1
  Cr  Cr32  1  0.56054342  0.86526685  0.25182483  1
  Cr  Cr33  1  0.44291117  0.64215494  0.24971573  1
  Cr  Cr34  1  0.22702947  0.69334822  0.74983110  1
  Cr  Cr35  1  0.10951950  0.96855223  0.24951871  1
  O  O36  1  0.99957578  0.06863151  0.13733865  1
  O  O37  1  0.93000924  0.21384703  0.36625982  1
  O  O38  1  0.99342366  0.56988898  0.63483147  1
  O  O39  1  0.85240846  0.35511323  0.63783904  1
  O  O40  1  0.72979631  0.11951150  0.63473397  1
  O  O41  1  0.66354932  0.40375649  0.13639468  1
  O  O42  1  0.93253009  0.71336488  0.86425124  1
  O  O43  1  0.80550264  0.47452477  0.86242657  1
  O  O44  1  0.59926715  0.04774543  0.86688222  1
  O  O45  1  0.86707376  0.85910105  0.13799521  1
  O  O46  1  0.73326494  0.61946578  0.13508145  1
  O  O47  1  0.52537217  0.18937083  0.13690891  1
  O  O48  1  0.66715276  0.25813291  0.86098910  1
  O  O49  1  0.80210534  0.97433585  0.36334297  1
  O  O50  1  0.59599319  0.54986942  0.36466427  1
  O  O51  1  0.48245990  0.30985449  0.36201774  1
  O  O52  1  0.66788196  0.76478495  0.36116630  1
  O  O53  1  0.33174115  0.09298234  0.36251095  1
  O  O54  1  0.66867196  0.90414850  0.63590490  1
  O  O55  1  0.33351811  0.24223124  0.63828905  1
  O  O56  1  0.51496008  0.68850396  0.63767294  1
  O  O57  1  0.40039361  0.45249935  0.63324517  1
  O  O58  1  0.19399535  0.02550361  0.63777014  1
  O  O59  1  0.33595727  0.73852048  0.14051574  1
  O  O60  1  0.48000131  0.81126482  0.86474222  1
  O  O61  1  0.27040421  0.38119084  0.86503591  1
  O  O62  1  0.14773244  0.14509891  0.86181419  1
  O  O63  1  0.40901659  0.94828553  0.13554558  1
  O  O64  1  0.18851968  0.52336590  0.13524533  1
  O  O65  1  0.06270880  0.28479717  0.13558706  1
  O  O66  1  0.33309189  0.59873024  0.86232003  1
  O  O67  1  0.25588018  0.88389663  0.36485449  1
  O  O68  1  0.15081577  0.64436554  0.36263507  1
  O  O69  1  0.00012723  0.42727396  0.36243990  1
  O  O70  1  0.07293610  0.78379456  0.63607000  1
  O  O71  1  0.00289729  0.92926637  0.86517433  1
