# generated using pymatgen
data_Na2SiSnCO7
_symmetry_space_group_name_H-M   'P 1'
_cell_length_a   9.14667248
_cell_length_b   6.71044549
_cell_length_c   5.30787162
_cell_angle_alpha   90.00000000
_cell_angle_beta   89.25549250
_cell_angle_gamma   90.00000000
_symmetry_Int_Tables_number   1
_chemical_formula_structural   Na2SiSnCO7
_chemical_formula_sum   'Na4 Si2 Sn2 C2 O14'
_cell_volume   325.76035183
_cell_formula_units_Z   2
loop_
 _symmetry_equiv_pos_site_id
 _symmetry_equiv_pos_as_xyz
  1  'x, y, z'
loop_
 _atom_site_type_symbol
 _atom_site_label
 _atom_site_symmetry_multiplicity
 _atom_site_fract_x
 _atom_site_fract_y
 _atom_site_fract_z
 _atom_site_occupancy
  Na  Na0  1  0.22512392  0.00591772  0.23581969  1
  Na  Na1  1  0.22512392  0.49408228  0.23581969  1
  Na  Na2  1  0.77487608  0.50591772  0.76418031  1
  Na  Na3  1  0.77487608  0.99408228  0.76418031  1
  Si  Si4  1  0.42432486  0.25000000  0.71031194  1
  Si  Si5  1  0.57567514  0.75000000  0.28968806  1
  Sn  Sn6  1  0.35700031  0.75000000  0.78876796  1
  Sn  Sn7  1  0.64299969  0.25000000  0.21123204  1
  C  C8  1  0.07218606  0.75000000  0.72958083  1
  C  C9  1  0.92781394  0.25000000  0.27041917  1
  O  O10  1  0.06263168  0.25000000  0.30586303  1
  O  O11  1  0.13264912  0.75000000  0.95344839  1
  O  O12  1  0.16970944  0.75000000  0.53899088  1
  O  O13  1  0.33010394  0.05361425  0.79650568  1
  O  O14  1  0.33010394  0.44638575  0.79650568  1
  O  O15  1  0.41138173  0.75000000  0.16379738  1
  O  O16  1  0.44692163  0.25000000  0.39807608  1
  O  O17  1  0.55307837  0.75000000  0.60192392  1
  O  O18  1  0.58861827  0.25000000  0.83620262  1
  O  O19  1  0.66989606  0.55361425  0.20349432  1
  O  O20  1  0.66989606  0.94638575  0.20349432  1
  O  O21  1  0.83029056  0.25000000  0.46100912  1
  O  O22  1  0.86735088  0.25000000  0.04655261  1
  O  O23  1  0.93736832  0.75000000  0.69413697  1
