# generated using pymatgen
data_Ho2WO6
_symmetry_space_group_name_H-M   'P 1'
_cell_length_a   8.66671995
_cell_length_b   20.99922537
_cell_length_c   5.27286951
_cell_angle_alpha   90.00000000
_cell_angle_beta   90.00000000
_cell_angle_gamma   90.00000000
_symmetry_Int_Tables_number   1
_chemical_formula_structural   Ho2WO6
_chemical_formula_sum   'Ho16 W8 O48'
_cell_volume   959.63275148
_cell_formula_units_Z   8
loop_
 _symmetry_equiv_pos_site_id
 _symmetry_equiv_pos_as_xyz
  1  'x, y, z'
loop_
 _atom_site_type_symbol
 _atom_site_label
 _atom_site_symmetry_multiplicity
 _atom_site_fract_x
 _atom_site_fract_y
 _atom_site_fract_z
 _atom_site_occupancy
  Ho  Ho0  1  0.08800507  0.43516407  0.45928262  1
  Ho  Ho1  1  0.10500415  0.66575832  0.41195743  1
  Ho  Ho2  1  0.24510245  0.93170786  0.53624813  1
  Ho  Ho3  1  0.24465806  0.19973946  0.48966931  1
  Ho  Ho4  1  0.25534194  0.80026054  0.98966931  1
  Ho  Ho5  1  0.25489755  0.06829214  0.03624913  1
  Ho  Ho6  1  0.39499585  0.33424168  0.91195743  1
  Ho  Ho7  1  0.41199493  0.56483593  0.95928262  1
  Ho  Ho8  1  0.58800507  0.06483593  0.54071738  1
  Ho  Ho9  1  0.60500415  0.83424168  0.58804257  1
  Ho  Ho10  1  0.74510245  0.56829214  0.46375087  1
  Ho  Ho11  1  0.74465806  0.30026054  0.51033069  1
  Ho  Ho12  1  0.75534194  0.69973946  0.01033069  1
  Ho  Ho13  1  0.75489755  0.43170786  0.96375187  1
  Ho  Ho14  1  0.89499585  0.16575832  0.08804257  1
  Ho  Ho15  1  0.91199493  0.93516407  0.04071738  1
  W  W16  1  0.01691173  0.55669294  0.93579664  1
  W  W17  1  0.02197354  0.31191816  0.98702395  1
  W  W18  1  0.47802646  0.68808184  0.48702395  1
  W  W19  1  0.48308827  0.44330706  0.43579664  1
  W  W20  1  0.51691173  0.94330706  0.06420336  1
  W  W21  1  0.52197354  0.18808184  0.01297605  1
  W  W22  1  0.97802646  0.81191816  0.51297605  1
  W  W23  1  0.98308827  0.05669294  0.56420336  1
  O  O24  1  0.03035665  0.24806452  0.25430376  1
  O  O25  1  0.04724450  0.12206553  0.79669899  1
  O  O26  1  0.05349015  0.87329145  0.77084526  1
  O  O27  1  0.04765684  0.99690603  0.30690925  1
  O  O28  1  0.11083028  0.11957927  0.32050198  1
  O  O29  1  0.12415451  0.00272747  0.78170427  1
  O  O30  1  0.12765682  0.85921600  0.28675464  1
  O  O31  1  0.12560476  0.75416734  0.67875309  1
  O  O32  1  0.17502898  0.36801890  0.12623220  1
  O  O33  1  0.18343245  0.59847641  0.10842356  1
  O  O34  1  0.17457341  0.51483703  0.75944075  1
  O  O35  1  0.18257199  0.27821671  0.77077159  1
  O  O36  1  0.31742801  0.72178329  0.27077159  1
  O  O37  1  0.32542659  0.48516297  0.25944075  1
  O  O38  1  0.31656755  0.40152359  0.60842356  1
  O  O39  1  0.32497102  0.63198110  0.62623220  1
  O  O40  1  0.37439524  0.24583266  0.17875309  1
  O  O41  1  0.37234318  0.14078400  0.78675464  1
  O  O42  1  0.37584549  0.99727253  0.28170427  1
  O  O43  1  0.38916972  0.88042073  0.82050198  1
  O  O44  1  0.45234316  0.00309397  0.80690925  1
  O  O45  1  0.44650985  0.12670855  0.27084526  1
  O  O46  1  0.45275550  0.87793447  0.29669899  1
  O  O47  1  0.46964335  0.75193548  0.75430376  1
  O  O48  1  0.53035665  0.25193548  0.74569624  1
  O  O49  1  0.54724450  0.37793447  0.20330101  1
  O  O50  1  0.55349015  0.62670855  0.22915474  1
  O  O51  1  0.54765684  0.50309397  0.69309075  1
  O  O52  1  0.61083028  0.38042073  0.67949802  1
  O  O53  1  0.62415451  0.49727253  0.21829573  1
  O  O54  1  0.62765682  0.64078400  0.71324536  1
  O  O55  1  0.62560476  0.74583266  0.32124691  1
  O  O56  1  0.67502898  0.13198110  0.87376780  1
  O  O57  1  0.68343245  0.90152359  0.89157644  1
  O  O58  1  0.67457341  0.98516297  0.24055925  1
  O  O59  1  0.68257199  0.22178329  0.22922841  1
  O  O60  1  0.81742801  0.77821671  0.72922841  1
  O  O61  1  0.82542659  0.01483703  0.74055925  1
  O  O62  1  0.81656755  0.09847641  0.39157644  1
  O  O63  1  0.82497102  0.86801890  0.37376780  1
  O  O64  1  0.87439524  0.25416734  0.82124691  1
  O  O65  1  0.87234318  0.35921600  0.21324536  1
  O  O66  1  0.87584549  0.50272747  0.71829573  1
  O  O67  1  0.88916972  0.61957927  0.17949802  1
  O  O68  1  0.95234316  0.49690603  0.19309075  1
  O  O69  1  0.94650985  0.37329145  0.72915474  1
  O  O70  1  0.95275550  0.62206553  0.70330101  1
  O  O71  1  0.96964335  0.74806452  0.24569624  1
