# generated using pymatgen
data_Li2Ti3VO8
_symmetry_space_group_name_H-M   'P 1'
_cell_length_a   6.00233425
_cell_length_b   6.00233467
_cell_length_c   6.00233481
_cell_angle_alpha   59.96207813
_cell_angle_beta   59.96207841
_cell_angle_gamma   59.96207402
_symmetry_Int_Tables_number   1
_chemical_formula_structural   Li2Ti3VO8
_chemical_formula_sum   'Li2 Ti3 V1 O8'
_cell_volume   152.78191172
_cell_formula_units_Z   1
loop_
 _symmetry_equiv_pos_site_id
 _symmetry_equiv_pos_as_xyz
  1  'x, y, z'
loop_
 _atom_site_type_symbol
 _atom_site_label
 _atom_site_symmetry_multiplicity
 _atom_site_fract_x
 _atom_site_fract_y
 _atom_site_fract_z
 _atom_site_occupancy
  Li  Li0  1  0.12217467  0.12217467  0.12217467  1
  Li  Li1  1  0.87782533  0.87782533  0.87782533  1
  Ti  Ti2  1  0.00000000  0.50000000  0.50000000  1
  Ti  Ti3  1  0.50000000  0.00000000  0.50000000  1
  Ti  Ti4  1  0.50000000  0.50000000  0.00000000  1
  V  V5  1  0.50000000  0.50000000  0.50000000  1
  O  O6  1  0.26189845  0.26189845  0.26189845  1
  O  O7  1  0.25414231  0.25414231  0.71236768  1
  O  O8  1  0.25414231  0.71236768  0.25414231  1
  O  O9  1  0.71236768  0.25414231  0.25414231  1
  O  O10  1  0.28763232  0.74585769  0.74585769  1
  O  O11  1  0.74585769  0.28763232  0.74585769  1
  O  O12  1  0.74585769  0.74585769  0.28763232  1
  O  O13  1  0.73810155  0.73810155  0.73810155  1
