# generated using pymatgen
data_Ce2Ga10Ni
_symmetry_space_group_name_H-M   'P 1'
_cell_length_a   4.34033289
_cell_length_b   4.34033289
_cell_length_c   13.46279536
_cell_angle_alpha   99.27639941
_cell_angle_beta   99.27639942
_cell_angle_gamma   90.00000006
_symmetry_Int_Tables_number   1
_chemical_formula_structural   Ce2Ga10Ni
_chemical_formula_sum   'Ce2 Ga10 Ni1'
_cell_volume   246.94063479
_cell_formula_units_Z   1
loop_
 _symmetry_equiv_pos_site_id
 _symmetry_equiv_pos_as_xyz
  1  'x, y, z'
loop_
 _atom_site_type_symbol
 _atom_site_label
 _atom_site_symmetry_multiplicity
 _atom_site_fract_x
 _atom_site_fract_y
 _atom_site_fract_z
 _atom_site_occupancy
  Ni  Ni0  1  0.50000000  0.50000000  0.00000000  1
  Ga  Ga1  1  0.80388517  0.80388517  0.60777034  1
  Ga  Ga2  1  0.75000000  0.25000000  0.50000000  1
  Ga  Ga3  1  0.25000000  0.75000000  0.50000000  1
  Ga  Ga4  1  0.95081901  0.45081901  0.90163803  1
  Ga  Ga5  1  0.45081901  0.95081901  0.90163803  1
  Ga  Ga6  1  0.04918099  0.54918099  0.09836197  1
  Ga  Ga7  1  0.54918099  0.04918099  0.09836197  1
  Ga  Ga8  1  0.10423599  0.10423599  0.20847198  1
  Ga  Ga9  1  0.89576401  0.89576401  0.79152802  1
  Ga  Ga10  1  0.19611483  0.19611483  0.39222966  1
  Ce  Ce11  1  0.64219788  0.64219788  0.28439575  1
  Ce  Ce12  1  0.35780212  0.35780212  0.71560425  1
