# generated using pymatgen
data_YbH2ClO2
_symmetry_space_group_name_H-M   'P 1'
_cell_length_a   6.10021766
_cell_length_b   3.63324203
_cell_length_c   6.69874503
_cell_angle_alpha   90.00000000
_cell_angle_beta   105.62477438
_cell_angle_gamma   90.00000000
_symmetry_Int_Tables_number   1
_chemical_formula_structural   YbH2ClO2
_chemical_formula_sum   'Yb2 H4 Cl2 O4'
_cell_volume   142.98162521
_cell_formula_units_Z   2
loop_
 _symmetry_equiv_pos_site_id
 _symmetry_equiv_pos_as_xyz
  1  'x, y, z'
loop_
 _atom_site_type_symbol
 _atom_site_label
 _atom_site_symmetry_multiplicity
 _atom_site_fract_x
 _atom_site_fract_y
 _atom_site_fract_z
 _atom_site_occupancy
  Yb  Yb0  1  0.28579499  0.25000100  0.10237544  1
  Yb  Yb1  1  0.71420601  0.75000100  0.89762556  1
  H  H2  1  0.87408714  0.25000100  0.24581804  1
  H  H3  1  0.64589125  0.75000100  0.31850742  1
  H  H4  1  0.35410975  0.25000100  0.68149158  1
  H  H5  1  0.12591186  0.75000100  0.75418096  1
  Cl  Cl6  1  0.22260868  0.75000100  0.42566291  1
  Cl  Cl7  1  0.77738932  0.25000100  0.57433609  1
  O  O8  1  0.89241145  0.25000100  0.10406697  1
  O  O9  1  0.55344145  0.75000100  0.17360062  1
  O  O10  1  0.44655855  0.25000100  0.82639938  1
  O  O11  1  0.10758755  0.75000100  0.89593203  1
