# generated using pymatgen
data_K2TmPCO7
_symmetry_space_group_name_H-M   'P 1'
_cell_length_a   9.95060342
_cell_length_b   7.07282021
_cell_length_c   5.82182581
_cell_angle_alpha   90.00000000
_cell_angle_beta   91.78356735
_cell_angle_gamma   90.00000000
_symmetry_Int_Tables_number   1
_chemical_formula_structural   K2TmPCO7
_chemical_formula_sum   'K4 Tm2 P2 C2 O14'
_cell_volume   409.53477849
_cell_formula_units_Z   2
loop_
 _symmetry_equiv_pos_site_id
 _symmetry_equiv_pos_as_xyz
  1  'x, y, z'
loop_
 _atom_site_type_symbol
 _atom_site_label
 _atom_site_symmetry_multiplicity
 _atom_site_fract_x
 _atom_site_fract_y
 _atom_site_fract_z
 _atom_site_occupancy
  K  K0  1  0.22425060  0.48715686  0.24717146  1
  K  K1  1  0.22425060  0.01284314  0.24717146  1
  K  K2  1  0.77574940  0.51284314  0.75282854  1
  K  K3  1  0.77574940  0.98715686  0.75282854  1
  Tm  Tm4  1  0.36586219  0.75000000  0.77909742  1
  Tm  Tm5  1  0.63413781  0.25000000  0.22090258  1
  P  P6  1  0.43149286  0.25000000  0.71236964  1
  P  P7  1  0.56850714  0.75000000  0.28763036  1
  C  C8  1  0.09441701  0.75000000  0.72887899  1
  C  C9  1  0.90558299  0.25000000  0.27112101  1
  O  O10  1  0.03138610  0.25000000  0.30168994  1
  O  O11  1  0.15525704  0.75000000  0.93348302  1
  O  O12  1  0.17812187  0.75000000  0.55507237  1
  O  O13  1  0.35131620  0.06832919  0.76642121  1
  O  O14  1  0.35131620  0.43167081  0.76642121  1
  O  O15  1  0.43364797  0.75000000  0.14108995  1
  O  O16  1  0.46500004  0.25000000  0.45129435  1
  O  O17  1  0.53499996  0.75000000  0.54870565  1
  O  O18  1  0.56635203  0.25000000  0.85891005  1
  O  O19  1  0.64868380  0.56832919  0.23357879  1
  O  O20  1  0.64868380  0.93167081  0.23357879  1
  O  O21  1  0.82187813  0.25000000  0.44492763  1
  O  O22  1  0.84474296  0.25000000  0.06651698  1
  O  O23  1  0.96861390  0.75000000  0.69831006  1
