# generated using pymatgen
data_Ho2(WO4)3
_symmetry_space_group_name_H-M   'P 1'
_cell_length_a   10.13067358
_cell_length_b   10.24516382
_cell_length_c   14.11365168
_cell_angle_alpha   90.00000000
_cell_angle_beta   90.33778460
_cell_angle_gamma   90.00000000
_symmetry_Int_Tables_number   1
_chemical_formula_structural   Ho2(WO4)3
_chemical_formula_sum   'Ho8 W12 O48'
_cell_volume   1464.83624373
_cell_formula_units_Z   4
loop_
 _symmetry_equiv_pos_site_id
 _symmetry_equiv_pos_as_xyz
  1  'x, y, z'
loop_
 _atom_site_type_symbol
 _atom_site_label
 _atom_site_symmetry_multiplicity
 _atom_site_fract_x
 _atom_site_fract_y
 _atom_site_fract_z
 _atom_site_occupancy
  Ho  Ho0  1  0.24776655  0.97072385  0.88187106  1
  Ho  Ho1  1  0.24427036  0.03358448  0.38198388  1
  Ho  Ho2  1  0.25572964  0.53358448  0.11801612  1
  Ho  Ho3  1  0.25223345  0.47072385  0.61812894  1
  Ho  Ho4  1  0.74776655  0.52927615  0.38187106  1
  Ho  Ho5  1  0.74427036  0.46641552  0.88198388  1
  Ho  Ho6  1  0.75572964  0.96641552  0.61801612  1
  Ho  Ho7  1  0.75223345  0.02927615  0.11812894  1
  W  W8  1  0.02595527  0.74878938  0.50010511  1
  W  W9  1  0.10371758  0.61933390  0.85660326  1
  W  W10  1  0.10749100  0.88004725  0.14285217  1
  W  W11  1  0.39250900  0.38004725  0.35714783  1
  W  W12  1  0.39628242  0.11933390  0.64339674  1
  W  W13  1  0.47404473  0.24878938  0.99989489  1
  W  W14  1  0.52595527  0.75121062  0.00010511  1
  W  W15  1  0.60371758  0.88066610  0.35660326  1
  W  W16  1  0.60749100  0.61995275  0.64285217  1
  W  W17  1  0.89250900  0.11995275  0.85714783  1
  W  W18  1  0.89628242  0.38066610  0.14339674  1
  W  W19  1  0.97404473  0.25121062  0.49989489  1
  O  O20  1  0.06995580  0.09865061  0.86795265  1
  O  O21  1  0.07775651  0.34404804  0.58089814  1
  O  O22  1  0.07676569  0.17498877  0.41069189  1
  O  O23  1  0.07298812  0.41059184  0.13699047  1
  O  O24  1  0.11348393  0.87367878  0.43449484  1
  O  O25  1  0.13303272  0.79182704  0.83442615  1
  O  O26  1  0.14292137  0.70952589  0.16671729  1
  O  O27  1  0.14409619  0.64142394  0.55730619  1
  O  O28  1  0.17045414  0.98190846  0.23812281  1
  O  O29  1  0.17644552  0.52076950  0.76299994  1
  O  O30  1  0.18054096  0.57722478  0.96884111  1
  O  O31  1  0.18485569  0.92744525  0.03273346  1
  O  O32  1  0.31514431  0.42744525  0.46726654  1
  O  O33  1  0.31945904  0.07722478  0.53115889  1
  O  O34  1  0.32355448  0.02076950  0.73700006  1
  O  O35  1  0.32954586  0.48190846  0.26187719  1
  O  O36  1  0.35590381  0.14142394  0.94269381  1
  O  O37  1  0.35707863  0.20952589  0.33328271  1
  O  O38  1  0.36696728  0.29182704  0.66557385  1
  O  O39  1  0.38651607  0.37367878  0.06550516  1
  O  O40  1  0.42224349  0.84404804  0.91910186  1
  O  O41  1  0.42701188  0.91059184  0.36300953  1
  O  O42  1  0.42323431  0.67498877  0.08930811  1
  O  O43  1  0.43004420  0.59865061  0.63204735  1
  O  O44  1  0.56995580  0.40134939  0.36795265  1
  O  O45  1  0.57676569  0.32501123  0.91069189  1
  O  O46  1  0.57298812  0.08940816  0.63699047  1
  O  O47  1  0.57775651  0.15595196  0.08089814  1
  O  O48  1  0.61348393  0.62632122  0.93449484  1
  O  O49  1  0.63303272  0.70817296  0.33442615  1
  O  O50  1  0.64292137  0.79047411  0.66671729  1
  O  O51  1  0.64409619  0.85857606  0.05730619  1
  O  O52  1  0.67045414  0.51809154  0.73812281  1
  O  O53  1  0.67644552  0.97923050  0.26299994  1
  O  O54  1  0.68054096  0.92277522  0.46884111  1
  O  O55  1  0.68485569  0.57255475  0.53273346  1
  O  O56  1  0.81514431  0.07255475  0.96726654  1
  O  O57  1  0.81945904  0.42277522  0.03115889  1
  O  O58  1  0.82355448  0.47923050  0.23700006  1
  O  O59  1  0.82954586  0.01809154  0.76187719  1
  O  O60  1  0.85590381  0.35857606  0.44269381  1
  O  O61  1  0.85707863  0.29047411  0.83328271  1
  O  O62  1  0.86696728  0.20817296  0.16557385  1
  O  O63  1  0.88651607  0.12632122  0.56550516  1
  O  O64  1  0.92701188  0.58940816  0.86300953  1
  O  O65  1  0.92323431  0.82501123  0.58930811  1
  O  O66  1  0.92224349  0.65595196  0.41910186  1
  O  O67  1  0.93004420  0.90134939  0.13204735  1
