# generated using pymatgen
data_Na4Sn4H10O11
_symmetry_space_group_name_H-M   'P 1'
_cell_length_a   14.83406115
_cell_length_b   8.75832576
_cell_length_c   12.81091620
_cell_angle_alpha   90.00000000
_cell_angle_beta   102.37904199
_cell_angle_gamma   90.00000000
_symmetry_Int_Tables_number   1
_chemical_formula_structural   Na4Sn4H10O11
_chemical_formula_sum   'Na16 Sn16 H40 O44'
_cell_volume   1625.71760098
_cell_formula_units_Z   4
loop_
 _symmetry_equiv_pos_site_id
 _symmetry_equiv_pos_as_xyz
  1  'x, y, z'
loop_
 _atom_site_type_symbol
 _atom_site_label
 _atom_site_symmetry_multiplicity
 _atom_site_fract_x
 _atom_site_fract_y
 _atom_site_fract_z
 _atom_site_occupancy
  Na  Na0  1  0.00894211  0.14632307  0.59542321  1
  Na  Na1  1  0.05836952  0.40069546  0.40264009  1
  Na  Na2  1  0.15855366  0.68833575  0.24195927  1
  Na  Na3  1  0.20972102  0.09089593  0.42680792  1
  Na  Na4  1  0.29027898  0.59089593  0.07319208  1
  Na  Na5  1  0.49105789  0.64632307  0.90457679  1
  Na  Na6  1  0.34144634  0.18833575  0.25804073  1
  Na  Na7  1  0.55836952  0.09930454  0.90264009  1
  Na  Na8  1  0.44163048  0.90069546  0.09735991  1
  Na  Na9  1  0.65855366  0.81166425  0.74195927  1
  Na  Na10  1  0.50894211  0.35367693  0.09542321  1
  Na  Na11  1  0.70972102  0.40910407  0.92680792  1
  Na  Na12  1  0.79027898  0.90910407  0.57319208  1
  Na  Na13  1  0.84144634  0.31166425  0.75804073  1
  Na  Na14  1  0.94163048  0.59930454  0.59735991  1
  Na  Na15  1  0.99105789  0.85367693  0.40457679  1
  Sn  Sn16  1  0.07027471  0.40186298  0.79476427  1
  Sn  Sn17  1  0.18156871  0.92443483  0.96624105  1
  Sn  Sn18  1  0.15534782  0.82156346  0.64096183  1
  Sn  Sn19  1  0.08612219  0.31217496  0.13043004  1
  Sn  Sn20  1  0.34465218  0.32156346  0.85903817  1
  Sn  Sn21  1  0.31843129  0.42443483  0.53375895  1
  Sn  Sn22  1  0.42972529  0.90186298  0.70523573  1
  Sn  Sn23  1  0.41387781  0.81217496  0.36956996  1
  Sn  Sn24  1  0.58612219  0.18782504  0.63043004  1
  Sn  Sn25  1  0.57027471  0.09813702  0.29476427  1
  Sn  Sn26  1  0.68156871  0.57556517  0.46624105  1
  Sn  Sn27  1  0.65534782  0.67843654  0.14096183  1
  Sn  Sn28  1  0.91387781  0.68782504  0.86956996  1
  Sn  Sn29  1  0.84465218  0.17843654  0.35903817  1
  Sn  Sn30  1  0.81843129  0.07556517  0.03375895  1
  Sn  Sn31  1  0.92972529  0.59813702  0.20523573  1
  H  H32  1  0.02069571  0.13576746  0.34095146  1
  H  H33  1  0.11131625  0.40490016  0.60087478  1
  H  H34  1  0.97834004  0.87711417  0.17410567  1
  H  H35  1  0.18725237  0.23433010  0.57191745  1
  H  H36  1  0.23489998  0.08096482  0.68618502  1
  H  H37  1  0.09148194  0.70517375  0.03320966  1
  H  H38  1  0.11232615  0.05353390  0.22979828  1
  H  H39  1  0.26510002  0.58096482  0.81381498  1
  H  H40  1  0.18033079  0.70924923  0.45946318  1
  H  H41  1  0.31274763  0.73433010  0.92808255  1
  H  H42  1  0.24568629  0.85346977  0.38311337  1
  H  H43  1  0.25476366  0.97761326  0.16247292  1
  H  H44  1  0.38868375  0.90490016  0.89912522  1
  H  H45  1  0.24523634  0.47761326  0.33752708  1
  H  H46  1  0.25431371  0.35346977  0.11688663  1
  H  H47  1  0.31966921  0.20924923  0.04053682  1
  H  H48  1  0.38767385  0.55353390  0.27020172  1
  H  H49  1  0.40851806  0.20517375  0.46679034  1
  H  H50  1  0.52069571  0.36423254  0.84095146  1
  H  H51  1  0.47834004  0.62288583  0.67410567  1
  H  H52  1  0.52165996  0.37711417  0.32589433  1
  H  H53  1  0.47930429  0.63576746  0.15904854  1
  H  H54  1  0.59148194  0.79482625  0.53320966  1
  H  H55  1  0.61232615  0.44646610  0.72979828  1
  H  H56  1  0.68033079  0.79075077  0.95946318  1
  H  H57  1  0.74568629  0.64653023  0.88311337  1
  H  H58  1  0.75476366  0.52238674  0.66247292  1
  H  H59  1  0.61131625  0.09509984  0.10087478  1
  H  H60  1  0.74523634  0.02238674  0.83752708  1
  H  H61  1  0.75431371  0.14653023  0.61688663  1
  H  H62  1  0.68725237  0.26566990  0.07191745  1
  H  H63  1  0.81966921  0.29075077  0.54053682  1
  H  H64  1  0.73489998  0.41903518  0.18618502  1
  H  H65  1  0.88767385  0.94646610  0.77020172  1
  H  H66  1  0.90851806  0.29482625  0.96679034  1
  H  H67  1  0.76510002  0.91903518  0.31381498  1
  H  H68  1  0.81274763  0.76566990  0.42808255  1
  H  H69  1  0.02165996  0.12288583  0.82589433  1
  H  H70  1  0.88868375  0.59509984  0.39912522  1
  H  H71  1  0.97930429  0.86423254  0.65904854  1
  O  O72  1  0.99130631  0.19500886  0.77154662  1
  O  O73  1  0.01122068  0.86182121  0.59756782  1
  O  O74  1  0.05289470  0.41606224  0.62582118  1
  O  O75  1  0.05276685  0.47893849  0.22839051  1
  O  O76  1  0.17974368  0.06128921  0.63121317  1
  O  O77  1  0.10453111  0.15305791  0.26145033  1
  O  O78  1  0.15597244  0.80889955  0.47519786  1
  O  O79  1  0.18745671  0.32539850  0.52517155  1
  O  O80  1  0.31254329  0.82539850  0.97482845  1
  O  O81  1  0.15548226  0.73661783  0.05968021  1
  O  O82  1  0.32025632  0.56128921  0.86878683  1
  O  O83  1  0.25432335  0.55012905  0.39744122  1
  O  O84  1  0.22379278  0.39855177  0.17067686  1
  O  O85  1  0.27620722  0.89855177  0.32932314  1
  O  O86  1  0.24567665  0.05012905  0.10255878  1
  O  O87  1  0.34451774  0.23661783  0.44031979  1
  O  O88  1  0.44710530  0.91606224  0.87417882  1
  O  O89  1  0.48877932  0.36182121  0.90243218  1
  O  O90  1  0.50869369  0.69500886  0.72845338  1
  O  O91  1  0.34402756  0.30889955  0.02480214  1
  O  O92  1  0.39546889  0.65305791  0.23854967  1
  O  O93  1  0.55276685  0.02106151  0.72839051  1
  O  O94  1  0.44723315  0.97893849  0.27160949  1
  O  O95  1  0.60453111  0.34694209  0.76145033  1
  O  O96  1  0.65597244  0.69110045  0.97519786  1
  O  O97  1  0.49130631  0.30499114  0.27154662  1
  O  O98  1  0.51122068  0.63817879  0.09756782  1
  O  O99  1  0.55289470  0.08393776  0.12582118  1
  O  O100  1  0.65548226  0.76338217  0.55968021  1
  O  O101  1  0.75432335  0.94987095  0.89744122  1
  O  O102  1  0.72379278  0.10144823  0.67067686  1
  O  O103  1  0.77620722  0.60144823  0.82932314  1
  O  O104  1  0.74567665  0.44987095  0.60255878  1
  O  O105  1  0.67974368  0.43871079  0.13121317  1
  O  O106  1  0.84451774  0.26338217  0.94031979  1
  O  O107  1  0.68745671  0.17460150  0.02517155  1
  O  O108  1  0.81254329  0.67460150  0.47482845  1
  O  O109  1  0.84402756  0.19110045  0.52480214  1
  O  O110  1  0.89546889  0.84694209  0.73854967  1
  O  O111  1  0.82025632  0.93871079  0.36878683  1
  O  O112  1  0.94723315  0.52106151  0.77160949  1
  O  O113  1  0.94710530  0.58393776  0.37417882  1
  O  O114  1  0.98877932  0.13817879  0.40243218  1
  O  O115  1  0.00869369  0.80499114  0.22845338  1
