# generated using pymatgen
data_ErInO3
_symmetry_space_group_name_H-M   'P 1'
_cell_length_a   6.32577922
_cell_length_b   6.32558730
_cell_length_c   12.27734869
_cell_angle_alpha   89.99977579
_cell_angle_beta   90.00052782
_cell_angle_gamma   120.00136310
_symmetry_Int_Tables_number   1
_chemical_formula_structural   ErInO3
_chemical_formula_sum   'Er6 In6 O18'
_cell_volume   425.44570225
_cell_formula_units_Z   6
loop_
 _symmetry_equiv_pos_site_id
 _symmetry_equiv_pos_as_xyz
  1  'x, y, z'
loop_
 _atom_site_type_symbol
 _atom_site_label
 _atom_site_symmetry_multiplicity
 _atom_site_fract_x
 _atom_site_fract_y
 _atom_site_fract_z
 _atom_site_occupancy
  Er  Er0  1  0.33334115  0.66668926  0.23012691  1
  Er  Er1  1  0.00000991  0.00002215  0.26472390  1
  Er  Er2  1  0.99997777  0.99998987  0.76471992  1
  Er  Er3  1  0.33331115  0.66665757  0.73015450  1
  Er  Er4  1  0.66664610  0.33330945  0.73012895  1
  Er  Er5  1  0.66668026  0.33334902  0.23015177  1
  In  In6  1  0.99987000  0.66627426  0.49590987  1
  In  In7  1  0.00012250  0.33371031  0.99590234  1
  In  In8  1  0.33372682  0.33380044  0.49592684  1
  In  In9  1  0.66626693  0.66621695  0.99591687  1
  In  In10  1  0.33374579  0.00018424  0.99591297  1
  In  In11  1  0.66624309  0.99981715  0.49592392  1
  O  O12  1  0.99999053  0.69504285  0.66915198  1
  O  O13  1  0.00000807  0.63623925  0.32460935  1
  O  O14  1  0.99998466  0.36375470  0.82461572  1
  O  O15  1  0.99998379  0.30494699  0.16915635  1
  O  O16  1  0.33336231  0.66672416  0.02821892  1
  O  O17  1  0.00000950  -0.00000393  0.46082985  1
  O  O18  1  -0.00001341  0.00000401  0.96082195  1
  O  O19  1  0.33328106  0.66664549  0.52822074  1
  O  O20  1  0.30492273  0.30493094  0.66914837  1
  O  O21  1  0.36374789  0.36377474  0.32460157  1
  O  O22  1  0.30494806  0.00002411  0.16915437  1
  O  O23  1  0.63621911  0.63621403  0.82460656  1
  O  O24  1  0.69506167  0.69507181  0.16915158  1
  O  O25  1  0.36374415  -0.00000699  0.82460883  1
  O  O26  1  0.66662202  0.33327430  0.52821059  1
  O  O27  1  0.66670187  0.33335015  0.02823130  1
  O  O28  1  0.63625126  0.00001323  0.32460337  1
  O  O29  1  0.69503326  0.99997750  0.66914983  1
