# generated using pymatgen
data_Li2Ti3NiO8
_symmetry_space_group_name_H-M   'P 1'
_cell_length_a   5.96979046
_cell_length_b   5.96978971
_cell_length_c   5.96979006
_cell_angle_alpha   59.91615561
_cell_angle_beta   59.91615961
_cell_angle_gamma   59.91615909
_symmetry_Int_Tables_number   1
_chemical_formula_structural   Li2Ti3NiO8
_chemical_formula_sum   'Li2 Ti3 Ni1 O8'
_cell_volume   150.15348183
_cell_formula_units_Z   1
loop_
 _symmetry_equiv_pos_site_id
 _symmetry_equiv_pos_as_xyz
  1  'x, y, z'
loop_
 _atom_site_type_symbol
 _atom_site_label
 _atom_site_symmetry_multiplicity
 _atom_site_fract_x
 _atom_site_fract_y
 _atom_site_fract_z
 _atom_site_occupancy
  Li  Li0  1  0.12103445  0.12103445  0.12103445  1
  Li  Li1  1  0.87896555  0.87896555  0.87896555  1
  Ti  Ti2  1  0.00000000  0.50000000  0.50000000  1
  Ti  Ti3  1  0.50000000  0.00000000  0.50000000  1
  Ti  Ti4  1  0.50000000  0.50000000  0.00000000  1
  Ni  Ni5  1  0.50000000  0.50000000  0.50000000  1
  O  O6  1  0.26049658  0.26049658  0.26049658  1
  O  O7  1  0.25384087  0.25384087  0.71104852  1
  O  O8  1  0.25384087  0.71104852  0.25384087  1
  O  O9  1  0.71104852  0.25384087  0.25384087  1
  O  O10  1  0.28895148  0.74615913  0.74615913  1
  O  O11  1  0.74615913  0.28895148  0.74615913  1
  O  O12  1  0.74615913  0.74615913  0.28895148  1
  O  O13  1  0.73950342  0.73950342  0.73950342  1
