# generated using pymatgen
data_NbFe5(PO4)6
_symmetry_space_group_name_H-M   'P 1'
_cell_length_a   8.58612693
_cell_length_b   8.71774989
_cell_length_c   8.71774971
_cell_angle_alpha   60.00000083
_cell_angle_beta   59.49158851
_cell_angle_gamma   59.49158864
_symmetry_Int_Tables_number   1
_chemical_formula_structural   NbFe5(PO4)6
_chemical_formula_sum   'Nb1 Fe5 P6 O24'
_cell_volume   457.83671456
_cell_formula_units_Z   1
loop_
 _symmetry_equiv_pos_site_id
 _symmetry_equiv_pos_as_xyz
  1  'x, y, z'
loop_
 _atom_site_type_symbol
 _atom_site_label
 _atom_site_symmetry_multiplicity
 _atom_site_fract_x
 _atom_site_fract_y
 _atom_site_fract_z
 _atom_site_occupancy
  Nb  Nb0  1  0.57350481  0.14216506  0.14216506  1
  Fe  Fe1  1  0.01330620  0.99556493  0.99556493  1
  Fe  Fe2  1  0.07047002  0.64317699  0.64317699  1
  Fe  Fe3  1  0.50226432  0.49924523  0.49924523  1
  Fe  Fe4  1  0.43612668  0.85462411  0.85462411  1
  Fe  Fe5  1  0.92843022  0.35718959  0.35718959  1
  P  P6  1  0.24268114  0.25322385  0.54928654  1
  P  P7  1  0.24268114  0.95480846  0.25322385  1
  P  P8  1  0.24268114  0.54928654  0.95480846  1
  P  P9  1  0.75067615  0.46167278  0.04327183  1
  P  P10  1  0.75067615  0.04327183  0.74437823  1
  P  P11  1  0.75067615  0.74437823  0.46167278  1
  O  O12  1  0.06639705  0.11140321  0.31894815  1
  O  O13  1  0.06639705  0.50325159  0.11140321  1
  O  O14  1  0.06639705  0.31894815  0.50325159  1
  O  O15  1  0.22969952  0.09078673  0.73979165  1
  O  O16  1  0.42553369  0.18192676  0.38515250  1
  O  O17  1  0.27747473  0.40827623  0.55414015  1
  O  O18  1  0.22969952  0.93972310  0.09078673  1
  O  O19  1  0.27747473  0.76010789  0.40827623  1
  O  O20  1  0.56795623  0.61051331  0.00200574  1
  O  O21  1  0.27747473  0.55414015  0.76010789  1
  O  O22  1  0.76962390  0.26058805  0.06290453  1
  O  O23  1  0.56795623  0.00200574  0.81952572  1
  O  O24  1  0.42553369  0.00738605  0.18192676  1
  O  O25  1  0.22969952  0.73979165  0.93972310  1
  O  O26  1  0.72768765  0.44176408  0.24029584  1
  O  O27  1  0.42553369  0.38515250  0.00738605  1
  O  O28  1  0.72768765  0.24029584  0.59025244  1
  O  O29  1  0.76962390  0.06290453  0.90688351  1
  O  O30  1  0.72768765  0.59025244  0.44176408  1
  O  O31  1  0.56795623  0.81952572  0.61051331  1
  O  O32  1  0.76962390  0.90688351  0.26058805  1
  O  O33  1  0.93423685  0.68463531  0.49445754  1
  O  O34  1  0.93423685  0.49445754  0.88667029  1
  O  O35  1  0.93423685  0.88667029  0.68463531  1
