# generated using pymatgen
data_Na2Ti3Cr(PO4)6
_symmetry_space_group_name_H-M   'P 1'
_cell_length_a   8.91152990
_cell_length_b   8.91152990
_cell_length_c   8.91152979
_cell_angle_alpha   57.09796516
_cell_angle_beta   57.09796517
_cell_angle_gamma   57.09796734
_symmetry_Int_Tables_number   1
_chemical_formula_structural   Na2Ti3Cr(PO4)6
_chemical_formula_sum   'Na2 Ti3 Cr1 P6 O24'
_cell_volume   466.95875342
_cell_formula_units_Z   1
loop_
 _symmetry_equiv_pos_site_id
 _symmetry_equiv_pos_as_xyz
  1  'x, y, z'
loop_
 _atom_site_type_symbol
 _atom_site_label
 _atom_site_symmetry_multiplicity
 _atom_site_fract_x
 _atom_site_fract_y
 _atom_site_fract_z
 _atom_site_occupancy
  Na  Na0  1  0.00126426  0.00126426  0.00126426  1
  Na  Na1  1  0.50017029  0.50017029  0.50017029  1
  Ti  Ti2  1  0.35286981  0.35286981  0.35286981  1
  Ti  Ti3  1  0.64700303  0.64700303  0.64700303  1
  Ti  Ti4  1  0.85601631  0.85601631  0.85601631  1
  Cr  Cr5  1  0.14425707  0.14425707  0.14425707  1
  P  P6  1  0.03461506  0.75376871  0.46179407  1
  P  P7  1  0.53674723  0.96463985  0.24897824  1
  P  P8  1  0.24897824  0.53674723  0.96463985  1
  P  P9  1  0.75376871  0.46179407  0.03461506  1
  P  P10  1  0.46179407  0.03461506  0.75376871  1
  P  P11  1  0.96463985  0.24897824  0.53674723  1
  O  O12  1  -0.00040731  0.80163500  0.62273989  1
  O  O13  1  0.09083889  0.90502306  0.26351713  1
  O  O14  1  0.09588300  0.73375783  0.90682856  1
  O  O15  1  0.48859108  0.85071145  0.74824472  1
  O  O16  1  0.20116535  0.55975580  0.46358220  1
  O  O17  1  0.53308005  0.80047795  0.44515461  1
  O  O18  1  0.25384037  0.51153683  0.14858814  1
  O  O19  1  0.99150946  0.20212444  0.37969957  1
  O  O20  1  0.20212444  0.37969957  0.99150946  1
  O  O21  1  0.73375783  0.90682856  0.09588300  1
  O  O22  1  0.14858814  0.25384037  0.51153683  1
  O  O23  1  0.44515461  0.53308005  0.80047795  1
  O  O24  1  0.55975580  0.46358220  0.20116535  1
  O  O25  1  0.85071145  0.74824472  0.48859108  1
  O  O26  1  0.26351713  0.09083889  0.90502306  1
  O  O27  1  0.80163500  0.62273989  -0.00040731  1
  O  O28  1  0.74824472  0.48859108  0.85071145  1
  O  O29  1  0.46358220  0.20116535  0.55975580  1
  O  O30  1  0.80047795  0.44515461  0.53308005  1
  O  O31  1  0.51153683  0.14858814  0.25384037  1
  O  O32  1  0.37969957  0.99150946  0.20212444  1
  O  O33  1  0.62273989  -0.00040731  0.80163500  1
  O  O34  1  0.90502306  0.26351713  0.09083889  1
  O  O35  1  0.90682856  0.09588300  0.73375783  1
