# generated using pymatgen
data_Li8Fe2O9
_symmetry_space_group_name_H-M   'P 1'
_cell_length_a   14.82838213
_cell_length_b   8.66388917
_cell_length_c   5.74139298
_cell_angle_alpha   70.32388330
_cell_angle_beta   79.13815452
_cell_angle_gamma   85.70353251
_symmetry_Int_Tables_number   1
_chemical_formula_structural   Li8Fe2O9
_chemical_formula_sum   'Li32 Fe8 O36'
_cell_volume   682.04159909
_cell_formula_units_Z   4
loop_
 _symmetry_equiv_pos_site_id
 _symmetry_equiv_pos_as_xyz
  1  'x, y, z'
loop_
 _atom_site_type_symbol
 _atom_site_label
 _atom_site_symmetry_multiplicity
 _atom_site_fract_x
 _atom_site_fract_y
 _atom_site_fract_z
 _atom_site_occupancy
  Li  Li0  1  0.03655708  0.12205398  0.77180310  1
  Li  Li1  1  0.04944500  0.62461519  0.54482183  1
  Li  Li2  1  0.04679248  0.62741573  0.04160498  1
  Li  Li3  1  0.04130690  0.12549067  0.31350729  1
  Li  Li4  1  0.15173741  0.40740874  0.85113144  1
  Li  Li5  1  0.15167951  0.85120071  0.12639803  1
  Li  Li6  1  0.23994026  0.62796664  0.96743689  1
  Li  Li7  1  0.24135878  0.62726965  0.42626436  1
  Li  Li8  1  0.25944329  0.12124250  0.66794131  1
  Li  Li9  1  0.25963314  0.12066235  0.20931742  1
  Li  Li10  1  0.34485024  0.34231423  0.78226779  1
  Li  Li11  1  0.35098427  0.89774760  0.50450851  1
  Li  Li12  1  0.45762963  0.62855552  0.85698169  1
  Li  Li13  1  0.45178154  0.12492063  0.59307535  1
  Li  Li14  1  0.46534114  0.62384010  0.30907041  1
  Li  Li15  1  0.54835731  0.87801771  0.91213104  1
  Li  Li16  1  0.45164269  0.12198229  0.08786896  1
  Li  Li17  1  0.53465886  0.37615990  0.69092959  1
  Li  Li18  1  0.54821846  0.87507937  0.40692465  1
  Li  Li19  1  0.54237037  0.37144448  0.14301831  1
  Li  Li20  1  0.64901573  0.10225240  0.49549149  1
  Li  Li21  1  0.65514976  0.65768577  0.21773221  1
  Li  Li22  1  0.74036686  0.87933765  0.79068258  1
  Li  Li23  1  0.74055671  0.87875750  0.33205869  1
  Li  Li24  1  0.75864122  0.37273035  0.57373564  1
  Li  Li25  1  0.76005974  0.37203336  0.03256311  1
  Li  Li26  1  0.84832049  0.14879929  0.87360197  1
  Li  Li27  1  0.84826259  0.59259126  0.14886856  1
  Li  Li28  1  0.95869310  0.87450933  0.68649271  1
  Li  Li29  1  0.95320752  0.37258427  0.95839602  1
  Li  Li30  1  0.95055500  0.37538481  0.45517817  1
  Li  Li31  1  0.96344292  0.87794602  0.22819690  1
  Fe  Fe32  1  0.15151774  0.87752637  0.61527906  1
  Fe  Fe33  1  0.14582559  0.37103102  0.37198870  1
  Fe  Fe34  1  0.35075692  0.87144670  0.02024215  1
  Fe  Fe35  1  0.35279902  0.37803952  0.26318420  1
  Fe  Fe36  1  0.64720098  0.62196048  0.73681580  1
  Fe  Fe37  1  0.64924308  0.12855330  0.97975785  1
  Fe  Fe38  1  0.85417441  0.62896898  0.62801130  1
  Fe  Fe39  1  0.84848226  0.12247363  0.38472094  1
  O  O40  1  0.05926539  0.88276100  0.89248943  1
  O  O41  1  0.06603254  0.88377731  0.41180006  1
  O  O42  1  0.06354820  0.35878571  0.65923457  1
  O  O43  1  0.06180305  0.36643789  0.17529578  1
  O  O44  1  0.15542162  0.65016206  0.72802443  1
  O  O45  1  0.14208235  0.59648117  0.26198076  1
  O  O46  1  0.15379022  0.12132201  0.48897747  1
  O  O47  1  0.24927177  0.87545655  0.81707003  1
  O  O48  1  0.25201528  0.87380851  0.31842273  1
  O  O49  1  0.25098978  0.37404850  0.54443273  1
  O  O50  1  0.24868270  0.37471839  0.09250685  1
  O  O51  1  0.34501149  0.09857797  0.90849497  1
  O  O52  1  0.34637658  0.62860185  0.14184580  1
  O  O53  1  0.35809054  0.15241232  0.37406079  1
  O  O54  1  0.43770615  0.86940477  0.73999921  1
  O  O55  1  0.43257560  0.38950381  0.97157775  1
  O  O56  1  0.44003092  0.86335040  0.21500922  1
  O  O57  1  0.44016111  0.38505511  0.45243587  1
  O  O58  1  0.55983889  0.61494489  0.54756413  1
  O  O59  1  0.55996908  0.13664960  0.78499078  1
  O  O60  1  0.56742440  0.61049619  0.02842225  1
  O  O61  1  0.56229385  0.13059523  0.26000079  1
  O  O62  1  0.64190946  0.84758768  0.62593921  1
  O  O63  1  0.65362342  0.37139815  0.85815320  1
  O  O64  1  0.65498851  0.90142203  0.09150503  1
  O  O65  1  0.75131730  0.62528161  0.90749315  1
  O  O66  1  0.74901022  0.62595150  0.45556727  1
  O  O67  1  0.74798472  0.12619149  0.68157727  1
  O  O68  1  0.75072823  0.12454345  0.18292997  1
  O  O69  1  0.84620978  0.87867799  0.51102253  1
  O  O70  1  0.85791765  0.40351883  0.73801924  1
  O  O71  1  0.84457838  0.34983794  0.27197557  1
  O  O72  1  0.93819695  0.63356211  0.82470422  1
  O  O73  1  0.93645180  0.64121429  0.34076543  1
  O  O74  1  0.93396746  0.11622269  0.58819994  1
  O  O75  1  0.94073461  0.11723900  0.10751057  1
