# generated using pymatgen
data_LiVFeO4
_symmetry_space_group_name_H-M   'P 1'
_cell_length_a   5.96314811
_cell_length_b   5.96314848
_cell_length_c   5.96314847
_cell_angle_alpha   119.43797548
_cell_angle_beta   118.99450145
_cell_angle_gamma   91.36338035
_symmetry_Int_Tables_number   1
_chemical_formula_structural   LiVFeO4
_chemical_formula_sum   'Li2 V2 Fe2 O8'
_cell_volume   151.66506375
_cell_formula_units_Z   2
loop_
 _symmetry_equiv_pos_site_id
 _symmetry_equiv_pos_as_xyz
  1  'x, y, z'
loop_
 _atom_site_type_symbol
 _atom_site_label
 _atom_site_symmetry_multiplicity
 _atom_site_fract_x
 _atom_site_fract_y
 _atom_site_fract_z
 _atom_site_occupancy
  Li  Li0  1  0.00000000  0.00000000  0.50000000  1
  Li  Li1  1  0.00000000  0.50000000  0.00000000  1
  V  V2  1  0.37460501  0.62460501  0.75000000  1
  V  V3  1  0.62539499  0.37539499  0.25000000  1
  Fe  Fe4  1  0.00000000  0.00000000  0.00000000  1
  Fe  Fe5  1  0.50000000  0.00000000  0.50000000  1
  O  O6  1  0.25336808  0.26020940  0.50684132  1
  O  O7  1  0.26224784  0.74608878  0.51616006  1
  O  O8  1  0.72992871  0.74608878  0.98383994  1
  O  O9  1  0.74663192  0.25347324  0.00684132  1
  O  O10  1  0.25336808  0.74652676  0.99315868  1
  O  O11  1  0.27007129  0.25391122  0.01616006  1
  O  O12  1  0.73775216  0.25391122  0.48383994  1
  O  O13  1  0.74663192  0.73979060  0.49315868  1
