# generated using pymatgen
data_Li2Fe3SnO8
_symmetry_space_group_name_H-M   'P 1'
_cell_length_a   6.17958879
_cell_length_b   6.17958888
_cell_length_c   6.17958853
_cell_angle_alpha   58.31921578
_cell_angle_beta   58.31921138
_cell_angle_gamma   58.31921648
_symmetry_Int_Tables_number   1
_chemical_formula_structural   Li2Fe3SnO8
_chemical_formula_sum   'Li2 Fe3 Sn1 O8'
_cell_volume   160.44210738
_cell_formula_units_Z   1
loop_
 _symmetry_equiv_pos_site_id
 _symmetry_equiv_pos_as_xyz
  1  'x, y, z'
loop_
 _atom_site_type_symbol
 _atom_site_label
 _atom_site_symmetry_multiplicity
 _atom_site_fract_x
 _atom_site_fract_y
 _atom_site_fract_z
 _atom_site_occupancy
  Li  Li0  1  0.12439680  0.12439680  0.12439680  1
  Li  Li1  1  0.87560320  0.87560320  0.87560320  1
  Fe  Fe2  1  0.00000000  0.50000000  0.50000000  1
  Fe  Fe3  1  0.50000000  0.00000000  0.50000000  1
  Fe  Fe4  1  0.50000000  0.50000000  0.00000000  1
  Sn  Sn5  1  0.50000000  0.50000000  0.50000000  1
  O  O6  1  0.26475854  0.26475854  0.26475854  1
  O  O7  1  0.25716569  0.25716569  0.71772919  1
  O  O8  1  0.25716569  0.71772919  0.25716569  1
  O  O9  1  0.71772919  0.25716569  0.25716569  1
  O  O10  1  0.28227081  0.74283431  0.74283431  1
  O  O11  1  0.74283431  0.28227081  0.74283431  1
  O  O12  1  0.74283431  0.74283431  0.28227081  1
  O  O13  1  0.73524146  0.73524146  0.73524146  1
