# generated using pymatgen
data_Na5LiMn2P2(CO7)2
_symmetry_space_group_name_H-M   'P 1'
_cell_length_a   8.96045070
_cell_length_b   6.81808806
_cell_length_c   10.33569569
_cell_angle_alpha   89.85062511
_cell_angle_beta   89.79856346
_cell_angle_gamma   90.30858388
_symmetry_Int_Tables_number   1
_chemical_formula_structural   Na5LiMn2P2(CO7)2
_chemical_formula_sum   'Na10 Li2 Mn4 P4 C4 O28'
_cell_volume   631.42488606
_cell_formula_units_Z   2
loop_
 _symmetry_equiv_pos_site_id
 _symmetry_equiv_pos_as_xyz
  1  'x, y, z'
loop_
 _atom_site_type_symbol
 _atom_site_label
 _atom_site_symmetry_multiplicity
 _atom_site_fract_x
 _atom_site_fract_y
 _atom_site_fract_z
 _atom_site_occupancy
  Na  Na0  1  0.08372621  0.25195942  0.87997015  1
  Na  Na1  1  0.08295909  0.25238955  0.37984294  1
  Na  Na2  1  0.25865324  0.00042236  0.62356044  1
  Na  Na3  1  0.25824670  0.49975490  0.62348877  1
  Na  Na4  1  0.25855281  0.00228328  0.12403309  1
  Na  Na5  1  0.74145285  0.50166972  0.87480708  1
  Na  Na6  1  0.74129210  0.99847410  0.87518461  1
  Na  Na7  1  0.74166272  0.50200457  0.37735720  1
  Na  Na8  1  0.74128577  0.99807202  0.37756371  1
  Na  Na9  1  0.91705708  0.74763244  0.12053345  1
  Li  Li10  1  0.26989660  0.48859804  0.11972302  1
  Li  Li11  1  0.91542119  0.74992098  0.62178307  1
  Mn  Mn12  1  0.36056446  0.74766241  0.89011640  1
  Mn  Mn13  1  0.36021799  0.74908100  0.38794125  1
  Mn  Mn14  1  0.63952841  0.25020750  0.61076287  1
  Mn  Mn15  1  0.63824131  0.24953133  0.11173123  1
  P  P16  1  0.41091395  0.24972543  0.85290522  1
  P  P17  1  0.40880318  0.25324176  0.35031772  1
  P  P18  1  0.59388208  0.75004582  0.64882189  1
  P  P19  1  0.58612358  0.74571606  0.14944838  1
  C  C20  1  0.05898979  0.74921502  0.86398151  1
  C  C21  1  0.05551926  0.74885782  0.37085179  1
  C  C22  1  0.94013317  0.25008898  0.63207651  1
  C  C23  1  0.94383459  0.25603068  0.13159906  1
  O  O24  1  0.08411107  0.24915424  0.64268800  1
  O  O25  1  0.08863300  0.26781225  0.14130427  1
  O  O26  1  0.11816685  0.74856596  0.97890813  1
  O  O27  1  0.10853527  0.74954929  0.48809877  1
  O  O28  1  0.14563124  0.74822146  0.76258804  1
  O  O29  1  0.14631997  0.74651201  0.27145902  1
  O  O30  1  0.31898222  0.06486808  0.89299366  1
  O  O31  1  0.31867043  0.43097168  0.89737099  1
  O  O32  1  0.31782265  0.06705607  0.38956911  1
  O  O33  1  0.31780790  0.43367955  0.39602168  1
  O  O34  1  0.42841274  0.25300943  0.70215337  1
  O  O35  1  0.43669409  0.75028936  0.58605326  1
  O  O36  1  0.42295774  0.26238367  0.19889843  1
  O  O37  1  0.42522190  0.73568384  0.09228553  1
  O  O38  1  0.56930469  0.24978725  0.91258271  1
  O  O39  1  0.57163067  0.74934290  0.79900711  1
  O  O40  1  0.56796836  0.25023389  0.40926001  1
  O  O41  1  0.57162264  0.74862134  0.30005163  1
  O  O42  1  0.68897936  0.56889948  0.60904490  1
  O  O43  1  0.68925336  0.93240159  0.60889798  1
  O  O44  1  0.68127821  0.56609972  0.10794244  1
  O  O45  1  0.67398616  0.93192694  0.10536756  1
  O  O46  1  0.85567085  0.25045084  0.73519795  1
  O  O47  1  0.85994966  0.24954128  0.23494586  1
  O  O48  1  0.87751434  0.25078543  0.51859627  1
  O  O49  1  0.88023771  0.24991296  0.01873477  1
  O  O50  1  0.91512267  0.75082170  0.84877386  1
  O  O51  1  0.91255910  0.75083264  0.35280335  1
