# generated using pymatgen
data_Ca5Ge3O11
_symmetry_space_group_name_H-M   'P 1'
_cell_length_a   7.02933231
_cell_length_b   7.05404617
_cell_length_c   11.14216163
_cell_angle_alpha   85.32196432
_cell_angle_beta   95.47343221
_cell_angle_gamma   102.50486774
_symmetry_Int_Tables_number   1
_chemical_formula_structural   Ca5Ge3O11
_chemical_formula_sum   'Ca10 Ge6 O22'
_cell_volume   535.86571269
_cell_formula_units_Z   2
loop_
 _symmetry_equiv_pos_site_id
 _symmetry_equiv_pos_as_xyz
  1  'x, y, z'
loop_
 _atom_site_type_symbol
 _atom_site_label
 _atom_site_symmetry_multiplicity
 _atom_site_fract_x
 _atom_site_fract_y
 _atom_site_fract_z
 _atom_site_occupancy
  Ca  Ca0  1  0.00512992  0.96877758  0.75693346  1
  Ca  Ca1  1  0.07470515  0.54814994  0.24535847  1
  Ca  Ca2  1  0.45928327  0.90776490  0.23328157  1
  Ca  Ca3  1  0.29012317  0.29875893  0.99590144  1
  Ca  Ca4  1  0.31722104  0.32514239  0.50646568  1
  Ca  Ca5  1  0.68277896  0.67485761  0.49353432  1
  Ca  Ca6  1  0.70987683  0.70124107  0.00409856  1
  Ca  Ca7  1  0.54071673  0.09223510  0.76671843  1
  Ca  Ca8  1  0.92529485  0.45185006  0.75464153  1
  Ca  Ca9  1  0.99487008  0.03122242  0.24306654  1
  Ge  Ge10  1  0.20677314  0.78616914  0.98435679  1
  Ge  Ge11  1  0.19408184  0.81609004  0.53637479  1
  Ge  Ge12  1  0.45374901  0.57148014  0.73269408  1
  Ge  Ge13  1  0.54625099  0.42851986  0.26730592  1
  Ge  Ge14  1  0.80591816  0.18390996  0.46362521  1
  Ge  Ge15  1  0.79322686  0.21383086  0.01564321  1
  O  O16  1  0.16266910  0.84174304  0.37874655  1
  O  O17  1  0.13341042  0.84750287  0.12397457  1
  O  O18  1  0.36522052  0.65678033  0.57549776  1
  O  O19  1  0.60038521  0.77696105  0.79537098  1
  O  O20  1  0.02541784  0.28772046  0.39402686  1
  O  O21  1  0.24681943  0.41983861  0.78856998  1
  O  O22  1  0.71528793  0.96696776  0.38783612  1
  O  O23  1  0.01074164  0.31210322  0.10505736  1
  O  O24  1  0.70631085  0.99343019  0.10264341  1
  O  O25  1  0.37285201  0.63780745  0.03705801  1
  O  O26  1  0.40853176  0.57395261  0.33024027  1
  O  O27  1  0.59146824  0.42604739  0.66975973  1
  O  O28  1  0.62714799  0.36219255  0.96294199  1
  O  O29  1  0.29368915  0.00656981  0.89735659  1
  O  O30  1  0.98925836  0.68789678  0.89494264  1
  O  O31  1  0.28471207  0.03303224  0.61216388  1
  O  O32  1  0.75318057  0.58016139  0.21143002  1
  O  O33  1  0.97458216  0.71227954  0.60597314  1
  O  O34  1  0.39961479  0.22303895  0.20462902  1
  O  O35  1  0.63477948  0.34321967  0.42450224  1
  O  O36  1  0.86658958  0.15249713  0.87602543  1
  O  O37  1  0.83733090  0.15825696  0.62125345  1
