# generated using pymatgen
data_Na5LiMn2P2(CO7)2
_symmetry_space_group_name_H-M   'P 1'
_cell_length_a   8.96575332
_cell_length_b   6.76927939
_cell_length_c   10.34825473
_cell_angle_alpha   90.00000000
_cell_angle_beta   89.92668502
_cell_angle_gamma   90.00000000
_symmetry_Int_Tables_number   1
_chemical_formula_structural   Na5LiMn2P2(CO7)2
_chemical_formula_sum   'Na10 Li2 Mn4 P4 C4 O28'
_cell_volume   628.05254534
_cell_formula_units_Z   2
loop_
 _symmetry_equiv_pos_site_id
 _symmetry_equiv_pos_as_xyz
  1  'x, y, z'
loop_
 _atom_site_type_symbol
 _atom_site_label
 _atom_site_symmetry_multiplicity
 _atom_site_fract_x
 _atom_site_fract_y
 _atom_site_fract_z
 _atom_site_occupancy
  Na  Na0  1  0.08225857  0.24792918  0.88003054  1
  Na  Na1  1  0.08225857  0.25207082  0.38003054  1
  Na  Na2  1  0.25864588  0.00183542  0.62376326  1
  Na  Na3  1  0.25877419  0.49808174  0.62382541  1
  Na  Na4  1  0.25877419  0.00191826  0.12382541  1
  Na  Na5  1  0.25864588  0.49816458  0.12376326  1
  Na  Na6  1  0.74167898  0.50186036  0.87655550  1
  Na  Na7  1  0.74167898  0.99813964  0.37655550  1
  Na  Na8  1  0.91588470  0.75018699  0.61995833  1
  Na  Na9  1  0.91588470  0.74981301  0.11995833  1
  Li  Li10  1  0.73300643  0.99301020  0.87880573  1
  Li  Li11  1  0.73300643  0.50698980  0.37880573  1
  Mn  Mn12  1  0.36259659  0.74965400  0.88918550  1
  Mn  Mn13  1  0.36259659  0.75034600  0.38918550  1
  Mn  Mn14  1  0.63994802  0.25117884  0.61051452  1
  Mn  Mn15  1  0.63994802  0.24882116  0.11051452  1
  P  P16  1  0.41362717  0.24638492  0.85020960  1
  P  P17  1  0.41362717  0.25361508  0.35020960  1
  P  P18  1  0.59100610  0.75282538  0.64879887  1
  P  P19  1  0.59100610  0.74717462  0.14879887  1
  C  C20  1  0.05615154  0.75498379  0.86815826  1
  C  C21  1  0.05615154  0.74501621  0.36815826  1
  C  C22  1  0.93983025  0.24941558  0.63273485  1
  C  C23  1  0.93983025  0.25058442  0.13273485  1
  O  O24  1  0.08359443  0.24990678  0.64323023  1
  O  O25  1  0.08359443  0.25009322  0.14323023  1
  O  O26  1  0.12012380  0.74932491  0.98131433  1
  O  O27  1  0.12012380  0.75067509  0.48131433  1
  O  O28  1  0.14022894  0.74915772  0.76509446  1
  O  O29  1  0.14022894  0.75084228  0.26509446  1
  O  O30  1  0.31828975  0.06505445  0.89205264  1
  O  O31  1  0.32483596  0.43258759  0.89398336  1
  O  O32  1  0.32483596  0.06741241  0.39398336  1
  O  O33  1  0.31828975  0.43494555  0.39205264  1
  O  O34  1  0.42777020  0.24949501  0.69973399  1
  O  O35  1  0.43116834  0.75028378  0.59128277  1
  O  O36  1  0.42777020  0.25050499  0.19973399  1
  O  O37  1  0.43116834  0.74971622  0.09128277  1
  O  O38  1  0.57382819  0.23727140  0.90775345  1
  O  O39  1  0.57799759  0.75815255  0.80015056  1
  O  O40  1  0.57382819  0.26272860  0.40775345  1
  O  O41  1  0.57799759  0.74184745  0.30015056  1
  O  O42  1  0.68200168  0.56814257  0.60568126  1
  O  O43  1  0.68185457  0.93564701  0.60414224  1
  O  O44  1  0.68185457  0.56435299  0.10414224  1
  O  O45  1  0.68200168  0.93185743  0.10568126  1
  O  O46  1  0.85548231  0.24708663  0.73577058  1
  O  O47  1  0.85548231  0.25291337  0.23577058  1
  O  O48  1  0.87736283  0.25158530  0.51891274  1
  O  O49  1  0.87736283  0.24841470  0.01891274  1
  O  O50  1  0.91205401  0.76561883  0.85835602  1
  O  O51  1  0.91205401  0.73438117  0.35835602  1
