# generated using pymatgen
data_Sm3Zn
_symmetry_space_group_name_H-M   'P 1'
_cell_length_a   6.98129511
_cell_length_b   6.98156303
_cell_length_c   5.30030615
_cell_angle_alpha   90.00000000
_cell_angle_beta   90.00000000
_cell_angle_gamma   120.06466459
_symmetry_Int_Tables_number   1
_chemical_formula_structural   Sm3Zn
_chemical_formula_sum   'Sm6 Zn2'
_cell_volume   223.58202759
_cell_formula_units_Z   2
loop_
 _symmetry_equiv_pos_site_id
 _symmetry_equiv_pos_as_xyz
  1  'x, y, z'
loop_
 _atom_site_type_symbol
 _atom_site_label
 _atom_site_symmetry_multiplicity
 _atom_site_fract_x
 _atom_site_fract_y
 _atom_site_fract_z
 _atom_site_occupancy
  Sm  Sm0  1  0.17664898  0.35330372  0.24999900  1
  Sm  Sm1  1  0.64670527  0.82335813  0.24999900  1
  Sm  Sm2  1  0.17660513  0.82340306  0.24999900  1
  Sm  Sm3  1  0.82335205  0.64668877  0.74999800  1
  Sm  Sm4  1  0.35328731  0.17663573  0.74999800  1
  Sm  Sm5  1  0.82340057  0.17660739  0.74999800  1
  Zn  Zn6  1  0.33334523  0.66667671  0.74999800  1
  Zn  Zn7  1  0.66665446  0.33332150  0.24999900  1
