# generated using pymatgen
data_Ti3FeCu2(PO4)6
_symmetry_space_group_name_H-M   'P 1'
_cell_length_a   8.61701439
_cell_length_b   8.61701431
_cell_length_c   8.61701377
_cell_angle_alpha   60.08534524
_cell_angle_beta   60.08535143
_cell_angle_gamma   60.08534838
_symmetry_Int_Tables_number   1
_chemical_formula_structural   Ti3FeCu2(PO4)6
_chemical_formula_sum   'Ti3 Fe1 Cu2 P6 O24'
_cell_volume   453.30921032
_cell_formula_units_Z   1
loop_
 _symmetry_equiv_pos_site_id
 _symmetry_equiv_pos_as_xyz
  1  'x, y, z'
loop_
 _atom_site_type_symbol
 _atom_site_label
 _atom_site_symmetry_multiplicity
 _atom_site_fract_x
 _atom_site_fract_y
 _atom_site_fract_z
 _atom_site_occupancy
  Ti  Ti0  1  0.14281727  0.14281727  0.14281727  1
  Ti  Ti1  1  0.35666791  0.35666791  0.35666791  1
  Ti  Ti2  1  0.64354549  0.64354549  0.64354549  1
  Fe  Fe3  1  0.85632985  0.85632985  0.85632985  1
  Cu  Cu4  1  0.99812458  0.99812458  0.99812458  1
  Cu  Cu5  1  0.49968025  0.49968025  0.49968025  1
  P  P6  1  0.24916673  0.54312171  0.95820510  1
  P  P7  1  0.54312171  0.95820510  0.24916673  1
  P  P8  1  0.95820510  0.24916673  0.54312171  1
  P  P9  1  0.04202950  0.75121533  0.45849088  1
  P  P10  1  0.45849088  0.04202950  0.75121533  1
  P  P11  1  0.75121533  0.45849088  0.04202950  1
  O  O12  1  0.12082272  0.31220316  0.49499443  1
  O  O13  1  0.31220316  0.49499443  0.12082272  1
  O  O14  1  0.05734020  0.91532594  0.26427973  1
  O  O15  1  0.49499443  0.12082272  0.31220316  1
  O  O16  1  0.00725321  0.80765707  0.61671183  1
  O  O17  1  0.23400568  0.58446456  0.43748246  1
  O  O18  1  0.26427973  0.05734020  0.91532594  1
  O  O19  1  0.43748246  0.23400568  0.58446456  1
  O  O20  1  0.19132570  0.37801789  0.00174931  1
  O  O21  1  0.58446456  0.43748246  0.23400568  1
  O  O22  1  0.08667235  0.73415142  0.94583300  1
  O  O23  1  0.37801789  0.00174931  0.19132570  1
  O  O24  1  0.61671183  0.00725321  0.80765707  1
  O  O25  1  0.91532594  0.26427973  0.05734020  1
  O  O26  1  0.41650036  0.55559944  0.76665221  1
  O  O27  1  0.80765707  0.61671183  0.00725321  1
  O  O28  1  0.55559944  0.76665221  0.41650036  1
  O  O29  1  0.73415142  0.94583300  0.08667235  1
  O  O30  1  0.76665221  0.41650036  0.55559944  1
  O  O31  1  0.00174931  0.19132570  0.37801789  1
  O  O32  1  0.50180933  0.87703599  0.69271741  1
  O  O33  1  0.94583300  0.08667235  0.73415142  1
  O  O34  1  0.69271741  0.50180933  0.87703599  1
  O  O35  1  0.87703599  0.69271741  0.50180933  1
