# generated using pymatgen
data_Li2Ni3SbO8
_symmetry_space_group_name_H-M   'P 1'
_cell_length_a   6.01193477
_cell_length_b   6.01193488
_cell_length_c   6.01193500
_cell_angle_alpha   58.68968170
_cell_angle_beta   58.68967961
_cell_angle_gamma   58.68968528
_symmetry_Int_Tables_number   1
_chemical_formula_structural   Li2Ni3SbO8
_chemical_formula_sum   'Li2 Ni3 Sb1 O8'
_cell_volume   149.04770003
_cell_formula_units_Z   1
loop_
 _symmetry_equiv_pos_site_id
 _symmetry_equiv_pos_as_xyz
  1  'x, y, z'
loop_
 _atom_site_type_symbol
 _atom_site_label
 _atom_site_symmetry_multiplicity
 _atom_site_fract_x
 _atom_site_fract_y
 _atom_site_fract_z
 _atom_site_occupancy
  Li  Li0  1  0.12614712  0.12614712  0.12614712  1
  Li  Li1  1  0.87385288  0.87385288  0.87385288  1
  Ni  Ni2  1  0.00000000  0.50000000  0.50000000  1
  Ni  Ni3  1  0.50000000  0.00000000  0.50000000  1
  Ni  Ni4  1  0.50000000  0.50000000  0.00000000  1
  Sb  Sb5  1  0.50000000  0.50000000  0.50000000  1
  O  O6  1  0.27060236  0.27060236  0.27060236  1
  O  O7  1  0.26200488  0.26200488  0.72103573  1
  O  O8  1  0.26200488  0.72103573  0.26200488  1
  O  O9  1  0.72103573  0.26200488  0.26200488  1
  O  O10  1  0.27896427  0.73799512  0.73799512  1
  O  O11  1  0.73799512  0.27896427  0.73799512  1
  O  O12  1  0.73799512  0.73799512  0.27896427  1
  O  O13  1  0.72939764  0.72939764  0.72939764  1
