# generated using pymatgen
data_Na2NiPCO7
_symmetry_space_group_name_H-M   'P 1'
_cell_length_a   11.17065184
_cell_length_b   5.14857368
_cell_length_c   11.07423487
_cell_angle_alpha   88.75992761
_cell_angle_beta   73.19497250
_cell_angle_gamma   88.64773130
_symmetry_Int_Tables_number   1
_chemical_formula_structural   Na2NiPCO7
_chemical_formula_sum   'Na8 Ni4 P4 C4 O28'
_cell_volume   609.46888304
_cell_formula_units_Z   4
loop_
 _symmetry_equiv_pos_site_id
 _symmetry_equiv_pos_as_xyz
  1  'x, y, z'
loop_
 _atom_site_type_symbol
 _atom_site_label
 _atom_site_symmetry_multiplicity
 _atom_site_fract_x
 _atom_site_fract_y
 _atom_site_fract_z
 _atom_site_occupancy
  Na  Na0  1  0.11945222  0.24327794  0.13203098  1
  Na  Na1  1  0.37937296  0.74934913  0.35219499  1
  Na  Na2  1  0.11577509  0.75690669  0.63110988  1
  Na  Na3  1  0.59544404  0.21252655  0.31466914  1
  Na  Na4  1  0.62337695  0.24903268  0.63826876  1
  Na  Na5  1  0.88864856  0.24798175  0.37295133  1
  Na  Na6  1  0.38490922  0.24442318  0.86875059  1
  Na  Na7  1  0.87740314  0.75872336  0.87355832  1
  Ni  Ni8  1  0.29849132  0.78058919  0.04829835  1
  Ni  Ni9  1  0.19985282  0.21950086  0.45029309  1
  Ni  Ni10  1  0.80116058  0.78013793  0.55153648  1
  Ni  Ni11  1  0.69807109  0.21679885  0.95668388  1
  P  P12  1  0.08547204  0.71702257  0.33549633  1
  P  P13  1  0.41251205  0.28435779  0.16293993  1
  P  P14  1  0.58710800  0.71929379  0.83825956  1
  P  P15  1  0.91562760  0.28501268  0.66726520  1
  C  C16  1  0.83917641  0.28513682  0.08825620  1
  C  C17  1  0.33831828  0.28671484  0.58758190  1
  C  C18  1  0.16282589  0.71746523  0.91194934  1
  C  C19  1  0.65825780  0.71214684  0.41338879  1
  O  O20  1  0.12940607  0.78993347  0.19342901  1
  O  O21  1  0.33728645  0.13945169  0.08882469  1
  O  O22  1  0.10284096  0.41446947  0.35099421  1
  O  O23  1  0.38658993  0.58129424  0.14818450  1
  O  O24  1  0.16307893  0.85375475  0.41038972  1
  O  O25  1  0.05648194  0.20880127  0.61900454  1
  O  O26  1  0.55385368  0.22285055  0.11883781  1
  O  O27  1  0.37149665  0.21521542  0.30671451  1
  O  O28  1  0.28904710  0.48152355  0.53977078  1
  O  O29  1  0.78802970  0.47291561  0.03867181  1
  O  O30  1  0.80672292  0.05684622  0.06216890  1
  O  O31  1  0.30710657  0.06063165  0.55614060  1
  O  O32  1  0.58350879  0.68416091  0.34804550  1
  O  O33  1  0.09138715  0.68831990  0.84440549  1
  O  O34  1  0.90843871  0.32016965  0.15797026  1
  O  O35  1  0.41028342  0.31219222  0.65513936  1
  O  O36  1  0.19517332  0.94368552  0.94178975  1
  O  O37  1  0.69053836  0.94095937  0.44124427  1
  O  O38  1  0.70898154  0.51431932  0.45756245  1
  O  O39  1  0.21271426  0.52399850  0.96036786  1
  O  O40  1  0.94481185  0.78862070  0.38466747  1
  O  O41  1  0.44583559  0.79138306  0.88176425  1
  O  O42  1  0.63315826  0.78745931  0.69494013  1
  O  O43  1  0.83896972  0.15041869  0.59078194  1
  O  O44  1  0.60424523  0.41863321  0.85523010  1
  O  O45  1  0.90058298  0.58646834  0.65257446  1
  O  O46  1  0.66316531  0.86295003  0.91108677  1
  O  O47  1  0.86976850  0.20624372  0.80872979  1
