# generated using pymatgen
data_K2CrO4
_symmetry_space_group_name_H-M   'P 1'
_cell_length_a   6.04099823
_cell_length_b   8.32553645
_cell_length_c   11.72592734
_cell_angle_alpha   90.00000000
_cell_angle_beta   118.95527180
_cell_angle_gamma   90.00000000
_symmetry_Int_Tables_number   1
_chemical_formula_structural   K2CrO4
_chemical_formula_sum   'K8 Cr4 O16'
_cell_volume   516.03023612
_cell_formula_units_Z   4
loop_
 _symmetry_equiv_pos_site_id
 _symmetry_equiv_pos_as_xyz
  1  'x, y, z'
loop_
 _atom_site_type_symbol
 _atom_site_label
 _atom_site_symmetry_multiplicity
 _atom_site_fract_x
 _atom_site_fract_y
 _atom_site_fract_z
 _atom_site_occupancy
  K  K0  1  0.21544479  0.72847905  0.90704188  1
  K  K1  1  0.45009422  0.49117550  0.71346702  1
  K  K2  1  0.21544479  0.77152095  0.40704188  1
  K  K3  1  0.54990578  0.99117550  0.78653298  1
  K  K4  1  0.45009422  0.00882450  0.21346702  1
  K  K5  1  0.78455521  0.22847905  0.59295812  1
  K  K6  1  0.54990578  0.50882450  0.28653298  1
  K  K7  1  0.78455521  0.27152095  0.09295812  1
  Cr  Cr8  1  0.12931811  0.26690796  0.93392813  1
  Cr  Cr9  1  0.12931811  0.23309204  0.43392813  1
  Cr  Cr10  1  0.87068189  0.76690796  0.56607187  1
  Cr  Cr11  1  0.87068189  0.73309204  0.06607187  1
  O  O12  1  0.22686167  0.08732360  0.91499954  1
  O  O13  1  0.23700980  0.40693538  0.87200779  1
  O  O14  1  0.24197325  0.20155730  0.59317748  1
  O  O15  1  0.18759445  0.77089510  0.64088965  1
  O  O16  1  0.22686167  0.41267640  0.41499954  1
  O  O17  1  0.23700980  0.09306462  0.37200779  1
  O  O18  1  0.81240555  0.27089510  0.85911035  1
  O  O19  1  0.75802675  0.70155730  0.90682252  1
  O  O20  1  0.24197325  0.29844270  0.09317748  1
  O  O21  1  0.18759445  0.72910490  0.14088965  1
  O  O22  1  0.76299020  0.90693538  0.62799221  1
  O  O23  1  0.77313833  0.58732360  0.58500046  1
  O  O24  1  0.81240555  0.22910490  0.35911035  1
  O  O25  1  0.75802675  0.79844270  0.40682252  1
  O  O26  1  0.76299020  0.59306462  0.12799221  1
  O  O27  1  0.77313833  0.91267640  0.08500046  1
