# generated using pymatgen
data_CoPO4
_symmetry_space_group_name_H-M   'P 1'
_cell_length_a   8.64480882
_cell_length_b   6.62282742
_cell_length_c   4.75901368
_cell_angle_alpha   89.98537116
_cell_angle_beta   90.00401498
_cell_angle_gamma   89.99702158
_symmetry_Int_Tables_number   1
_chemical_formula_structural   CoPO4
_chemical_formula_sum   'Co4 P4 O16'
_cell_volume   272.46816644
_cell_formula_units_Z   4
loop_
 _symmetry_equiv_pos_site_id
 _symmetry_equiv_pos_as_xyz
  1  'x, y, z'
loop_
 _atom_site_type_symbol
 _atom_site_label
 _atom_site_symmetry_multiplicity
 _atom_site_fract_x
 _atom_site_fract_y
 _atom_site_fract_z
 _atom_site_occupancy
  Co  Co0  1  0.00000000  0.50000000  0.00000000  1
  Co  Co1  1  0.00000000  0.00000000  0.00000000  1
  Co  Co2  1  0.50000000  0.50000000  0.50000000  1
  Co  Co3  1  0.50000000  0.00000000  0.50000000  1
  P  P4  1  0.17616641  0.24994168  0.46326108  1
  P  P5  1  0.32382327  0.74999652  0.96328056  1
  P  P6  1  0.67617673  0.25000348  0.03671944  1
  P  P7  1  0.82383359  0.75005832  0.53673892  1
  O  O8  1  0.11448195  0.24996719  0.76846364  1
  O  O9  1  0.11953566  0.44199540  0.31101046  1
  O  O10  1  0.11952913  0.05794920  0.31105724  1
  O  O11  1  0.14373788  0.75001578  0.93668779  1
  O  O12  1  0.35628006  0.24995790  0.43671086  1
  O  O13  1  0.38048616  0.55801731  0.81095142  1
  O  O14  1  0.38047900  0.94205103  0.81099841  1
  O  O15  1  0.38551591  0.75000808  0.26841764  1
  O  O16  1  0.61448409  0.24999192  0.73158236  1
  O  O17  1  0.61952100  0.05794897  0.18900159  1
  O  O18  1  0.61951384  0.44198269  0.18904858  1
  O  O19  1  0.64371994  0.75004210  0.56328914  1
  O  O20  1  0.85626212  0.24998422  0.06331221  1
  O  O21  1  0.88047087  0.94205080  0.68894276  1
  O  O22  1  0.88046434  0.55800460  0.68898954  1
  O  O23  1  0.88551805  0.75003281  0.23153636  1
