# generated using pymatgen
data_Ba6Li2Ti16O39
_symmetry_space_group_name_H-M   'P 1'
_cell_length_a   9.67507836
_cell_length_b   9.67507836
_cell_length_c   9.19835037
_cell_angle_alpha   96.90480408
_cell_angle_beta   96.90480408
_cell_angle_gamma   75.25267892
_symmetry_Int_Tables_number   1
_chemical_formula_structural   Ba6Li2Ti16O39
_chemical_formula_sum   'Ba6 Li2 Ti16 O39'
_cell_volume   823.01858050
_cell_formula_units_Z   1
loop_
 _symmetry_equiv_pos_site_id
 _symmetry_equiv_pos_as_xyz
  1  'x, y, z'
loop_
 _atom_site_type_symbol
 _atom_site_label
 _atom_site_symmetry_multiplicity
 _atom_site_fract_x
 _atom_site_fract_y
 _atom_site_fract_z
 _atom_site_occupancy
  Ba  Ba0  1  0.05088881  0.05088881  0.77152206  1
  Ba  Ba1  1  0.60744930  0.28625907  0.23213779  1
  Ba  Ba2  1  0.28625907  0.60744930  0.23213779  1
  Ba  Ba3  1  0.71374093  0.39255070  0.76786221  1
  Ba  Ba4  1  0.39255070  0.71374093  0.76786221  1
  Ba  Ba5  1  0.94911119  0.94911119  0.22847794  1
  Li  Li6  1  0.26143226  0.26143226  0.23068788  1
  Li  Li7  1  0.73856774  0.73856774  0.76931212  1
  Ti  Ti8  1  0.33273668  0.01021347  0.43659658  1
  Ti  Ti9  1  0.01021347  0.33273668  0.43659658  1
  Ti  Ti10  1  0.41132458  0.07420453  0.76965894  1
  Ti  Ti11  1  0.07420453  0.41132458  0.76965894  1
  Ti  Ti12  1  0.33435052  0.33435052  0.55580881  1
  Ti  Ti13  1  0.71730428  0.04030119  0.90322535  1
  Ti  Ti14  1  0.04030119  0.71730428  0.90322535  1
  Ti  Ti15  1  0.37810170  0.37810170  0.91371694  1
  Ti  Ti16  1  0.62189830  0.62189830  0.08628306  1
  Ti  Ti17  1  0.95969881  0.28269572  0.09677465  1
  Ti  Ti18  1  0.28269572  0.95969881  0.09677465  1
  Ti  Ti19  1  0.66564948  0.66564948  0.44419119  1
  Ti  Ti20  1  0.92579547  0.58867542  0.23034106  1
  Ti  Ti21  1  0.58867542  0.92579547  0.23034106  1
  Ti  Ti22  1  0.66726332  0.98978653  0.56340342  1
  Ti  Ti23  1  0.98978653  0.66726332  0.56340342  1
  O  O24  1  0.12291892  0.12291892  0.10157231  1
  O  O25  1  0.19838129  0.19838129  0.43748649  1
  O  O26  1  0.26057632  0.26057632  0.76229486  1
  O  O27  1  0.40732929  0.06369877  0.24152091  1
  O  O28  1  0.06369877  0.40732929  0.24152091  1
  O  O29  1  0.46517928  0.13168489  0.57008371  1
  O  O30  1  0.13168489  0.46517928  0.57008371  1
  O  O31  1  0.53108743  0.19534866  0.88465506  1
  O  O32  1  0.19534866  0.53108743  0.88465506  1
  O  O33  1  0.66477792  0.99794548  0.08638946  1
  O  O34  1  0.99794548  0.66477792  0.08638946  1
  O  O35  1  0.33817172  0.33817172  0.08208843  1
  O  O36  1  0.69989279  0.03507806  0.38179504  1
  O  O37  1  0.03507806  0.69989279  0.38179504  1
  O  O38  1  0.38010424  0.38010424  0.39203720  1
  O  O39  1  0.42846560  0.42846560  0.70138523  1
  O  O40  1  0.76247842  0.09321321  0.70301697  1
  O  O41  1  0.09321321  0.76247842  0.70301697  1
  O  O42  1  0.17213256  0.82786844  0.00000000  1
  O  O43  1  0.50000000  0.50000000  0.00000000  1
  O  O44  1  0.82786844  0.17213256  0.00000000  1
  O  O45  1  0.90678679  0.23752158  0.29698303  1
  O  O46  1  0.57153440  0.57153440  0.29861477  1
  O  O47  1  0.23752158  0.90678679  0.29698303  1
  O  O48  1  0.30010721  0.96492194  0.61820496  1
  O  O49  1  0.96492194  0.30010721  0.61820496  1
  O  O50  1  0.61989576  0.61989576  0.60796280  1
  O  O51  1  0.00205452  0.33522208  0.91361054  1
  O  O52  1  0.66182828  0.66182828  0.91791157  1
  O  O53  1  0.33522208  0.00205452  0.91361054  1
  O  O54  1  0.46891257  0.80465134  0.11534494  1
  O  O55  1  0.80465134  0.46891257  0.11534494  1
  O  O56  1  0.53482072  0.86831511  0.42991629  1
  O  O57  1  0.86831511  0.53482072  0.42991629  1
  O  O58  1  0.59267071  0.93630123  0.75847909  1
  O  O59  1  0.93630123  0.59267071  0.75847909  1
  O  O60  1  0.73942368  0.73942368  0.23770514  1
  O  O61  1  0.80161871  0.80161871  0.56251351  1
  O  O62  1  0.87708108  0.87708108  0.89842769  1
