# generated using pymatgen
data_Na3Bi(BO3)2
_symmetry_space_group_name_H-M   'P 1'
_cell_length_a   9.01002123
_cell_length_b   7.33233336
_cell_length_c   11.01866266
_cell_angle_alpha   90.00000000
_cell_angle_beta   64.90102599
_cell_angle_gamma   90.00000000
_symmetry_Int_Tables_number   1
_chemical_formula_structural   Na3Bi(BO3)2
_chemical_formula_sum   'Na12 Bi4 B8 O24'
_cell_volume   659.20728272
_cell_formula_units_Z   4
loop_
 _symmetry_equiv_pos_site_id
 _symmetry_equiv_pos_as_xyz
  1  'x, y, z'
loop_
 _atom_site_type_symbol
 _atom_site_label
 _atom_site_symmetry_multiplicity
 _atom_site_fract_x
 _atom_site_fract_y
 _atom_site_fract_z
 _atom_site_occupancy
  Na  Na0  1  0.04042481  0.54165649  0.67887457  1
  Na  Na1  1  0.11840986  0.25499980  0.47284363  1
  Na  Na2  1  0.38159014  0.75499980  0.02715637  1
  Na  Na3  1  0.30559013  0.79462599  0.52998683  1
  Na  Na4  1  0.54042481  0.95834351  0.17887457  1
  Na  Na5  1  0.19440987  0.29462599  0.97001317  1
  Na  Na6  1  0.80559013  0.70537401  0.02998683  1
  Na  Na7  1  0.45957519  0.04165649  0.82112543  1
  Na  Na8  1  0.69440987  0.20537401  0.47001317  1
  Na  Na9  1  0.61840986  0.24500020  0.97284363  1
  Na  Na10  1  0.88159014  0.74500020  0.52715637  1
  Na  Na11  1  0.95957519  0.45834351  0.32112543  1
  Bi  Bi12  1  0.01179898  0.02899277  0.80303406  1
  Bi  Bi13  1  0.51179898  0.47100723  0.30303406  1
  Bi  Bi14  1  0.48820102  0.52899277  0.69696594  1
  Bi  Bi15  1  0.98820102  0.97100723  0.19696594  1
  B  B16  1  0.27625062  0.16789789  0.18147478  1
  B  B17  1  0.22374938  0.66789789  0.31852522  1
  B  B18  1  0.18136295  0.69539409  0.87624186  1
  B  B19  1  0.31863705  0.19539409  0.62375814  1
  B  B20  1  0.68136295  0.80460591  0.37624186  1
  B  B21  1  0.81863705  0.30460591  0.12375814  1
  B  B22  1  0.77625062  0.33210211  0.68147478  1
  B  B23  1  0.72374938  0.83210211  0.81852522  1
  O  O24  1  0.09489953  0.73279538  0.29363445  1
  O  O25  1  0.11162906  0.19293390  0.27356138  1
  O  O26  1  0.30299068  0.07140142  0.06499487  1
  O  O27  1  0.19700932  0.57140142  0.43500513  1
  O  O28  1  0.38837094  0.69293390  0.22643862  1
  O  O29  1  0.06234899  0.81022083  0.96469001  1
  O  O30  1  0.22437816  0.07907145  0.58401540  1
  O  O31  1  0.40510047  0.23279538  0.20636555  1
  O  O32  1  0.21467555  0.69918356  0.74178940  1
  O  O33  1  0.28532445  0.19918356  0.75821060  1
  O  O34  1  0.27562184  0.57907145  0.91598460  1
  O  O35  1  0.43765101  0.31022083  0.53530999  1
  O  O36  1  0.56234899  0.68977917  0.46469001  1
  O  O37  1  0.72437816  0.42092855  0.08401540  1
  O  O38  1  0.71467555  0.80081644  0.24178940  1
  O  O39  1  0.78532445  0.30081644  0.25821060  1
  O  O40  1  0.59489953  0.76720462  0.79363445  1
  O  O41  1  0.77562184  0.92092855  0.41598460  1
  O  O42  1  0.93765101  0.18977917  0.03530999  1
  O  O43  1  0.61162906  0.30706610  0.77356138  1
  O  O44  1  0.80299068  0.42859858  0.56499487  1
  O  O45  1  0.69700932  0.92859858  0.93500513  1
  O  O46  1  0.88837094  0.80706610  0.72643862  1
  O  O47  1  0.90510047  0.26720462  0.70636555  1
