# generated using pymatgen
data_Na2FePCO7
_symmetry_space_group_name_H-M   'P 1'
_cell_length_a   8.95150889
_cell_length_b   5.23121062
_cell_length_c   6.53453843
_cell_angle_alpha   90.00000000
_cell_angle_beta   90.00000000
_cell_angle_gamma   89.60485050
_symmetry_Int_Tables_number   1
_chemical_formula_structural   Na2FePCO7
_chemical_formula_sum   'Na4 Fe2 P2 C2 O14'
_cell_volume   305.98704628
_cell_formula_units_Z   2
loop_
 _symmetry_equiv_pos_site_id
 _symmetry_equiv_pos_as_xyz
  1  'x, y, z'
loop_
 _atom_site_type_symbol
 _atom_site_label
 _atom_site_symmetry_multiplicity
 _atom_site_fract_x
 _atom_site_fract_y
 _atom_site_fract_z
 _atom_site_occupancy
  Na  Na0  1  0.08162174  0.76376056  0.24210886  1
  Na  Na1  1  0.26308044  0.25104123  0.48773239  1
  Na  Na2  1  0.73691956  0.74895877  0.98773239  1
  Na  Na3  1  0.91837826  0.23623944  0.74210886  1
  Fe  Fe4  1  0.34510248  0.78390415  0.76355412  1
  Fe  Fe5  1  0.65489752  0.21609585  0.26355412  1
  P  P6  1  0.42441655  0.70952956  0.25354921  1
  P  P7  1  0.57558345  0.29047044  0.75354921  1
  C  C8  1  0.06468085  0.72991017  0.74574205  1
  C  C9  1  0.93531915  0.27008983  0.24574205  1
  O  O10  1  0.07509989  0.29747313  0.26292601  1
  O  O11  1  0.12783313  0.95649442  0.73860399  1
  O  O12  1  0.15806783  0.53544989  0.73859833  1
  O  O13  1  0.32193322  0.76012945  0.06580713  1
  O  O14  1  0.32601590  0.77532558  0.44228311  1
  O  O15  1  0.43174372  0.12966465  0.74249635  1
  O  O16  1  0.46940835  0.42130907  0.26413446  1
  O  O17  1  0.53059165  0.57869093  0.76413446  1
  O  O18  1  0.56825628  0.87033535  0.24249635  1
  O  O19  1  0.67806678  0.23987055  0.56580713  1
  O  O20  1  0.67398410  0.22467442  0.94228311  1
  O  O21  1  0.84193217  0.46455011  0.23859833  1
  O  O22  1  0.87216687  0.04350558  0.23860399  1
  O  O23  1  0.92490011  0.70252687  0.76292601  1
