# generated using pymatgen
data_Y2ReO5
_symmetry_space_group_name_H-M   'P 1'
_cell_length_a   8.57734235
_cell_length_b   8.57734235
_cell_length_c   5.68964923
_cell_angle_alpha   90.00000000
_cell_angle_beta   90.00000000
_cell_angle_gamma   90.00000000
_symmetry_Int_Tables_number   1
_chemical_formula_structural   Y2ReO5
_chemical_formula_sum   'Y8 Re4 O20'
_cell_volume   418.59205575
_cell_formula_units_Z   4
loop_
 _symmetry_equiv_pos_site_id
 _symmetry_equiv_pos_as_xyz
  1  'x, y, z'
loop_
 _atom_site_type_symbol
 _atom_site_label
 _atom_site_symmetry_multiplicity
 _atom_site_fract_x
 _atom_site_fract_y
 _atom_site_fract_z
 _atom_site_occupancy
  Y  Y0  1  0.10024666  0.61000380  0.24981153  1
  Y  Y1  1  0.11000380  0.89975334  0.75018847  1
  Y  Y2  1  0.38999620  0.60024666  0.75018847  1
  Y  Y3  1  0.39975334  0.88999620  0.24981153  1
  Y  Y4  1  0.60024666  0.11000380  0.75018847  1
  Y  Y5  1  0.61000380  0.39975334  0.24981153  1
  Y  Y6  1  0.88999620  0.10024666  0.24981153  1
  Y  Y7  1  0.89975334  0.38999620  0.75018847  1
  Re  Re8  1  0.25000000  0.25000000  0.54494216  1
  Re  Re9  1  0.25000000  0.25000000  0.14892846  1
  Re  Re10  1  0.75000000  0.75000000  0.45505784  1
  Re  Re11  1  0.75000000  0.75000000  0.85107154  1
  O  O12  1  0.04746329  0.15621367  0.60231387  1
  O  O13  1  0.04767221  0.34514086  0.09916673  1
  O  O14  1  0.15621367  0.45253671  0.60231387  1
  O  O15  1  0.15485914  0.04767221  0.09916673  1
  O  O16  1  0.25000000  0.75000000  0.50000000  1
  O  O17  1  0.25000000  0.75000000  0.00000000  1
  O  O18  1  0.34514086  0.45232779  0.09916673  1
  O  O19  1  0.34378633  0.04746329  0.60231387  1
  O  O20  1  0.45232779  0.15485914  0.09916673  1
  O  O21  1  0.45253671  0.34378633  0.60231387  1
  O  O22  1  0.54746329  0.65621367  0.39768613  1
  O  O23  1  0.54767221  0.84514086  0.90083327  1
  O  O24  1  0.65621367  0.95253671  0.39768613  1
  O  O25  1  0.65485914  0.54767221  0.90083327  1
  O  O26  1  0.75000000  0.25000000  0.50000000  1
  O  O27  1  0.75000000  0.25000000  0.00000000  1
  O  O28  1  0.84514086  0.95232779  0.90083327  1
  O  O29  1  0.84378633  0.54746329  0.39768613  1
  O  O30  1  0.95232779  0.65485914  0.90083327  1
  O  O31  1  0.95253671  0.84378633  0.39768613  1
