# generated using pymatgen
data_LiVF4
_symmetry_space_group_name_H-M   'P 1'
_cell_length_a   4.59372798
_cell_length_b   11.68200993
_cell_length_c   4.95880802
_cell_angle_alpha   90.00009233
_cell_angle_beta   90.00520105
_cell_angle_gamma   90.00000568
_symmetry_Int_Tables_number   1
_chemical_formula_structural   LiVF4
_chemical_formula_sum   'Li4 V4 F16'
_cell_volume   266.10935288
_cell_formula_units_Z   4
loop_
 _symmetry_equiv_pos_site_id
 _symmetry_equiv_pos_as_xyz
  1  'x, y, z'
loop_
 _atom_site_type_symbol
 _atom_site_label
 _atom_site_symmetry_multiplicity
 _atom_site_fract_x
 _atom_site_fract_y
 _atom_site_fract_z
 _atom_site_occupancy
  Li  Li0  1  0.00000043  0.05417232  0.25000120  1
  Li  Li1  1  0.00000012  0.94578065  0.75000102  1
  Li  Li2  1  0.50000042  0.55416718  0.25000138  1
  Li  Li3  1  0.50000044  0.44589683  0.75000142  1
  V  V4  1  0.00000744  0.32092935  0.25000765  1
  V  V5  1  -0.00001014  0.67908670  0.74998794  1
  V  V6  1  0.49999738  0.82091292  0.24997958  1
  V  V7  1  0.49999732  0.17909428  0.74999805  1
  F  F8  1  0.22903381  0.19242515  0.42153395  1
  F  F9  1  0.22904113  0.80757546  0.92148245  1
  F  F10  1  0.24985775  0.06785318  0.91532922  1
  F  F11  1  0.24985162  0.93211475  0.41534034  1
  F  F12  1  0.25009884  0.56788684  0.91534727  1
  F  F13  1  0.25017415  0.43212632  0.41534453  1
  F  F14  1  0.27093969  0.30752897  0.92157036  1
  F  F15  1  0.27096076  0.69246900  0.42151661  1
  F  F16  1  0.72904130  0.69246882  0.07848583  1
  F  F17  1  0.72905980  0.30752918  0.57843350  1
  F  F18  1  0.74982659  0.43212630  0.08465925  1
  F  F19  1  0.74990299  0.56788675  0.58465557  1
  F  F20  1  0.75014308  0.06785345  0.58467352  1
  F  F21  1  0.75014931  0.93211504  0.08466209  1
  F  F22  1  0.77096663  0.19242505  0.07846748  1
  F  F23  1  0.77095915  0.80757549  0.57851978  1
