# generated using pymatgen
data_CsTi(NbCl3)6
_symmetry_space_group_name_H-M   'P 1'
_cell_length_a   9.20727962
_cell_length_b   9.20418658
_cell_length_c   17.19844899
_cell_angle_alpha   89.93282332
_cell_angle_beta   90.13430838
_cell_angle_gamma   120.01111339
_symmetry_Int_Tables_number   1
_chemical_formula_structural   CsTi(NbCl3)6
_chemical_formula_sum   'Cs2 Ti2 Nb12 Cl36'
_cell_volume   1262.07981699
_cell_formula_units_Z   2
loop_
 _symmetry_equiv_pos_site_id
 _symmetry_equiv_pos_as_xyz
  1  'x, y, z'
loop_
 _atom_site_type_symbol
 _atom_site_label
 _atom_site_symmetry_multiplicity
 _atom_site_fract_x
 _atom_site_fract_y
 _atom_site_fract_z
 _atom_site_occupancy
  Cs  Cs0  1  0.33347284  0.66665496  0.75000517  1
  Cs  Cs1  1  0.66681789  0.33334504  0.25000517  1
  Ti  Ti2  1  0.33307706  0.66633214  0.25001831  1
  Ti  Ti3  1  0.66674492  0.33366786  0.75001831  1
  Nb  Nb4  1  0.04629445  0.84393987  0.43055994  1
  Nb  Nb5  1  0.15596928  0.95380734  0.06943237  1
  Nb  Nb6  1  0.04637652  0.20225642  0.06926087  1
  Nb  Nb7  1  0.15558427  0.20198037  0.43079481  1
  Nb  Nb8  1  0.20235458  0.15606013  0.93055994  1
  Nb  Nb9  1  0.20216094  0.04619266  0.56943237  1
  Nb  Nb10  1  0.79759011  0.95367993  0.43048499  1
  Nb  Nb11  1  0.79762816  0.84403959  0.06949730  1
  Nb  Nb12  1  0.84412010  0.79774358  0.56926087  1
  Nb  Nb13  1  0.95360490  0.79801963  0.93079481  1
  Nb  Nb14  1  0.84391019  0.04632007  0.93048499  1
  Nb  Nb15  1  0.95358857  0.15596041  0.56949730  1
  Cl  Cl16  1  0.05395263  0.81279820  0.66215620  1
  Cl  Cl17  1  0.18704610  0.94640432  0.83807115  1
  Cl  Cl18  1  0.13618443  0.71295117  0.99795593  1
  Cl  Cl19  1  0.10307974  0.64191346  0.33376567  1
  Cl  Cl20  1  0.28727082  0.86407280  0.50230506  1
  Cl  Cl21  1  0.10323747  0.46125103  0.16620047  1
  Cl  Cl22  1  0.35797336  0.89622656  0.16635255  1
  Cl  Cl23  1  0.13591010  0.42283302  0.50211615  1
  Cl  Cl24  1  0.05346852  0.24087994  0.83787153  1
  Cl  Cl25  1  0.18750709  0.24077494  0.66212214  1
  Cl  Cl26  1  0.28696328  0.42287307  0.99785511  1
  Cl  Cl27  1  0.53890873  0.89669261  0.33419066  1
  Cl  Cl28  1  0.35803016  0.46192567  0.33359089  1
  Cl  Cl29  1  0.57687805  0.86411793  0.99768308  1
  Cl  Cl30  1  0.24115442  0.18720180  0.16215620  1
  Cl  Cl31  1  0.24064278  0.05359568  0.33807115  1
  Cl  Cl32  1  0.53898189  0.64233662  0.16588220  1
  Cl  Cl33  1  0.57680194  0.71294068  0.50204051  1
  Cl  Cl34  1  0.42323327  0.28704883  0.49795593  1
  Cl  Cl35  1  0.46116628  0.35808654  0.83376567  1
  Cl  Cl36  1  0.75928886  0.94628458  0.66196866  1
  Cl  Cl37  1  0.75890220  0.81278993  0.83782028  1
  Cl  Cl38  1  0.42319802  0.13592720  0.00230506  1
  Cl  Cl39  1  0.64198644  0.53874897  0.66620047  1
  Cl  Cl40  1  0.46174680  0.10377344  0.66635255  1
  Cl  Cl41  1  0.71307708  0.57716698  0.00211615  1
  Cl  Cl42  1  0.81258958  0.75912006  0.33787153  1
  Cl  Cl43  1  0.94673215  0.75922506  0.16212214  1
  Cl  Cl44  1  0.86409021  0.57712693  0.49785511  1
  Cl  Cl45  1  0.64221612  0.10330739  0.83419066  1
  Cl  Cl46  1  0.89610449  0.53807433  0.83359089  1
  Cl  Cl47  1  0.71276112  0.13588207  0.49768308  1
  Cl  Cl48  1  0.89664527  0.35766338  0.66588220  1
  Cl  Cl49  1  0.86386126  0.28705932  0.00204051  1
  Cl  Cl50  1  0.81300328  0.05371542  0.16196866  1
  Cl  Cl51  1  0.94611227  0.18721007  0.33782028  1
