# generated using pymatgen
data_Li2CrPCO7
_symmetry_space_group_name_H-M   'P 1'
_cell_length_a   8.30505935
_cell_length_b   5.05976878
_cell_length_c   6.39882535
_cell_angle_alpha   90.00000000
_cell_angle_beta   90.00000000
_cell_angle_gamma   84.45088420
_symmetry_Int_Tables_number   1
_chemical_formula_structural   Li2CrPCO7
_chemical_formula_sum   'Li4 Cr2 P2 C2 O14'
_cell_volume   267.62928685
_cell_formula_units_Z   2
loop_
 _symmetry_equiv_pos_site_id
 _symmetry_equiv_pos_as_xyz
  1  'x, y, z'
loop_
 _atom_site_type_symbol
 _atom_site_label
 _atom_site_symmetry_multiplicity
 _atom_site_fract_x
 _atom_site_fract_y
 _atom_site_fract_z
 _atom_site_occupancy
  Li  Li0  1  0.09764470  0.76348216  0.24471981  1
  Li  Li1  1  0.28212265  0.24861824  0.46251499  1
  Li  Li2  1  0.71787735  0.75138176  0.96251499  1
  Li  Li3  1  0.90235530  0.23651784  0.74471981  1
  Cr  Cr4  1  0.32376061  0.79836849  0.75464807  1
  Cr  Cr5  1  0.67623939  0.20163151  0.25464807  1
  P  P6  1  0.41937734  0.72177261  0.25007079  1
  P  P7  1  0.58062266  0.27822739  0.75007079  1
  C  C8  1  0.04116683  0.69937131  0.75099103  1
  C  C9  1  0.95883317  0.30062869  0.25099103  1
  O  O10  1  0.07949431  0.94639559  0.75086671  1
  O  O11  1  0.10037091  0.36518356  0.27747898  1
  O  O12  1  0.16525697  0.52130852  0.72700697  1
  O  O13  1  0.30119293  0.78262522  0.06505810  1
  O  O14  1  0.31173182  0.82762298  0.43806726  1
  O  O15  1  0.42401730  0.14335535  0.72864751  1
  O  O16  1  0.46126619  0.41756577  0.27794277  1
  O  O17  1  0.53873381  0.58243423  0.77794277  1
  O  O18  1  0.57598270  0.85664465  0.22864751  1
  O  O19  1  0.69880707  0.21737478  0.56505810  1
  O  O20  1  0.68826818  0.17237702  0.93806726  1
  O  O21  1  0.83474303  0.47869148  0.22700697  1
  O  O22  1  0.89962909  0.63481644  0.77747898  1
  O  O23  1  0.92050569  0.05360441  0.25086671  1
