# generated using pymatgen
data_V3OF11
_symmetry_space_group_name_H-M   'P 1'
_cell_length_a   5.46497270
_cell_length_b   5.26515447
_cell_length_c   14.83636826
_cell_angle_alpha   90.01132037
_cell_angle_beta   100.25778574
_cell_angle_gamma   90.00288957
_symmetry_Int_Tables_number   1
_chemical_formula_structural   V3OF11
_chemical_formula_sum   'V6 O2 F22'
_cell_volume   420.07718270
_cell_formula_units_Z   2
loop_
 _symmetry_equiv_pos_site_id
 _symmetry_equiv_pos_as_xyz
  1  'x, y, z'
loop_
 _atom_site_type_symbol
 _atom_site_label
 _atom_site_symmetry_multiplicity
 _atom_site_fract_x
 _atom_site_fract_y
 _atom_site_fract_z
 _atom_site_occupancy
  V  V0  1  0.99971781  -0.00009077  0.00016552  1
  V  V1  1  0.15439571  0.50822132  0.33417385  1
  V  V2  1  0.32069424  0.99205412  0.66715979  1
  V  V3  1  0.49969552  0.49988275  0.00008037  1
  V  V4  1  0.62618748  0.02469544  0.33043958  1
  V  V5  1  0.79252913  0.47564841  0.66363583  1
  O  O6  1  0.37551883  0.20484965  0.31091110  1
  O  O7  1  0.54191991  0.29543116  0.64434706  1
  F  F8  1  0.02172461  0.20815490  0.64196903  1
  F  F9  1  0.18892620  0.30314681  0.97543432  1
  F  F10  1  0.13885601  0.70664344  0.68993170  1
  F  F11  1  0.04162065  0.08659834  0.11696535  1
  F  F12  1  0.21730012  0.41123447  0.45016002  1
  F  F13  1  0.38381509  0.08918893  0.78331903  1
  F  F14  1  0.13102972  0.57555304  0.21608831  1
  F  F15  1  0.29959612  0.92478046  0.54930269  1
  F  F16  1  0.46127507  0.58676044  0.88335814  1
  F  F17  1  0.68895425  0.19678693  0.97552433  1
  F  F18  1  0.31102395  0.80281169  0.02477263  1
  F  F19  1  0.46855703  0.71528963  0.35778430  1
  F  F20  1  0.63537216  0.78490605  0.69091629  1
  F  F21  1  0.54129938  0.41234838  0.11680252  1
  F  F22  1  0.72850254  0.07327891  0.44916934  1
  F  F23  1  0.89555926  0.42732257  0.78250490  1
  F  F24  1  0.63556505  0.90688707  0.21913627  1
  F  F25  1  0.80247352  0.59093838  0.55223565  1
  F  F26  1  0.95932780  0.91477007  0.88321380  1
  F  F27  1  0.85529413  0.29147812  0.30864564  1
  F  F28  1  0.81110230  0.69710176  0.02488172  1
  F  F29  1  0.97216545  0.79332753  0.35697194  1
