# generated using pymatgen
data_Na3CuO2
_symmetry_space_group_name_H-M   'P 1'
_cell_length_a   7.86753097
_cell_length_b   7.86753097
_cell_length_c   11.58227370
_cell_angle_alpha   90.00000000
_cell_angle_beta   90.00000000
_cell_angle_gamma   90.00000000
_symmetry_Int_Tables_number   1
_chemical_formula_structural   Na3CuO2
_chemical_formula_sum   'Na24 Cu8 O16'
_cell_volume   716.92008205
_cell_formula_units_Z   8
loop_
 _symmetry_equiv_pos_site_id
 _symmetry_equiv_pos_as_xyz
  1  'x, y, z'
loop_
 _atom_site_type_symbol
 _atom_site_label
 _atom_site_symmetry_multiplicity
 _atom_site_fract_x
 _atom_site_fract_y
 _atom_site_fract_z
 _atom_site_occupancy
  Na  Na0  1  0.01516223  0.98483777  0.75000000  1
  Na  Na1  1  0.02629766  0.55494537  0.74839615  1
  Na  Na2  1  0.04779802  0.04779802  0.50000000  1
  Na  Na3  1  0.05494537  0.47370234  0.49839615  1
  Na  Na4  1  0.15079507  0.26466446  0.89534373  1
  Na  Na5  1  0.23533554  0.65079507  0.14534373  1
  Na  Na6  1  0.26466446  0.15079507  0.10465627  1
  Na  Na7  1  0.34920493  0.76466446  0.35465627  1
  Na  Na8  1  0.44505463  0.97370234  0.75160385  1
  Na  Na9  1  0.45220198  0.54779802  0.75000000  1
  Na  Na10  1  0.47370234  0.05494537  0.50160385  1
  Na  Na11  1  0.48483777  0.48483777  0.50000000  1
  Na  Na12  1  0.51516223  0.51516223  0.00000000  1
  Na  Na13  1  0.52629766  0.94505463  0.00160385  1
  Na  Na14  1  0.54779802  0.45220198  0.25000000  1
  Na  Na15  1  0.55494537  0.02629766  0.25160385  1
  Na  Na16  1  0.65079507  0.23533554  0.85465627  1
  Na  Na17  1  0.73533554  0.84920493  0.60465627  1
  Na  Na18  1  0.76466446  0.34920493  0.64534373  1
  Na  Na19  1  0.84920493  0.73533554  0.39534373  1
  Na  Na20  1  0.94505463  0.52629766  0.99839615  1
  Na  Na21  1  0.95220198  0.95220198  0.00000000  1
  Na  Na22  1  0.97370234  0.44505463  0.24839615  1
  Na  Na23  1  0.98483777  0.01516223  0.25000000  1
  Cu  Cu24  1  0.23556267  0.76434292  0.59133135  1
  Cu  Cu25  1  0.23565708  0.76443733  0.90866865  1
  Cu  Cu26  1  0.26434292  0.26443733  0.34133135  1
  Cu  Cu27  1  0.26443733  0.26434292  0.65866865  1
  Cu  Cu28  1  0.73556267  0.73565708  0.15866865  1
  Cu  Cu29  1  0.73565708  0.73556267  0.84133135  1
  Cu  Cu30  1  0.76434292  0.23556267  0.40866865  1
  Cu  Cu31  1  0.76443733  0.23565708  0.09133135  1
  O  O32  1  0.00601341  0.76145470  0.58829552  1
  O  O33  1  0.03472090  0.26600882  0.66600090  1
  O  O34  1  0.23399118  0.53472090  0.91600090  1
  O  O35  1  0.23854530  0.99398659  0.91170448  1
  O  O36  1  0.26145470  0.49398659  0.33829552  1
  O  O37  1  0.26600882  0.03472090  0.33399910  1
  O  O38  1  0.46527910  0.76600882  0.58399910  1
  O  O39  1  0.49398659  0.26145470  0.66170448  1
  O  O40  1  0.50601341  0.73854530  0.16170448  1
  O  O41  1  0.53472090  0.23399118  0.08399910  1
  O  O42  1  0.73399118  0.96527910  0.83399910  1
  O  O43  1  0.73854530  0.50601341  0.83829552  1
  O  O44  1  0.76145470  0.00601341  0.41170448  1
  O  O45  1  0.76600882  0.46527910  0.41600090  1
  O  O46  1  0.96527910  0.73399118  0.16600090  1
  O  O47  1  0.99398659  0.23854530  0.08829552  1
