# generated using pymatgen
data_LiMnF4
_symmetry_space_group_name_H-M   'P 1'
_cell_length_a   4.74999599
_cell_length_b   5.74591277
_cell_length_c   10.09515852
_cell_angle_alpha   90.00356189
_cell_angle_beta   90.00244079
_cell_angle_gamma   90.00002579
_symmetry_Int_Tables_number   1
_chemical_formula_structural   LiMnF4
_chemical_formula_sum   'Li4 Mn4 F16'
_cell_volume   275.52779294
_cell_formula_units_Z   4
loop_
 _symmetry_equiv_pos_site_id
 _symmetry_equiv_pos_as_xyz
  1  'x, y, z'
loop_
 _atom_site_type_symbol
 _atom_site_label
 _atom_site_symmetry_multiplicity
 _atom_site_fract_x
 _atom_site_fract_y
 _atom_site_fract_z
 _atom_site_occupancy
  Li  Li0  1  0.00001833  0.49995109  0.99998479  1
  Li  Li1  1  0.99998989  0.49993540  0.50002382  1
  Li  Li2  1  0.49997170  0.99995441  0.00000411  1
  Li  Li3  1  0.50002449  0.99996908  0.50000274  1
  Mn  Mn4  1  0.00010598  0.81700339  0.24989732  1
  Mn  Mn5  1  -0.00003045  0.18292067  0.75003801  1
  Mn  Mn6  1  0.49992436  0.31702524  0.24994413  1
  Mn  Mn7  1  0.50005607  0.68291408  0.75006674  1
  F  F8  1  0.19669894  0.19739549  0.59260229  1
  F  F9  1  0.19661634  0.80261622  0.09264671  1
  F  F10  1  0.23501692  0.55359584  0.32946063  1
  F  F11  1  0.23488079  0.44639661  0.82945295  1
  F  F12  1  0.26507843  0.05366630  0.32946231  1
  F  F13  1  0.26508279  0.94643561  0.82945396  1
  F  F14  1  0.30335424  0.30260897  0.09261189  1
  F  F15  1  0.30327222  0.69739506  0.59260173  1
  F  F16  1  0.69663442  0.30260812  0.40739168  1
  F  F17  1  0.69670437  0.69738718  0.90736677  1
  F  F18  1  0.73490911  0.05368465  0.17055294  1
  F  F19  1  0.73496150  0.94648719  0.67054142  1
  F  F20  1  0.76508543  0.44644594  0.67054489  1
  F  F21  1  0.76498639  0.55360018  0.17055640  1
  F  F22  1  0.80331201  0.80261255  0.40742843  1
  F  F23  1  0.80334574  0.19739073  0.90736334  1
