# generated using pymatgen
data_CuO2F
_symmetry_space_group_name_H-M   'P 1'
_cell_length_a   3.10750340
_cell_length_b   4.94534512
_cell_length_c   6.51330684
_cell_angle_alpha   112.31109548
_cell_angle_beta   103.80098873
_cell_angle_gamma   90.00002568
_symmetry_Int_Tables_number   1
_chemical_formula_structural   CuO2F
_chemical_formula_sum   'Cu2 O4 F2'
_cell_volume   89.46953728
_cell_formula_units_Z   2
loop_
 _symmetry_equiv_pos_site_id
 _symmetry_equiv_pos_as_xyz
  1  'x, y, z'
loop_
 _atom_site_type_symbol
 _atom_site_label
 _atom_site_symmetry_multiplicity
 _atom_site_fract_x
 _atom_site_fract_y
 _atom_site_fract_z
 _atom_site_occupancy
  Cu  Cu0  1  0.85151013  0.44481175  0.70302025  1
  Cu  Cu1  1  0.14848987  0.74179150  0.29697975  1
  O  O2  1  0.05512358  0.32014823  0.11024715  1
  O  O3  1  0.94487642  0.20990108  0.88975285  1
  O  O4  1  0.44255869  0.70444496  0.88511738  1
  O  O5  1  0.55744131  0.81932758  0.11488262  1
  F  F6  1  0.74611388  0.67084133  0.49222777  1
  F  F7  1  0.25388612  0.17861357  0.50777223  1
