# generated using pymatgen
data_Li2MnNi3O8
_symmetry_space_group_name_H-M   'P 1'
_cell_length_a   8.20818709
_cell_length_b   8.20226472
_cell_length_c   8.11757749
_cell_angle_alpha   89.92724937
_cell_angle_beta   90.02582752
_cell_angle_gamma   90.12152865
_symmetry_Int_Tables_number   1
_chemical_formula_structural   Li2MnNi3O8
_chemical_formula_sum   'Li8 Mn4 Ni12 O32'
_cell_volume   546.52005185
_cell_formula_units_Z   4
loop_
 _symmetry_equiv_pos_site_id
 _symmetry_equiv_pos_as_xyz
  1  'x, y, z'
loop_
 _atom_site_type_symbol
 _atom_site_label
 _atom_site_symmetry_multiplicity
 _atom_site_fract_x
 _atom_site_fract_y
 _atom_site_fract_z
 _atom_site_occupancy
  Li  Li0  1  0.99913840  0.00028346  0.00050278  1
  Li  Li1  1  0.24923625  0.25032992  0.25086459  1
  Li  Li2  1  0.25170813  0.74796928  0.75292048  1
  Li  Li3  1  0.50298012  0.00122324  0.49894564  1
  Li  Li4  1  0.49643269  0.50153223  0.00288480  1
  Li  Li5  1  0.75211717  0.24901750  0.74857481  1
  Li  Li6  1  0.74784716  0.75388331  0.24669373  1
  Li  Li7  1  0.99913569  0.49877345  0.50160334  1
  Mn  Mn8  1  0.12377489  0.87121791  0.37543587  1
  Mn  Mn9  1  0.37661501  0.12404350  0.87274390  1
  Mn  Mn10  1  0.63004376  0.62172571  0.62208720  1
  Mn  Mn11  1  0.87543445  0.37360059  0.12414056  1
  Ni  Ni12  1  0.12329197  0.12149021  0.62814102  1
  Ni  Ni13  1  0.12173523  0.37095580  0.87425386  1
  Ni  Ni14  1  0.12117855  0.62795850  0.12466380  1
  Ni  Ni15  1  0.37708102  0.37368980  0.62341199  1
  Ni  Ni16  1  0.37658398  0.62675902  0.37584306  1
  Ni  Ni17  1  0.37187703  0.87970122  0.12660909  1
  Ni  Ni18  1  0.63141145  0.37783033  0.37508652  1
  Ni  Ni19  1  0.62289725  0.12768551  0.12447565  1
  Ni  Ni20  1  0.62434860  0.87657547  0.87283027  1
  Ni  Ni21  1  0.87614979  0.12596526  0.37663535  1
  Ni  Ni22  1  0.87619333  0.87220955  0.62622388  1
  Ni  Ni23  1  0.87347841  0.62413622  0.87649446  1
  O  O24  1  0.10891091  0.11130416  0.39342357  1
  O  O25  1  0.10801989  0.88709314  0.61676126  1
  O  O26  1  0.10339478  0.62044721  0.89256899  1
  O  O27  1  0.14068863  0.12309244  0.85684483  1
  O  O28  1  0.10809330  0.38097030  0.10811609  1
  O  O29  1  0.12513898  0.35032842  0.64260238  1
  O  O30  1  0.12528013  0.63932673  0.35757340  1
  O  O31  1  0.13813549  0.87357376  0.14295755  1
  O  O32  1  0.35614616  0.13855443  0.63257531  1
  O  O33  1  0.36137198  0.35985980  0.85980137  1
  O  O34  1  0.36270787  0.64665868  0.14239266  1
  O  O35  1  0.39539237  0.61009324  0.61327979  1
  O  O36  1  0.35489609  0.85968498  0.38060929  1
  O  O37  1  0.39949939  0.38867309  0.38725025  1
  O  O38  1  0.37604542  0.11173284  0.10722209  1
  O  O39  1  0.39678011  0.89132420  0.87173030  1
  O  O40  1  0.63017628  0.39024139  0.60488001  1
  O  O41  1  0.62668838  0.60716936  0.38713050  1
  O  O42  1  0.60690725  0.89821901  0.11494025  1
  O  O43  1  0.63724925  0.36071469  0.14080644  1
  O  O44  1  0.60754295  0.12376865  0.88241444  1
  O  O45  1  0.64584874  0.14603916  0.36831341  1
  O  O46  1  0.64567350  0.85765256  0.62869778  1
  O  O47  1  0.64231709  0.62665620  0.85876332  1
  O  O48  1  0.86002832  0.37375864  0.35918586  1
  O  O49  1  0.86986786  0.14280651  0.13622696  1
  O  O50  1  0.85704422  0.85714266  0.86215663  1
  O  O51  1  0.88884241  0.87791585  0.39487005  1
  O  O52  1  0.86712223  0.64112152  0.64195317  1
  O  O53  1  0.89154607  0.10129067  0.61939938  1
  O  O54  1  0.88286434  0.39350601  0.88636196  1
  O  O55  1  0.87909027  0.61086168  0.10626805  1
