# generated using pymatgen
data_Gd3SbO7
_symmetry_space_group_name_H-M   'P 1'
_cell_length_a   7.57280473
_cell_length_b   10.72903568
_cell_length_c   7.55475192
_cell_angle_alpha   90.00000000
_cell_angle_beta   90.00000000
_cell_angle_gamma   90.00000000
_symmetry_Int_Tables_number   1
_chemical_formula_structural   Gd3SbO7
_chemical_formula_sum   'Gd12 Sb4 O28'
_cell_volume   613.81522394
_cell_formula_units_Z   4
loop_
 _symmetry_equiv_pos_site_id
 _symmetry_equiv_pos_as_xyz
  1  'x, y, z'
loop_
 _atom_site_type_symbol
 _atom_site_label
 _atom_site_symmetry_multiplicity
 _atom_site_fract_x
 _atom_site_fract_y
 _atom_site_fract_z
 _atom_site_occupancy
  Gd  Gd0  1  0.00458539  0.25000000  0.77291635  1
  Gd  Gd1  1  0.25341971  0.52011549  0.96589412  1
  Gd  Gd2  1  0.25341971  0.97988451  0.96589412  1
  Gd  Gd3  1  0.24658029  0.02011549  0.46589412  1
  Gd  Gd4  1  0.24658029  0.47988451  0.46589412  1
  Gd  Gd5  1  0.49541461  0.75000000  0.27291635  1
  Gd  Gd6  1  0.50458539  0.25000000  0.72708365  1
  Gd  Gd7  1  0.75341971  0.52011549  0.53410588  1
  Gd  Gd8  1  0.75341971  0.97988451  0.53410588  1
  Gd  Gd9  1  0.74658029  0.02011549  0.03410588  1
  Gd  Gd10  1  0.74658029  0.47988451  0.03410588  1
  Gd  Gd11  1  0.99541461  0.75000000  0.22708365  1
  Sb  Sb12  1  0.00158029  0.75000000  0.75200900  1
  Sb  Sb13  1  0.49841971  0.25000000  0.25200900  1
  Sb  Sb14  1  0.50158029  0.75000000  0.74799100  1
  Sb  Sb15  1  0.99841971  0.25000000  0.24799100  1
  O  O16  1  0.03256026  0.12414347  0.05292046  1
  O  O17  1  0.03256026  0.37585653  0.05292046  1
  O  O18  1  0.03613342  0.61818829  0.57072015  1
  O  O19  1  0.03613342  0.88181171  0.57072015  1
  O  O20  1  0.24775256  0.25000000  0.33741333  1
  O  O21  1  0.25141994  0.11684942  0.73199360  1
  O  O22  1  0.25141994  0.38315058  0.73199360  1
  O  O23  1  0.24858006  0.61684942  0.23199360  1
  O  O24  1  0.24858006  0.88315058  0.23199360  1
  O  O25  1  0.25224744  0.75000000  0.83741333  1
  O  O26  1  0.46386658  0.11818829  0.07072015  1
  O  O27  1  0.46386658  0.38181171  0.07072015  1
  O  O28  1  0.46743974  0.62414347  0.55292046  1
  O  O29  1  0.46743974  0.87585653  0.55292046  1
  O  O30  1  0.53256026  0.12414347  0.44707954  1
  O  O31  1  0.53256026  0.37585653  0.44707954  1
  O  O32  1  0.53613342  0.61818829  0.92927985  1
  O  O33  1  0.53613342  0.88181171  0.92927985  1
  O  O34  1  0.74775256  0.25000000  0.16258667  1
  O  O35  1  0.75141994  0.11684942  0.76800640  1
  O  O36  1  0.75141994  0.38315058  0.76800640  1
  O  O37  1  0.74858006  0.61684942  0.26800640  1
  O  O38  1  0.74858006  0.88315058  0.26800640  1
  O  O39  1  0.75224744  0.75000000  0.66258667  1
  O  O40  1  0.96386658  0.11818829  0.42927985  1
  O  O41  1  0.96386658  0.38181171  0.42927985  1
  O  O42  1  0.96743974  0.62414347  0.94707954  1
  O  O43  1  0.96743974  0.87585653  0.94707954  1
