# generated using pymatgen
data_Li3Mn2(P2O7)2
_symmetry_space_group_name_H-M   'P 1'
_cell_length_a   5.00836813
_cell_length_b   7.04465357
_cell_length_c   8.34683362
_cell_angle_alpha   89.43673698
_cell_angle_beta   89.80520310
_cell_angle_gamma   71.95152306
_symmetry_Int_Tables_number   1
_chemical_formula_structural   Li3Mn2(P2O7)2
_chemical_formula_sum   'Li3 Mn2 P4 O14'
_cell_volume   279.99055886
_cell_formula_units_Z   1
loop_
 _symmetry_equiv_pos_site_id
 _symmetry_equiv_pos_as_xyz
  1  'x, y, z'
loop_
 _atom_site_type_symbol
 _atom_site_label
 _atom_site_symmetry_multiplicity
 _atom_site_fract_x
 _atom_site_fract_y
 _atom_site_fract_z
 _atom_site_occupancy
  Li  Li0  1  0.17327418  0.33300048  0.14433655  1
  Li  Li1  1  0.28862995  0.90897913  0.82885508  1
  Li  Li2  1  0.83518911  0.66024414  0.63868960  1
  Mn  Mn3  1  0.21837189  0.27123223  0.49261781  1
  Mn  Mn4  1  0.79608270  0.72098941  0.00614415  1
  P  P5  1  0.39845047  0.47732842  0.81619205  1
  P  P6  1  0.20627931  0.91552415  0.20835409  1
  P  P7  1  0.79204189  0.08907895  0.70802297  1
  P  P8  1  0.59824987  0.52387002  0.31971853  1
  O  O9  1  0.07287011  0.13106521  0.67388114  1
  O  O10  1  0.14107057  0.11453035  0.29583638  1
  O  O11  1  0.20783199  0.50065163  0.96152423  1
  O  O12  1  0.23943183  0.49510331  0.65719179  1
  O  O13  1  0.39552088  0.39614479  0.32108375  1
  O  O14  1  0.61445066  0.08313099  0.56438672  1
  O  O15  1  0.61540752  0.25385728  0.83457095  1
  O  O16  1  0.40661587  0.75474756  0.33317162  1
  O  O17  1  0.37318292  0.91782083  0.05339760  1
  O  O18  1  0.57223780  0.62407633  0.81457129  1
  O  O19  1  0.75489559  0.49750177  0.16026617  1
  O  O20  1  0.79360940  0.48894182  0.46402925  1
  O  O21  1  0.87322608  0.89171471  0.80434520  1
  O  O22  1  0.94496539  0.85799148  0.17911707  1
