# generated using pymatgen
data_LiFe3(OF3)2
_symmetry_space_group_name_H-M   'P 1'
_cell_length_a   10.38467996
_cell_length_b   4.70176616
_cell_length_c   5.60518823
_cell_angle_alpha   90.00000000
_cell_angle_beta   95.60989238
_cell_angle_gamma   90.00000000
_symmetry_Int_Tables_number   1
_chemical_formula_structural   LiFe3(OF3)2
_chemical_formula_sum   'Li2 Fe6 O4 F12'
_cell_volume   272.37002435
_cell_formula_units_Z   2
loop_
 _symmetry_equiv_pos_site_id
 _symmetry_equiv_pos_as_xyz
  1  'x, y, z'
loop_
 _atom_site_type_symbol
 _atom_site_label
 _atom_site_symmetry_multiplicity
 _atom_site_fract_x
 _atom_site_fract_y
 _atom_site_fract_z
 _atom_site_occupancy
  Li  Li0  1  0.00000000  0.00000000  0.00000000  1
  Li  Li1  1  0.50000000  0.50000000  0.00000000  1
  Fe  Fe2  1  0.00000000  0.50000000  0.50000000  1
  Fe  Fe3  1  0.24676645  0.99156219  0.72971475  1
  Fe  Fe4  1  0.25323355  0.49156219  0.27028525  1
  Fe  Fe5  1  0.50000000  0.00000000  0.50000000  1
  Fe  Fe6  1  0.74676645  0.50843781  0.72971475  1
  Fe  Fe7  1  0.75323355  0.00843781  0.27028525  1
  O  O8  1  0.16879285  0.69442608  0.51719364  1
  O  O9  1  0.33120715  0.19442608  0.48280636  1
  O  O10  1  0.66879285  0.80557392  0.51719364  1
  O  O11  1  0.83120715  0.30557392  0.48280636  1
  F  F12  1  0.07799422  0.19869967  0.72863679  1
  F  F13  1  0.07555012  0.30190201  0.22742164  1
  F  F14  1  0.18328517  0.79315844  0.01843033  1
  F  F15  1  0.31671483  0.29315844  0.98156967  1
  F  F16  1  0.42444988  0.80190201  0.77257836  1
  F  F17  1  0.42200578  0.69869967  0.27136321  1
  F  F18  1  0.57799422  0.30130033  0.72863679  1
  F  F19  1  0.57555012  0.19809799  0.22742164  1
  F  F20  1  0.68328517  0.70684156  0.01843033  1
  F  F21  1  0.81671483  0.20684156  0.98156967  1
  F  F22  1  0.92444988  0.69809799  0.77257836  1
  F  F23  1  0.92200578  0.80130033  0.27136321  1
