# generated using pymatgen
data_Li4Fe3SbO8
_symmetry_space_group_name_H-M   'P 1'
_cell_length_a   10.46817351
_cell_length_b   10.47839186
_cell_length_c   14.78107570
_cell_angle_alpha   19.75104661
_cell_angle_beta   19.97757902
_cell_angle_gamma   34.28675898
_symmetry_Int_Tables_number   1
_chemical_formula_structural   Li4Fe3SbO8
_chemical_formula_sum   'Li4 Fe3 Sb1 O8'
_cell_volume   161.56686337
_cell_formula_units_Z   1
loop_
 _symmetry_equiv_pos_site_id
 _symmetry_equiv_pos_as_xyz
  1  'x, y, z'
loop_
 _atom_site_type_symbol
 _atom_site_label
 _atom_site_symmetry_multiplicity
 _atom_site_fract_x
 _atom_site_fract_y
 _atom_site_fract_z
 _atom_site_occupancy
  Li  Li0  1  0.00000615  0.00000584  0.49999094  1
  Li  Li1  1  -0.00001158  0.49999741  0.50000708  1
  Li  Li2  1  0.49999442  -0.00000603  0.50000492  1
  Li  Li3  1  0.50000611  0.50001044  0.49998340  1
  Fe  Fe4  1  0.00002423  0.49998956  0.00000617  1
  Fe  Fe5  1  0.50002687  -0.00002202  0.99999047  1
  Fe  Fe6  1  0.49998889  0.50003968  0.00001046  1
  Sb  Sb7  1  0.00000126  0.00000843  0.99998833  1
  O  O8  1  0.01756675  0.99976952  0.24981470  1
  O  O9  1  0.98137983  0.51579285  0.25693083  1
  O  O10  1  0.54084167  0.00016592  0.22813688  1
  O  O11  1  0.98240232  0.00018237  0.75023222  1
  O  O12  1  0.46584760  0.48436411  0.28821509  1
  O  O13  1  0.01862032  0.48421591  0.74305925  1
  O  O14  1  0.45914370  -0.00015665  0.77186276  1
  O  O15  1  0.53415949  0.51564164  0.71176852  1
