# generated using pymatgen
data_Li3Co2(NiO4)2
_symmetry_space_group_name_H-M   'P 1'
_cell_length_a   5.76960766
_cell_length_b   5.79986202
_cell_length_c   5.67934816
_cell_angle_alpha   59.97074874
_cell_angle_beta   60.77621564
_cell_angle_gamma   90.47526553
_symmetry_Int_Tables_number   1
_chemical_formula_structural   Li3Co2(NiO4)2
_chemical_formula_sum   'Li3 Co2 Ni2 O8'
_cell_volume   135.33137723
_cell_formula_units_Z   1
loop_
 _symmetry_equiv_pos_site_id
 _symmetry_equiv_pos_as_xyz
  1  'x, y, z'
loop_
 _atom_site_type_symbol
 _atom_site_label
 _atom_site_symmetry_multiplicity
 _atom_site_fract_x
 _atom_site_fract_y
 _atom_site_fract_z
 _atom_site_occupancy
  Li  Li0  1  0.00000000  0.50000000  0.00000000  1
  Li  Li1  1  0.50000000  0.50000000  0.50000000  1
  Li  Li2  1  0.50000000  0.00000000  0.50000000  1
  Co  Co3  1  0.00000000  0.00000000  0.00000000  1
  Co  Co4  1  0.00000000  0.00000000  0.50000000  1
  Ni  Ni5  1  0.00000000  0.50000000  0.50000000  1
  Ni  Ni6  1  0.50000000  0.00000000  0.00000000  1
  O  O7  1  0.23138957  0.77617306  0.01520217  1
  O  O8  1  0.21658968  0.22021901  0.02372501  1
  O  O9  1  0.24253726  0.77475040  0.48003078  1
  O  O10  1  0.21213058  0.22390856  0.53490926  1
  O  O11  1  0.78786942  0.77609144  0.46509074  1
  O  O12  1  0.75746274  0.22524960  0.51996922  1
  O  O13  1  0.78341032  0.77978099  0.97627499  1
  O  O14  1  0.76861043  0.22382694  0.98479783  1
