# generated using pymatgen
data_Na6V2B4SO16
_symmetry_space_group_name_H-M   'P 1'
_cell_length_a   9.93543796
_cell_length_b   9.93543762
_cell_length_c   9.93543796
_cell_angle_alpha   90.00000056
_cell_angle_beta   120.00000320
_cell_angle_gamma   60.00000142
_symmetry_Int_Tables_number   1
_chemical_formula_structural   Na6V2B4SO16
_chemical_formula_sum   'Na12 V4 B8 S2 O32'
_cell_volume   693.49929737
_cell_formula_units_Z   2
loop_
 _symmetry_equiv_pos_site_id
 _symmetry_equiv_pos_as_xyz
  1  'x, y, z'
loop_
 _atom_site_type_symbol
 _atom_site_label
 _atom_site_symmetry_multiplicity
 _atom_site_fract_x
 _atom_site_fract_y
 _atom_site_fract_z
 _atom_site_occupancy
  Na  Na0  1  0.75000000  0.90582793  0.84417207  1
  Na  Na1  1  0.75000000  0.90582793  0.40582793  1
  Na  Na2  1  0.75000000  0.34417207  0.84417207  1
  Na  Na3  1  0.18834315  0.90582793  0.84417207  1
  Na  Na4  1  0.68834315  0.65582793  0.59417207  1
  Na  Na5  1  0.75000000  0.34417207  0.40582793  1
  Na  Na6  1  0.25000000  0.65582793  0.59417207  1
  Na  Na7  1  0.25000000  0.65582793  0.15582793  1
  Na  Na8  1  0.81165685  0.09417207  0.15582793  1
  Na  Na9  1  0.31165685  0.34417207  0.40582793  1
  Na  Na10  1  0.25000000  0.09417207  0.59417207  1
  Na  Na11  1  0.25000000  0.09417207  0.15582793  1
  V  V12  1  0.00000000  0.50000000  0.50000000  1
  V  V13  1  0.50000000  0.50000000  0.00000000  1
  V  V14  1  0.50000000  0.00000000  0.00000000  1
  V  V15  1  0.00000000  0.50000000  0.00000000  1
  B  B16  1  0.57546264  0.71226868  0.86319396  1
  B  B17  1  0.92453736  0.71226868  0.21226868  1
  B  B18  1  0.42453736  0.28773132  0.78773132  1
  B  B19  1  0.07546264  0.63680604  0.78773132  1
  B  B20  1  0.92453736  0.36319396  0.21226868  1
  B  B21  1  0.57546264  0.71226868  0.21226868  1
  B  B22  1  0.07546264  0.28773132  0.78773132  1
  B  B23  1  0.42453736  0.28773132  0.13680604  1
  S  S24  1  0.75000000  0.12500000  0.62500000  1
  S  S25  1  0.25000000  0.87500000  0.37500000  1
  O  O26  1  0.72616993  0.67684002  0.85810404  1
  O  O27  1  0.95509409  0.64189596  0.63193411  1
  O  O28  1  0.95509409  0.40300995  0.82315998  1
  O  O29  1  0.45509409  0.86806589  0.85810404  1
  O  O30  1  0.96505694  0.67684002  0.36806589  1
  O  O31  1  0.53494306  0.59699005  0.85810404  1
  O  O32  1  0.54490591  0.32315998  0.90300995  1
  O  O33  1  0.77383007  0.86806589  0.09699005  1
  O  O34  1  0.37337286  0.93668593  0.43668593  1
  O  O35  1  0.87337286  0.06331407  0.81005879  1
  O  O36  1  0.72616993  0.59699005  0.36806589  1
  O  O37  1  0.22616993  0.64189596  0.82315998  1
  O  O38  1  0.03494306  0.64189596  0.90300995  1
  O  O39  1  0.53494306  0.86806589  0.17684002  1
  O  O40  1  0.37337286  0.68994121  0.43668593  1
  O  O41  1  0.12662714  0.93668593  0.43668593  1
  O  O42  1  0.87337286  0.06331407  0.56331407  1
  O  O43  1  0.62662714  0.31005879  0.56331407  1
  O  O44  1  0.46505694  0.13193411  0.82315998  1
  O  O45  1  0.96505694  0.35810404  0.09699005  1
  O  O46  1  0.77383007  0.35810404  0.17684002  1
  O  O47  1  0.27383007  0.40300995  0.63193411  1
  O  O48  1  0.12662714  0.93668593  0.18994121  1
  O  O49  1  0.62662714  0.06331407  0.56331407  1
  O  O50  1  0.22616993  0.13193411  0.90300995  1
  O  O51  1  0.45509409  0.67684002  0.09699005  1
  O  O52  1  0.46505694  0.40300995  0.14189596  1
  O  O53  1  0.03494306  0.32315998  0.63193411  1
  O  O54  1  0.54490591  0.13193411  0.14189596  1
  O  O55  1  0.04490591  0.59699005  0.17684002  1
  O  O56  1  0.04490591  0.35810404  0.36806589  1
  O  O57  1  0.27383007  0.32315998  0.14189596  1
