# generated using pymatgen
data_BaP4O11
_symmetry_space_group_name_H-M   'P 1'
_cell_length_a   11.04071785
_cell_length_b   9.18910669
_cell_length_c   12.12826001
_cell_angle_alpha   90.00000000
_cell_angle_beta   102.45449767
_cell_angle_gamma   90.00000000
_symmetry_Int_Tables_number   1
_chemical_formula_structural   BaP4O11
_chemical_formula_sum   'Ba4 P16 O44'
_cell_volume   1201.50874608
_cell_formula_units_Z   4
loop_
 _symmetry_equiv_pos_site_id
 _symmetry_equiv_pos_as_xyz
  1  'x, y, z'
loop_
 _atom_site_type_symbol
 _atom_site_label
 _atom_site_symmetry_multiplicity
 _atom_site_fract_x
 _atom_site_fract_y
 _atom_site_fract_z
 _atom_site_occupancy
  Ba  Ba0  1  0.04625168  0.01244721  0.78490361  1
  Ba  Ba1  1  0.45374832  0.51244721  0.71509639  1
  Ba  Ba2  1  0.54625168  0.48755279  0.28490361  1
  Ba  Ba3  1  0.95374832  0.98755279  0.21509639  1
  P  P4  1  0.15539886  0.43062433  0.84143246  1
  P  P5  1  0.07665580  0.39034752  0.22841890  1
  P  P6  1  0.34460114  0.93062433  0.65856754  1
  P  P7  1  0.27219456  0.01214276  0.41981616  1
  P  P8  1  0.26934156  0.35049379  0.44063574  1
  P  P9  1  0.23065844  0.85049379  0.05936426  1
  P  P10  1  0.22780544  0.51214276  0.08018384  1
  P  P11  1  0.42334420  0.89034752  0.27158110  1
  P  P12  1  0.57665580  0.10965248  0.72841890  1
  P  P13  1  0.77219456  0.48785724  0.91981616  1
  P  P14  1  0.76934156  0.14950621  0.94063574  1
  P  P15  1  0.73065844  0.64950621  0.55936426  1
  P  P16  1  0.72780544  0.98785724  0.58018384  1
  P  P17  1  0.65539886  0.06937567  0.34143246  1
  P  P18  1  0.92334420  0.60965248  0.77158110  1
  P  P19  1  0.84460114  0.56937567  0.15856754  1
  O  O20  1  0.05889288  0.55511685  0.77453110  1
  O  O21  1  0.13345397  0.45620146  0.97132881  1
  O  O22  1  0.10504547  0.28495092  0.80450640  1
  O  O23  1  0.23236379  0.90897009  0.94579216  1
  O  O24  1  0.21814540  0.98047081  0.66308390  1
  O  O25  1  0.08182257  0.24568762  0.17620460  1
  O  O26  1  0.15962608  0.92404744  0.38111117  1
  O  O27  1  0.13559050  0.39955273  0.35870324  1
  O  O28  1  0.12739278  0.87762393  0.11734168  1
  O  O29  1  0.13904487  0.52024015  0.17014378  1
  O  O30  1  0.24279761  0.17412621  0.44284814  1
  O  O31  1  0.28185460  0.48047081  0.83691610  1
  O  O32  1  0.26763621  0.40897009  0.55420784  1
  O  O33  1  0.39495453  0.78495092  0.69549360  1
  O  O34  1  0.36654603  0.95620146  0.52867119  1
  O  O35  1  0.44110712  0.05511685  0.72546890  1
  O  O36  1  0.25720239  0.67412621  0.05715186  1
  O  O37  1  0.36095513  0.02024015  0.32985622  1
  O  O38  1  0.37260722  0.37762393  0.38265832  1
  O  O39  1  0.36440950  0.89955273  0.14129676  1
  O  O40  1  0.34037392  0.42404744  0.11888883  1
  O  O41  1  0.41817743  0.74568762  0.32379540  1
  O  O42  1  0.58182257  0.25431138  0.67620460  1
  O  O43  1  0.65962608  0.57595256  0.88111117  1
  O  O44  1  0.63559050  0.10044727  0.85870324  1
  O  O45  1  0.62739278  0.62237607  0.61734168  1
  O  O46  1  0.63904487  0.97975985  0.67014378  1
  O  O47  1  0.74279761  0.32587379  0.94284814  1
  O  O48  1  0.55889288  0.94488315  0.27453110  1
  O  O49  1  0.63345397  0.04379854  0.47132881  1
  O  O50  1  0.60504547  0.21504908  0.30450640  1
  O  O51  1  0.73236379  0.59102991  0.44579216  1
  O  O52  1  0.71814540  0.51952919  0.16308390  1
  O  O53  1  0.75720239  0.82587379  0.55715186  1
  O  O54  1  0.86095513  0.47975985  0.82985622  1
  O  O55  1  0.87260722  0.12237607  0.88265832  1
  O  O56  1  0.86440950  0.60044727  0.64129676  1
  O  O57  1  0.84037392  0.07595256  0.61888883  1
  O  O58  1  0.91817743  0.75431238  0.82379540  1
  O  O59  1  0.78185460  0.01952919  0.33691610  1
  O  O60  1  0.76763621  0.09102991  0.05420784  1
  O  O61  1  0.89495453  0.71504908  0.19549360  1
  O  O62  1  0.86654603  0.54379854  0.02867119  1
  O  O63  1  0.94110712  0.44488315  0.22546890  1
