# generated using pymatgen
data_Li32Mn5Cr11O48
_symmetry_space_group_name_H-M   'P 1'
_cell_length_a   5.01568798
_cell_length_b   5.01568634
_cell_length_c   38.45336405
_cell_angle_alpha   89.00862840
_cell_angle_beta   90.99136490
_cell_angle_gamma   60.39414501
_symmetry_Int_Tables_number   1
_chemical_formula_structural   Li32Mn5Cr11O48
_chemical_formula_sum   'Li32 Mn5 Cr11 O48'
_cell_volume   840.58176173
_cell_formula_units_Z   1
loop_
 _symmetry_equiv_pos_site_id
 _symmetry_equiv_pos_as_xyz
  1  'x, y, z'
loop_
 _atom_site_type_symbol
 _atom_site_label
 _atom_site_symmetry_multiplicity
 _atom_site_fract_x
 _atom_site_fract_y
 _atom_site_fract_z
 _atom_site_occupancy
  Li  Li0  1  0.09110017  0.09157299  0.24999968  1
  Li  Li1  1  0.99399392  0.50382764  0.00010348  1
  Li  Li2  1  0.06491966  0.43166614  0.18750983  1
  Li  Li3  1  0.12277881  0.37158312  0.37503609  1
  Li  Li4  1  0.18115443  0.31718281  0.56246616  1
  Li  Li5  1  0.24879428  0.25067290  0.75007242  1
  Li  Li6  1  0.31271103  0.18751152  0.93755971  1
  Li  Li7  1  0.04075965  0.78509971  0.12490494  1
  Li  Li8  1  0.36582196  0.12528913  0.12501726  1
  Li  Li9  1  0.16009951  0.66575986  0.50009511  1
  Li  Li10  1  0.27976771  0.53857320  0.87487234  1
  Li  Li11  1  0.43748609  0.06248654  0.31250003  1
  Li  Li12  1  0.50028956  0.99082188  0.49998287  1
  Li  Li13  1  0.41198432  0.40971244  0.24987094  1
  Li  Li14  1  0.53241175  0.29163416  0.62483677  1
  Li  Li15  1  0.21448813  0.96438258  0.62496785  1
  Li  Li16  1  0.33938273  0.83948816  0.00003224  1
  Li  Li17  1  0.66663389  0.15741199  0.00016327  1
  Li  Li18  1  0.78471209  0.03698446  0.37512908  1
  Li  Li19  1  0.46657352  0.71609985  0.37500035  1
  Li  Li20  1  0.58690686  0.59342769  0.74998884  1
  Li  Li21  1  0.56251163  0.93771098  0.68744027  1
  Li  Li22  1  0.71701255  0.46447967  0.12510136  1
  Li  Li23  1  0.83947983  0.34201217  0.49989868  1
  Li  Li24  1  0.62567281  0.87379431  0.87492766  1
  Li  Li25  1  0.96842741  0.21190739  0.87501121  1
  Li  Li26  1  0.69218253  0.80615501  0.06253395  1
  Li  Li27  1  0.74658355  0.74777796  0.24996397  1
  Li  Li28  1  0.80666570  0.68991991  0.43749019  1
  Li  Li29  1  0.87882809  0.61899359  0.62489654  1
  Li  Li30  1  0.93983924  0.56483891  0.81250005  1
  Li  Li31  1  0.91357327  0.90476754  0.75012771  1
  Mn  Mn32  1  0.02117445  0.14584460  0.06241956  1
  Mn  Mn33  1  0.14529282  0.01998378  0.43746911  1
  Mn  Mn34  1  0.27017170  0.89517413  0.81250000  1
  Mn  Mn35  1  0.39498617  0.77029285  0.18753085  1
  Mn  Mn36  1  0.52084745  0.64617129  0.56258084  1
  Cr  Cr37  1  0.10783114  0.73282951  0.31250033  1
  Cr  Cr38  1  0.23336653  0.60856862  0.68748451  1
  Cr  Cr39  1  0.36065551  0.47308642  0.06256743  1
  Cr  Cr40  1  0.47320471  0.35796570  0.43750278  1
  Cr  Cr41  1  0.60856549  0.23356243  0.81249994  1
  Cr  Cr42  1  0.73296687  0.09820980  0.18749644  1
  Cr  Cr43  1  0.64143178  0.51617026  0.93750619  1
  Cr  Cr44  1  0.76659578  0.39161077  0.31249983  1
  Cr  Cr45  1  0.89118837  0.26643435  0.68749358  1
  Cr  Cr46  1  0.84810453  0.98564874  0.56243180  1
  Cr  Cr47  1  0.98356104  0.85838926  0.93751462  1
  O  O48  1  0.09294364  0.04387363  0.34072946  1
  O  O49  1  0.06152173  0.08633492  0.15918635  1
  O  O50  1  0.06993646  0.43001381  0.28400131  1
  O  O51  1  0.19632633  0.30406482  0.65917081  1
  O  O52  1  0.04874625  0.44518319  0.09146052  1
  O  O53  1  0.18379391  0.31854989  0.46597654  1
  O  O54  1  0.30558772  0.19443559  0.84091411  1
  O  O55  1  0.31868700  0.18566512  0.03407591  1
  O  O56  1  0.44462711  0.04857579  0.40858745  1
  O  O57  1  0.06661965  0.79203249  0.21541887  1
  O  O58  1  0.42357575  0.06962816  0.21641236  1
  O  O59  1  0.19664894  0.66190757  0.59045484  1
  O  O60  1  0.33262615  0.53074500  0.96598192  1
  O  O61  1  0.03690992  0.82164921  0.03454536  1
  O  O62  1  0.16703375  0.69161953  0.40958093  1
  O  O63  1  0.28113667  0.57734764  0.78418778  1
  O  O64  1  0.21884530  0.91799025  0.71584215  1
  O  O65  1  0.17884399  0.96201171  0.53470726  1
  O  O66  1  0.29299086  0.84384608  0.90915796  1
  O  O67  1  0.45611092  0.40699542  0.34081887  1
  O  O68  1  0.58283748  0.28060286  0.71588705  1
  O  O69  1  0.41426066  0.44509276  0.15949672  1
  O  O70  1  0.53991905  0.31855505  0.53464324  1
  O  O71  1  0.65560438  0.20783532  0.90911305  1
  O  O72  1  0.33701049  0.80384554  0.09029254  1
  O  O73  1  0.46133180  0.68652327  0.46581372  1
  O  O74  1  0.58598464  0.55246726  0.84041271  1
  O  O75  1  0.41887354  0.71794404  0.28427028  1
  O  O76  1  0.54236623  0.59535325  0.65916424  1
  O  O77  1  0.69355698  0.16491866  0.09035686  1
  O  O78  1  0.82009401  0.03926023  0.46550340  1
  O  O79  1  0.78199467  0.08111055  0.28418113  1
  O  O80  1  0.71144693  0.43012713  0.21545555  1
  O  O81  1  0.83658443  0.31239789  0.59081241  1
  O  O82  1  0.97035216  0.16736831  0.96583563  1
  O  O83  1  0.68739590  0.46158378  0.03418773  1
  O  O84  1  0.80512832  0.33644697  0.40954449  1
  O  O85  1  0.56943547  0.93058952  0.78408588  1
  O  O86  1  0.92746818  0.21098434  0.78458776  1
  O  O87  1  0.56066521  0.94368671  0.59092409  1
  O  O88  1  0.67906507  0.82132545  0.96582925  1
  O  O89  1  0.69355075  0.80879252  0.15902358  1
  O  O90  1  0.82018313  0.67374721  0.53353958  1
  O  O91  1  0.94530310  0.55447138  0.90919181  1
  O  O92  1  0.80501401  0.69493588  0.34099876  1
  O  O93  1  0.92947334  0.57030489  0.71580836  1
  O  O94  1  0.95234713  0.90613778  0.84081241  1
  O  O95  1  0.90574488  0.95762796  0.65901835  1
