# generated using pymatgen
data_V4CuNiO12
_symmetry_space_group_name_H-M   'P 1'
_cell_length_a   6.64024421
_cell_length_b   6.64024461
_cell_length_c   5.93376387
_cell_angle_alpha   75.92666609
_cell_angle_beta   104.07333728
_cell_angle_gamma   95.70988871
_symmetry_Int_Tables_number   1
_chemical_formula_structural   V4CuNiO12
_chemical_formula_sum   'V4 Cu1 Ni1 O12'
_cell_volume   245.93972428
_cell_formula_units_Z   1
loop_
 _symmetry_equiv_pos_site_id
 _symmetry_equiv_pos_as_xyz
  1  'x, y, z'
loop_
 _atom_site_type_symbol
 _atom_site_label
 _atom_site_symmetry_multiplicity
 _atom_site_fract_x
 _atom_site_fract_y
 _atom_site_fract_z
 _atom_site_occupancy
  V  V0  1  0.20375667  0.61103096  0.76175151  1
  V  V1  1  0.39208812  0.78893842  0.26970356  1
  V  V2  1  0.61103096  0.20375667  0.73824849  1
  V  V3  1  0.78893842  0.39208812  0.23029644  1
  Cu  Cu4  1  0.08285060  0.08285060  0.75000000  1
  Ni  Ni5  1  0.91921051  0.91921051  0.25000000  1
  O  O6  1  0.03096523  0.81138816  0.64216289  1
  O  O7  1  0.08311830  0.37248563  0.77894781  1
  O  O8  1  0.20595288  0.96614723  0.17405058  1
  O  O9  1  0.37026226  0.63724595  0.56146052  1
  O  O10  1  0.37248563  0.08311830  0.72105219  1
  O  O11  1  0.35214146  0.63266428  0.05041314  1
  O  O12  1  0.63724595  0.37026226  0.93853948  1
  O  O13  1  0.62624784  0.91350450  0.28718286  1
  O  O14  1  0.63266428  0.35214146  0.44958686  1
  O  O15  1  0.81138816  0.03096523  0.85783711  1
  O  O16  1  0.91350450  0.62624784  0.21281714  1
  O  O17  1  0.96614723  0.20595288  0.32594942  1
