# generated using pymatgen
data_Li4Fe3Sn3(SbO8)2
_symmetry_space_group_name_H-M   'P 1'
_cell_length_a   6.22436714
_cell_length_b   6.20275604
_cell_length_c   9.93904137
_cell_angle_alpha   89.98901436
_cell_angle_beta   90.80833109
_cell_angle_gamma   119.97796628
_symmetry_Int_Tables_number   1
_chemical_formula_structural   Li4Fe3Sn3(SbO8)2
_chemical_formula_sum   'Li4 Fe3 Sn3 Sb2 O16'
_cell_volume   332.34915583
_cell_formula_units_Z   1
loop_
 _symmetry_equiv_pos_site_id
 _symmetry_equiv_pos_as_xyz
  1  'x, y, z'
loop_
 _atom_site_type_symbol
 _atom_site_label
 _atom_site_symmetry_multiplicity
 _atom_site_fract_x
 _atom_site_fract_y
 _atom_site_fract_z
 _atom_site_occupancy
  Li  Li0  1  0.32990881  0.66505097  0.89877411  1
  Li  Li1  1  0.97517060  0.98743393  0.98081886  1
  Li  Li2  1  0.98275484  0.99141704  0.49804805  1
  Li  Li3  1  0.65741080  0.32865138  0.41088925  1
  Fe  Fe4  1  0.65814017  0.82805114  0.21368425  1
  Fe  Fe5  1  0.83448488  0.65963923  0.71179399  1
  Fe  Fe6  1  0.83430082  0.17475903  0.71178299  1
  Sn  Sn7  1  0.17071844  0.83229027  0.21368462  1
  Sn  Sn8  1  0.17031471  0.33838422  0.21350128  1
  Sn  Sn9  1  0.34437360  0.17219474  0.71219590  1
  Sb  Sb10  1  0.34624807  0.67327612  0.49177436  1
  Sb  Sb11  1  0.68828774  0.34435456  0.97835878  1
  O  O12  1  0.17807702  0.83594217  0.58779478  1
  O  O13  1  0.03487785  0.51702551  0.34581855  1
  O  O14  1  0.32667597  0.66398182  0.10387376  1
  O  O15  1  0.00171665  0.00048866  0.30935366  1
  O  O16  1  0.01016053  0.00527911  0.79850735  1
  O  O17  1  0.17797761  0.34173207  0.58767030  1
  O  O18  1  0.47063369  0.95917761  0.34898727  1
  O  O19  1  0.47107862  0.51236271  0.34869225  1
  O  O20  1  0.33223003  0.16655371  0.09734416  1
  O  O21  1  0.66531117  0.83262660  0.58550964  1
  O  O22  1  0.51531651  0.47706111  0.85597777  1
  O  O23  1  0.51488985  0.03837129  0.85612302  1
  O  O24  1  0.66065385  0.33026218  0.60635608  1
  O  O25  1  0.83942206  0.66592766  0.09340368  1
  O  O26  1  0.96994872  0.48520872  0.85408030  1
  O  O27  1  0.83891539  0.17279642  0.09304097  1
