# generated using pymatgen
data_LiV2(PO4)3
_symmetry_space_group_name_H-M   'P 1'
_cell_length_a   8.87455775
_cell_length_b   8.34909704
_cell_length_c   8.33888151
_cell_angle_alpha   119.90199881
_cell_angle_beta   89.74414854
_cell_angle_gamma   62.36031719
_symmetry_Int_Tables_number   1
_chemical_formula_structural   LiV2(PO4)3
_chemical_formula_sum   'Li2 V4 P6 O24'
_cell_volume   451.58422034
_cell_formula_units_Z   2
loop_
 _symmetry_equiv_pos_site_id
 _symmetry_equiv_pos_as_xyz
  1  'x, y, z'
loop_
 _atom_site_type_symbol
 _atom_site_label
 _atom_site_symmetry_multiplicity
 _atom_site_fract_x
 _atom_site_fract_y
 _atom_site_fract_z
 _atom_site_occupancy
  Li  Li0  1  0.13824690  0.94046464  0.25991224  1
  Li  Li1  1  0.86175310  0.05953536  0.74008776  1
  V  V2  1  0.05729491  0.30320209  0.65535627  1
  V  V3  1  0.57062446  0.28237765  0.14695259  1
  V  V4  1  0.42937554  0.71762235  0.85304741  1
  V  V5  1  0.94270509  0.69679791  0.34464373  1
  P  P6  1  0.24823030  0.21883960  0.25257525  1
  P  P7  1  0.25453929  0.49856287  0.96733875  1
  P  P8  1  0.24889892  0.78500619  0.53532501  1
  P  P9  1  0.75110108  0.21499381  0.46467499  1
  P  P10  1  0.74546071  0.50143713  0.03266125  1
  P  P11  1  0.75176970  0.78116040  0.74742475  1
  O  O12  1  0.10584748  0.38917609  0.22080525  1
  O  O13  1  0.19704050  0.29032586  0.46477544  1
  O  O14  1  0.19921842  0.34469929  0.82218050  1
  O  O15  1  0.10239929  0.68657769  0.16734894  1
  O  O16  1  0.08309854  0.76253709  0.53048805  1
  O  O17  1  0.42895737  0.19207545  0.20114932  1
  O  O18  1  0.27934126  0.62301318  0.89298074  1
  O  O19  1  0.42799623  0.36203131  0.99208192  1
  O  O20  1  0.20553062  0.97436232  0.51119058  1
  O  O21  1  0.27119900  0.84518252  0.73664648  1
  O  O22  1  0.41970721  0.57726191  0.37601681  1
  O  O23  1  0.26270210  0.99887425  0.11648360  1
  O  O24  1  0.73729790  0.00112575  0.88351640  1
  O  O25  1  0.58029279  0.42273809  0.62398319  1
  O  O26  1  0.72880100  0.15481748  0.26335352  1
  O  O27  1  0.79446938  0.02563768  0.48880942  1
  O  O28  1  0.57200377  0.63796869  0.00791808  1
  O  O29  1  0.72065874  0.37698682  0.10701926  1
  O  O30  1  0.57104263  0.80792455  0.79885068  1
  O  O31  1  0.91690146  0.23746291  0.46951195  1
  O  O32  1  0.89760071  0.31342231  0.83265106  1
  O  O33  1  0.80078158  0.65530071  0.17781950  1
  O  O34  1  0.80295950  0.70967414  0.53522456  1
  O  O35  1  0.89415252  0.61082391  0.77919475  1
