# generated using pymatgen
data_Li7Fe8(BO3)8
_symmetry_space_group_name_H-M   'P 1'
_cell_length_a   5.23065497
_cell_length_b   9.07743699
_cell_length_c   11.44599852
_cell_angle_alpha   67.63604917
_cell_angle_beta   77.07849789
_cell_angle_gamma   89.95164628
_symmetry_Int_Tables_number   1
_chemical_formula_structural   Li7Fe8(BO3)8
_chemical_formula_sum   'Li7 Fe8 B8 O24'
_cell_volume   487.71934739
_cell_formula_units_Z   1
loop_
 _symmetry_equiv_pos_site_id
 _symmetry_equiv_pos_as_xyz
  1  'x, y, z'
loop_
 _atom_site_type_symbol
 _atom_site_label
 _atom_site_symmetry_multiplicity
 _atom_site_fract_x
 _atom_site_fract_y
 _atom_site_fract_z
 _atom_site_occupancy
  Li  Li0  1  0.96680411  0.95915584  0.41544655  1
  Li  Li1  1  0.70488553  0.71687523  0.91210688  1
  Li  Li2  1  0.51333733  0.49307235  0.66443937  1
  Li  Li3  1  0.73056582  0.75038360  0.16842428  1
  Li  Li4  1  0.20819148  0.21940571  0.90569593  1
  Li  Li5  1  0.01596743  0.99648650  0.66379211  1
  Li  Li6  1  0.23281326  0.25318519  0.16626621  1
  Fe  Fe7  1  0.98683387  0.63718857  0.38180530  1
  Fe  Fe8  1  0.73481729  0.06352240  0.88033966  1
  Fe  Fe9  1  0.50626055  0.84515484  0.63536399  1
  Fe  Fe10  1  0.75027067  0.43421798  0.13235045  1
  Fe  Fe11  1  0.22881644  0.55907837  0.88464725  1
  Fe  Fe12  1  0.47914783  0.15597890  0.38548464  1
  Fe  Fe13  1  0.03575433  0.34638603  0.62436340  1
  Fe  Fe14  1  0.25499772  0.93681993  0.12915944  1
  B  B15  1  0.97211797  0.31137002  0.37428107  1
  B  B16  1  0.73049386  0.39860170  0.87688309  1
  B  B17  1  0.52273176  0.18299023  0.63418297  1
  B  B18  1  0.76330378  0.10375306  0.12584484  1
  B  B19  1  0.49068110  0.81765637  0.37741967  1
  B  B20  1  0.23095391  0.89681556  0.87667483  1
  B  B21  1  0.02466875  0.68916054  0.62229306  1
  B  B22  1  0.26870045  0.60226664  0.12818452  1
  O  O23  1  0.97410590  0.89426773  0.86339542  1
  O  O24  1  0.88874858  0.28778944  0.84740362  1
  O  O25  1  0.83023908  0.51072232  0.91472702  1
  O  O26  1  0.91165166  0.82802100  0.61475555  1
  O  O27  1  0.90577793  0.57956717  0.58373179  1
  O  O28  1  0.76677900  0.15652335  0.66564906  1
  O  O29  1  0.73929450  0.33831893  0.33640676  1
  O  O30  1  0.47331553  0.39858064  0.86341048  1
  O  O31  1  0.39510331  0.78831889  0.84622525  1
  O  O32  1  0.58330047  0.92615228  0.41832196  1
  O  O33  1  0.64642723  0.70184471  0.35797861  1
  O  O34  1  0.32673530  0.00550826  0.91952562  1
  O  O35  1  0.65984799  0.98250353  0.09712477  1
  O  O36  1  0.39961458  0.31462351  0.63923327  1
  O  O37  1  0.40367027  0.07394835  0.59875438  1
  O  O38  1  0.60125505  0.20890052  0.15983684  1
  O  O39  1  0.53761164  0.62501564  0.11051363  1
  O  O40  1  0.25837409  0.65498509  0.66269942  1
  O  O41  1  0.23583232  0.82361878  0.35147138  1
  O  O42  1  0.07305376  0.42070348  0.41664915  1
  O  O43  1  0.10486432  0.18167352  0.36806385  1
  O  O44  1  0.16139852  0.48742052  0.09573260  1
  O  O45  1  0.10256557  0.69979574  0.17701396  1
  O  O46  1  0.03335016  0.11895204  0.11644512  1
