# generated using pymatgen
data_NiH16(ClO8)2
_symmetry_space_group_name_H-M   'P 1'
_cell_length_a   6.38998350
_cell_length_b   12.78677357
_cell_length_c   9.43769239
_cell_angle_alpha   90.00000000
_cell_angle_beta   106.85216671
_cell_angle_gamma   90.00000000
_symmetry_Int_Tables_number   1
_chemical_formula_structural   NiH16(ClO8)2
_chemical_formula_sum   'Ni2 H32 Cl4 O32'
_cell_volume   738.01273151
_cell_formula_units_Z   2
loop_
 _symmetry_equiv_pos_site_id
 _symmetry_equiv_pos_as_xyz
  1  'x, y, z'
loop_
 _atom_site_type_symbol
 _atom_site_label
 _atom_site_symmetry_multiplicity
 _atom_site_fract_x
 _atom_site_fract_y
 _atom_site_fract_z
 _atom_site_occupancy
  Ni  Ni0  1  0.00000000  0.50000000  0.50000000  1
  Ni  Ni1  1  0.00000000  0.00000000  0.00000000  1
  H  H2  1  0.01557478  0.18081335  0.86606909  1
  H  H3  1  0.04620797  0.59783549  0.76165198  1
  H  H4  1  0.09443809  0.37139600  0.73910842  1
  H  H5  1  0.01557478  0.31918665  0.36606909  1
  H  H6  1  0.04620797  0.90216451  0.26165198  1
  H  H7  1  0.33320455  0.94011500  0.90729564  1
  H  H8  1  0.22417920  0.16241086  0.55504726  1
  H  H9  1  0.09443809  0.12860400  0.23910842  1
  H  H10  1  0.31550610  0.40266816  0.70637742  1
  H  H11  1  0.36474984  0.08340853  0.66459548  1
  H  H12  1  0.33455309  0.63708257  0.53749936  1
  H  H13  1  0.33320455  0.55988500  0.40729564  1
  H  H14  1  0.22417920  0.33758914  0.05504726  1
  H  H15  1  0.31550610  0.09733184  0.20637742  1
  H  H16  1  0.66544691  0.13708257  0.96250064  1
  H  H17  1  0.63525016  0.58340853  0.83540452  1
  H  H18  1  0.36474984  0.41659147  0.16459548  1
  H  H19  1  0.33455309  0.86291743  0.03749936  1
  H  H20  1  0.68449390  0.90266816  0.79362258  1
  H  H21  1  0.77582080  0.66241086  0.94495274  1
  H  H22  1  0.66679545  0.44011500  0.59270436  1
  H  H23  1  0.66544691  0.36291743  0.46250064  1
  H  H24  1  0.63525016  0.91659147  0.33540452  1
  H  H25  1  0.68449390  0.59733184  0.29362258  1
  H  H26  1  0.90556191  0.87139600  0.76089158  1
  H  H27  1  0.77582080  0.83758914  0.44495274  1
  H  H28  1  0.66679545  0.05988500  0.09270436  1
  H  H29  1  0.95379203  0.09783549  0.73834802  1
  H  H30  1  0.98442522  0.68081335  0.63393091  1
  H  H31  1  0.90556191  0.62860400  0.26089158  1
  H  H32  1  0.95379203  0.40216451  0.23834802  1
  H  H33  1  0.98442522  0.81918665  0.13393091  1
  Cl  Cl34  1  0.26500546  0.86300792  0.59098910  1
  Cl  Cl35  1  0.26500546  0.63699208  0.09098910  1
  Cl  Cl36  1  0.73499454  0.36300792  0.90901090  1
  Cl  Cl37  1  0.73499454  0.13699208  0.40901090  1
  O  O38  1  0.03360226  0.10710775  0.84355754  1
  O  O39  1  0.05872832  0.82568311  0.61648015  1
  O  O40  1  0.21387173  0.57387300  0.95745902  1
  O  O41  1  0.15746760  0.39352769  0.66093274  1
  O  O42  1  0.03360226  0.39289225  0.34355754  1
  O  O43  1  0.05872832  0.67431689  0.11648015  1
  O  O44  1  0.21387173  0.92612700  0.45745902  1
  O  O45  1  0.37995623  0.93033765  0.71754172  1
  O  O46  1  0.35613447  0.15734336  0.63846014  1
  O  O47  1  0.29827349  0.56507545  0.50176659  1
  O  O48  1  0.15746760  0.10647231  0.16093274  1
  O  O49  1  0.40251994  0.77521631  0.58335061  1
  O  O50  1  0.59748006  0.27521631  0.91664939  1
  O  O51  1  0.70172651  0.06507545  0.99823341  1
  O  O52  1  0.64386553  0.65734336  0.86153986  1
  O  O53  1  0.37995623  0.56966235  0.21754172  1
  O  O54  1  0.62004377  0.43033765  0.78245828  1
  O  O55  1  0.35613447  0.34265664  0.13846014  1
  O  O56  1  0.29827349  0.93492455  0.00176659  1
  O  O57  1  0.40251994  0.72478369  0.08335061  1
  O  O58  1  0.59748006  0.22478369  0.41664939  1
  O  O59  1  0.84253240  0.89352769  0.83906726  1
  O  O60  1  0.70172651  0.43492455  0.49823341  1
  O  O61  1  0.64386553  0.84265664  0.36153986  1
  O  O62  1  0.62004377  0.06966235  0.28245828  1
  O  O63  1  0.78612827  0.07387300  0.54254098  1
  O  O64  1  0.94127168  0.32568311  0.88351985  1
  O  O65  1  0.96639774  0.60710775  0.65644246  1
  O  O66  1  0.84253240  0.60647231  0.33906726  1
  O  O67  1  0.78612827  0.42612700  0.04254098  1
  O  O68  1  0.94127168  0.17431689  0.38351985  1
  O  O69  1  0.96639774  0.89289225  0.15644246  1
