# generated using pymatgen
data_Li2CrFe(PO4)2
_symmetry_space_group_name_H-M   'P 1'
_cell_length_a   10.69967871
_cell_length_b   5.97993895
_cell_length_c   4.78327946
_cell_angle_alpha   90.00000000
_cell_angle_beta   91.74562395
_cell_angle_gamma   90.00000000
_symmetry_Int_Tables_number   1
_chemical_formula_structural   Li2CrFe(PO4)2
_chemical_formula_sum   'Li4 Cr2 Fe2 P4 O16'
_cell_volume   305.90857299
_cell_formula_units_Z   2
loop_
 _symmetry_equiv_pos_site_id
 _symmetry_equiv_pos_as_xyz
  1  'x, y, z'
loop_
 _atom_site_type_symbol
 _atom_site_label
 _atom_site_symmetry_multiplicity
 _atom_site_fract_x
 _atom_site_fract_y
 _atom_site_fract_z
 _atom_site_occupancy
  Li  Li0  1  0.00000000  0.00000000  0.00000000  1
  Li  Li1  1  0.00000000  0.50000000  0.00000000  1
  Li  Li2  1  0.50000000  0.00000000  0.50000000  1
  Li  Li3  1  0.50000000  0.50000000  0.50000000  1
  Cr  Cr4  1  0.22483313  0.75000000  0.50418947  1
  Cr  Cr5  1  0.77516687  0.25000000  0.49581053  1
  Fe  Fe6  1  0.27813282  0.25000000  0.97936800  1
  Fe  Fe7  1  0.72186718  0.75000000  0.02063200  1
  P  P8  1  0.09688717  0.25000000  0.40950785  1
  P  P9  1  0.41196645  0.75000000  0.91932663  1
  P  P10  1  0.58803355  0.25000000  0.08067337  1
  P  P11  1  0.90311283  0.75000000  0.59049215  1
  O  O12  1  0.03720544  0.75000000  0.72169707  1
  O  O13  1  0.10097666  0.25000000  0.73113988  1
  O  O14  1  0.16590785  0.04195970  0.28030828  1
  O  O15  1  0.16590785  0.45804030  0.28030828  1
  O  O16  1  0.33692181  0.54605427  0.78451713  1
  O  O17  1  0.33692181  0.95394573  0.78451713  1
  O  O18  1  0.41579080  0.75000000  0.23769283  1
  O  O19  1  0.45687212  0.25000000  0.21059067  1
  O  O20  1  0.54312788  0.75000000  0.78940933  1
  O  O21  1  0.58420920  0.25000000  0.76230717  1
  O  O22  1  0.66307819  0.04605427  0.21548287  1
  O  O23  1  0.66307819  0.45394573  0.21548287  1
  O  O24  1  0.83409215  0.54195970  0.71969172  1
  O  O25  1  0.83409215  0.95804030  0.71969172  1
  O  O26  1  0.89902334  0.75000000  0.26886012  1
  O  O27  1  0.96279456  0.25000000  0.27830293  1
