# generated using pymatgen
data_CaP3H16(NO4)3
_symmetry_space_group_name_H-M   'P 1'
_cell_length_a   7.00428746
_cell_length_b   18.87068697
_cell_length_c   10.90876094
_cell_angle_alpha   90.00000000
_cell_angle_beta   101.74257961
_cell_angle_gamma   90.00000000
_symmetry_Int_Tables_number   1
_chemical_formula_structural   CaP3H16(NO4)3
_chemical_formula_sum   'Ca4 P12 H64 N12 O48'
_cell_volume   1411.69753135
_cell_formula_units_Z   4
loop_
 _symmetry_equiv_pos_site_id
 _symmetry_equiv_pos_as_xyz
  1  'x, y, z'
loop_
 _atom_site_type_symbol
 _atom_site_label
 _atom_site_symmetry_multiplicity
 _atom_site_fract_x
 _atom_site_fract_y
 _atom_site_fract_z
 _atom_site_occupancy
  Ca  Ca0  1  0.09986191  0.31781697  0.50850488  1
  Ca  Ca1  1  0.40013809  0.81781697  0.99149512  1
  Ca  Ca2  1  0.59986191  0.18218303  0.00850488  1
  Ca  Ca3  1  0.90013809  0.68218303  0.49149512  1
  P  P4  1  0.08301920  0.82277457  0.70349867  1
  P  P5  1  0.22769293  0.96595043  0.78384088  1
  P  P6  1  0.27230707  0.46595043  0.71615912  1
  P  P7  1  0.11357680  0.20936016  0.08434927  1
  P  P8  1  0.41698080  0.32277457  0.79650133  1
  P  P9  1  0.38642320  0.70936016  0.41565073  1
  P  P10  1  0.61357680  0.29063984  0.58434927  1
  P  P11  1  0.58301920  0.67722543  0.20349867  1
  P  P12  1  0.88642320  0.79063984  0.91565073  1
  P  P13  1  0.72769293  0.53404957  0.28384088  1
  P  P14  1  0.77230707  0.03404957  0.21615912  1
  P  P15  1  0.91698080  0.17722543  0.29650133  1
  H  H16  1  0.00260911  0.36675115  0.85044269  1
  H  H17  1  0.03878870  0.58898168  0.73548473  1
  H  H18  1  0.04032407  0.10299348  0.74702815  1
  H  H19  1  0.13756576  0.18682407  0.73630126  1
  H  H20  1  0.00902489  0.82906924  0.16283277  1
  H  H21  1  0.05093954  0.33667398  0.22984681  1
  H  H22  1  0.10507980  0.82489272  0.31629021  1
  H  H23  1  0.11824740  0.51443183  0.32378880  1
  H  H24  1  0.03647228  0.34040099  0.00277731  1
  H  H25  1  0.19717724  0.97597357  0.43155676  1
  H  H26  1  0.11386780  0.58619386  0.05480496  1
  H  H27  1  0.23542751  0.48804292  0.46724679  1
  H  H28  1  0.13111072  0.00992206  0.14382687  1
  H  H29  1  0.24667514  0.57448581  0.42124628  1
  H  H30  1  0.36243424  0.68682407  0.76369874  1
  H  H31  1  0.18016308  0.67045978  0.09378185  1
  H  H32  1  0.19075089  0.50363086  0.93464499  1
  H  H33  1  0.30924911  0.00363086  0.56535501  1
  H  H34  1  0.31983692  0.17045978  0.40621815  1
  H  H35  1  0.45967593  0.60299348  0.75297185  1
  H  H36  1  0.46121130  0.08898168  0.76451527  1
  H  H37  1  0.25332486  0.07448581  0.07875372  1
  H  H38  1  0.36888928  0.50992206  0.35617313  1
  H  H39  1  0.26457249  0.98804292  0.03275321  1
  H  H40  1  0.38613220  0.08619386  0.44519504  1
  H  H41  1  0.49739089  0.86675115  0.64955731  1
  H  H42  1  0.30282276  0.47597357  0.06844324  1
  H  H43  1  0.50902489  0.67093076  0.66283277  1
  H  H44  1  0.46352772  0.84040099  0.49722269  1
  H  H45  1  0.55093954  0.16332602  0.72984681  1
  H  H46  1  0.60507980  0.67510728  0.81629021  1
  H  H47  1  0.38175260  0.01443183  0.17621120  1
  H  H48  1  0.61824740  0.98556817  0.82378880  1
  H  H49  1  0.39492020  0.32489272  0.18370979  1
  H  H50  1  0.44906046  0.83667398  0.27015319  1
  H  H51  1  0.53647228  0.15959901  0.50277731  1
  H  H52  1  0.49097511  0.32906924  0.33716723  1
  H  H53  1  0.69717724  0.52402643  0.93155676  1
  H  H54  1  0.50260911  0.13324885  0.35044269  1
  H  H55  1  0.61386780  0.91380614  0.55480496  1
  H  H56  1  0.73542751  0.01195708  0.96724679  1
  H  H57  1  0.63111072  0.49007794  0.64382687  1
  H  H58  1  0.74667514  0.92551419  0.92124628  1
  H  H59  1  0.53878870  0.91101832  0.23548473  1
  H  H60  1  0.54032407  0.39700652  0.24702815  1
  H  H61  1  0.68016308  0.82954022  0.59378185  1
  H  H62  1  0.69075089  0.99636914  0.43464499  1
  H  H63  1  0.80924911  0.49636914  0.06535501  1
  H  H64  1  0.81983692  0.32954022  0.90621815  1
  H  H65  1  0.63756576  0.31317593  0.23630126  1
  H  H66  1  0.75332486  0.42551419  0.57875372  1
  H  H67  1  0.86888928  0.99007794  0.85617313  1
  H  H68  1  0.76457249  0.51195708  0.53275321  1
  H  H69  1  0.88613220  0.41380614  0.94519504  1
  H  H70  1  0.80282276  0.02402643  0.56844324  1
  H  H71  1  0.96352772  0.65959901  0.99722269  1
  H  H72  1  0.88175260  0.48556817  0.67621120  1
  H  H73  1  0.89492020  0.17510728  0.68370979  1
  H  H74  1  0.94906046  0.66332602  0.77015319  1
  H  H75  1  0.99097511  0.17093076  0.83716723  1
  H  H76  1  0.86243424  0.81317593  0.26369874  1
  H  H77  1  0.95967593  0.89700652  0.25297185  1
  H  H78  1  0.96121130  0.41101832  0.26451527  1
  H  H79  1  0.99739089  0.63324885  0.14955731  1
  N  N80  1  0.01724530  0.15823750  0.74858886  1
  N  N81  1  0.06138681  0.63686079  0.07377881  1
  N  N82  1  0.24454958  0.52174821  0.39269283  1
  N  N83  1  0.25545042  0.02174821  0.10730717  1
  N  N84  1  0.48275470  0.65823750  0.75141114  1
  N  N85  1  0.43861319  0.13686079  0.42622119  1
  N  N86  1  0.56138681  0.86313921  0.57377881  1
  N  N87  1  0.51724530  0.34176250  0.24858886  1
  N  N88  1  0.74454958  0.97825179  0.89269283  1
  N  N89  1  0.75545042  0.47825179  0.60730717  1
  N  N90  1  0.93861319  0.36313921  0.92622119  1
  N  N91  1  0.98275470  0.84176250  0.25141114  1
  O  O92  1  0.05588305  0.01525790  0.78387579  1
  O  O93  1  0.10936252  0.50010253  0.77244355  1
  O  O94  1  0.02040609  0.20502731  0.42222608  1
  O  O95  1  0.01082052  0.36419022  0.29834510  1
  O  O96  1  0.14703294  0.90260555  0.67999841  1
  O  O97  1  0.19748664  0.42938154  0.59056069  1
  O  O98  1  0.25685504  0.78332921  0.77739187  1
  O  O99  1  0.24314496  0.28332921  0.72260813  1
  O  O100  1  0.08086443  0.16720684  0.21251221  1
  O  O101  1  0.30251336  0.92938154  0.90943931  1
  O  O102  1  0.20987474  0.67004490  0.44398521  1
  O  O103  1  0.07193777  0.80031208  0.01547283  1
  O  O104  1  0.35296706  0.40260555  0.82000159  1
  O  O105  1  0.15372206  0.28782573  0.12082094  1
  O  O106  1  0.39063748  0.00010253  0.72755645  1
  O  O107  1  0.22634906  0.51474611  0.02536094  1
  O  O108  1  0.27365094  0.01474611  0.47463906  1
  O  O109  1  0.44411695  0.51525790  0.71612421  1
  O  O110  1  0.52040609  0.29497269  0.92222608  1
  O  O111  1  0.34627794  0.78782573  0.37917906  1
  O  O112  1  0.51082052  0.13580978  0.79834510  1
  O  O113  1  0.42806223  0.30031208  0.48452717  1
  O  O114  1  0.29012526  0.17004490  0.05601479  1
  O  O115  1  0.41913557  0.66720684  0.28748779  1
  O  O116  1  0.58086443  0.33279316  0.71251221  1
  O  O117  1  0.70987474  0.82995510  0.94398521  1
  O  O118  1  0.57193777  0.69968792  0.51547283  1
  O  O119  1  0.48917848  0.86419022  0.20165490  1
  O  O120  1  0.65372206  0.21217427  0.62082094  1
  O  O121  1  0.47959391  0.70502731  0.07777392  1
  O  O122  1  0.55588305  0.48474210  0.28387579  1
  O  O123  1  0.72634906  0.98525389  0.52536094  1
  O  O124  1  0.77365094  0.48525389  0.97463906  1
  O  O125  1  0.60936252  0.99989747  0.27244355  1
  O  O126  1  0.84627794  0.71217427  0.87917906  1
  O  O127  1  0.64703294  0.59739445  0.17999841  1
  O  O128  1  0.92806223  0.19968792  0.98452717  1
  O  O129  1  0.79012526  0.32995510  0.55601479  1
  O  O130  1  0.69748664  0.07061846  0.09056069  1
  O  O131  1  0.91913557  0.83279316  0.78748779  1
  O  O132  1  0.75685504  0.71667079  0.27739187  1
  O  O133  1  0.74314496  0.21667079  0.22260813  1
  O  O134  1  0.80251336  0.57061846  0.40943931  1
  O  O135  1  0.85296706  0.09739445  0.32000159  1
  O  O136  1  0.98917948  0.63580978  0.70165490  1
  O  O137  1  0.97959391  0.79497269  0.57777392  1
  O  O138  1  0.89063748  0.49989747  0.22755645  1
  O  O139  1  0.94411695  0.98474210  0.21612421  1
