# generated using pymatgen
data_LiSn2(PO4)3
_symmetry_space_group_name_H-M   'P 1'
_cell_length_a   8.75696359
_cell_length_b   12.34847792
_cell_length_c   8.88012639
_cell_angle_alpha   90.00000000
_cell_angle_beta   90.00000000
_cell_angle_gamma   90.00000000
_symmetry_Int_Tables_number   1
_chemical_formula_structural   LiSn2(PO4)3
_chemical_formula_sum   'Li4 Sn8 P12 O48'
_cell_volume   960.25399046
_cell_formula_units_Z   4
loop_
 _symmetry_equiv_pos_site_id
 _symmetry_equiv_pos_as_xyz
  1  'x, y, z'
loop_
 _atom_site_type_symbol
 _atom_site_label
 _atom_site_symmetry_multiplicity
 _atom_site_fract_x
 _atom_site_fract_y
 _atom_site_fract_z
 _atom_site_occupancy
  Li  Li0  1  0.71161131  0.32254667  0.78100541  1
  Li  Li1  1  0.71161131  0.67745333  0.71899459  1
  Li  Li2  1  0.78838869  0.17745333  0.28100541  1
  Li  Li3  1  0.78838869  0.82254667  0.21899459  1
  Sn  Sn4  1  0.25059195  0.88194789  0.03518993  1
  Sn  Sn5  1  0.25059195  0.11805211  0.46481007  1
  Sn  Sn6  1  0.24940805  0.38194789  0.96481007  1
  Sn  Sn7  1  0.24940805  0.61805211  0.53518993  1
  Sn  Sn8  1  0.74946425  0.38735593  0.45922932  1
  Sn  Sn9  1  0.74946425  0.61264407  0.04077068  1
  Sn  Sn10  1  0.75053575  0.11264407  0.95922932  1
  Sn  Sn11  1  0.75053575  0.88735593  0.54077068  1
  P  P12  1  0.04196401  0.50000000  0.25000000  1
  P  P13  1  0.10687666  0.14736025  0.10854214  1
  P  P14  1  0.10687666  0.85263975  0.39145786  1
  P  P15  1  0.39312334  0.35263975  0.60854214  1
  P  P16  1  0.39312334  0.64736025  0.89145786  1
  P  P17  1  0.45803599  0.00000000  0.75000000  1
  P  P18  1  0.54005833  0.00000000  0.25000000  1
  P  P19  1  0.60334083  0.34952417  0.10636681  1
  P  P20  1  0.60334083  0.65047583  0.39363319  1
  P  P21  1  0.89665917  0.15047583  0.60636681  1
  P  P22  1  0.89665917  0.84952417  0.89363319  1
  P  P23  1  0.95994167  0.50000000  0.75000000  1
  O  O24  1  0.05212473  0.42832967  0.85543969  1
  O  O25  1  0.05212473  0.57167033  0.64456031  1
  O  O26  1  0.06977811  0.15934539  0.60339263  1
  O  O27  1  0.06977811  0.84065461  0.89660737  1
  O  O28  1  0.14118870  0.42354554  0.15707489  1
  O  O29  1  0.14118870  0.57645446  0.34292511  1
  O  O30  1  0.14958029  0.17684764  0.27221425  1
  O  O31  1  0.14958029  0.82315236  0.22778575  1
  O  O32  1  0.15461534  0.03241358  0.06593156  1
  O  O33  1  0.15461534  0.96758642  0.43406844  1
  O  O34  1  0.17119730  0.22688733  0.99211329  1
  O  O35  1  0.17119730  0.77311267  0.50788671  1
  O  O36  1  0.32880270  0.27311267  0.49211329  1
  O  O37  1  0.32880270  0.72688733  0.00788671  1
  O  O38  1  0.34538466  0.46758642  0.56593156  1
  O  O39  1  0.34538466  0.53241358  0.93406844  1
  O  O40  1  0.35041971  0.67684764  0.72778575  1
  O  O41  1  0.35041971  0.32315236  0.77221425  1
  O  O42  1  0.35881130  0.07645446  0.65707489  1
  O  O43  1  0.35881130  0.92354554  0.84292511  1
  O  O44  1  0.43022189  0.34065461  0.10339263  1
  O  O45  1  0.43022189  0.65934539  0.39660737  1
  O  O46  1  0.44787527  0.07167033  0.35543969  1
  O  O47  1  0.44787527  0.92832967  0.14456031  1
  O  O48  1  0.55696674  0.92591157  0.64828815  1
  O  O49  1  0.55696674  0.07408843  0.85171185  1
  O  O50  1  0.57402009  0.34472548  0.60548158  1
  O  O51  1  0.57402009  0.65527452  0.89451842  1
  O  O52  1  0.65032329  0.07886479  0.16483959  1
  O  O53  1  0.65032329  0.92113521  0.33516041  1
  O  O54  1  0.66247998  0.31416547  0.26484850  1
  O  O55  1  0.66247998  0.68583453  0.23515150  1
  O  O56  1  0.65771898  0.46393765  0.06699163  1
  O  O57  1  0.65771898  0.53606235  0.43300837  1
  O  O58  1  0.67697596  0.27348107  0.98559093  1
  O  O59  1  0.67697596  0.72651893  0.51440907  1
  O  O60  1  0.82302404  0.22651893  0.48559093  1
  O  O61  1  0.82302404  0.77348107  0.01440907  1
  O  O62  1  0.84228102  0.03606235  0.56699163  1
  O  O63  1  0.84228102  0.96393765  0.93300837  1
  O  O64  1  0.83752002  0.18583453  0.76484850  1
  O  O65  1  0.83752002  0.81416547  0.73515150  1
  O  O66  1  0.84967671  0.42113521  0.66483959  1
  O  O67  1  0.84967671  0.57886479  0.83516041  1
  O  O68  1  0.92597991  0.15527452  0.10548158  1
  O  O69  1  0.92597991  0.84472548  0.39451842  1
  O  O70  1  0.94303326  0.42591157  0.35171185  1
  O  O71  1  0.94303326  0.57408843  0.14828815  1
