# generated using pymatgen
data_Li3FeO4
_symmetry_space_group_name_H-M   'P 1'
_cell_length_a   7.13424240
_cell_length_b   7.13424278
_cell_length_c   7.13424206
_cell_angle_alpha   109.47121965
_cell_angle_beta   109.47122160
_cell_angle_gamma   109.47121956
_symmetry_Int_Tables_number   1
_chemical_formula_structural   Li3FeO4
_chemical_formula_sum   'Li12 Fe4 O16'
_cell_volume   279.52567265
_cell_formula_units_Z   4
loop_
 _symmetry_equiv_pos_site_id
 _symmetry_equiv_pos_as_xyz
  1  'x, y, z'
loop_
 _atom_site_type_symbol
 _atom_site_label
 _atom_site_symmetry_multiplicity
 _atom_site_fract_x
 _atom_site_fract_y
 _atom_site_fract_z
 _atom_site_occupancy
  Li  Li0  1  0.25443198  0.74787037  0.74946902  1
  Li  Li1  1  0.25053098  0.99840135  0.50496297  1
  Li  Li2  1  0.00159865  0.25212963  0.50656161  1
  Li  Li3  1  0.49343839  0.74556802  0.49503703  1
  Li  Li4  1  0.50496297  0.25053098  0.99840135  1
  Li  Li5  1  0.25212963  0.50656161  0.00159865  1
  Li  Li6  1  0.49503703  0.49343839  0.74556802  1
  Li  Li7  1  0.74787037  0.74946902  0.25443198  1
  Li  Li8  1  0.50656161  0.00159865  0.25212963  1
  Li  Li9  1  0.74556802  0.49503703  0.49343839  1
  Li  Li10  1  0.74946902  0.25443198  0.74787037  1
  Li  Li11  1  0.99840135  0.50496297  0.25053098  1
  Fe  Fe12  1  1.00000000  1.00000000  0.73546684  1
  Fe  Fe13  1  0.00000000  0.73546684  0.00000000  1
  Fe  Fe14  1  0.26453316  0.26453316  0.26453316  1
  Fe  Fe15  1  0.73546684  0.00000000  0.00000000  1
  O  O16  1  -0.00000964  0.77176214  0.52525574  1
  O  O17  1  0.22823786  0.22822822  0.75349360  1
  O  O18  1  0.22822822  0.75349360  0.22823786  1
  O  O19  1  0.52526538  0.77177178  0.00000964  1
  O  O20  1  0.24650640  0.47473462  0.47474426  1
  O  O21  1  1.00000000  1.00000000  0.22412631  1
  O  O22  1  0.00000000  0.22412631  0.00000000  1
  O  O23  1  0.22412631  0.00000000  0.00000000  1
  O  O24  1  0.47474426  0.24650640  0.47473462  1
  O  O25  1  0.47473462  0.47474426  0.24650640  1
  O  O26  1  0.52525574  -0.00000964  0.77176214  1
  O  O27  1  0.77177178  0.00000964  0.52526538  1
  O  O28  1  0.77587369  0.77587369  0.77587369  1
  O  O29  1  0.00000964  0.52526538  0.77177178  1
  O  O30  1  0.75349360  0.22823786  0.22822822  1
  O  O31  1  0.77176214  0.52525574  -0.00000964  1
