# generated using pymatgen
data_RbSnS2
_symmetry_space_group_name_H-M   'P 1'
_cell_length_a   4.08252280
_cell_length_b   4.08252227
_cell_length_c   8.05351382
_cell_angle_alpha   75.31751902
_cell_angle_beta   75.31751635
_cell_angle_gamma   60.00000424
_symmetry_Int_Tables_number   1
_chemical_formula_structural   RbSnS2
_chemical_formula_sum   'Rb1 Sn1 S2'
_cell_volume   111.15466772
_cell_formula_units_Z   1
loop_
 _symmetry_equiv_pos_site_id
 _symmetry_equiv_pos_as_xyz
  1  'x, y, z'
loop_
 _atom_site_type_symbol
 _atom_site_label
 _atom_site_symmetry_multiplicity
 _atom_site_fract_x
 _atom_site_fract_y
 _atom_site_fract_z
 _atom_site_occupancy
  Rb  Rb0  1  -0.00000000  -0.00000000  -0.00000000  1
  Sn  Sn1  1  0.50000000  0.50000000  0.50000000  1
  S  S2  1  0.76939303  0.76939303  0.69182092  1
  S  S3  1  0.23060697  0.23060697  0.30817908  1
