# generated using pymatgen
data_CuH10SeO9
_symmetry_space_group_name_H-M   'P 1'
_cell_length_a   6.12881845
_cell_length_b   6.19740164
_cell_length_c   11.01871887
_cell_angle_alpha   77.12220573
_cell_angle_beta   82.00333575
_cell_angle_gamma   72.32933576
_symmetry_Int_Tables_number   1
_chemical_formula_structural   CuH10SeO9
_chemical_formula_sum   'Cu2 H20 Se2 O18'
_cell_volume   387.59177854
_cell_formula_units_Z   2
loop_
 _symmetry_equiv_pos_site_id
 _symmetry_equiv_pos_as_xyz
  1  'x, y, z'
loop_
 _atom_site_type_symbol
 _atom_site_label
 _atom_site_symmetry_multiplicity
 _atom_site_fract_x
 _atom_site_fract_y
 _atom_site_fract_z
 _atom_site_occupancy
  Cu  Cu0  1  0.50000000  0.00000000  0.50000000  1
  Cu  Cu1  1  0.50000000  0.50000000  0.00000000  1
  H  H2  1  0.07557947  0.59834765  0.10463439  1
  H  H3  1  0.17465315  0.31433839  0.12423340  1
  H  H4  1  0.18134180  0.32573550  0.37720999  1
  H  H5  1  0.16096869  0.41034091  0.62001510  1
  H  H6  1  0.18538362  0.59571403  0.69154123  1
  H  H7  1  0.43204603  0.31100035  0.30197642  1
  H  H8  1  0.26341695  0.72888692  0.49042220  1
  H  H9  1  0.26534942  0.90101619  0.35568743  1
  H  H10  1  0.34374585  0.85799205  0.11597330  1
  H  H11  1  0.37788334  0.20615160  0.90659305  1
  H  H12  1  0.62211666  0.79384840  0.09340695  1
  H  H13  1  0.65625415  0.14200795  0.88402670  1
  H  H14  1  0.73465058  0.09898381  0.64431257  1
  H  H15  1  0.73658305  0.27111308  0.50957780  1
  H  H16  1  0.56795397  0.68899965  0.69802358  1
  H  H17  1  0.81461638  0.40428597  0.30845877  1
  H  H18  1  0.83903131  0.58965909  0.37998490  1
  H  H19  1  0.81865820  0.67426450  0.62279001  1
  H  H20  1  0.82534685  0.68566161  0.87576660  1
  H  H21  1  0.92442053  0.40165235  0.89536561  1
  Se  Se22  1  0.11847245  0.99712212  0.78445213  1
  Se  Se23  1  0.88152755  0.00287788  0.21554787  1
  O  O24  1  0.15064002  0.03265499  0.19867225  1
  O  O25  1  0.17033620  0.12330976  0.63734833  1
  O  O26  1  0.21389823  0.46304812  0.09893945  1
  O  O27  1  0.13215762  0.16083943  0.88424850  1
  O  O28  1  0.12168667  0.58034529  0.61773348  1
  O  O29  1  0.34966166  0.29330475  0.38550564  1
  O  O30  1  0.35519106  0.81803630  0.42859635  1
  O  O31  1  0.30204260  0.73184089  0.81186793  1
  O  O32  1  0.48231701  0.76312492  0.07281073  1
  O  O33  1  0.51768299  0.23687508  0.92718927  1
  O  O34  1  0.69795740  0.26815911  0.18813207  1
  O  O35  1  0.64480894  0.18196370  0.57140365  1
  O  O36  1  0.65033834  0.70669525  0.61449436  1
  O  O37  1  0.87831333  0.41965471  0.38226652  1
  O  O38  1  0.86784238  0.83916057  0.11575150  1
  O  O39  1  0.78610177  0.53695188  0.90106055  1
  O  O40  1  0.82966380  0.87669024  0.36265167  1
  O  O41  1  0.84935998  0.96734501  0.80132775  1
