# generated using pymatgen
data_LiTmPd2
_symmetry_space_group_name_H-M   'P 1'
_cell_length_a   4.65361396
_cell_length_b   4.65361061
_cell_length_c   4.65361385
_cell_angle_alpha   59.99991867
_cell_angle_beta   59.99988676
_cell_angle_gamma   59.99997160
_symmetry_Int_Tables_number   1
_chemical_formula_structural   LiTmPd2
_chemical_formula_sum   'Li1 Tm1 Pd2'
_cell_volume   71.26150790
_cell_formula_units_Z   1
loop_
 _symmetry_equiv_pos_site_id
 _symmetry_equiv_pos_as_xyz
  1  'x, y, z'
loop_
 _atom_site_type_symbol
 _atom_site_label
 _atom_site_symmetry_multiplicity
 _atom_site_fract_x
 _atom_site_fract_y
 _atom_site_fract_z
 _atom_site_occupancy
  Li  Li0  1  0.25000102  0.25000095  0.25000122  1
  Tm  Tm1  1  0.75000006  0.75000120  0.75000017  1
  Pd  Pd2  1  0.00000043  0.99999992  0.00000000  1
  Pd  Pd3  1  0.50000049  0.49999993  0.50000061  1
