# generated using pymatgen
data_Ba2ScFeAsO3
_symmetry_space_group_name_H-M   'P 1'
_cell_length_a   4.22226863
_cell_length_b   4.22233314
_cell_length_c   17.23194611
_cell_angle_alpha   89.96767746
_cell_angle_beta   90.03041113
_cell_angle_gamma   90.00816286
_symmetry_Int_Tables_number   1
_chemical_formula_structural   Ba2ScFeAsO3
_chemical_formula_sum   'Ba4 Sc2 Fe2 As2 O6'
_cell_volume   307.20802020
_cell_formula_units_Z   2
loop_
 _symmetry_equiv_pos_site_id
 _symmetry_equiv_pos_as_xyz
  1  'x, y, z'
loop_
 _atom_site_type_symbol
 _atom_site_label
 _atom_site_symmetry_multiplicity
 _atom_site_fract_x
 _atom_site_fract_y
 _atom_site_fract_z
 _atom_site_occupancy
  Ba  Ba0  1  0.74997470  0.75001126  0.19259172  1
  Ba  Ba1  1  0.75000480  0.75000277  0.41466011  1
  Ba  Ba2  1  0.25001427  0.24999186  0.58534641  1
  Ba  Ba3  1  0.24998969  0.24999329  0.80741128  1
  Sc  Sc4  1  0.24994071  0.24997442  0.31334752  1
  Sc  Sc5  1  0.75005029  0.75000768  0.68662522  1
  Fe  Fe6  1  0.75036705  0.25015061  0.99999700  1
  Fe  Fe7  1  0.25013515  0.74988924  0.00000440  1
  As  As8  1  0.24971153  0.25003719  0.09094659  1
  As  As9  1  0.74981019  0.74992733  0.90905789  1
  O  O10  1  0.74999555  0.25000861  0.29393328  1
  O  O11  1  0.24998832  0.75001092  0.29393258  1
  O  O12  1  0.24999794  0.25000502  0.42748106  1
  O  O13  1  0.75000271  0.74999728  0.57252174  1
  O  O14  1  0.75000019  0.24999095  0.70607297  1
  O  O15  1  0.25000892  0.74999357  0.70607223  1
