# generated using pymatgen
data_V4SiSb2
_symmetry_space_group_name_H-M   'P 1'
_cell_length_a   4.69194592
_cell_length_b   7.36038920
_cell_length_c   7.36038920
_cell_angle_alpha   84.16935064
_cell_angle_beta   71.41389381
_cell_angle_gamma   71.41389385
_symmetry_Int_Tables_number   1
_chemical_formula_structural   V4SiSb2
_chemical_formula_sum   'V8 Si2 Sb4'
_cell_volume   228.36517210
_cell_formula_units_Z   2
loop_
 _symmetry_equiv_pos_site_id
 _symmetry_equiv_pos_as_xyz
  1  'x, y, z'
loop_
 _atom_site_type_symbol
 _atom_site_label
 _atom_site_symmetry_multiplicity
 _atom_site_fract_x
 _atom_site_fract_y
 _atom_site_fract_z
 _atom_site_occupancy
  Si  Si0  1  0.25000000  0.00000000  0.00000000  1
  Si  Si1  1  0.75000000  0.00000000  0.00000000  1
  V  V2  1  0.20539285  0.71003293  0.87918137  1
  V  V3  1  0.91542578  0.87918137  0.28996707  1
  V  V4  1  0.29460715  0.12081863  0.28996707  1
  V  V5  1  0.70539285  0.87918137  0.71003293  1
  V  V6  1  0.41542578  0.28996707  0.87918137  1
  V  V7  1  0.58457422  0.71003293  0.12081863  1
  V  V8  1  0.08457422  0.12081863  0.71003293  1
  V  V9  1  0.79460715  0.28996707  0.12081863  1
  Sb  Sb10  1  0.14098083  0.50000000  0.21803834  1
  Sb  Sb11  1  0.35901917  0.78196166  0.50000000  1
  Sb  Sb12  1  0.64098083  0.21803834  0.50000000  1
  Sb  Sb13  1  0.85901917  0.50000000  0.78196166  1
