# generated using pymatgen
data_Sm3Dy
_symmetry_space_group_name_H-M   'P 1'
_cell_length_a   5.10944660
_cell_length_b   5.10953289
_cell_length_c   5.10949234
_cell_angle_alpha   89.99970486
_cell_angle_beta   89.99963174
_cell_angle_gamma   90.00024681
_symmetry_Int_Tables_number   1
_chemical_formula_structural   Sm3Dy
_chemical_formula_sum   'Sm3 Dy1'
_cell_volume   133.39293124
_cell_formula_units_Z   1
loop_
 _symmetry_equiv_pos_site_id
 _symmetry_equiv_pos_as_xyz
  1  'x, y, z'
loop_
 _atom_site_type_symbol
 _atom_site_label
 _atom_site_symmetry_multiplicity
 _atom_site_fract_x
 _atom_site_fract_y
 _atom_site_fract_z
 _atom_site_occupancy
  Sm  Sm0  1  0.00000183  0.50000115  0.50000376  1
  Sm  Sm1  1  0.50000100  0.00000003  0.49999965  1
  Sm  Sm2  1  0.49999889  0.50000158  0.99999714  1
  Dy  Dy3  1  0.00000029  0.99999924  0.00000146  1
