# generated using pymatgen
data_CaCr2(CuO4)2
_symmetry_space_group_name_H-M   'P 1'
_cell_length_a   6.64878908
_cell_length_b   8.67753638
_cell_length_c   12.34043354
_cell_angle_alpha   90.00000000
_cell_angle_beta   86.97454237
_cell_angle_gamma   90.00000000
_symmetry_Int_Tables_number   1
_chemical_formula_structural   CaCr2(CuO4)2
_chemical_formula_sum   'Ca4 Cr8 Cu8 O32'
_cell_volume   710.99028504
_cell_formula_units_Z   4
loop_
 _symmetry_equiv_pos_site_id
 _symmetry_equiv_pos_as_xyz
  1  'x, y, z'
loop_
 _atom_site_type_symbol
 _atom_site_label
 _atom_site_symmetry_multiplicity
 _atom_site_fract_x
 _atom_site_fract_y
 _atom_site_fract_z
 _atom_site_occupancy
  Ca  Ca0  1  0.12816138  0.16748583  0.04348540  1
  Ca  Ca1  1  0.87183862  0.83251417  0.95651460  1
  Ca  Ca2  1  0.87183862  0.66748583  0.45651460  1
  Ca  Ca3  1  0.12816138  0.33251417  0.54348540  1
  Cr  Cr4  1  0.09961942  0.46198683  0.84537026  1
  Cr  Cr5  1  0.09961942  0.03801317  0.34537026  1
  Cr  Cr6  1  0.60608684  0.08492697  0.13636424  1
  Cr  Cr7  1  0.90038058  0.96198683  0.65462974  1
  Cr  Cr8  1  0.39391316  0.91507303  0.86363576  1
  Cr  Cr9  1  0.39391316  0.58492697  0.36363576  1
  Cr  Cr10  1  0.60608684  0.41507303  0.63636424  1
  Cr  Cr11  1  0.90038058  0.53801317  0.15462974  1
  Cu  Cu12  1  0.76133287  0.18488597  0.85711639  1
  Cu  Cu13  1  0.39203189  0.04949723  0.62869327  1
  Cu  Cu14  1  0.60796811  0.95050277  0.37130673  1
  Cu  Cu15  1  0.23866713  0.81511403  0.14288361  1
  Cu  Cu16  1  0.76133287  0.31511403  0.35711639  1
  Cu  Cu17  1  0.39203189  0.45050277  0.12869327  1
  Cu  Cu18  1  0.23866713  0.68488597  0.64288361  1
  Cu  Cu19  1  0.60796811  0.54949723  0.87130673  1
  O  O20  1  0.02398233  0.21980583  0.38141945  1
  O  O21  1  0.68011989  0.00094370  0.59963898  1
  O  O22  1  0.19921435  0.58063357  0.46130181  1
  O  O23  1  0.80078565  0.08063357  0.03869819  1
  O  O24  1  0.02398233  0.28019417  0.88141945  1
  O  O25  1  0.97601767  0.78019417  0.61858055  1
  O  O26  1  0.08827736  0.08580552  0.61315506  1
  O  O27  1  0.50339026  0.90880418  0.13527181  1
  O  O28  1  0.50339026  0.59119582  0.63527181  1
  O  O29  1  0.32030607  0.87576051  0.73663649  1
  O  O30  1  0.67969393  0.37576051  0.76336351  1
  O  O31  1  0.49660974  0.09119582  0.86472819  1
  O  O32  1  0.91172264  0.91419448  0.38684494  1
  O  O33  1  0.87097827  0.52315941  0.29081065  1
  O  O34  1  0.44141909  0.27634180  0.60133336  1
  O  O35  1  0.44141909  0.22365820  0.10133336  1
  O  O36  1  0.12902173  0.02315941  0.20918935  1
  O  O37  1  0.49660974  0.40880418  0.36472819  1
  O  O38  1  0.12902173  0.47684059  0.70918935  1
  O  O39  1  0.80078565  0.41936643  0.53869819  1
  O  O40  1  0.68011989  0.49905630  0.09963898  1
  O  O41  1  0.67969393  0.12423949  0.26336351  1
  O  O42  1  0.97601767  0.71980583  0.11858055  1
  O  O43  1  0.08827736  0.41419448  0.11315506  1
  O  O44  1  0.19921435  0.91936643  0.96130181  1
  O  O45  1  0.55858091  0.77634180  0.89866664  1
  O  O46  1  0.31988011  0.99905630  0.40036102  1
  O  O47  1  0.31988011  0.50094370  0.90036102  1
  O  O48  1  0.91172264  0.58580552  0.88684494  1
  O  O49  1  0.55858091  0.72365820  0.39866664  1
  O  O50  1  0.32030607  0.62423949  0.23663649  1
  O  O51  1  0.87097827  0.97684059  0.79081065  1
