# generated using pymatgen
data_HoLuAu2
_symmetry_space_group_name_H-M   'P 1'
_cell_length_a   5.03776261
_cell_length_b   5.03775970
_cell_length_c   5.03779035
_cell_angle_alpha   59.99973325
_cell_angle_beta   60.00026145
_cell_angle_gamma   59.99955510
_symmetry_Int_Tables_number   1
_chemical_formula_structural   HoLuAu2
_chemical_formula_sum   'Ho1 Lu1 Au2'
_cell_volume   90.40631376
_cell_formula_units_Z   1
loop_
 _symmetry_equiv_pos_site_id
 _symmetry_equiv_pos_as_xyz
  1  'x, y, z'
loop_
 _atom_site_type_symbol
 _atom_site_label
 _atom_site_symmetry_multiplicity
 _atom_site_fract_x
 _atom_site_fract_y
 _atom_site_fract_z
 _atom_site_occupancy
  Ho  Ho0  1  0.24999799  0.25000209  0.25000093  1
  Lu  Lu1  1  0.75000380  0.74999622  0.75000194  1
  Au  Au2  1  0.49999846  0.50000184  0.49999872  1
  Au  Au3  1  0.99999976  0.99999986  0.99999841  1
