# generated using pymatgen
data_HgH6I3NO
_symmetry_space_group_name_H-M   'P 1'
_cell_length_a   7.63891655
_cell_length_b   7.63891655
_cell_length_c   9.14663671
_cell_angle_alpha   91.89698250
_cell_angle_beta   91.89698250
_cell_angle_gamma   80.27218429
_symmetry_Int_Tables_number   1
_chemical_formula_structural   HgH6I3NO
_chemical_formula_sum   'Hg2 H12 I6 N2 O2'
_cell_volume   525.56649264
_cell_formula_units_Z   2
loop_
 _symmetry_equiv_pos_site_id
 _symmetry_equiv_pos_as_xyz
  1  'x, y, z'
loop_
 _atom_site_type_symbol
 _atom_site_label
 _atom_site_symmetry_multiplicity
 _atom_site_fract_x
 _atom_site_fract_y
 _atom_site_fract_z
 _atom_site_occupancy
  Hg  Hg0  1  0.60858040  0.54443328  0.38713281  1
  Hg  Hg1  1  0.54443328  0.60858040  0.88713281  1
  H  H2  1  0.01124217  0.88804403  0.16996382  1
  H  H3  1  0.88804403  0.01124217  0.66996382  1
  H  H4  1  0.04230621  0.75469829  0.32086553  1
  H  H5  1  0.75469829  0.04230621  0.82086553  1
  H  H6  1  0.13738737  0.67992132  0.16187224  1
  H  H7  1  0.67992132  0.13738737  0.66187224  1
  H  H8  1  0.21278415  0.84146481  0.26063526  1
  H  H9  1  0.84146481  0.21278415  0.76063526  1
  H  H10  1  0.02391572  0.07893911  0.00914431  1
  H  H11  1  0.07893911  0.02391572  0.50914431  1
  H  H12  1  0.87380637  0.16156000  0.11393289  1
  H  H13  1  0.16156000  0.87380637  0.61393289  1
  I  I14  1  0.42770991  0.41012938  0.12046964  1
  I  I15  1  0.41012938  0.42770991  0.62046964  1
  I  I16  1  0.95273948  0.34885540  0.37427586  1
  I  I17  1  0.34885540  0.95273948  0.87427586  1
  I  I18  1  0.53361452  0.91308959  0.37329972  1
  I  I19  1  0.91308959  0.53361452  0.87329972  1
  N  N20  1  0.09897158  0.79095558  0.22841767  1
  N  N21  1  0.79095558  0.09897158  0.72841767  1
  O  O22  1  0.91437240  0.05567893  0.05169025  1
  O  O23  1  0.05567893  0.91437240  0.55169025  1
