# generated using pymatgen
data_K4Ba(SiO3)3
_symmetry_space_group_name_H-M   'P 1'
_cell_length_a   11.30352620
_cell_length_b   7.27235094
_cell_length_c   7.27235094
_cell_angle_alpha   66.89021617
_cell_angle_beta   90.00000000
_cell_angle_gamma   90.00000000
_symmetry_Int_Tables_number   1
_chemical_formula_structural   K4Ba(SiO3)3
_chemical_formula_sum   'K8 Ba2 Si6 O18'
_cell_volume   549.83896992
_cell_formula_units_Z   2
loop_
 _symmetry_equiv_pos_site_id
 _symmetry_equiv_pos_as_xyz
  1  'x, y, z'
loop_
 _atom_site_type_symbol
 _atom_site_label
 _atom_site_symmetry_multiplicity
 _atom_site_fract_x
 _atom_site_fract_y
 _atom_site_fract_z
 _atom_site_occupancy
  K  K0  1  0.74999900  0.80801005  0.71811562  1
  K  K1  1  0.24999900  0.71811562  0.80801005  1
  K  K2  1  0.00000000  0.02278953  0.02278953  1
  K  K3  1  0.50000100  0.02278953  0.02278953  1
  K  K4  1  0.00000000  0.51824667  0.51824667  1
  K  K5  1  0.50000100  0.51824667  0.51824667  1
  K  K6  1  0.74999900  0.30098524  0.71559309  1
  K  K7  1  0.24999900  0.71559309  0.30098524  1
  Ba  Ba8  1  0.74999900  0.22489700  0.23149436  1
  Ba  Ba9  1  0.24999900  0.23149436  0.22489700  1
  Si  Si10  1  0.74999900  0.73646893  0.18693970  1
  Si  Si11  1  0.24999900  0.18693970  0.73646893  1
  Si  Si12  1  0.97794137  0.57646517  0.99508468  1
  Si  Si13  1  0.02205863  0.99508468  0.57646517  1
  Si  Si14  1  0.52205863  0.57646517  0.99508468  1
  Si  Si15  1  0.47794137  0.99508468  0.57646517  1
  O  O16  1  0.74999900  0.67390481  0.42520495  1
  O  O17  1  0.24999900  0.42520495  0.67390481  1
  O  O18  1  0.74999900  0.97296607  0.04782903  1
  O  O19  1  0.24999900  0.04782903  0.97296607  1
  O  O20  1  0.86745596  0.62955296  0.12412568  1
  O  O21  1  0.13254304  0.12412568  0.62955296  1
  O  O22  1  0.63254304  0.62955296  0.12412568  1
  O  O23  1  0.36745596  0.12412568  0.62955296  1
  O  O24  1  0.09706198  0.53659392  0.12784127  1
  O  O25  1  0.90293902  0.12784127  0.53659392  1
  O  O26  1  0.40293802  0.53659392  0.12784127  1
  O  O27  1  0.59706098  0.12784127  0.53659392  1
  O  O28  1  0.00000000  0.78782094  0.78782094  1
  O  O29  1  0.50000100  0.78782094  0.78782094  1
  O  O30  1  0.92635585  0.40182794  0.93174930  1
  O  O31  1  0.07364515  0.93174930  0.40182794  1
  O  O32  1  0.57364415  0.40182794  0.93174930  1
  O  O33  1  0.42635485  0.93174930  0.40182794  1
