# generated using pymatgen
data_MgTi2O4
_symmetry_space_group_name_H-M   'P 1'
_cell_length_a   2.85977225
_cell_length_b   9.27666754
_cell_length_c   10.58261061
_cell_angle_alpha   89.97168458
_cell_angle_beta   89.99994945
_cell_angle_gamma   90.00024928
_symmetry_Int_Tables_number   1
_chemical_formula_structural   MgTi2O4
_chemical_formula_sum   'Mg4 Ti8 O16'
_cell_volume   280.74769762
_cell_formula_units_Z   4
loop_
 _symmetry_equiv_pos_site_id
 _symmetry_equiv_pos_as_xyz
  1  'x, y, z'
loop_
 _atom_site_type_symbol
 _atom_site_label
 _atom_site_symmetry_multiplicity
 _atom_site_fract_x
 _atom_site_fract_y
 _atom_site_fract_z
 _atom_site_occupancy
  Mg  Mg0  1  0.74999893  0.75231890  0.65630690  1
  Mg  Mg1  1  0.24999660  0.24767537  0.34370078  1
  Mg  Mg2  1  0.75000018  0.25235063  0.84368537  1
  Mg  Mg3  1  0.24999945  0.74766234  0.15636929  1
  Ti  Ti4  1  0.75001059  0.93481800  0.88396544  1
  Ti  Ti5  1  0.24999750  0.06519139  0.11603544  1
  Ti  Ti6  1  0.75000197  0.43501655  0.61598004  1
  Ti  Ti7  1  0.24999898  0.56500282  0.38400407  1
  Ti  Ti8  1  0.74999574  0.91443638  0.40212941  1
  Ti  Ti9  1  0.24999828  0.08558328  0.59790065  1
  Ti  Ti10  1  0.74999811  0.41448478  0.09786664  1
  Ti  Ti11  1  0.25000300  0.58535888  0.90215287  1
  O  O12  1  0.74999962  0.71360184  0.31435015  1
  O  O13  1  0.24999701  0.28640539  0.68562250  1
  O  O14  1  0.75000073  0.21354577  0.18562127  1
  O  O15  1  0.25000486  0.78640926  0.81439623  1
  O  O16  1  0.75000529  0.62739714  0.03992498  1
  O  O17  1  0.24999686  0.37263693  0.95992217  1
  O  O18  1  0.74999863  0.12726653  0.46001420  1
  O  O19  1  0.24999497  0.87273875  0.54001794  1
  O  O20  1  0.75000137  0.52578358  0.78128728  1
  O  O21  1  0.25000007  0.47429622  0.21876791  1
  O  O22  1  0.74999743  0.02563974  0.71868373  1
  O  O23  1  0.24999629  0.97437214  0.28130109  1
  O  O24  1  0.74999881  0.90332958  0.07277360  1
  O  O25  1  0.25000688  0.09674360  0.92721306  1
  O  O26  1  0.74999922  0.40306012  0.42723062  1
  O  O27  1  0.25000260  0.59687407  0.57277637  1
