# generated using pymatgen
data_La7SmNi6(AgO10)2
_symmetry_space_group_name_H-M   'P 1'
_cell_length_a   11.22409299
_cell_length_b   11.62605335
_cell_length_c   17.94203185
_cell_angle_alpha   109.34120307
_cell_angle_beta   108.24144265
_cell_angle_gamma   90.02897452
_symmetry_Int_Tables_number   1
_chemical_formula_structural   La7SmNi6(AgO10)2
_chemical_formula_sum   'La28 Sm4 Ni24 Ag8 O80'
_cell_volume   2083.91021452
_cell_formula_units_Z   4
loop_
 _symmetry_equiv_pos_site_id
 _symmetry_equiv_pos_as_xyz
  1  'x, y, z'
loop_
 _atom_site_type_symbol
 _atom_site_label
 _atom_site_symmetry_multiplicity
 _atom_site_fract_x
 _atom_site_fract_y
 _atom_site_fract_z
 _atom_site_occupancy
  La  La0  1  0.30057468  0.06819030  0.12214108  1
  La  La1  1  0.29301855  0.06171319  0.60878603  1
  La  La2  1  0.30288558  0.55936995  0.60644684  1
  La  La3  1  0.80393953  0.06793368  0.61088031  1
  La  La4  1  0.80509752  0.56625952  0.12323004  1
  La  La5  1  0.80688154  0.55963922  0.60726009  1
  La  La6  1  0.19074065  0.43753936  0.38978828  1
  La  La7  1  0.17954467  0.43277090  0.88125299  1
  La  La8  1  0.18064219  0.93786844  0.38905624  1
  La  La9  1  0.18162960  0.94078960  0.87844140  1
  La  La10  1  0.69933326  0.43916303  0.39085286  1
  La  La11  1  0.69448502  0.93303816  0.39050792  1
  La  La12  1  0.67987704  0.93392035  0.87571603  1
  La  La13  1  0.06139842  0.30272880  0.12009665  1
  La  La14  1  0.05205199  0.29832573  0.60738133  1
  La  La15  1  0.05318852  0.79518108  0.60833416  1
  La  La16  1  0.54595852  0.30714657  0.12033736  1
  La  La17  1  0.55751969  0.30168746  0.60972980  1
  La  La18  1  0.54772411  0.80803534  0.12420262  1
  La  La19  1  0.55283898  0.79039801  0.60631456  1
  La  La20  1  0.44597859  0.20809960  0.39217257  1
  La  La21  1  0.43030041  0.19675796  0.88027371  1
  La  La22  1  0.44638658  0.69729212  0.38765997  1
  La  La23  1  0.42778472  0.69346703  0.87518358  1
  La  La24  1  0.94405736  0.20440166  0.39145305  1
  La  La25  1  0.93636411  0.19625767  0.88058080  1
  La  La26  1  0.94397698  0.70198881  0.39167586  1
  La  La27  1  0.92785611  0.69167106  0.87607653  1
  Sm  Sm28  1  0.30116938  0.56315219  0.12128309  1
  Sm  Sm29  1  0.80476429  0.06918760  0.12728559  1
  Sm  Sm30  1  0.67596288  0.43060674  0.87350096  1
  Sm  Sm31  1  0.05922517  0.80352220  0.12691224  1
  Ni  Ni32  1  0.99960587  0.99984929  0.49994642  1
  Ni  Ni33  1  0.00296978  0.50003059  0.49964536  1
  Ni  Ni34  1  0.50234399  0.49938167  0.49846074  1
  Ni  Ni35  1  0.24982472  0.25238860  0.00152283  1
  Ni  Ni36  1  0.24873381  0.25051877  0.49801393  1
  Ni  Ni37  1  0.25024266  0.74793210  0.49990223  1
  Ni  Ni38  1  0.75387130  0.25176225  0.49816680  1
  Ni  Ni39  1  0.75537265  0.74813705  0.50123237  1
  Ni  Ni40  1  0.10874299  0.10129017  0.25540787  1
  Ni  Ni41  1  0.10808495  0.10004858  0.74727867  1
  Ni  Ni42  1  0.11375494  0.60397059  0.25558809  1
  Ni  Ni43  1  0.10766786  0.59610006  0.74382759  1
  Ni  Ni44  1  0.61558881  0.10359068  0.25709433  1
  Ni  Ni45  1  0.61089630  0.10115469  0.74769412  1
  Ni  Ni46  1  0.61327337  0.60310262  0.25481912  1
  Ni  Ni47  1  0.60643919  0.59712208  0.74422078  1
  Ni  Ni48  1  0.36009540  0.40166760  0.25208582  1
  Ni  Ni49  1  0.35625696  0.39543803  0.74213428  1
  Ni  Ni50  1  0.36414752  0.89995858  0.25264699  1
  Ni  Ni51  1  0.35643910  0.89718056  0.74283247  1
  Ni  Ni52  1  0.86214048  0.39922505  0.25380958  1
  Ni  Ni53  1  0.85642706  0.39642381  0.74330425  1
  Ni  Ni54  1  0.86118462  0.90102129  0.25407143  1
  Ni  Ni55  1  0.85799886  0.89723842  0.74382098  1
  Ag  Ag56  1  0.99708496  0.99858818  0.00382046  1
  Ag  Ag57  1  0.99182057  0.49650033  0.99880508  1
  Ag  Ag58  1  0.49778855  0.00462368  0.00311176  1
  Ag  Ag59  1  0.49812017  0.99966753  0.49967889  1
  Ag  Ag60  1  0.49426069  0.50182672  0.99961469  1
  Ag  Ag61  1  0.24032894  0.75169566  0.99822808  1
  Ag  Ag62  1  0.74736116  0.24885448  0.00322149  1
  Ag  Ag63  1  0.74634289  0.75084125  0.00298584  1
  O  O64  1  0.11391482  0.11892442  0.48313880  1
  O  O65  1  0.11004285  0.12085482  0.97440098  1
  O  O66  1  0.11427759  0.61622526  0.47907932  1
  O  O67  1  0.09512777  0.60989646  0.96198497  1
  O  O68  1  0.61613882  0.12505429  0.47754913  1
  O  O69  1  0.59814827  0.11086667  0.96026455  1
  O  O70  1  0.61620936  0.61732686  0.48112242  1
  O  O71  1  0.59763380  0.60543743  0.95600592  1
  O  O72  1  0.14250697  0.38627041  0.03008162  1
  O  O73  1  0.13431001  0.38300007  0.51941512  1
  O  O74  1  0.13822479  0.89187010  0.04809043  1
  O  O75  1  0.13151270  0.88091927  0.51724571  1
  O  O76  1  0.63355363  0.38611210  0.03666079  1
  O  O77  1  0.63366971  0.38181803  0.51628352  1
  O  O78  1  0.64144144  0.89668869  0.04372853  1
  O  O79  1  0.63895661  0.87508321  0.52149197  1
  O  O80  1  0.35326562  0.11355074  0.47201539  1
  O  O81  1  0.35277366  0.11464960  0.97081027  1
  O  O82  1  0.36562386  0.61174786  0.48067471  1
  O  O83  1  0.34689159  0.60497474  0.96074359  1
  O  O84  1  0.86672369  0.11443632  0.48300528  1
  O  O85  1  0.85183602  0.10125576  0.96580215  1
  O  O86  1  0.86775334  0.61266524  0.48213146  1
  O  O87  1  0.84084045  0.59396135  0.95796063  1
  O  O88  1  0.37918772  0.39653983  0.03356634  1
  O  O89  1  0.38202008  0.38434483  0.51285044  1
  O  O90  1  0.38317166  0.89828146  0.03343067  1
  O  O91  1  0.38148476  0.88403152  0.52619857  1
  O  O92  1  0.89025506  0.39508564  0.04239888  1
  O  O93  1  0.88544971  0.38795623  0.51763903  1
  O  O94  1  0.89344342  0.90158009  0.04974856  1
  O  O95  1  0.88502515  0.88687942  0.51968508  1
  O  O96  1  0.13057422  0.13902376  0.16409631  1
  O  O97  1  0.08743212  0.11138795  0.63763898  1
  O  O98  1  0.12865713  0.63182220  0.15769162  1
  O  O99  1  0.07758996  0.60654355  0.63259611  1
  O  O100  1  0.62530674  0.13993327  0.16056906  1
  O  O101  1  0.62151720  0.13883775  0.65280907  1
  O  O102  1  0.62560032  0.63795805  0.15853271  1
  O  O103  1  0.57742024  0.60302933  0.63230735  1
  O  O104  1  0.44884633  0.39133509  0.36138559  1
  O  O105  1  0.46339740  0.36276925  0.83971782  1
  O  O106  1  0.46842119  0.86192834  0.34674932  1
  O  O107  1  0.46453188  0.86720995  0.84110572  1
  O  O108  1  0.94309623  0.39207510  0.36643583  1
  O  O109  1  0.96338976  0.36390921  0.83980212  1
  O  O110  1  0.94740615  0.89174341  0.36567037  1
  O  O111  1  0.96621092  0.87009839  0.84384852  1
  O  O112  1  0.34174590  0.27880605  0.13993351  1
  O  O113  1  0.33015681  0.27381154  0.63042616  1
  O  O114  1  0.36580426  0.76688612  0.15226431  1
  O  O115  1  0.32254977  0.77143617  0.63237766  1
  O  O116  1  0.87862960  0.26805743  0.15913740  1
  O  O117  1  0.83395776  0.28151660  0.63079041  1
  O  O118  1  0.88726655  0.77054070  0.16259236  1
  O  O119  1  0.83354210  0.77252463  0.63407863  1
  O  O120  1  0.18373559  0.22590039  0.36632363  1
  O  O121  1  0.20380689  0.22065975  0.86023747  1
  O  O122  1  0.19628255  0.72765406  0.36723753  1
  O  O123  1  0.21329821  0.73011128  0.84009024  1
  O  O124  1  0.70164265  0.22691774  0.36691451  1
  O  O125  1  0.71764435  0.23118217  0.84893732  1
  O  O126  1  0.70349552  0.71857733  0.36765444  1
  O  O127  1  0.71465281  0.72760213  0.84193621  1
  O  O128  1  0.43573667  0.06238607  0.25531459  1
  O  O129  1  0.42668763  0.05926054  0.74467720  1
  O  O130  1  0.43169401  0.55850181  0.24821691  1
  O  O131  1  0.42749914  0.55548426  0.74195478  1
  O  O132  1  0.92834005  0.06209799  0.25402578  1
  O  O133  1  0.93174626  0.05917735  0.74662602  1
  O  O134  1  0.93508849  0.56146748  0.25590815  1
  O  O135  1  0.92844318  0.55742263  0.74388616  1
  O  O136  1  0.18565797  0.44366477  0.25533068  1
  O  O137  1  0.17939017  0.43511627  0.74582808  1
  O  O138  1  0.18106288  0.94049811  0.25364069  1
  O  O139  1  0.17934491  0.93978604  0.74450481  1
  O  O140  1  0.68212295  0.44118026  0.25354742  1
  O  O141  1  0.67998015  0.43949738  0.74853172  1
  O  O142  1  0.68499140  0.94288165  0.25686624  1
  O  O143  1  0.67682238  0.93626572  0.74223980  1
