# generated using pymatgen
data_LiBeH3
_symmetry_space_group_name_H-M   'P 1'
_cell_length_a   4.69228096
_cell_length_b   5.91169014
_cell_length_c   5.91169241
_cell_angle_alpha   94.73734298
_cell_angle_beta   103.98156783
_cell_angle_gamma   76.01843828
_symmetry_Int_Tables_number   1
_chemical_formula_structural   LiBeH3
_chemical_formula_sum   'Li4 Be4 H12'
_cell_volume   154.36247863
_cell_formula_units_Z   4
loop_
 _symmetry_equiv_pos_site_id
 _symmetry_equiv_pos_as_xyz
  1  'x, y, z'
loop_
 _atom_site_type_symbol
 _atom_site_label
 _atom_site_symmetry_multiplicity
 _atom_site_fract_x
 _atom_site_fract_y
 _atom_site_fract_z
 _atom_site_occupancy
  Li  Li0  1  0.25000028  0.09933550  0.09933547  1
  Li  Li1  1  0.75000041  0.29095503  0.29095410  1
  Li  Li2  1  0.25000038  0.70904490  0.70904526  1
  Li  Li3  1  0.75000017  0.90066444  0.90066417  1
  Be  Be4  1  0.26080712  0.62713178  0.19820470  1
  Be  Be5  1  0.76080744  0.80179480  0.37286895  1
  Be  Be6  1  0.23919342  0.19820602  0.62713381  1
  Be  Be7  1  0.73919349  0.37286596  0.80179318  1
  H  H8  1  0.16073182  0.79185176  0.02004215  1
  H  H9  1  0.34159721  0.39435465  0.11633003  1
  H  H10  1  0.66073224  0.97995805  0.20814835  1
  H  H11  1  0.04132128  0.63188599  0.34391594  1
  H  H12  1  0.54132155  0.65608396  0.36811330  1
  H  H13  1  0.15840301  0.11632961  0.39435337  1
  H  H14  1  0.84159815  0.88366900  0.60564654  1
  H  H15  1  0.45867798  0.34391590  0.63188611  1
  H  H16  1  0.95867780  0.36811330  0.65608353  1
  H  H17  1  0.33926824  0.02004239  0.79185151  1
  H  H18  1  0.65840276  0.60564642  0.88366955  1
  H  H19  1  0.83926824  0.20814853  0.97995698  1
