# generated using pymatgen
data_TmLuCo2
_symmetry_space_group_name_H-M   'P 1'
_cell_length_a   4.63326291
_cell_length_b   4.63335163
_cell_length_c   4.63326854
_cell_angle_alpha   60.00029856
_cell_angle_beta   60.00074869
_cell_angle_gamma   60.00071485
_symmetry_Int_Tables_number   1
_chemical_formula_structural   TmLuCo2
_chemical_formula_sum   'Tm1 Lu1 Co2'
_cell_volume   70.33321391
_cell_formula_units_Z   1
loop_
 _symmetry_equiv_pos_site_id
 _symmetry_equiv_pos_as_xyz
  1  'x, y, z'
loop_
 _atom_site_type_symbol
 _atom_site_label
 _atom_site_symmetry_multiplicity
 _atom_site_fract_x
 _atom_site_fract_y
 _atom_site_fract_z
 _atom_site_occupancy
  Tm  Tm0  1  0.75000146  0.74999971  0.75000076  1
  Lu  Lu1  1  0.24999878  0.25000234  0.24999806  1
  Co  Co2  1  0.50000101  0.49999763  0.50000120  1
  Co  Co3  1  -0.00000125  0.00000032  -0.00000002  1
