# generated using pymatgen
data_Sm3Al
_symmetry_space_group_name_H-M   'P 1'
_cell_length_a   7.01889775
_cell_length_b   7.01889799
_cell_length_c   5.36734109
_cell_angle_alpha   90.00000000
_cell_angle_beta   90.00000000
_cell_angle_gamma   119.99999410
_symmetry_Int_Tables_number   1
_chemical_formula_structural   Sm3Al
_chemical_formula_sum   'Sm6 Al2'
_cell_volume   228.99589607
_cell_formula_units_Z   2
loop_
 _symmetry_equiv_pos_site_id
 _symmetry_equiv_pos_as_xyz
  1  'x, y, z'
loop_
 _atom_site_type_symbol
 _atom_site_label
 _atom_site_symmetry_multiplicity
 _atom_site_fract_x
 _atom_site_fract_y
 _atom_site_fract_z
 _atom_site_occupancy
  Sm  Sm0  1  0.82317195  0.17682905  0.75000000  1
  Sm  Sm1  1  0.35365610  0.17682905  0.75000000  1
  Sm  Sm2  1  0.82317195  0.64634390  0.75000000  1
  Sm  Sm3  1  0.17682805  0.82317095  0.24999800  1
  Sm  Sm4  1  0.64634290  0.82317095  0.24999800  1
  Sm  Sm5  1  0.17682705  0.35365410  0.24999800  1
  Al  Al6  1  0.66666700  0.33333400  0.24999800  1
  Al  Al7  1  0.33333400  0.66666800  0.75000000  1
