# generated using pymatgen
data_AgO2F
_symmetry_space_group_name_H-M   'P 1'
_cell_length_a   3.90773221
_cell_length_b   4.80947079
_cell_length_c   6.91959788
_cell_angle_alpha   100.26363440
_cell_angle_beta   106.40151785
_cell_angle_gamma   90.00000100
_symmetry_Int_Tables_number   1
_chemical_formula_structural   AgO2F
_chemical_formula_sum   'Ag2 O4 F2'
_cell_volume   122.58489269
_cell_formula_units_Z   2
loop_
 _symmetry_equiv_pos_site_id
 _symmetry_equiv_pos_as_xyz
  1  'x, y, z'
loop_
 _atom_site_type_symbol
 _atom_site_label
 _atom_site_symmetry_multiplicity
 _atom_site_fract_x
 _atom_site_fract_y
 _atom_site_fract_z
 _atom_site_occupancy
  Ag  Ag0  1  0.67060913  0.71241939  0.34121826  1
  Ag  Ag1  1  0.32939087  0.28758061  0.65878174  1
  O  O2  1  0.80583906  0.27653232  0.93543307  1
  O  O3  1  0.12959401  0.27653232  0.93543307  1
  O  O4  1  0.87040599  0.72346768  0.06456693  1
  O  O5  1  0.19416094  0.72346768  0.06456693  1
  F  F6  1  0.74296186  0.25678417  0.48592371  1
  F  F7  1  0.25703814  0.74321583  0.51407629  1
