# generated using pymatgen
data_KCaSiHO4
_symmetry_space_group_name_H-M   'P 1'
_cell_length_a   5.75710381
_cell_length_b   7.54402239
_cell_length_c   5.65804418
_cell_angle_alpha   90.00000000
_cell_angle_beta   121.21085425
_cell_angle_gamma   90.00000000
_symmetry_Int_Tables_number   1
_chemical_formula_structural   KCaSiHO4
_chemical_formula_sum   'K2 Ca2 Si2 H2 O8'
_cell_volume   210.17188829
_cell_formula_units_Z   2
loop_
 _symmetry_equiv_pos_site_id
 _symmetry_equiv_pos_as_xyz
  1  'x, y, z'
loop_
 _atom_site_type_symbol
 _atom_site_label
 _atom_site_symmetry_multiplicity
 _atom_site_fract_x
 _atom_site_fract_y
 _atom_site_fract_z
 _atom_site_occupancy
  K  K0  1  0.35319335  0.76683588  0.63214238  1
  K  K1  1  0.64680665  0.26683588  0.36785762  1
  Ca  Ca2  1  0.99485379  0.51520239  0.98807285  1
  Ca  Ca3  1  0.00514621  0.01520239  0.01192715  1
  Si  Si4  1  0.68068481  0.75463247  0.30500493  1
  Si  Si5  1  0.31931519  0.25463247  0.69499507  1
  H  H6  1  0.95940782  0.99729066  0.49434256  1
  H  H7  1  0.04059218  0.49729066  0.50565744  1
  O  O8  1  0.34841361  0.76180951  0.13186810  1
  O  O9  1  0.65158639  0.26180951  0.86813190  1
  O  O10  1  0.81229716  0.75959804  0.10651076  1
  O  O11  1  0.18770284  0.25959804  0.89348924  1
  O  O12  1  0.80826269  0.58976815  0.52627175  1
  O  O13  1  0.19173731  0.08976815  0.47372825  1
  O  O14  1  0.80806984  0.93786290  0.51435972  1
  O  O15  1  0.19193016  0.43786290  0.48564028  1
