# generated using pymatgen
data_LaWN3
_symmetry_space_group_name_H-M   'P 1'
_cell_length_a   3.88798763
_cell_length_b   8.03688881
_cell_length_c   5.86834802
_cell_angle_alpha   70.69539027
_cell_angle_beta   90.00000000
_cell_angle_gamma   90.00000000
_symmetry_Int_Tables_number   1
_chemical_formula_structural   LaWN3
_chemical_formula_sum   'La2 W2 N6'
_cell_volume   173.06006766
_cell_formula_units_Z   2
loop_
 _symmetry_equiv_pos_site_id
 _symmetry_equiv_pos_as_xyz
  1  'x, y, z'
loop_
 _atom_site_type_symbol
 _atom_site_label
 _atom_site_symmetry_multiplicity
 _atom_site_fract_x
 _atom_site_fract_y
 _atom_site_fract_z
 _atom_site_occupancy
  La  La0  1  0.25000000  0.18596938  0.75634928  1
  La  La1  1  0.75000000  0.81403062  0.24365072  1
  W  W2  1  0.25000000  0.66858444  0.85720555  1
  W  W3  1  0.75000000  0.33141556  0.14279445  1
  N  N4  1  0.25000000  0.86644414  0.95861353  1
  N  N5  1  0.75000000  0.13355586  0.04138647  1
  N  N6  1  0.25000000  0.39061489  0.02502065  1
  N  N7  1  0.75000000  0.60938511  0.97497935  1
  N  N8  1  0.25000000  0.73902985  0.53079277  1
  N  N9  1  0.75000000  0.26097015  0.46920723  1
