# generated using pymatgen
data_InSnBr3
_symmetry_space_group_name_H-M   'P 1'
_cell_length_a   5.93279814
_cell_length_b   5.95962573
_cell_length_c   5.98572964
_cell_angle_alpha   85.06332426
_cell_angle_beta   87.21603260
_cell_angle_gamma   88.38034160
_symmetry_Int_Tables_number   1
_chemical_formula_structural   InSnBr3
_chemical_formula_sum   'In1 Sn1 Br3'
_cell_volume   210.54333415
_cell_formula_units_Z   1
loop_
 _symmetry_equiv_pos_site_id
 _symmetry_equiv_pos_as_xyz
  1  'x, y, z'
loop_
 _atom_site_type_symbol
 _atom_site_label
 _atom_site_symmetry_multiplicity
 _atom_site_fract_x
 _atom_site_fract_y
 _atom_site_fract_z
 _atom_site_occupancy
  In  In0  1  0.07958744  0.10528368  0.11758940  1
  Sn  Sn1  1  0.48788917  0.49569540  0.48014280  1
  Br  Br2  1  0.99282830  0.47853721  0.44951172  1
  Br  Br3  1  0.46196007  0.45369655  0.95142904  1
  Br  Br4  1  0.47773303  0.97678817  0.44133004  1
