# generated using pymatgen
data_RbSeBr3
_symmetry_space_group_name_H-M   'P 1'
_cell_length_a   5.51772713
_cell_length_b   5.51564777
_cell_length_c   5.53057632
_cell_angle_alpha   89.94272734
_cell_angle_beta   89.99260347
_cell_angle_gamma   89.88490721
_symmetry_Int_Tables_number   1
_chemical_formula_structural   RbSeBr3
_chemical_formula_sum   'Rb1 Se1 Br3'
_cell_volume   168.31624636
_cell_formula_units_Z   1
loop_
 _symmetry_equiv_pos_site_id
 _symmetry_equiv_pos_as_xyz
  1  'x, y, z'
loop_
 _atom_site_type_symbol
 _atom_site_label
 _atom_site_symmetry_multiplicity
 _atom_site_fract_x
 _atom_site_fract_y
 _atom_site_fract_z
 _atom_site_occupancy
  Rb  Rb0  1  0.00255427  0.99936770  0.99878168  1
  Se  Se1  1  0.51448840  0.50283832  0.50028733  1
  Br  Br2  1  0.51491616  0.50490178  0.00032436  1
  Br  Br3  1  0.01460658  0.49996278  0.49876293  1
  Br  Br4  1  0.51343759  0.00292942  0.50184072  1
