# generated using pymatgen
data_MnAuO2
_symmetry_space_group_name_H-M   'P 1'
_cell_length_a   3.16207592
_cell_length_b   3.16207608
_cell_length_c   6.41941936
_cell_angle_alpha   75.74192830
_cell_angle_beta   75.74192427
_cell_angle_gamma   60.00000495
_symmetry_Int_Tables_number   1
_chemical_formula_structural   MnAuO2
_chemical_formula_sum   'Mn1 Au1 O2'
_cell_volume   53.29144867
_cell_formula_units_Z   1
loop_
 _symmetry_equiv_pos_site_id
 _symmetry_equiv_pos_as_xyz
  1  'x, y, z'
loop_
 _atom_site_type_symbol
 _atom_site_label
 _atom_site_symmetry_multiplicity
 _atom_site_fract_x
 _atom_site_fract_y
 _atom_site_fract_z
 _atom_site_occupancy
  Mn  Mn0  1  0.50000000  0.50000000  0.50000000  1
  Au  Au1  1  -0.00000000  -0.00000000  0.00000000  1
  O  O2  1  0.11186373  0.11186373  0.66440881  1
  O  O3  1  0.88813627  0.88813627  0.33559119  1
