# generated using pymatgen
data_TlAgCl3
_symmetry_space_group_name_H-M   'P 1'
_cell_length_a   5.12469006
_cell_length_b   5.12747624
_cell_length_c   5.13044109
_cell_angle_alpha   90.04358434
_cell_angle_beta   90.04812285
_cell_angle_gamma   89.96636963
_symmetry_Int_Tables_number   1
_chemical_formula_structural   TlAgCl3
_chemical_formula_sum   'Tl1 Ag1 Cl3'
_cell_volume   134.81108774
_cell_formula_units_Z   1
loop_
 _symmetry_equiv_pos_site_id
 _symmetry_equiv_pos_as_xyz
  1  'x, y, z'
loop_
 _atom_site_type_symbol
 _atom_site_label
 _atom_site_symmetry_multiplicity
 _atom_site_fract_x
 _atom_site_fract_y
 _atom_site_fract_z
 _atom_site_occupancy
  Tl  Tl0  1  0.99840646  0.99751118  0.99913674  1
  Ag  Ag1  1  0.49988290  0.49728783  0.48555855  1
  Cl  Cl2  1  0.99996352  0.49425307  0.48350574  1
  Cl  Cl3  1  0.50349355  0.50353769  0.98542268  1
  Cl  Cl4  1  0.49825257  0.99740823  0.48637629  1
