# generated using pymatgen
data_Ca3Bi2O7
_symmetry_space_group_name_H-M   'P 1'
_cell_length_a   6.08405071
_cell_length_b   5.89774119
_cell_length_c   10.63547751
_cell_angle_alpha   106.09717264
_cell_angle_beta   90.00000000
_cell_angle_gamma   90.00000000
_symmetry_Int_Tables_number   1
_chemical_formula_structural   Ca3Bi2O7
_chemical_formula_sum   'Ca6 Bi4 O14'
_cell_volume   366.66147910
_cell_formula_units_Z   2
loop_
 _symmetry_equiv_pos_site_id
 _symmetry_equiv_pos_as_xyz
  1  'x, y, z'
loop_
 _atom_site_type_symbol
 _atom_site_label
 _atom_site_symmetry_multiplicity
 _atom_site_fract_x
 _atom_site_fract_y
 _atom_site_fract_z
 _atom_site_occupancy
  Ca  Ca0  1  0.69931685  0.76552122  1.00000000  1
  Ca  Ca1  1  0.19931685  0.23447878  0.00000000  1
  Ca  Ca2  1  0.81490868  0.56582091  0.60713228  1
  Ca  Ca3  1  0.31490868  0.43417909  0.39286772  1
  Ca  Ca4  1  0.81490868  0.95868762  0.39286772  1
  Ca  Ca5  1  0.31490868  0.04131238  0.60713228  1
  Bi  Bi6  1  0.75120046  0.35720419  0.20771770  1
  Bi  Bi7  1  0.25120046  0.64279581  0.79228230  1
  Bi  Bi8  1  0.25120046  0.85051351  0.20771770  1
  Bi  Bi9  1  0.75120046  0.14948649  0.79228230  1
  O  O10  1  0.69122117  0.92416146  0.58958258  1
  O  O11  1  0.19122117  0.07583854  0.41041742  1
  O  O12  1  0.19122117  0.66542013  0.58958258  1
  O  O13  1  0.69122117  0.33457987  0.41041742  1
  O  O14  1  0.05062672  0.30819103  0.72949563  1
  O  O15  1  0.55062672  0.69180897  0.27050437  1
  O  O16  1  0.55062672  0.42130460  0.72949563  1
  O  O17  1  0.05062672  0.57869540  0.27050437  1
  O  O18  1  0.93829370  0.86051979  0.84604769  1
  O  O19  1  0.43829370  0.13948021  0.15395231  1
  O  O20  1  0.82818371  0.38936670  0.00000000  1
  O  O21  1  0.32818371  0.61063330  1.00000000  1
  O  O22  1  0.93829370  0.01447210  0.15395231  1
  O  O23  1  0.43829370  0.98552790  0.84604769  1
