# generated using pymatgen
data_Ca2CrWO6
_symmetry_space_group_name_H-M   'P 1'
_cell_length_a   5.46606385
_cell_length_b   5.57047614
_cell_length_c   7.81760286
_cell_angle_alpha   90.00000000
_cell_angle_beta   90.93901308
_cell_angle_gamma   90.00000000
_symmetry_Int_Tables_number   1
_chemical_formula_structural   Ca2CrWO6
_chemical_formula_sum   'Ca4 Cr2 W2 O12'
_cell_volume   238.00292584
_cell_formula_units_Z   2
loop_
 _symmetry_equiv_pos_site_id
 _symmetry_equiv_pos_as_xyz
  1  'x, y, z'
loop_
 _atom_site_type_symbol
 _atom_site_label
 _atom_site_symmetry_multiplicity
 _atom_site_fract_x
 _atom_site_fract_y
 _atom_site_fract_z
 _atom_site_occupancy
  Ca  Ca0  1  0.98953893  0.04817398  0.25377979  1
  Ca  Ca1  1  0.51046107  0.54817498  0.24622021  1
  Ca  Ca2  1  0.01046207  0.95182702  0.74622021  1
  Ca  Ca3  1  0.48953793  0.45182602  0.75377979  1
  Cr  Cr4  1  0.50000000  0.00000000  0.00000000  1
  Cr  Cr5  1  0.00000100  0.49999900  0.50000000  1
  W  W6  1  0.50000000  0.00000000  0.49999900  1
  W  W7  1  0.00000000  0.49999900  0.00000000  1
  O  O8  1  0.69902831  0.28691934  0.45215324  1
  O  O9  1  0.80097169  0.78692034  0.04784676  1
  O  O10  1  0.30097069  0.71308066  0.54784676  1
  O  O11  1  0.19902931  0.21307966  0.95215324  1
  O  O12  1  0.20210125  0.20671096  0.54596355  1
  O  O13  1  0.29789875  0.70670996  0.95403645  1
  O  O14  1  0.79789975  0.79328904  0.45403645  1
  O  O15  1  0.70210025  0.29329004  0.04596355  1
  O  O16  1  0.08823128  0.47855381  0.25101098  1
  O  O17  1  0.41176972  0.97855481  0.24898802  1
  O  O18  1  0.58823128  0.02144519  0.75101198  1
  O  O19  1  0.91176972  0.52144619  0.74898902  1
