# generated using pymatgen
data_CaV2O4
_symmetry_space_group_name_H-M   'P 1'
_cell_length_a   5.26843079
_cell_length_b   6.04057964
_cell_length_c   11.15073583
_cell_angle_alpha   89.98549343
_cell_angle_beta   90.00499910
_cell_angle_gamma   90.06838737
_symmetry_Int_Tables_number   1
_chemical_formula_structural   CaV2O4
_chemical_formula_sum   'Ca4 V8 O16'
_cell_volume   354.86494117
_cell_formula_units_Z   4
loop_
 _symmetry_equiv_pos_site_id
 _symmetry_equiv_pos_as_xyz
  1  'x, y, z'
loop_
 _atom_site_type_symbol
 _atom_site_label
 _atom_site_symmetry_multiplicity
 _atom_site_fract_x
 _atom_site_fract_y
 _atom_site_fract_z
 _atom_site_occupancy
  Ca  Ca0  1  0.84468380  0.24997779  0.74999391  1
  Ca  Ca1  1  0.15531549  0.75002261  0.24999895  1
  Ca  Ca2  1  0.52856274  0.25015837  0.25001769  1
  Ca  Ca3  1  0.47143683  0.74983762  0.74998539  1
  V  V4  1  0.51053367  0.74996253  0.48927734  1
  V  V5  1  0.51058481  0.74991889  0.01072045  1
  V  V6  1  0.48945651  0.25004518  0.51072546  1
  V  V7  1  0.48940448  0.25007644  0.98928115  1
  V  V8  1  -0.00000865  0.49999542  0.49999785  1
  V  V9  1  0.00000576  0.00000084  0.00000500  1
  V  V10  1  0.00001979  0.00000513  0.49999997  1
  V  V11  1  0.00000046  0.50000278  0.00000225  1
  O  O12  1  0.84459412  0.74995851  0.40111838  1
  O  O13  1  0.84464558  0.74988555  0.09887866  1
  O  O14  1  0.15540552  0.25003801  0.59887919  1
  O  O15  1  0.15535760  0.25011252  0.90111372  1
  O  O16  1  0.18096113  0.75005406  0.58770778  1
  O  O17  1  0.18104754  0.75017320  0.91231546  1
  O  O18  1  0.81903920  0.24994407  0.41229498  1
  O  O19  1  0.81895311  0.24982960  0.08768300  1
  O  O20  1  0.66158753  0.50319436  0.60380446  1
  O  O21  1  0.66157656  0.99624131  0.89619921  1
  O  O22  1  0.33838871  0.00359431  0.39620595  1
  O  O23  1  0.33845656  0.49703106  0.10380509  1
  O  O24  1  0.33841861  0.49680703  0.39619845  1
  O  O25  1  0.33841481  0.00376211  0.10380178  1
  O  O26  1  0.66161196  0.99640215  0.60379624  1
  O  O27  1  0.66154580  0.50296856  0.89619224  1
