# generated using pymatgen
data_RbBe2B3O7
_symmetry_space_group_name_H-M   'P 1'
_cell_length_a   7.76057144
_cell_length_b   17.93222844
_cell_length_c   4.43480748
_cell_angle_alpha   90.00000000
_cell_angle_beta   90.00000000
_cell_angle_gamma   90.00000000
_symmetry_Int_Tables_number   1
_chemical_formula_structural   RbBe2B3O7
_chemical_formula_sum   'Rb4 Be8 B12 O28'
_cell_volume   617.16705548
_cell_formula_units_Z   4
loop_
 _symmetry_equiv_pos_site_id
 _symmetry_equiv_pos_as_xyz
  1  'x, y, z'
loop_
 _atom_site_type_symbol
 _atom_site_label
 _atom_site_symmetry_multiplicity
 _atom_site_fract_x
 _atom_site_fract_y
 _atom_site_fract_z
 _atom_site_occupancy
  Rb  Rb0  1  0.50000000  0.35765354  0.94791341  1
  Rb  Rb1  1  -0.00000000  0.64234646  0.44791341  1
  Rb  Rb2  1  -0.00000000  0.14967362  0.92527669  1
  Rb  Rb3  1  0.50000000  0.85032638  0.42527669  1
  Be  Be4  1  0.18704881  0.45953446  0.43108616  1
  Be  Be5  1  0.81295119  0.45953446  0.43108616  1
  Be  Be6  1  0.31295119  0.54046554  0.93108616  1
  Be  Be7  1  0.68704881  0.54046554  0.93108616  1
  Be  Be8  1  0.32447084  0.03691035  0.35797905  1
  Be  Be9  1  0.67552916  0.03691035  0.35797905  1
  Be  Be10  1  0.17552916  0.96308965  0.85797905  1
  Be  Be11  1  0.82447084  0.96308965  0.85797905  1
  B  B12  1  -0.00000000  0.48111957  0.93271329  1
  B  B13  1  0.50000000  0.51888043  0.43271329  1
  B  B14  1  0.50000000  0.00864011  0.86153293  1
  B  B15  1  -0.00000000  0.99135989  0.36153293  1
  B  B16  1  0.15806931  0.31769895  0.51794187  1
  B  B17  1  0.84193069  0.31769895  0.51794187  1
  B  B18  1  0.34193069  0.68230105  0.01794187  1
  B  B19  1  0.65806931  0.68230105  0.01794187  1
  B  B20  1  0.33557958  0.19365886  0.42636641  1
  B  B21  1  0.66442042  0.19365886  0.42636641  1
  B  B22  1  0.16442042  0.80634114  0.92636641  1
  B  B23  1  0.83557958  0.80634114  0.92636641  1
  O  O24  1  -0.00000000  0.47378322  0.24417083  1
  O  O25  1  0.50000000  0.52621678  0.74417083  1
  O  O26  1  0.15622425  0.48791456  0.78166572  1
  O  O27  1  0.84377575  0.48791456  0.78166572  1
  O  O28  1  0.34377575  0.51208544  0.28166572  1
  O  O29  1  0.65622425  0.51208544  0.28166572  1
  O  O30  1  0.50000000  0.01025018  0.17260688  1
  O  O31  1  -0.00000000  0.98974982  0.67260688  1
  O  O32  1  0.15480352  0.99378133  0.20773074  1
  O  O33  1  0.84519648  0.99378133  0.20773074  1
  O  O34  1  0.34519648  0.00621867  0.70773074  1
  O  O35  1  0.65480352  0.00621867  0.70773074  1
  O  O36  1  0.25609385  0.37428005  0.42121657  1
  O  O37  1  0.74390615  0.37428005  0.42121657  1
  O  O38  1  0.24390615  0.62571995  0.92121657  1
  O  O39  1  0.75609385  0.62571995  0.92121657  1
  O  O40  1  -0.00000000  0.33210041  0.66019889  1
  O  O41  1  0.50000000  0.66789959  0.16019889  1
  O  O42  1  0.19797928  0.24207306  0.48953020  1
  O  O43  1  0.80202072  0.24207306  0.48953020  1
  O  O44  1  0.30202072  0.75792694  0.98953020  1
  O  O45  1  0.69797928  0.75792694  0.98953020  1
  O  O46  1  0.50000000  0.22519859  0.45777777  1
  O  O47  1  -0.00000000  0.77480141  0.95777777  1
  O  O48  1  0.29575194  0.12406321  0.35024292  1
  O  O49  1  0.70424806  0.12406321  0.35024292  1
  O  O50  1  0.20424806  0.87593679  0.85024292  1
  O  O51  1  0.79575194  0.87593679  0.85024292  1
