# generated using pymatgen
data_Y4Si2S3O7
_symmetry_space_group_name_H-M   'P 1'
_cell_length_a   10.78870492
_cell_length_b   10.78870492
_cell_length_c   10.78870492
_cell_angle_alpha   79.06500293
_cell_angle_beta   66.09932240
_cell_angle_gamma   113.90067760
_symmetry_Int_Tables_number   1
_chemical_formula_structural   Y4Si2S3O7
_chemical_formula_sum   'Y16 Si8 S12 O28'
_cell_volume   950.93944383
_cell_formula_units_Z   4
loop_
 _symmetry_equiv_pos_site_id
 _symmetry_equiv_pos_as_xyz
  1  'x, y, z'
loop_
 _atom_site_type_symbol
 _atom_site_label
 _atom_site_symmetry_multiplicity
 _atom_site_fract_x
 _atom_site_fract_y
 _atom_site_fract_z
 _atom_site_occupancy
  Y  Y0  1  0.98511914  0.64356039  0.84155874  1
  Y  Y1  1  0.48511914  0.65844126  0.85643961  1
  Y  Y2  1  0.01488086  0.65844126  0.32667788  1
  Y  Y3  1  0.51488086  0.17332212  0.84155874  1
  Y  Y4  1  0.01488086  0.35643961  0.15844126  1
  Y  Y5  1  0.51488086  0.34155874  0.14356039  1
  Y  Y6  1  0.98511914  0.34155874  0.67332212  1
  Y  Y7  1  0.48511914  0.82667788  0.15844126  1
  Y  Y8  1  0.40583389  0.70291695  0.54708305  1
  Y  Y9  1  0.75000000  0.70291695  0.20291695  1
  Y  Y10  1  0.90583389  0.95291695  0.79708305  1
  Y  Y11  1  0.25000000  0.95291695  0.45291695  1
  Y  Y12  1  0.75000000  0.04708305  0.54708305  1
  Y  Y13  1  0.09416611  0.04708305  0.20291695  1
  Y  Y14  1  0.25000000  0.29708305  0.79708305  1
  Y  Y15  1  0.59416611  0.29708305  0.45291695  1
  Si  Si16  1  0.87476237  0.77917678  0.59558559  1
  Si  Si17  1  0.37476237  0.90441441  0.72082322  1
  Si  Si18  1  0.12523763  0.90441441  0.97034796  1
  Si  Si19  1  0.62523763  0.52965204  0.59558559  1
  Si  Si20  1  0.12523763  0.22082322  0.40441441  1
  Si  Si21  1  0.62523763  0.09558559  0.27917678  1
  Si  Si22  1  0.87476237  0.09558559  0.02965204  1
  Si  Si23  1  0.37476237  0.47034796  0.40441441  1
  S  S24  1  0.64601158  -0.00000000  0.85398842  1
  S  S25  1  0.35398842  -0.00000000  0.14601158  1
  S  S26  1  0.14601158  0.64601158  0.50000000  1
  S  S27  1  0.64601158  0.64601158  0.00000000  1
  S  S28  1  0.14601158  0.50000000  0.85398842  1
  S  S29  1  0.85398842  0.50000000  0.14601158  1
  S  S30  1  0.85398842  0.35398842  0.50000000  1
  S  S31  1  0.35398842  0.35398842  0.00000000  1
  S  S32  1  0.75000000  0.37500000  0.87500000  1
  S  S33  1  0.25000000  0.62500000  0.12500000  1
  S  S34  1  0.25000000  0.12500000  0.62500000  1
  S  S35  1  0.75000000  0.87500000  0.37500000  1
  O  O36  1  0.76793127  0.84969413  0.66444083  1
  O  O37  1  0.01413496  0.84969413  0.41823713  1
  O  O38  1  0.26793127  0.83555917  0.65030587  1
  O  O39  1  0.98586504  0.83555917  0.93237209  1
  O  O40  1  0.48586504  0.56762791  0.66444083  1
  O  O41  1  0.73206873  0.56762791  0.41823713  1
  O  O42  1  0.51413496  0.08176287  0.65030587  1
  O  O43  1  0.23206873  0.08176287  0.93237209  1
  O  O44  1  0.23206873  0.15030587  0.33555917  1
  O  O45  1  0.98586504  0.15030587  0.58176287  1
  O  O46  1  0.73206873  0.16444083  0.34969413  1
  O  O47  1  0.01413496  0.16444083  0.06762791  1
  O  O48  1  0.51413496  0.43237209  0.33555917  1
  O  O49  1  0.26793127  0.43237209  0.58176287  1
  O  O50  1  0.48586504  0.91823713  0.34969413  1
  O  O51  1  0.76793127  0.91823713  0.06762791  1
  O  O52  1  0.98185232  0.80814883  0.67370348  1
  O  O53  1  0.48185232  0.82629652  0.69185117  1
  O  O54  1  0.01814768  0.82629652  0.15555580  1
  O  O55  1  0.51814768  0.34444420  0.67370348  1
  O  O56  1  0.01814768  0.19185117  0.32629652  1
  O  O57  1  0.51814768  0.17370348  0.30814883  1
  O  O58  1  0.98185232  0.17370348  0.84444420  1
  O  O59  1  0.48185232  0.65555580  0.32629652  1
  O  O60  1  0.75000000  0.60122531  0.64877469  1
  O  O61  1  0.25000000  0.85122531  0.89877469  1
  O  O62  1  0.25000000  0.39877469  0.35122531  1
  O  O63  1  0.75000000  0.14877469  0.10122531  1
