# generated using pymatgen
data_WSeS
_symmetry_space_group_name_H-M   'P 1'
_cell_length_a   3.25472212
_cell_length_b   3.25471568
_cell_length_c   23.02290203
_cell_angle_alpha   89.99942558
_cell_angle_beta   90.00000000
_cell_angle_gamma   120.00006547
_symmetry_Int_Tables_number   1
_chemical_formula_structural   WSeS
_chemical_formula_sum   'W2 Se2 S2'
_cell_volume   211.21141305
_cell_formula_units_Z   2
loop_
 _symmetry_equiv_pos_site_id
 _symmetry_equiv_pos_as_xyz
  1  'x, y, z'
loop_
 _atom_site_type_symbol
 _atom_site_label
 _atom_site_symmetry_multiplicity
 _atom_site_fract_x
 _atom_site_fract_y
 _atom_site_fract_z
 _atom_site_occupancy
  W  W0  1  0.33330921  0.66661841  0.15043438  1
  W  W1  1  0.66668769  0.33337538  0.45144452  1
  Se  Se2  1  0.33336066  0.66672233  0.52558350  1
  Se  Se3  1  0.33335087  0.66670273  0.37728909  1
  S  S4  1  0.66664620  0.33329139  0.08313480  1
  S  S5  1  0.66664538  0.33328975  0.21771770  1
