# generated using pymatgen
data_KNO3
_symmetry_space_group_name_H-M   'P 1'
_cell_length_a   4.68324308
_cell_length_b   5.36463871
_cell_length_c   14.41348788
_cell_angle_alpha   90.00000000
_cell_angle_beta   109.85455406
_cell_angle_gamma   90.00000000
_symmetry_Int_Tables_number   1
_chemical_formula_structural   KNO3
_chemical_formula_sum   'K4 N4 O12'
_cell_volume   340.59773989
_cell_formula_units_Z   4
loop_
 _symmetry_equiv_pos_site_id
 _symmetry_equiv_pos_as_xyz
  1  'x, y, z'
loop_
 _atom_site_type_symbol
 _atom_site_label
 _atom_site_symmetry_multiplicity
 _atom_site_fract_x
 _atom_site_fract_y
 _atom_site_fract_z
 _atom_site_occupancy
  K  K0  1  0.15378100  0.90146358  0.37689545  1
  K  K1  1  0.84621900  0.40146358  0.12310455  1
  K  K2  1  0.84621900  0.09853642  0.62310455  1
  K  K3  1  0.15378100  0.59853642  0.87689545  1
  N  N4  1  0.74841263  0.40440651  0.38042976  1
  N  N5  1  0.25158737  0.90440651  0.11957024  1
  N  N6  1  0.25158737  0.59559349  0.61957024  1
  N  N7  1  0.74841263  0.09559349  0.88042976  1
  O  O8  1  0.68447767  0.20136658  0.41436805  1
  O  O9  1  0.31552233  0.70136658  0.08563195  1
  O  O10  1  0.31552233  0.79863342  0.58563195  1
  O  O11  1  0.68447767  0.29863342  0.91436805  1
  O  O12  1  0.66868448  0.61162230  0.40507089  1
  O  O13  1  0.33131552  0.11162230  0.09492911  1
  O  O14  1  0.33131552  0.38837770  0.59492911  1
  O  O15  1  0.66868448  0.88837770  0.90507089  1
  O  O16  1  0.09960952  0.89775729  0.17804808  1
  O  O17  1  0.90039048  0.39775729  0.32195192  1
  O  O18  1  0.90039048  0.10224271  0.82195192  1
  O  O19  1  0.09960952  0.60224271  0.67804808  1
