# generated using pymatgen
data_Mo3W(SeS)4
_symmetry_space_group_name_H-M   'P 1'
_cell_length_a   3.25406103
_cell_length_b   3.25406878
_cell_length_c   36.83873233
_cell_angle_alpha   90.00037389
_cell_angle_beta   90.00000000
_cell_angle_gamma   119.99992135
_symmetry_Int_Tables_number   1
_chemical_formula_structural   Mo3W(SeS)4
_chemical_formula_sum   'Mo3 W1 Se4 S4'
_cell_volume   337.82211354
_cell_formula_units_Z   1
loop_
 _symmetry_equiv_pos_site_id
 _symmetry_equiv_pos_as_xyz
  1  'x, y, z'
loop_
 _atom_site_type_symbol
 _atom_site_label
 _atom_site_symmetry_multiplicity
 _atom_site_fract_x
 _atom_site_fract_y
 _atom_site_fract_z
 _atom_site_occupancy
  Mo  Mo0  1  0.33330973  0.66661947  0.09391384  1
  Mo  Mo1  1  0.33330977  0.66661955  0.46967239  1
  Mo  Mo2  1  0.66669087  0.33338174  0.65756562  1
  W  W3  1  0.66669225  0.33338449  0.28179354  1
  Se  Se4  1  0.33335121  0.66670342  0.70362351  1
  Se  Se5  1  0.66665072  0.33330045  0.42358356  1
  Se  Se6  1  0.66665062  0.33330024  0.51571921  1
  Se  Se7  1  0.33335147  0.66670395  0.61149545  1
  S  S8  1  0.33335111  0.66670321  0.32381641  1
  S  S9  1  0.66664811  0.33329522  0.05201820  1
  S  S10  1  0.66664249  0.33328398  0.13580209  1
  S  S11  1  0.33335164  0.66670428  0.23974417  1
