# generated using pymatgen
data_Mo3W(SeS)4
_symmetry_space_group_name_H-M   'P 1'
_cell_length_a   3.25418185
_cell_length_b   3.25416354
_cell_length_c   36.87385437
_cell_angle_alpha   89.99988560
_cell_angle_beta   90.00000000
_cell_angle_gamma   120.00018627
_symmetry_Int_Tables_number   1
_chemical_formula_structural   Mo3W(SeS)4
_chemical_formula_sum   'Mo3 W1 Se4 S4'
_cell_volume   338.16569241
_cell_formula_units_Z   1
loop_
 _symmetry_equiv_pos_site_id
 _symmetry_equiv_pos_as_xyz
  1  'x, y, z'
loop_
 _atom_site_type_symbol
 _atom_site_label
 _atom_site_symmetry_multiplicity
 _atom_site_fract_x
 _atom_site_fract_y
 _atom_site_fract_z
 _atom_site_occupancy
  Mo  Mo0  1  0.33330977  0.66661955  0.09391862  1
  Mo  Mo1  1  0.33331043  0.66662087  0.46965357  1
  Mo  Mo2  1  0.66668750  0.33337500  0.28176079  1
  W  W3  1  0.66669466  0.33338933  0.65753948  1
  Se  Se4  1  0.33334943  0.66669987  0.32784163  1
  Se  Se5  1  0.66665036  0.33329972  0.42362099  1
  Se  Se6  1  0.66664837  0.33329573  0.51576673  1
  Se  Se7  1  0.33334851  0.66669803  0.23571875  1
  S  S8  1  0.33335415  0.66670930  0.69958315  1
  S  S9  1  0.66664589  0.33329077  0.05201089  1
  S  S10  1  0.66664646  0.33329192  0.13583210  1
  S  S11  1  0.33335446  0.66670992  0.61550129  1
