# generated using pymatgen
data_MoW3(SeS)4
_symmetry_space_group_name_H-M   'P 1'
_cell_length_a   3.25558485
_cell_length_b   3.25560000
_cell_length_c   36.94458488
_cell_angle_alpha   89.99982629
_cell_angle_beta   90.00000000
_cell_angle_gamma   119.99984597
_symmetry_Int_Tables_number   1
_chemical_formula_structural   MoW3(SeS)4
_chemical_formula_sum   'Mo1 W3 Se4 S4'
_cell_volume   339.11121692
_cell_formula_units_Z   1
loop_
 _symmetry_equiv_pos_site_id
 _symmetry_equiv_pos_as_xyz
  1  'x, y, z'
loop_
 _atom_site_type_symbol
 _atom_site_label
 _atom_site_symmetry_multiplicity
 _atom_site_fract_x
 _atom_site_fract_y
 _atom_site_fract_z
 _atom_site_occupancy
  Mo  Mo0  1  0.66668871  0.33337741  0.28177599  1
  W  W1  1  0.33330907  0.66661814  0.09391144  1
  W  W2  1  0.33330880  0.66661761  0.46969106  1
  W  W3  1  0.66669030  0.33338059  0.65755742  1
  Se  Se4  1  0.33335000  0.66670100  0.32773183  1
  Se  Se5  1  0.66665088  0.33330076  0.42343295  1
  Se  Se6  1  0.66665098  0.33330095  0.51592045  1
  Se  Se7  1  0.33334945  0.66669991  0.23579620  1
  S  S8  1  0.33335684  0.66671468  0.69953048  1
  S  S9  1  0.66664569  0.33329037  0.05193374  1
  S  S10  1  0.66664601  0.33329102  0.13589450  1
  S  S11  1  0.33335328  0.66670756  0.61557194  1
