# generated using pymatgen
data_WSeS
_symmetry_space_group_name_H-M   'P 1'
_cell_length_a   3.25431725
_cell_length_b   3.25433110
_cell_length_c   36.89402558
_cell_angle_alpha   89.99992493
_cell_angle_beta   89.99999712
_cell_angle_gamma   119.99985765
_symmetry_Int_Tables_number   1
_chemical_formula_structural   WSeS
_chemical_formula_sum   'W4 Se4 S4'
_cell_volume   338.38330166
_cell_formula_units_Z   4
loop_
 _symmetry_equiv_pos_site_id
 _symmetry_equiv_pos_as_xyz
  1  'x, y, z'
loop_
 _atom_site_type_symbol
 _atom_site_label
 _atom_site_symmetry_multiplicity
 _atom_site_fract_x
 _atom_site_fract_y
 _atom_site_fract_z
 _atom_site_occupancy
  W  W0  1  0.33331028  0.66661959  0.09390128  1
  W  W1  1  0.33330830  0.66661563  0.46965768  1
  W  W2  1  0.66669170  0.33338437  0.28180032  1
  W  W3  1  0.66668972  0.33338041  0.65755672  1
  Se  Se4  1  0.33335257  0.66670569  0.70380473  1
  Se  Se5  1  0.66664743  0.33329431  0.04765327  1
  Se  Se6  1  0.66664858  0.33329657  0.14015920  1
  Se  Se7  1  0.33335142  0.66670343  0.61129880  1
  S  S8  1  0.33335775  0.66671589  0.32377238  1
  S  S9  1  0.66664225  0.33328411  0.42768562  1
  S  S10  1  0.66664460  0.33328861  0.51163086  1
  S  S11  1  0.33335540  0.66671139  0.23982714  1
