# generated using pymatgen
data_WSeS
_symmetry_space_group_name_H-M   'P 1'
_cell_length_a   3.25343219
_cell_length_b   3.25341779
_cell_length_c   36.93005953
_cell_angle_alpha   90.00002902
_cell_angle_beta   90.00000000
_cell_angle_gamma   120.00014632
_symmetry_Int_Tables_number   1
_chemical_formula_structural   WSeS
_chemical_formula_sum   'W4 Se4 S4'
_cell_volume   338.52566147
_cell_formula_units_Z   4
loop_
 _symmetry_equiv_pos_site_id
 _symmetry_equiv_pos_as_xyz
  1  'x, y, z'
loop_
 _atom_site_type_symbol
 _atom_site_label
 _atom_site_symmetry_multiplicity
 _atom_site_fract_x
 _atom_site_fract_y
 _atom_site_fract_z
 _atom_site_occupancy
  W  W0  1  0.33331068  0.66662136  0.09391805  1
  W  W1  1  0.33331221  0.66662443  0.46964470  1
  W  W2  1  0.66668855  0.33337710  0.28177529  1
  W  W3  1  0.66668770  0.33337540  0.65756492  1
  Se  Se4  1  0.33335187  0.66670475  0.70382889  1
  Se  Se5  1  0.66664812  0.33329524  0.42339357  1
  Se  Se6  1  0.66664689  0.33329278  0.51591874  1
  Se  Se7  1  0.33335208  0.66670515  0.61128964  1
  S  S8  1  0.33335460  0.66671019  0.32379527  1
  S  S9  1  0.66664645  0.33329189  0.05190907  1
  S  S10  1  0.66664635  0.33329171  0.13592422  1
  S  S11  1  0.33335450  0.66671000  0.23978565  1
