# generated using pymatgen
data_MoW3(SeS)4
_symmetry_space_group_name_H-M   'P 1'
_cell_length_a   3.25338463
_cell_length_b   3.25337692
_cell_length_c   36.88149400
_cell_angle_alpha   89.99971998
_cell_angle_beta   90.00000000
_cell_angle_gamma   120.00007827
_symmetry_Int_Tables_number   1
_chemical_formula_structural   MoW3(SeS)4
_chemical_formula_sum   'Mo1 W3 Se4 S4'
_cell_volume   338.07152024
_cell_formula_units_Z   1
loop_
 _symmetry_equiv_pos_site_id
 _symmetry_equiv_pos_as_xyz
  1  'x, y, z'
loop_
 _atom_site_type_symbol
 _atom_site_label
 _atom_site_symmetry_multiplicity
 _atom_site_fract_x
 _atom_site_fract_y
 _atom_site_fract_z
 _atom_site_occupancy
  Mo  Mo0  1  0.66669286  0.33338571  0.28178955  1
  W  W1  1  0.33331054  0.66662109  0.09391325  1
  W  W2  1  0.33330997  0.66661994  0.46964645  1
  W  W3  1  0.66668892  0.33337783  0.65754539  1
  Se  Se4  1  0.33335318  0.66670735  0.32780992  1
  Se  Se5  1  0.33335187  0.66670474  0.70388805  1
  Se  Se6  1  0.33335756  0.66671612  0.23577560  1
  Se  Se7  1  0.33335118  0.66670335  0.61122585  1
  S  S8  1  0.66664627  0.33329153  0.05188468  1
  S  S9  1  0.66664616  0.33329131  0.42765516  1
  S  S10  1  0.66664651  0.33329202  0.13593616  1
  S  S11  1  0.66664499  0.33328899  0.51167793  1
