# generated using pymatgen
data_MoW(SeS)2
_symmetry_space_group_name_H-M   'P 1'
_cell_length_a   3.25158254
_cell_length_b   3.25154263
_cell_length_c   36.90117855
_cell_angle_alpha   89.99986062
_cell_angle_beta   90.00000000
_cell_angle_gamma   120.00040601
_symmetry_Int_Tables_number   1
_chemical_formula_structural   MoW(SeS)2
_chemical_formula_sum   'Mo2 W2 Se4 S4'
_cell_volume   337.87287489
_cell_formula_units_Z   2
loop_
 _symmetry_equiv_pos_site_id
 _symmetry_equiv_pos_as_xyz
  1  'x, y, z'
loop_
 _atom_site_type_symbol
 _atom_site_label
 _atom_site_symmetry_multiplicity
 _atom_site_fract_x
 _atom_site_fract_y
 _atom_site_fract_z
 _atom_site_occupancy
  Mo  Mo0  1  0.33331300  0.66662600  0.46967169  1
  Mo  Mo1  1  0.66668700  0.33337400  0.28178631  1
  W  W2  1  0.33331201  0.66662403  0.09392256  1
  W  W3  1  0.66668799  0.33337597  0.65753544  1
  Se  Se4  1  0.33335197  0.66670494  0.32784874  1
  Se  Se5  1  0.66664803  0.33329506  0.42360926  1
  Se  Se6  1  0.66664769  0.33329438  0.51574608  1
  Se  Se7  1  0.33335231  0.66670562  0.23571192  1
  S  S8  1  0.33335549  0.66671197  0.69959710  1
  S  S9  1  0.66664451  0.33328803  0.05186090  1
  S  S10  1  0.66664521  0.33328942  0.13598019  1
  S  S11  1  0.33335479  0.66671058  0.61547781  1
