# generated using pymatgen
data_MoW3(SeS)4
_symmetry_space_group_name_H-M   'P 1'
_cell_length_a   3.25565323
_cell_length_b   3.25567244
_cell_length_c   36.94601658
_cell_angle_alpha   89.99969867
_cell_angle_beta   90.00000000
_cell_angle_gamma   119.99980469
_symmetry_Int_Tables_number   1
_chemical_formula_structural   MoW3(SeS)4
_chemical_formula_sum   'Mo1 W3 Se4 S4'
_cell_volume   339.13916862
_cell_formula_units_Z   1
loop_
 _symmetry_equiv_pos_site_id
 _symmetry_equiv_pos_as_xyz
  1  'x, y, z'
loop_
 _atom_site_type_symbol
 _atom_site_label
 _atom_site_symmetry_multiplicity
 _atom_site_fract_x
 _atom_site_fract_y
 _atom_site_fract_z
 _atom_site_occupancy
  Mo  Mo0  1  0.33331461  0.66662921  0.46963053  1
  W  W1  1  0.33331002  0.66662005  0.09391339  1
  W  W2  1  0.66668823  0.33337646  0.28178602  1
  W  W3  1  0.66668819  0.33337638  0.65758662  1
  Se  Se4  1  0.33334933  0.66669967  0.70382798  1
  Se  Se5  1  0.66665410  0.33330720  0.42366966  1
  Se  Se6  1  0.66664989  0.33329879  0.51560911  1
  Se  Se7  1  0.33335026  0.66670151  0.61131991  1
  S  S8  1  0.33334996  0.66670092  0.32375808  1
  S  S9  1  0.66664780  0.33329461  0.05193388  1
  S  S10  1  0.66664684  0.33329268  0.13589599  1
  S  S11  1  0.33335076  0.66670252  0.23981683  1
