# generated using pymatgen
data_WSeS
_symmetry_space_group_name_H-M   'P 1'
_cell_length_a   3.25413990
_cell_length_b   3.25415061
_cell_length_c   36.90232973
_cell_angle_alpha   89.99982085
_cell_angle_beta   90.00000000
_cell_angle_gamma   119.99989111
_symmetry_Int_Tables_number   1
_chemical_formula_structural   WSeS
_chemical_formula_sum   'W4 Se4 S4'
_cell_volume   338.42213638
_cell_formula_units_Z   4
loop_
 _symmetry_equiv_pos_site_id
 _symmetry_equiv_pos_as_xyz
  1  'x, y, z'
loop_
 _atom_site_type_symbol
 _atom_site_label
 _atom_site_symmetry_multiplicity
 _atom_site_fract_x
 _atom_site_fract_y
 _atom_site_fract_z
 _atom_site_occupancy
  W  W0  1  0.33330898  0.66661796  0.09391238  1
  W  W1  1  0.33331043  0.66662085  0.46969090  1
  W  W2  1  0.66668957  0.33337915  0.28176710  1
  W  W3  1  0.66669102  0.33338204  0.65754562  1
  Se  Se4  1  0.33334945  0.66669990  0.32800352  1
  Se  Se5  1  0.66665055  0.33330010  0.42345448  1
  Se  Se6  1  0.66664714  0.33329328  0.51591947  1
  Se  Se7  1  0.33335286  0.66670672  0.23553853  1
  S  S8  1  0.33335223  0.66670546  0.69952244  1
  S  S9  1  0.66664777  0.33329454  0.05193556  1
  S  S10  1  0.66664628  0.33329155  0.13589620  1
  S  S11  1  0.33335372  0.66670845  0.61556180  1
