# generated using pymatgen
data_MoW(SeS)2
_symmetry_space_group_name_H-M   'P 1'
_cell_length_a   3.25146258
_cell_length_b   3.25141778
_cell_length_c   36.89223119
_cell_angle_alpha   89.99969280
_cell_angle_beta   90.00000000
_cell_angle_gamma   120.00045582
_symmetry_Int_Tables_number   1
_chemical_formula_structural   MoW(SeS)2
_chemical_formula_sum   'Mo2 W2 Se4 S4'
_cell_volume   337.76534970
_cell_formula_units_Z   2
loop_
 _symmetry_equiv_pos_site_id
 _symmetry_equiv_pos_as_xyz
  1  'x, y, z'
loop_
 _atom_site_type_symbol
 _atom_site_label
 _atom_site_symmetry_multiplicity
 _atom_site_fract_x
 _atom_site_fract_y
 _atom_site_fract_z
 _atom_site_occupancy
  Mo  Mo0  1  0.33330990  0.66661979  0.09389824  1
  Mo  Mo1  1  0.66668585  0.33337169  0.28180327  1
  W  W2  1  0.33331158  0.66662316  0.46966414  1
  W  W3  1  0.66668814  0.33337627  0.65754029  1
  Se  Se4  1  0.33336095  0.66672291  0.32786911  1
  Se  Se5  1  0.66664612  0.33329125  0.04780894  1
  Se  Se6  1  0.66664667  0.33329234  0.14000346  1
  Se  Se7  1  0.33335126  0.66670352  0.23573845  1
  S  S8  1  0.33335452  0.66671005  0.69960484  1
  S  S9  1  0.66664521  0.33328942  0.42761477  1
  S  S10  1  0.66664503  0.33328906  0.51173004  1
  S  S11  1  0.33335476  0.66671053  0.61547246  1
