# generated using pymatgen
data_Mg30FeCoO32
_symmetry_space_group_name_H-M   'P 1'
_cell_length_a   8.49671871
_cell_length_b   8.53471571
_cell_length_c   8.53471571
_cell_angle_alpha   90.00000000
_cell_angle_beta   90.00000000
_cell_angle_gamma   90.00000000
_symmetry_Int_Tables_number   1
_chemical_formula_structural   Mg30FeCoO32
_chemical_formula_sum   'Mg30 Fe1 Co1 O32'
_cell_volume   618.91265046
_cell_formula_units_Z   1
loop_
 _symmetry_equiv_pos_site_id
 _symmetry_equiv_pos_as_xyz
  1  'x, y, z'
loop_
 _atom_site_type_symbol
 _atom_site_label
 _atom_site_symmetry_multiplicity
 _atom_site_fract_x
 _atom_site_fract_y
 _atom_site_fract_z
 _atom_site_occupancy
  Mg  Mg0  1  0.00000000  0.00000000  0.50000000  1
  Mg  Mg1  1  0.00000000  0.50000000  0.00000000  1
  Mg  Mg2  1  0.50000000  0.00000000  0.00000000  1
  Mg  Mg3  1  0.50000000  0.00000000  0.50000000  1
  Mg  Mg4  1  0.50000000  0.50000000  0.00000000  1
  Mg  Mg5  1  0.50000000  0.50000000  0.50000000  1
  Mg  Mg6  1  0.00000000  0.25051239  0.25051239  1
  Mg  Mg7  1  0.00000000  0.25051239  0.74948761  1
  Mg  Mg8  1  0.00000000  0.74948761  0.25051239  1
  Mg  Mg9  1  0.00000000  0.74948761  0.74948761  1
  Mg  Mg10  1  0.50000000  0.25003316  0.25003316  1
  Mg  Mg11  1  0.50000000  0.25003316  0.74996684  1
  Mg  Mg12  1  0.50000000  0.74996684  0.25003316  1
  Mg  Mg13  1  0.50000000  0.74996684  0.74996684  1
  Mg  Mg14  1  0.24995568  0.00000000  0.25131880  1
  Mg  Mg15  1  0.24995568  0.00000000  0.74868120  1
  Mg  Mg16  1  0.24912223  0.50000000  0.25015968  1
  Mg  Mg17  1  0.24912223  0.50000000  0.74984032  1
  Mg  Mg18  1  0.75004432  0.00000000  0.25131880  1
  Mg  Mg19  1  0.75004432  0.00000000  0.74868120  1
  Mg  Mg20  1  0.75087777  0.50000000  0.25015968  1
  Mg  Mg21  1  0.75087777  0.50000000  0.74984032  1
  Mg  Mg22  1  0.24995568  0.25131880  0.00000000  1
  Mg  Mg23  1  0.24912223  0.25015968  0.50000000  1
  Mg  Mg24  1  0.24995568  0.74868120  0.00000000  1
  Mg  Mg25  1  0.24912223  0.74984032  0.50000000  1
  Mg  Mg26  1  0.75004432  0.25131880  0.00000000  1
  Mg  Mg27  1  0.75087777  0.25015968  0.50000000  1
  Mg  Mg28  1  0.75004432  0.74868120  0.00000000  1
  Mg  Mg29  1  0.75087777  0.74984032  0.50000000  1
  Fe  Fe30  1  0.00000000  0.00000000  0.00000000  1
  Co  Co31  1  0.00000000  0.50000000  0.50000000  1
  O  O32  1  0.25074243  0.00000000  0.00000000  1
  O  O33  1  0.25120155  0.00000000  0.50000000  1
  O  O34  1  0.25120155  0.50000000  0.00000000  1
  O  O35  1  0.25064299  0.50000000  0.50000000  1
  O  O36  1  0.74925757  0.00000000  0.00000000  1
  O  O37  1  0.74879845  0.00000000  0.50000000  1
  O  O38  1  0.74879845  0.50000000  0.00000000  1
  O  O39  1  0.74935701  0.50000000  0.50000000  1
  O  O40  1  0.24998065  0.24993026  0.24993026  1
  O  O41  1  0.24998065  0.24993026  0.75006974  1
  O  O42  1  0.24998065  0.75006974  0.24993026  1
  O  O43  1  0.24998065  0.75006974  0.75006974  1
  O  O44  1  0.75001935  0.24993026  0.24993026  1
  O  O45  1  0.75001935  0.24993026  0.75006974  1
  O  O46  1  0.75001935  0.75006974  0.24993026  1
  O  O47  1  0.75001935  0.75006974  0.75006974  1
  O  O48  1  0.00000000  0.00000000  0.25612938  1
  O  O49  1  0.00000000  0.00000000  0.74387062  1
  O  O50  1  0.00000000  0.50000000  0.24753976  1
  O  O51  1  0.00000000  0.50000000  0.75246024  1
  O  O52  1  0.50000000  0.00000000  0.24962735  1
  O  O53  1  0.50000000  0.00000000  0.75037265  1
  O  O54  1  0.50000000  0.50000000  0.25024127  1
  O  O55  1  0.50000000  0.50000000  0.74975873  1
  O  O56  1  0.00000000  0.25612938  0.00000000  1
  O  O57  1  0.00000000  0.24753976  0.50000000  1
  O  O58  1  0.00000000  0.74387062  0.00000000  1
  O  O59  1  0.00000000  0.75246024  0.50000000  1
  O  O60  1  0.50000000  0.24962735  0.00000000  1
  O  O61  1  0.50000000  0.25024127  0.50000000  1
  O  O62  1  0.50000000  0.75037265  0.00000000  1
  O  O63  1  0.50000000  0.74975873  0.50000000  1
