# generated using pymatgen
data_MoW3(SeS)4
_symmetry_space_group_name_H-M   'P 1'
_cell_length_a   3.25285505
_cell_length_b   3.25282235
_cell_length_c   36.88341667
_cell_angle_alpha   90.00005919
_cell_angle_beta   90.00000000
_cell_angle_gamma   120.00033262
_symmetry_Int_Tables_number   1
_chemical_formula_structural   MoW3(SeS)4
_chemical_formula_sum   'Mo1 W3 Se4 S4'
_cell_volume   337.97562342
_cell_formula_units_Z   1
loop_
 _symmetry_equiv_pos_site_id
 _symmetry_equiv_pos_as_xyz
  1  'x, y, z'
loop_
 _atom_site_type_symbol
 _atom_site_label
 _atom_site_symmetry_multiplicity
 _atom_site_fract_x
 _atom_site_fract_y
 _atom_site_fract_z
 _atom_site_occupancy
  Mo  Mo0  1  0.33330953  0.66661905  0.09390955  1
  W  W1  1  0.33330931  0.66661862  0.46965676  1
  W  W2  1  0.66669076  0.33338151  0.28179558  1
  W  W3  1  0.66669049  0.33338099  0.65754497  1
  Se  Se4  1  0.66663312  0.33326525  0.04786483  1
  Se  Se5  1  0.66664478  0.33328856  0.42332933  1
  Se  Se6  1  0.66664873  0.33329646  0.13995731  1
  Se  Se7  1  0.66664890  0.33329680  0.51601281  1
  S  S8  1  0.33335535  0.66671170  0.32384852  1
  S  S9  1  0.33335541  0.66671181  0.69960930  1
  S  S10  1  0.33335615  0.66671330  0.23974414  1
  S  S11  1  0.33335748  0.66671596  0.61547491  1
