# generated using pymatgen
data_Mg30CoCuO32
_symmetry_space_group_name_H-M   'P 1'
_cell_length_a   8.53088806
_cell_length_b   8.51306395
_cell_length_c   8.51306395
_cell_angle_alpha   90.00000000
_cell_angle_beta   90.00000000
_cell_angle_gamma   90.00000000
_symmetry_Int_Tables_number   1
_chemical_formula_structural   Mg30CoCuO32
_chemical_formula_sum   'Mg30 Co1 Cu1 O32'
_cell_volume   618.25271889
_cell_formula_units_Z   1
loop_
 _symmetry_equiv_pos_site_id
 _symmetry_equiv_pos_as_xyz
  1  'x, y, z'
loop_
 _atom_site_type_symbol
 _atom_site_label
 _atom_site_symmetry_multiplicity
 _atom_site_fract_x
 _atom_site_fract_y
 _atom_site_fract_z
 _atom_site_occupancy
  Mg  Mg0  1  0.00000000  0.00000000  0.50000000  1
  Mg  Mg1  1  0.00000000  0.50000000  0.00000000  1
  Mg  Mg2  1  0.50000000  0.00000000  0.00000000  1
  Mg  Mg3  1  0.50000000  0.00000000  0.50000000  1
  Mg  Mg4  1  0.50000000  0.50000000  0.00000000  1
  Mg  Mg5  1  0.50000000  0.50000000  0.50000000  1
  Mg  Mg6  1  0.00000000  0.24917281  0.24917281  1
  Mg  Mg7  1  0.00000000  0.24917281  0.75082719  1
  Mg  Mg8  1  0.00000000  0.75082719  0.24917281  1
  Mg  Mg9  1  0.00000000  0.75082719  0.75082719  1
  Mg  Mg10  1  0.50000000  0.25001611  0.25001611  1
  Mg  Mg11  1  0.50000000  0.25001611  0.74998389  1
  Mg  Mg12  1  0.50000000  0.74998389  0.25001611  1
  Mg  Mg13  1  0.50000000  0.74998389  0.74998389  1
  Mg  Mg14  1  0.24914391  0.00000000  0.25010671  1
  Mg  Mg15  1  0.24914391  0.00000000  0.74989329  1
  Mg  Mg16  1  0.24983311  0.50000000  0.25106064  1
  Mg  Mg17  1  0.24983311  0.50000000  0.74893936  1
  Mg  Mg18  1  0.75085609  0.00000000  0.25010671  1
  Mg  Mg19  1  0.75085609  0.00000000  0.74989329  1
  Mg  Mg20  1  0.75016689  0.50000000  0.25106064  1
  Mg  Mg21  1  0.75016689  0.50000000  0.74893936  1
  Mg  Mg22  1  0.24914391  0.25010671  0.00000000  1
  Mg  Mg23  1  0.24983311  0.25106064  0.50000000  1
  Mg  Mg24  1  0.24914391  0.74989329  0.00000000  1
  Mg  Mg25  1  0.24983311  0.74893936  0.50000000  1
  Mg  Mg26  1  0.75085609  0.25010671  0.00000000  1
  Mg  Mg27  1  0.75016689  0.25106064  0.50000000  1
  Mg  Mg28  1  0.75085609  0.74989329  0.00000000  1
  Mg  Mg29  1  0.75016689  0.74893936  0.50000000  1
  Co  Co30  1  0.00000000  0.50000000  0.50000000  1
  Cu  Cu31  1  0.00000000  0.00000000  0.00000000  1
  O  O32  1  0.25030496  0.00000000  0.00000000  1
  O  O33  1  0.24991606  0.00000000  0.50000000  1
  O  O34  1  0.24991606  0.50000000  0.00000000  1
  O  O35  1  0.25600099  0.50000000  0.50000000  1
  O  O36  1  0.74969504  0.00000000  0.00000000  1
  O  O37  1  0.75008394  0.00000000  0.50000000  1
  O  O38  1  0.75008394  0.50000000  0.00000000  1
  O  O39  1  0.74399901  0.50000000  0.50000000  1
  O  O40  1  0.24928847  0.24950601  0.24950601  1
  O  O41  1  0.24928847  0.24950601  0.75049399  1
  O  O42  1  0.24928847  0.75049399  0.24950601  1
  O  O43  1  0.24928847  0.75049399  0.75049399  1
  O  O44  1  0.75071153  0.24950601  0.24950601  1
  O  O45  1  0.75071153  0.24950601  0.75049399  1
  O  O46  1  0.75071153  0.75049399  0.24950601  1
  O  O47  1  0.75071153  0.75049399  0.75049399  1
  O  O48  1  0.00000000  0.00000000  0.25493392  1
  O  O49  1  0.00000000  0.00000000  0.74506608  1
  O  O50  1  0.00000000  0.50000000  0.24963356  1
  O  O51  1  0.00000000  0.50000000  0.75036644  1
  O  O52  1  0.50000000  0.00000000  0.24942210  1
  O  O53  1  0.50000000  0.00000000  0.75057790  1
  O  O54  1  0.50000000  0.50000000  0.24927642  1
  O  O55  1  0.50000000  0.50000000  0.75072358  1
  O  O56  1  0.00000000  0.25493392  0.00000000  1
  O  O57  1  0.00000000  0.24963356  0.50000000  1
  O  O58  1  0.00000000  0.74506608  0.00000000  1
  O  O59  1  0.00000000  0.75036644  0.50000000  1
  O  O60  1  0.50000000  0.24942210  0.00000000  1
  O  O61  1  0.50000000  0.24927642  0.50000000  1
  O  O62  1  0.50000000  0.75057790  0.00000000  1
  O  O63  1  0.50000000  0.75072358  0.50000000  1
