# generated using pymatgen
data_Mg30CdFeO32
_symmetry_space_group_name_H-M   'P 1'
_cell_length_a   8.57692542
_cell_length_b   8.57692542
_cell_length_c   8.56223029
_cell_angle_alpha   90.00000000
_cell_angle_beta   90.00000000
_cell_angle_gamma   90.00000000
_symmetry_Int_Tables_number   1
_chemical_formula_structural   Mg30CdFeO32
_chemical_formula_sum   'Mg30 Cd1 Fe1 O32'
_cell_volume   629.86890936
_cell_formula_units_Z   1
loop_
 _symmetry_equiv_pos_site_id
 _symmetry_equiv_pos_as_xyz
  1  'x, y, z'
loop_
 _atom_site_type_symbol
 _atom_site_label
 _atom_site_symmetry_multiplicity
 _atom_site_fract_x
 _atom_site_fract_y
 _atom_site_fract_z
 _atom_site_occupancy
  Mg  Mg0  1  0.00000000  0.50000000  0.00000000  1
  Mg  Mg1  1  0.00000000  0.50000000  0.50000000  1
  Mg  Mg2  1  0.50000000  -0.00000000  0.00000000  1
  Mg  Mg3  1  0.50000000  -0.00000000  0.50000000  1
  Mg  Mg4  1  0.50000000  0.50000000  0.00000000  1
  Mg  Mg5  1  0.50000000  0.50000000  0.50000000  1
  Mg  Mg6  1  0.00000000  0.25338873  0.24791385  1
  Mg  Mg7  1  0.00000000  0.25338873  0.75208615  1
  Mg  Mg8  1  0.00000000  0.74661127  0.24791385  1
  Mg  Mg9  1  0.00000000  0.74661127  0.75208615  1
  Mg  Mg10  1  0.50000000  0.24997948  0.24976424  1
  Mg  Mg11  1  0.50000000  0.24997948  0.75023576  1
  Mg  Mg12  1  0.50000000  0.75002052  0.24976424  1
  Mg  Mg13  1  0.50000000  0.75002052  0.75023576  1
  Mg  Mg14  1  0.25338873  -0.00000000  0.24791385  1
  Mg  Mg15  1  0.25338873  -0.00000000  0.75208615  1
  Mg  Mg16  1  0.24997948  0.50000000  0.24976424  1
  Mg  Mg17  1  0.24997948  0.50000000  0.75023576  1
  Mg  Mg18  1  0.74661127  -0.00000000  0.24791385  1
  Mg  Mg19  1  0.74661127  -0.00000000  0.75208615  1
  Mg  Mg20  1  0.75002052  0.50000000  0.24976424  1
  Mg  Mg21  1  0.75002052  0.50000000  0.75023576  1
  Mg  Mg22  1  0.24960538  0.24960538  0.00000000  1
  Mg  Mg23  1  0.25217546  0.25217546  0.50000000  1
  Mg  Mg24  1  0.24960538  0.75039462  0.00000000  1
  Mg  Mg25  1  0.25217546  0.74782454  0.50000000  1
  Mg  Mg26  1  0.75039462  0.24960538  0.00000000  1
  Mg  Mg27  1  0.74782454  0.25217546  0.50000000  1
  Mg  Mg28  1  0.75039462  0.75039462  0.00000000  1
  Mg  Mg29  1  0.74782454  0.74782454  0.50000000  1
  Cd  Cd30  1  0.00000000  -0.00000000  0.50000000  1
  Fe  Fe31  1  0.00000000  -0.00000000  0.00000000  1
  O  O32  1  0.25758937  -0.00000000  0.00000000  1
  O  O33  1  0.26340028  -0.00000000  0.50000000  1
  O  O34  1  0.25081853  0.50000000  0.00000000  1
  O  O35  1  0.25171234  0.50000000  0.50000000  1
  O  O36  1  0.74241063  -0.00000000  0.00000000  1
  O  O37  1  0.73659972  -0.00000000  0.50000000  1
  O  O38  1  0.74918147  0.50000000  0.00000000  1
  O  O39  1  0.74828766  0.50000000  0.50000000  1
  O  O40  1  0.24914523  0.24914523  0.25049590  1
  O  O41  1  0.24914523  0.24914523  0.74950410  1
  O  O42  1  0.24914523  0.75085477  0.25049590  1
  O  O43  1  0.24914523  0.75085477  0.74950410  1
  O  O44  1  0.75085477  0.24914523  0.25049590  1
  O  O45  1  0.75085477  0.24914523  0.74950410  1
  O  O46  1  0.75085477  0.75085477  0.25049590  1
  O  O47  1  0.75085477  0.75085477  0.74950410  1
  O  O48  1  0.00000000  -0.00000000  0.23741516  1
  O  O49  1  0.00000000  -0.00000000  0.76258484  1
  O  O50  1  0.00000000  0.50000000  0.24904060  1
  O  O51  1  0.00000000  0.50000000  0.75095940  1
  O  O52  1  0.50000000  -0.00000000  0.24904060  1
  O  O53  1  0.50000000  -0.00000000  0.75095940  1
  O  O54  1  0.50000000  0.50000000  0.25000911  1
  O  O55  1  0.50000000  0.50000000  0.74999089  1
  O  O56  1  0.00000000  0.25758937  0.00000000  1
  O  O57  1  0.00000000  0.26340028  0.50000000  1
  O  O58  1  0.00000000  0.74241063  0.00000000  1
  O  O59  1  0.00000000  0.73659972  0.50000000  1
  O  O60  1  0.50000000  0.25081853  0.00000000  1
  O  O61  1  0.50000000  0.25171234  0.50000000  1
  O  O62  1  0.50000000  0.74918147  0.00000000  1
  O  O63  1  0.50000000  0.74828766  0.50000000  1
