# generated using pymatgen
data_Mg30CdCoO32
_symmetry_space_group_name_H-M   'P 1'
_cell_length_a   8.57652309
_cell_length_b   8.55163898
_cell_length_c   8.55163898
_cell_angle_alpha   90.00000000
_cell_angle_beta   90.00000000
_cell_angle_gamma   90.00000000
_symmetry_Int_Tables_number   1
_chemical_formula_structural   Mg30CdCoO32
_chemical_formula_sum   'Mg30 Cd1 Co1 O32'
_cell_volume   627.20567265
_cell_formula_units_Z   1
loop_
 _symmetry_equiv_pos_site_id
 _symmetry_equiv_pos_as_xyz
  1  'x, y, z'
loop_
 _atom_site_type_symbol
 _atom_site_label
 _atom_site_symmetry_multiplicity
 _atom_site_fract_x
 _atom_site_fract_y
 _atom_site_fract_z
 _atom_site_occupancy
  Mg  Mg0  1  0.00000000  -0.00000000  0.50000000  1
  Mg  Mg1  1  0.00000000  0.50000000  -0.00000000  1
  Mg  Mg2  1  0.50000000  -0.00000000  -0.00000000  1
  Mg  Mg3  1  0.50000000  -0.00000000  0.50000000  1
  Mg  Mg4  1  0.50000000  0.50000000  -0.00000000  1
  Mg  Mg5  1  0.50000000  0.50000000  0.50000000  1
  Mg  Mg6  1  0.00000000  0.24788683  0.24788683  1
  Mg  Mg7  1  0.00000000  0.24788683  0.75211317  1
  Mg  Mg8  1  0.00000000  0.75211317  0.24788683  1
  Mg  Mg9  1  0.00000000  0.75211317  0.75211317  1
  Mg  Mg10  1  0.50000000  0.24960698  0.24960698  1
  Mg  Mg11  1  0.50000000  0.24960698  0.75039302  1
  Mg  Mg12  1  0.50000000  0.75039302  0.24960698  1
  Mg  Mg13  1  0.50000000  0.75039302  0.75039302  1
  Mg  Mg14  1  0.25015459  -0.00000000  0.24851590  1
  Mg  Mg15  1  0.25015459  -0.00000000  0.75148410  1
  Mg  Mg16  1  0.25246338  0.50000000  0.24730016  1
  Mg  Mg17  1  0.25246338  0.50000000  0.75269984  1
  Mg  Mg18  1  0.74984541  -0.00000000  0.24851590  1
  Mg  Mg19  1  0.74984541  -0.00000000  0.75148410  1
  Mg  Mg20  1  0.74753662  0.50000000  0.24730016  1
  Mg  Mg21  1  0.74753662  0.50000000  0.75269984  1
  Mg  Mg22  1  0.25015459  0.24851590  -0.00000000  1
  Mg  Mg23  1  0.25246338  0.24730016  0.50000000  1
  Mg  Mg24  1  0.25015459  0.75148410  -0.00000000  1
  Mg  Mg25  1  0.25246338  0.75269984  0.50000000  1
  Mg  Mg26  1  0.74984541  0.24851590  -0.00000000  1
  Mg  Mg27  1  0.74753662  0.24730016  0.50000000  1
  Mg  Mg28  1  0.74984541  0.75148410  -0.00000000  1
  Mg  Mg29  1  0.74753662  0.75269984  0.50000000  1
  Cd  Cd30  1  0.00000000  0.50000000  0.50000000  1
  Co  Co31  1  0.00000000  -0.00000000  -0.00000000  1
  O  O32  1  0.25733225  -0.00000000  -0.00000000  1
  O  O33  1  0.25152796  -0.00000000  0.50000000  1
  O  O34  1  0.25152796  0.50000000  -0.00000000  1
  O  O35  1  0.26392617  0.50000000  0.50000000  1
  O  O36  1  0.74266775  -0.00000000  -0.00000000  1
  O  O37  1  0.74847204  -0.00000000  0.50000000  1
  O  O38  1  0.74847204  0.50000000  -0.00000000  1
  O  O39  1  0.73607383  0.50000000  0.50000000  1
  O  O40  1  0.24901480  0.25022004  0.25022004  1
  O  O41  1  0.24901480  0.25022004  0.74977996  1
  O  O42  1  0.24901480  0.74977996  0.25022004  1
  O  O43  1  0.24901480  0.74977996  0.74977996  1
  O  O44  1  0.75098520  0.25022004  0.25022004  1
  O  O45  1  0.75098520  0.25022004  0.74977996  1
  O  O46  1  0.75098520  0.74977996  0.25022004  1
  O  O47  1  0.75098520  0.74977996  0.74977996  1
  O  O48  1  0.00000000  -0.00000000  0.24825850  1
  O  O49  1  0.00000000  -0.00000000  0.75174150  1
  O  O50  1  0.00000000  0.50000000  0.23563357  1
  O  O51  1  0.00000000  0.50000000  0.76436643  1
  O  O52  1  0.50000000  -0.00000000  0.25046222  1
  O  O53  1  0.50000000  -0.00000000  0.74953778  1
  O  O54  1  0.50000000  0.50000000  0.24808737  1
  O  O55  1  0.50000000  0.50000000  0.75191263  1
  O  O56  1  0.00000000  0.24825850  -0.00000000  1
  O  O57  1  0.00000000  0.23563357  0.50000000  1
  O  O58  1  0.00000000  0.75174150  -0.00000000  1
  O  O59  1  0.00000000  0.76436643  0.50000000  1
  O  O60  1  0.50000000  0.25046222  -0.00000000  1
  O  O61  1  0.50000000  0.24808737  0.50000000  1
  O  O62  1  0.50000000  0.74953778  -0.00000000  1
  O  O63  1  0.50000000  0.75191263  0.50000000  1
