# generated using pymatgen
data_AlCr2O4
_symmetry_space_group_name_H-M   'P 1'
_cell_length_a   5.99699763
_cell_length_b   5.99699719
_cell_length_c   5.99699780
_cell_angle_alpha   59.64994662
_cell_angle_beta   59.64995218
_cell_angle_gamma   59.64994978
_symmetry_Int_Tables_number   1
_chemical_formula_structural   AlCr2O4
_chemical_formula_sum   'Al2 Cr4 O8'
_cell_volume   151.29288658
_cell_formula_units_Z   2
loop_
 _symmetry_equiv_pos_site_id
 _symmetry_equiv_pos_as_xyz
  1  'x, y, z'
loop_
 _atom_site_type_symbol
 _atom_site_label
 _atom_site_symmetry_multiplicity
 _atom_site_fract_x
 _atom_site_fract_y
 _atom_site_fract_z
 _atom_site_occupancy
  Al  Al0  1  0.62368475  0.62368475  0.62368475  1
  Al  Al1  1  0.37631525  0.37631525  0.37631525  1
  Cr  Cr2  1  0.00000000  0.50000000  0.00000000  1
  Cr  Cr3  1  0.00000000  0.00000000  0.00000000  1
  Cr  Cr4  1  0.50000000  0.00000000  0.00000000  1
  Cr  Cr5  1  0.00000000  0.00000000  0.50000000  1
  O  O6  1  0.24519228  0.75124157  0.75124157  1
  O  O7  1  0.24875843  0.24875843  0.75480772  1
  O  O8  1  0.24875843  0.75480772  0.24875843  1
  O  O9  1  0.25381193  0.25381193  0.25381193  1
  O  O10  1  0.75124157  0.75124157  0.24519228  1
  O  O11  1  0.75480772  0.24875843  0.24875843  1
  O  O12  1  0.75124157  0.24519228  0.75124157  1
  O  O13  1  0.74618807  0.74618807  0.74618807  1
