# generated using pymatgen
data_Al4Si2Ni13(SbO14)2
_symmetry_space_group_name_H-M   'P 1'
_cell_length_a   5.43728214
_cell_length_b   8.79156093
_cell_length_c   11.62761392
_cell_angle_alpha   87.50769997
_cell_angle_beta   76.47856837
_cell_angle_gamma   79.28140406
_symmetry_Int_Tables_number   1
_chemical_formula_structural   Al4Si2Ni13(SbO14)2
_chemical_formula_sum   'Al4 Si2 Ni13 Sb2 O28'
_cell_volume   530.99044248
_cell_formula_units_Z   1
loop_
 _symmetry_equiv_pos_site_id
 _symmetry_equiv_pos_as_xyz
  1  'x, y, z'
loop_
 _atom_site_type_symbol
 _atom_site_label
 _atom_site_symmetry_multiplicity
 _atom_site_fract_x
 _atom_site_fract_y
 _atom_site_fract_z
 _atom_site_occupancy
  Al  Al0  1  0.06101409  0.67231909  0.42940197  1
  Al  Al1  1  0.50958395  0.32768091  0.42940197  1
  Al  Al2  1  0.93898591  0.32768091  0.57059803  1
  Al  Al3  1  0.49041605  0.67231909  0.57059803  1
  Si  Si4  1  0.23683615  0.31011352  0.00000000  1
  Si  Si5  1  0.76316385  0.68988648  1.00000000  1
  Ni  Ni6  1  0.92765360  0.64086263  0.71233728  1
  Ni  Ni7  1  0.65393615  0.35233533  0.13862950  1
  Ni  Ni8  1  0.36000812  0.35913737  0.71233728  1
  Ni  Ni9  1  0.07234640  0.35913737  0.28766272  1
  Ni  Ni10  1  0.34606385  0.64766467  0.86137050  1
  Ni  Ni11  1  0.28725339  0.00000000  0.42549321  1
  Ni  Ni12  1  0.20743435  0.64766467  0.13862950  1
  Ni  Ni13  1  -0.00000000  -0.00000000  0.00000000  1
  Ni  Ni14  1  0.42797899  0.00000000  0.14404102  1
  Ni  Ni15  1  0.79256565  0.35233533  0.86137050  1
  Ni  Ni16  1  0.63999188  0.64086263  0.28766272  1
  Ni  Ni17  1  0.57202101  1.00000000  0.85595898  1
  Ni  Ni18  1  0.71274661  1.00000000  0.57450679  1
  Sb  Sb19  1  0.85976211  0.00000000  0.28047579  1
  Sb  Sb20  1  0.14023789  1.00000000  0.71952421  1
  O  O21  1  0.68499595  0.39957759  0.29781954  1
  O  O22  1  0.17264115  0.36539233  0.44515151  1
  O  O23  1  0.93394087  0.35541773  1.00000000  1
  O  O24  1  0.31040189  0.12032053  1.00000000  1
  O  O25  1  0.82735885  0.63460767  0.55484849  1
  O  O26  1  0.31500405  0.60042241  0.70218046  1
  O  O27  1  0.01319369  0.11756498  0.58021336  1
  O  O28  1  0.98680631  0.88243502  0.41978664  1
  O  O29  1  0.68959811  0.87967947  0.00000000  1
  O  O30  1  0.12531719  0.88141679  0.14881001  1
  O  O31  1  0.28767253  0.38349560  0.12026201  1
  O  O32  1  0.01718351  0.60042241  0.29781954  1
  O  O33  1  0.40659295  0.88243502  0.58021336  1
  O  O34  1  0.72587380  0.11858321  0.14881001  1
  O  O35  1  0.59206546  0.61650440  0.12026201  1
  O  O36  1  0.06605913  0.64458227  0.00000000  1
  O  O37  1  0.27412620  0.88141679  0.85118999  1
  O  O38  1  0.87468281  0.11858321  0.85118999  1
  O  O39  1  0.59340705  0.11756498  0.41978664  1
  O  O40  1  0.13588858  0.12234796  0.28707929  1
  O  O41  1  0.86411142  0.87765204  0.71292071  1
  O  O42  1  0.40793454  0.38349560  0.87973799  1
  O  O43  1  0.42296786  0.12234796  0.71292071  1
  O  O44  1  0.61779266  0.36539233  0.55484849  1
  O  O45  1  0.71232747  0.61650440  0.87973799  1
  O  O46  1  0.57703214  0.87765204  0.28707929  1
  O  O47  1  0.98281649  0.39957759  0.70218046  1
  O  O48  1  0.38220734  0.63460767  0.44515151  1
