# generated using pymatgen
data_CaMg30FeO32
_symmetry_space_group_name_H-M   'P 1'
_cell_length_a   8.57709551
_cell_length_b   8.57709551
_cell_length_c   8.55564943
_cell_angle_alpha   90.00000000
_cell_angle_beta   90.00000000
_cell_angle_gamma   90.00000000
_symmetry_Int_Tables_number   1
_chemical_formula_structural   CaMg30FeO32
_chemical_formula_sum   'Ca1 Mg30 Fe1 O32'
_cell_volume   629.40976034
_cell_formula_units_Z   1
loop_
 _symmetry_equiv_pos_site_id
 _symmetry_equiv_pos_as_xyz
  1  'x, y, z'
loop_
 _atom_site_type_symbol
 _atom_site_label
 _atom_site_symmetry_multiplicity
 _atom_site_fract_x
 _atom_site_fract_y
 _atom_site_fract_z
 _atom_site_occupancy
  Ca  Ca0  1  0.00000000  -0.00000000  -0.00000000  1
  Mg  Mg1  1  0.00000000  0.50000000  0.00000000  1
  Mg  Mg2  1  0.00000000  0.50000000  0.50000000  1
  Mg  Mg3  1  0.50000000  -0.00000000  0.00000000  1
  Mg  Mg4  1  0.50000000  -0.00000000  0.50000000  1
  Mg  Mg5  1  0.50000000  0.50000000  -0.00000000  1
  Mg  Mg6  1  0.50000000  0.50000000  0.50000000  1
  Mg  Mg7  1  0.00000000  0.25433992  0.25288742  1
  Mg  Mg8  1  0.00000000  0.25433992  0.74711258  1
  Mg  Mg9  1  0.00000000  0.74566008  0.25288742  1
  Mg  Mg10  1  0.00000000  0.74566008  0.74711258  1
  Mg  Mg11  1  0.50000000  0.25020184  0.25038990  1
  Mg  Mg12  1  0.50000000  0.25020184  0.74961010  1
  Mg  Mg13  1  0.50000000  0.74979816  0.25038990  1
  Mg  Mg14  1  0.50000000  0.74979816  0.74961010  1
  Mg  Mg15  1  0.25433992  -0.00000000  0.25288742  1
  Mg  Mg16  1  0.25433992  -0.00000000  0.74711258  1
  Mg  Mg17  1  0.25020184  0.50000000  0.25038990  1
  Mg  Mg18  1  0.25020184  0.50000000  0.74961010  1
  Mg  Mg19  1  0.74566008  -0.00000000  0.25288742  1
  Mg  Mg20  1  0.74566008  -0.00000000  0.74711258  1
  Mg  Mg21  1  0.74979816  0.50000000  0.25038990  1
  Mg  Mg22  1  0.74979816  0.50000000  0.74961010  1
  Mg  Mg23  1  0.25295053  0.25295053  -0.00000000  1
  Mg  Mg24  1  0.24987094  0.24987094  0.50000000  1
  Mg  Mg25  1  0.25295053  0.74704947  0.00000000  1
  Mg  Mg26  1  0.24987094  0.75012906  0.50000000  1
  Mg  Mg27  1  0.74704947  0.25295053  0.00000000  1
  Mg  Mg28  1  0.75012906  0.24987094  0.50000000  1
  Mg  Mg29  1  0.74704947  0.74704947  -0.00000000  1
  Mg  Mg30  1  0.75012906  0.75012906  0.50000000  1
  Fe  Fe31  1  0.00000000  -0.00000000  0.50000000  1
  O  O32  1  0.26201789  -0.00000000  -0.00000000  1
  O  O33  1  0.25812277  -0.00000000  0.50000000  1
  O  O34  1  0.25204215  0.50000000  0.00000000  1
  O  O35  1  0.25107677  0.50000000  0.50000000  1
  O  O36  1  0.73798211  -0.00000000  0.00000000  1
  O  O37  1  0.74187723  -0.00000000  0.50000000  1
  O  O38  1  0.74795785  0.50000000  0.00000000  1
  O  O39  1  0.74892323  0.50000000  0.50000000  1
  O  O40  1  0.24932071  0.24932071  0.24970249  1
  O  O41  1  0.24932071  0.24932071  0.75029751  1
  O  O42  1  0.24932071  0.75067929  0.24970249  1
  O  O43  1  0.24932071  0.75067929  0.75029751  1
  O  O44  1  0.75067929  0.24932071  0.24970249  1
  O  O45  1  0.75067929  0.24932071  0.75029751  1
  O  O46  1  0.75067929  0.75067929  0.24970249  1
  O  O47  1  0.75067929  0.75067929  0.75029751  1
  O  O48  1  0.00000000  -0.00000000  0.26127544  1
  O  O49  1  0.00000000  -0.00000000  0.73872456  1
  O  O50  1  0.00000000  0.50000000  0.25112855  1
  O  O51  1  0.00000000  0.50000000  0.74887145  1
  O  O52  1  0.50000000  -0.00000000  0.25112855  1
  O  O53  1  0.50000000  -0.00000000  0.74887145  1
  O  O54  1  0.50000000  0.50000000  0.25009640  1
  O  O55  1  0.50000000  0.50000000  0.74990360  1
  O  O56  1  0.00000000  0.26201789  -0.00000000  1
  O  O57  1  0.00000000  0.25812277  0.50000000  1
  O  O58  1  0.00000000  0.73798211  0.00000000  1
  O  O59  1  0.00000000  0.74187723  0.50000000  1
  O  O60  1  0.50000000  0.25204215  0.00000000  1
  O  O61  1  0.50000000  0.25107677  0.50000000  1
  O  O62  1  0.50000000  0.74795785  -0.00000000  1
  O  O63  1  0.50000000  0.74892323  0.50000000  1
