# generated using pymatgen
data_SrCaCr(PO4)2
_symmetry_space_group_name_H-M   'P 1'
_cell_length_a   5.91835365
_cell_length_b   6.93159810
_cell_length_c   9.46016377
_cell_angle_alpha   108.95425959
_cell_angle_beta   102.37073229
_cell_angle_gamma   98.57023739
_symmetry_Int_Tables_number   1
_chemical_formula_structural   SrCaCr(PO4)2
_chemical_formula_sum   'Sr2 Ca2 Cr2 P4 O16'
_cell_volume   348.34262913
_cell_formula_units_Z   2
loop_
 _symmetry_equiv_pos_site_id
 _symmetry_equiv_pos_as_xyz
  1  'x, y, z'
loop_
 _atom_site_type_symbol
 _atom_site_label
 _atom_site_symmetry_multiplicity
 _atom_site_fract_x
 _atom_site_fract_y
 _atom_site_fract_z
 _atom_site_occupancy
  Sr  Sr0  1  0.27659220  0.81027537  0.06172470  1
  Sr  Sr1  1  0.72340780  0.18972463  0.93827530  1
  Ca  Ca2  1  0.00109523  0.41900396  0.66374218  1
  Ca  Ca3  1  0.99890477  0.58099604  0.33625782  1
  Cr  Cr4  1  0.65502801  0.84366275  0.54848264  1
  Cr  Cr5  1  0.34497199  0.15633725  0.45151736  1
  P  P6  1  0.38829696  0.41623711  0.22706293  1
  P  P7  1  0.61170304  0.58376289  0.77293707  1
  P  P8  1  0.83893684  0.02853172  0.29332416  1
  P  P9  1  0.16106316  0.97146828  0.70667584  1
  O  O10  1  0.84005340  0.56347931  0.88124833  1
  O  O11  1  0.61308596  0.45311164  0.17241166  1
  O  O12  1  0.65323063  0.80035418  0.75536371  1
  O  O13  1  0.95286005  0.09108686  0.69415652  1
  O  O14  1  0.38691404  0.54688836  0.82758834  1
  O  O15  1  0.04604798  0.73521602  0.60272854  1
  O  O16  1  0.95395202  0.26478398  0.39727146  1
  O  O17  1  0.27414635  0.00573547  0.87705117  1
  O  O18  1  0.34676937  0.19964582  0.24463629  1
  O  O19  1  0.72585365  0.99426453  0.12294883  1
  O  O20  1  0.15994660  0.43652069  0.11875167  1
  O  O21  1  0.40836157  0.58637433  0.38963962  1
  O  O22  1  0.59163843  0.41362567  0.61036038  1
  O  O23  1  0.64656053  0.93828921  0.35998441  1
  O  O24  1  0.04713995  0.90891314  0.30584348  1
  O  O25  1  0.35343947  0.06171079  0.64001559  1
