# generated using pymatgen
data_NaOsO3
_symmetry_space_group_name_H-M   'P 1'
_cell_length_a   3.87556588
_cell_length_b   3.87693397
_cell_length_c   3.87752300
_cell_angle_alpha   89.97827366
_cell_angle_beta   90.00608345
_cell_angle_gamma   90.00051684
_symmetry_Int_Tables_number   1
_chemical_formula_structural   NaOsO3
_chemical_formula_sum   'Na1 Os1 O3'
_cell_volume   58.26099236
_cell_formula_units_Z   1
loop_
 _symmetry_equiv_pos_site_id
 _symmetry_equiv_pos_as_xyz
  1  'x, y, z'
loop_
 _atom_site_type_symbol
 _atom_site_label
 _atom_site_symmetry_multiplicity
 _atom_site_fract_x
 _atom_site_fract_y
 _atom_site_fract_z
 _atom_site_occupancy
  Na  Na0  1  0.99964763  0.99971691  0.99526000  1
  Os  Os1  1  0.50004111  0.49769770  0.48694279  1
  O  O2  1  0.00005997  0.49583347  0.48557995  1
  O  O3  1  0.50108664  0.49912108  0.98651184  1
  O  O4  1  0.49916065  0.99762683  0.48570742  1
