# generated using pymatgen
data_Y(FeO2)2
_symmetry_space_group_name_H-M   'P 1'
_cell_length_a   6.32149313
_cell_length_b   6.32149260
_cell_length_c   6.32149334
_cell_angle_alpha   60.26734196
_cell_angle_beta   60.26734849
_cell_angle_gamma   60.26734574
_symmetry_Int_Tables_number   1
_chemical_formula_structural   Y(FeO2)2
_chemical_formula_sum   'Y2 Fe4 O8'
_cell_volume   179.70659965
_cell_formula_units_Z   2
loop_
 _symmetry_equiv_pos_site_id
 _symmetry_equiv_pos_as_xyz
  1  'x, y, z'
loop_
 _atom_site_type_symbol
 _atom_site_label
 _atom_site_symmetry_multiplicity
 _atom_site_fract_x
 _atom_site_fract_y
 _atom_site_fract_z
 _atom_site_occupancy
  Y  Y0  1  0.62501428  0.62501428  0.62501428  1
  Y  Y1  1  0.37498572  0.37498572  0.37498572  1
  Fe  Fe2  1  0.00000000  0.50000000  0.00000000  1
  Fe  Fe3  1  0.00000000  0.00000000  0.00000000  1
  Fe  Fe4  1  0.50000000  0.00000000  0.00000000  1
  Fe  Fe5  1  0.00000000  0.00000000  0.50000000  1
  O  O6  1  0.20712458  0.76858396  0.76858396  1
  O  O7  1  0.23141604  0.23141604  0.79287542  1
  O  O8  1  0.23141604  0.79287542  0.23141604  1
  O  O9  1  0.23832245  0.23832245  0.23832245  1
  O  O10  1  0.76858396  0.76858396  0.20712458  1
  O  O11  1  0.79287542  0.23141604  0.23141604  1
  O  O12  1  0.76858396  0.20712458  0.76858396  1
  O  O13  1  0.76167755  0.76167755  0.76167755  1
