# generated using pymatgen
data_CaBe3Co2(SiO4)3
_symmetry_space_group_name_H-M   'P 1'
_cell_length_a   7.55524197
_cell_length_b   8.10578344
_cell_length_c   14.05389489
_cell_angle_alpha   90.06154200
_cell_angle_beta   90.03179761
_cell_angle_gamma   90.02658101
_symmetry_Int_Tables_number   1
_chemical_formula_structural   CaBe3Co2(SiO4)3
_chemical_formula_sum   'Ca4 Be12 Co8 Si12 O48'
_cell_volume   860.67603714
_cell_formula_units_Z   4
loop_
 _symmetry_equiv_pos_site_id
 _symmetry_equiv_pos_as_xyz
  1  'x, y, z'
loop_
 _atom_site_type_symbol
 _atom_site_label
 _atom_site_symmetry_multiplicity
 _atom_site_fract_x
 _atom_site_fract_y
 _atom_site_fract_z
 _atom_site_occupancy
  Ca  Ca0  1  0.49806318  0.75036386  0.25158907  1
  Ca  Ca1  1  0.99806308  0.74754615  0.24810155  1
  Ca  Ca2  1  0.50207252  0.24844301  0.74852909  1
  Ca  Ca3  1  0.00218024  0.25201447  0.75186671  1
  Be  Be4  1  0.83983786  0.91781632  0.76648673  1
  Be  Be5  1  0.66202981  0.93802175  0.40824046  1
  Be  Be6  1  0.16169776  0.56150987  0.09162377  1
  Be  Be7  1  0.33751495  0.06182662  0.59170413  1
  Be  Be8  1  0.83831740  0.43856203  0.90849018  1
  Be  Be9  1  0.16007908  0.60492791  0.42188783  1
  Be  Be10  1  0.65977371  0.89454069  0.07785739  1
  Be  Be11  1  0.84003725  0.39523196  0.57798407  1
  Be  Be12  1  0.34042286  0.10524370  0.92215631  1
  Be  Be13  1  0.65979622  0.41831827  0.26587829  1
  Be  Be14  1  0.15984038  0.08214698  0.23381471  1
  Be  Be15  1  0.33993298  0.58182503  0.73353367  1
  Co  Co16  1  0.45835584  0.25109921  0.08909660  1
  Co  Co17  1  0.03968663  0.75732807  0.58909460  1
  Co  Co18  1  0.53982797  0.74292916  0.91103529  1
  Co  Co19  1  0.95884993  0.24287061  0.41144946  1
  Co  Co20  1  0.54570797  0.25617144  0.42688452  1
  Co  Co21  1  0.04795900  0.24529114  0.07211441  1
  Co  Co22  1  0.45438764  0.74369280  0.57318007  1
  Co  Co23  1  0.95262386  0.75549385  0.92703854  1
  Si  Si24  1  0.22829082  0.91722803  0.76752232  1
  Si  Si25  1  0.72856677  0.58226637  0.73249559  1
  Si  Si26  1  0.77108037  0.08312438  0.23235729  1
  Si  Si27  1  0.27140503  0.41839798  0.26769834  1
  Si  Si28  1  0.73289545  0.10897720  0.92584957  1
  Si  Si29  1  0.23276409  0.39127236  0.57389054  1
  Si  Si30  1  0.26725654  0.89082739  0.07384259  1
  Si  Si31  1  0.76803319  0.60881643  0.42595250  1
  Si  Si32  1  0.23444778  0.44515886  0.90755990  1
  Si  Si33  1  0.73436745  0.05538238  0.59249701  1
  Si  Si34  1  0.76601660  0.55474462  0.09298869  1
  Si  Si35  1  0.26527229  0.94498516  0.40726017  1
  O  O36  1  0.12570211  0.74616394  0.04275668  1
  O  O37  1  0.03361990  0.91737642  0.81977097  1
  O  O38  1  0.53367348  0.58079741  0.68014848  1
  O  O39  1  0.96599240  0.08195327  0.18053467  1
  O  O40  1  0.46632410  0.41840429  0.31965654  1
  O  O41  1  0.53548452  0.17918439  0.95420637  1
  O  O42  1  0.03487449  0.32282460  0.54511950  1
  O  O43  1  0.46522602  0.82203576  0.04527822  1
  O  O44  1  0.96558575  0.67760262  0.45468287  1
  O  O45  1  0.03482555  0.51819318  0.88615855  1
  O  O46  1  0.53425382  0.98164542  0.61331900  1
  O  O47  1  0.96513038  0.48157863  0.11347094  1
  O  O48  1  0.12667815  0.06693458  0.35060642  1
  O  O49  1  0.62631255  0.43442328  0.14976701  1
  O  O50  1  0.87339630  0.93336043  0.64937364  1
  O  O51  1  0.37377509  0.56634413  0.85067362  1
  O  O52  1  0.62682323  0.75370521  0.45728734  1
  O  O53  1  0.46574776  0.01836681  0.38670623  1
  O  O54  1  0.37329517  0.24605435  0.54278790  1
  O  O55  1  0.87417081  0.25368034  0.95754287  1
  O  O56  1  0.76727896  0.06985151  0.47708220  1
  O  O57  1  0.62496506  0.06010001  0.14664582  1
  O  O58  1  0.87497829  0.55961617  0.64678543  1
  O  O59  1  0.37498003  0.94078688  0.85327209  1
  O  O60  1  0.74215167  0.42373454  0.80527283  1
  O  O61  1  0.24151816  0.07601790  0.69488826  1
  O  O62  1  0.25793171  0.57692267  0.19489376  1
  O  O63  1  0.75760396  0.92399955  0.30507284  1
  O  O64  1  0.74275266  0.08084761  0.81028940  1
  O  O65  1  0.24219918  0.41923468  0.68959239  1
  O  O66  1  0.25784618  0.91992176  0.18955713  1
  O  O67  1  0.75778212  0.58080606  0.31035442  1
  O  O68  1  0.24788972  0.25717893  0.86387430  1
  O  O69  1  0.74846485  0.24304657  0.63622507  1
  O  O70  1  0.75169446  0.74305736  0.13618642  1
  O  O71  1  0.25165797  0.75713394  0.36372965  1
  O  O72  1  0.74353962  0.74887810  0.79957600  1
  O  O73  1  0.24489589  0.75107124  0.70021973  1
  O  O74  1  0.25523118  0.25204367  0.20048246  1
  O  O75  1  0.75546939  0.24917722  0.29966961  1
  O  O76  1  0.76781481  0.93021187  0.97850389  1
  O  O77  1  0.26877409  0.57065360  0.52147022  1
  O  O78  1  0.23357111  0.07014737  0.02178885  1
  O  O79  1  0.73205249  0.42890940  0.47839696  1
  O  O80  1  0.73415158  0.57050334  0.97697677  1
  O  O81  1  0.23231162  0.93030899  0.52296295  1
  O  O82  1  0.26712984  0.42988701  0.02369264  1
  O  O83  1  0.12501434  0.44092090  0.35313710  1
