# generated using pymatgen
data_MgMnAs2O7
_symmetry_space_group_name_H-M   'P 1'
_cell_length_a   7.41143987
_cell_length_b   8.78608707
_cell_length_c   9.77448204
_cell_angle_alpha   90.00000000
_cell_angle_beta   114.48672954
_cell_angle_gamma   90.00000000
_symmetry_Int_Tables_number   1
_chemical_formula_structural   MgMnAs2O7
_chemical_formula_sum   'Mg4 Mn4 As8 O28'
_cell_volume   579.24271548
_cell_formula_units_Z   4
loop_
 _symmetry_equiv_pos_site_id
 _symmetry_equiv_pos_as_xyz
  1  'x, y, z'
loop_
 _atom_site_type_symbol
 _atom_site_label
 _atom_site_symmetry_multiplicity
 _atom_site_fract_x
 _atom_site_fract_y
 _atom_site_fract_z
 _atom_site_occupancy
  Mg  Mg0  1  0.27541629  0.92306933  0.89570962  1
  Mg  Mg1  1  0.72458371  0.42306933  0.60429038  1
  Mg  Mg2  1  0.72458371  0.07693067  0.10429038  1
  Mg  Mg3  1  0.27541629  0.57693067  0.39570962  1
  Mn  Mn4  1  0.81025239  0.05281174  0.67636738  1
  Mn  Mn5  1  0.18974761  0.55281174  0.82363262  1
  Mn  Mn6  1  0.18974761  0.94718826  0.32363262  1
  Mn  Mn7  1  0.81025239  0.44718826  0.17636738  1
  As  As8  1  0.43590455  0.22184123  0.74914632  1
  As  As9  1  0.56409545  0.72184223  0.75085368  1
  As  As10  1  0.56409545  0.77815777  0.25085368  1
  As  As11  1  0.43590455  0.27815777  0.24914532  1
  As  As12  1  0.01974125  0.27272851  0.95720544  1
  As  As13  1  0.98025875  0.77272851  0.54279456  1
  As  As14  1  0.98025875  0.72727149  0.04279456  1
  As  As15  1  0.01974125  0.22727149  0.45720544  1
  O  O16  1  0.86080480  0.26325343  0.04313162  1
  O  O17  1  0.13919520  0.76325343  0.45686838  1
  O  O18  1  0.13919520  0.73674657  0.95686838  1
  O  O19  1  0.86080480  0.23674657  0.54313162  1
  O  O20  1  0.35713892  0.39210232  0.77790618  1
  O  O21  1  0.64286108  0.89210232  0.72209382  1
  O  O22  1  0.64286108  0.60789768  0.22209382  1
  O  O23  1  0.35713892  0.10789768  0.27790618  1
  O  O24  1  0.47228482  0.09068497  0.88785660  1
  O  O25  1  0.52771518  0.59068497  0.61214340  1
  O  O26  1  0.52771518  0.90931503  0.11214340  1
  O  O27  1  0.47228482  0.40931503  0.38785660  1
  O  O28  1  0.24701470  0.14108698  0.58169388  1
  O  O29  1  0.75298530  0.64108698  0.91830612  1
  O  O30  1  0.75298530  0.85891302  0.41830612  1
  O  O31  1  0.24701470  0.35891302  0.08169388  1
  O  O32  1  0.95967555  0.08904899  0.32236415  1
  O  O33  1  0.04032445  0.58904899  0.17763585  1
  O  O34  1  0.04032445  0.91095101  0.67763585  1
  O  O35  1  0.95967555  0.41095101  0.82236415  1
  O  O36  1  0.62912533  0.26603395  0.19670535  1
  O  O37  1  0.37087467  0.76603395  0.30329465  1
  O  O38  1  0.37087467  0.73396605  0.80329465  1
  O  O39  1  0.62912533  0.23396605  0.69670535  1
  O  O40  1  0.05851066  0.39945140  0.39376234  1
  O  O41  1  0.94148934  0.89945140  0.10623766  1
  O  O42  1  0.94148934  0.60054860  0.60623766  1
  O  O43  1  0.05851066  0.10054860  0.89376234  1
