# generated using pymatgen
data_Sr7CaMnFe7O20
_symmetry_space_group_name_H-M   'P 1'
_cell_length_a   11.16928529
_cell_length_b   11.46560201
_cell_length_c   17.62707434
_cell_angle_alpha   108.92569337
_cell_angle_beta   108.59999307
_cell_angle_gamma   89.99000552
_symmetry_Int_Tables_number   1
_chemical_formula_structural   Sr7CaMnFe7O20
_chemical_formula_sum   'Sr28 Ca4 Mn4 Fe28 O80'
_cell_volume   2010.33040646
_cell_formula_units_Z   4
loop_
 _symmetry_equiv_pos_site_id
 _symmetry_equiv_pos_as_xyz
  1  'x, y, z'
loop_
 _atom_site_type_symbol
 _atom_site_label
 _atom_site_symmetry_multiplicity
 _atom_site_fract_x
 _atom_site_fract_y
 _atom_site_fract_z
 _atom_site_occupancy
  Sr  Sr0  1  0.30620137  0.06144754  0.60903150  1
  Sr  Sr1  1  0.30669493  0.55940727  0.60795739  1
  Sr  Sr2  1  0.80674968  0.06405200  0.60904247  1
  Sr  Sr3  1  0.80559644  0.56498280  0.10931763  1
  Sr  Sr4  1  0.80727668  0.56168498  0.60817435  1
  Sr  Sr5  1  0.19579562  0.43427391  0.38966552  1
  Sr  Sr6  1  0.19799784  0.43876248  0.89154580  1
  Sr  Sr7  1  0.19628323  0.93665355  0.38873651  1
  Sr  Sr8  1  0.19823437  0.93754257  0.89407877  1
  Sr  Sr9  1  0.69618479  0.43546207  0.39044609  1
  Sr  Sr10  1  0.69918426  0.44046665  0.89154596  1
  Sr  Sr11  1  0.69621001  0.93645575  0.39033235  1
  Sr  Sr12  1  0.70019769  0.93822120  0.89393006  1
  Sr  Sr13  1  0.05623110  0.29494159  0.11007103  1
  Sr  Sr14  1  0.05748704  0.29775476  0.60964432  1
  Sr  Sr15  1  0.05559263  0.79450148  0.60744258  1
  Sr  Sr16  1  0.55664122  0.29486249  0.10988903  1
  Sr  Sr17  1  0.55771742  0.29913454  0.60946512  1
  Sr  Sr18  1  0.55538748  0.79487367  0.10999130  1
  Sr  Sr19  1  0.55585698  0.79546168  0.60708945  1
  Sr  Sr20  1  0.44541521  0.20317977  0.38795742  1
  Sr  Sr21  1  0.44668131  0.20270072  0.89180846  1
  Sr  Sr22  1  0.44502750  0.70374548  0.38795910  1
  Sr  Sr23  1  0.44889006  0.70231810  0.89322332  1
  Sr  Sr24  1  0.94602295  0.20276002  0.38864357  1
  Sr  Sr25  1  0.94877751  0.20550773  0.89244716  1
  Sr  Sr26  1  0.94607913  0.70427922  0.38940456  1
  Sr  Sr27  1  0.95037347  0.70486958  0.89351223  1
  Ca  Ca28  1  0.30215069  0.06608911  0.10555349  1
  Ca  Ca29  1  0.30408989  0.56685218  0.10501328  1
  Ca  Ca30  1  0.80171024  0.06632412  0.10550516  1
  Ca  Ca31  1  0.05445643  0.78791954  0.10587863  1
  Mn  Mn32  1  0.11182775  0.59695895  0.75114198  1
  Mn  Mn33  1  0.61170087  0.60041548  0.75097322  1
  Mn  Mn34  1  0.36337094  0.40567805  0.75086466  1
  Mn  Mn35  1  0.36040841  0.90216682  0.75068451  1
  Fe  Fe36  1  0.00831723  0.00245851  0.00690864  1
  Fe  Fe37  1  0.00398339  -0.00014528  0.49886127  1
  Fe  Fe38  1  0.00723072  0.50225376  0.00372361  1
  Fe  Fe39  1  0.00365360  0.49883024  0.49941051  1
  Fe  Fe40  1  0.50571725  0.00221942  0.00394746  1
  Fe  Fe41  1  0.50364688  0.00077929  0.49961620  1
  Fe  Fe42  1  0.50452404  0.50057960  0.00131024  1
  Fe  Fe43  1  0.50367304  0.49969321  0.49975499  1
  Fe  Fe44  1  0.25684369  0.25214207  0.00451807  1
  Fe  Fe45  1  0.25453065  0.24974493  0.50076778  1
  Fe  Fe46  1  0.25601165  0.75190933  0.00447296  1
  Fe  Fe47  1  0.25318334  0.74997019  0.49893860  1
  Fe  Fe48  1  0.75532089  0.25050285  0.00144476  1
  Fe  Fe49  1  0.75401964  0.24980372  0.49983329  1
  Fe  Fe50  1  0.75692415  0.75230354  0.00383633  1
  Fe  Fe51  1  0.75327614  0.74957325  0.49915809  1
  Fe  Fe52  1  0.10300839  0.08502739  0.24513447  1
  Fe  Fe53  1  0.10954130  0.08673970  0.75094517  1
  Fe  Fe54  1  0.10901523  0.59208211  0.24903792  1
  Fe  Fe55  1  0.60375136  0.08866028  0.24724434  1
  Fe  Fe56  1  0.61023879  0.08973411  0.75064148  1
  Fe  Fe57  1  0.60372460  0.58959471  0.24799811  1
  Fe  Fe58  1  0.35646135  0.40902323  0.24726591  1
  Fe  Fe59  1  0.35117934  0.90785650  0.24536268  1
  Fe  Fe60  1  0.85736886  0.40740490  0.24921364  1
  Fe  Fe61  1  0.86142538  0.41292441  0.75089752  1
  Fe  Fe62  1  0.85692686  0.91225339  0.24735167  1
  Fe  Fe63  1  0.85906147  0.90801746  0.75085638  1
  O  O64  1  0.12355530  0.12100860  0.49066499  1
  O  O65  1  0.12622225  0.12161593  0.99273813  1
  O  O66  1  0.12327972  0.62146148  0.49098817  1
  O  O67  1  0.12674932  0.62391992  0.99630460  1
  O  O68  1  0.62387420  0.12194969  0.49119105  1
  O  O69  1  0.62675704  0.12210567  0.99304165  1
  O  O70  1  0.62350775  0.62254757  0.49169091  1
  O  O71  1  0.62575953  0.62427902  0.99406837  1
  O  O72  1  0.13747311  0.38236344  0.01364779  1
  O  O73  1  0.13129456  0.37616821  0.50565785  1
  O  O74  1  0.13673736  0.88098235  0.01640642  1
  O  O75  1  0.13129283  0.87799364  0.50668132  1
  O  O76  1  0.63288858  0.37703234  0.00902334  1
  O  O77  1  0.63212016  0.37683267  0.50715986  1
  O  O78  1  0.63654035  0.88255650  0.01191662  1
  O  O79  1  0.63190235  0.87809684  0.50776400  1
  O  O80  1  0.37411460  0.11958262  0.49137261  1
  O  O81  1  0.37522771  0.12113821  0.99470450  1
  O  O82  1  0.37327225  0.62014186  0.49096943  1
  O  O83  1  0.37483430  0.62031886  0.99518394  1
  O  O84  1  0.87388746  0.11911691  0.49103043  1
  O  O85  1  0.87465084  0.11871740  0.99366110  1
  O  O86  1  0.87313921  0.61927730  0.49015364  1
  O  O87  1  0.87853014  0.62227012  0.99461009  1
  O  O88  1  0.38295474  0.38429416  0.01356262  1
  O  O89  1  0.38049696  0.37811412  0.50435575  1
  O  O90  1  0.38262938  0.88475974  0.01320581  1
  O  O91  1  0.38267448  0.88056303  0.50726158  1
  O  O92  1  0.88438566  0.38140850  0.01050504  1
  O  O93  1  0.88103711  0.37817518  0.50610584  1
  O  O94  1  0.88666817  0.88376852  0.01478410  1
  O  O95  1  0.88224159  0.88008389  0.50757567  1
  O  O96  1  0.08904899  0.09859402  0.13909462  1
  O  O97  1  0.08377396  0.09491396  0.64109562  1
  O  O98  1  0.08549306  0.60357536  0.14098751  1
  O  O99  1  0.07485125  0.58499944  0.63499490  1
  O  O100  1  0.58910114  0.09604179  0.13941978  1
  O  O101  1  0.58232602  0.09664661  0.64032446  1
  O  O102  1  0.58587358  0.59645339  0.14013897  1
  O  O103  1  0.57347465  0.58634958  0.63466322  1
  O  O104  1  0.44230873  0.40641433  0.35802583  1
  O  O105  1  0.44174783  0.41386997  0.86697133  1
  O  O106  1  0.43805674  0.90717888  0.35738718  1
  O  O107  1  0.43877141  0.91311552  0.86573422  1
  O  O108  1  0.94091834  0.40363912  0.35935151  1
  O  O109  1  0.94565702  0.40592217  0.86167527  1
  O  O110  1  0.94157204  0.90662091  0.35801984  1
  O  O111  1  0.94225597  0.90283759  0.86094020  1
  O  O112  1  0.33188634  0.28360265  0.14108986  1
  O  O113  1  0.32659316  0.29850271  0.63428049  1
  O  O114  1  0.33433988  0.78327105  0.14102837  1
  O  O115  1  0.32411735  0.79927028  0.63589308  1
  O  O116  1  0.83191155  0.28647311  0.14077485  1
  O  O117  1  0.83381561  0.29543378  0.63974748  1
  O  O118  1  0.83637953  0.79237308  0.14044291  1
  O  O119  1  0.83129761  0.79398130  0.63996558  1
  O  O120  1  0.18866716  0.19915655  0.35583571  1
  O  O121  1  0.19330350  0.20514108  0.86017794  1
  O  O122  1  0.19132021  0.70618414  0.35984735  1
  O  O123  1  0.19010691  0.70163808  0.86698377  1
  O  O124  1  0.68654303  0.20328744  0.35795491  1
  O  O125  1  0.69357554  0.20685724  0.86060661  1
  O  O126  1  0.68689797  0.70468223  0.35897446  1
  O  O127  1  0.69135488  0.70376764  0.86683356  1
  O  O128  1  0.42659558  0.05697640  0.23993558  1
  O  O129  1  0.44143923  0.05473027  0.75086123  1
  O  O130  1  0.42746476  0.55820011  0.24058896  1
  O  O131  1  0.44033132  0.56609972  0.75107611  1
  O  O132  1  0.92686541  0.06209318  0.24106168  1
  O  O133  1  0.93659202  0.05971470  0.75087380  1
  O  O134  1  0.93749313  0.55652585  0.24858284  1
  O  O135  1  0.93439680  0.56513588  0.75092377  1
  O  O136  1  0.18605861  0.44129808  0.24922160  1
  O  O137  1  0.19107472  0.44458107  0.75069779  1
  O  O138  1  0.17518123  0.92979817  0.24098745  1
  O  O139  1  0.18264278  0.93389253  0.75086128  1
  O  O140  1  0.68618155  0.44116767  0.24980977  1
  O  O141  1  0.69257321  0.44399446  0.75065714  1
  O  O142  1  0.68518820  0.94007693  0.24962551  1
  O  O143  1  0.68681906  0.93763101  0.75056683  1
