# generated using pymatgen
data_K5Na3Ta5Nb3O24
_symmetry_space_group_name_H-M   'P 1'
_cell_length_a   8.03919478
_cell_length_b   8.03998481
_cell_length_c   8.03855377
_cell_angle_alpha   90.00140930
_cell_angle_beta   89.99848721
_cell_angle_gamma   90.00123236
_symmetry_Int_Tables_number   1
_chemical_formula_structural   K5Na3Ta5Nb3O24
_chemical_formula_sum   'K5 Na3 Ta5 Nb3 O24'
_cell_volume   519.57195417
_cell_formula_units_Z   1
loop_
 _symmetry_equiv_pos_site_id
 _symmetry_equiv_pos_as_xyz
  1  'x, y, z'
loop_
 _atom_site_type_symbol
 _atom_site_label
 _atom_site_symmetry_multiplicity
 _atom_site_fract_x
 _atom_site_fract_y
 _atom_site_fract_z
 _atom_site_occupancy
  K  K0  1  0.25004991  0.25014209  0.25004649  1
  K  K1  1  0.25004849  0.74986111  0.25004054  1
  K  K2  1  0.74994878  0.25013501  0.25004584  1
  K  K3  1  0.74996307  0.74985997  0.25004596  1
  K  K4  1  0.74994757  0.74986276  0.74994627  1
  Na  Na5  1  0.25000770  0.25002409  0.74999352  1
  Na  Na6  1  0.25000720  0.74997525  0.74999399  1
  Na  Na7  1  0.74999297  0.25002389  0.74999383  1
  Ta  Ta8  1  0.00023649  0.00023439  0.99928642  1
  Ta  Ta9  1  0.00023571  0.00024026  0.50071944  1
  Ta  Ta10  1  0.00023950  0.49976250  0.99927666  1
  Ta  Ta11  1  0.49976395  0.00024049  0.99928917  1
  Ta  Ta12  1  0.49976411  0.00023792  0.50071429  1
  Nb  Nb13  1  0.00023132  0.49977110  0.50068991  1
  Nb  Nb14  1  0.49977099  0.49977104  0.99929177  1
  Nb  Nb15  1  0.49976556  0.49977284  0.50071484  1
  O  O16  1  0.24991909  0.00007031  0.99850652  1
  O  O17  1  0.24999167  0.00006997  0.50149610  1
  O  O18  1  0.24894549  0.49993283  0.99850782  1
  O  O19  1  0.24992335  0.49993574  0.50147570  1
  O  O20  1  0.75008247  0.00071885  0.99913736  1
  O  O21  1  0.75000662  0.00072156  0.50086403  1
  O  O22  1  0.75106536  0.49927990  0.99914444  1
  O  O23  1  0.75008019  0.49928757  0.50084206  1
  O  O24  1  0.00007129  0.24983840  0.99850398  1
  O  O25  1  0.00006540  0.24885936  0.50148761  1
  O  O26  1  0.00072017  0.75016813  0.99913629  1
  O  O27  1  0.00071713  0.75115613  0.50085451  1
  O  O28  1  0.49993347  0.24885940  0.99851230  1
  O  O29  1  0.49993440  0.24879064  0.50149171  1
  O  O30  1  0.49928368  0.75115544  0.99914735  1
  O  O31  1  0.49928053  0.75122468  0.50085531  1
  O  O32  1  0.00007445  0.00007286  0.24991552  1
  O  O33  1  0.00070491  0.00070488  0.75007594  1
  O  O34  1  0.00006802  0.49992978  0.24892470  1
  O  O35  1  0.00070561  0.49929398  0.75103805  1
  O  O36  1  0.49992637  0.00007071  0.24999360  1
  O  O37  1  0.49929331  0.00070807  0.75000706  1
  O  O38  1  0.49993329  0.49993383  0.24991776  1
  O  O39  1  0.49930042  0.49930226  0.75007536  1
