# generated using pymatgen
data_UCuSn
_symmetry_space_group_name_H-M   'P 1'
_cell_length_a   4.91729627
_cell_length_b   4.91729627
_cell_length_c   5.83275456
_cell_angle_alpha   90.00000000
_cell_angle_beta   90.00000000
_cell_angle_gamma   119.95645034
_symmetry_Int_Tables_number   1
_chemical_formula_structural   UCuSn
_chemical_formula_sum   'U2 Cu2 Sn2'
_cell_volume   122.19333029
_cell_formula_units_Z   2
loop_
 _symmetry_equiv_pos_site_id
 _symmetry_equiv_pos_as_xyz
  1  'x, y, z'
loop_
 _atom_site_type_symbol
 _atom_site_label
 _atom_site_symmetry_multiplicity
 _atom_site_fract_x
 _atom_site_fract_y
 _atom_site_fract_z
 _atom_site_occupancy
  U  U0  1  0.00000000  0.00000000  0.50000000  1
  U  U1  1  -0.00000000  -0.00000000  -0.00000000  1
  Cu  Cu2  1  0.66665011  0.33334989  0.75000000  1
  Cu  Cu3  1  0.33334989  0.66665011  0.25000000  1
  Sn  Sn4  1  0.66671215  0.33328785  0.25000000  1
  Sn  Sn5  1  0.33328785  0.66671215  0.75000000  1
