# generated using pymatgen
data_Sr7CaFe5Co3O20
_symmetry_space_group_name_H-M   'P 1'
_cell_length_a   10.93694985
_cell_length_b   11.33856503
_cell_length_c   17.81260583
_cell_angle_alpha   108.57822424
_cell_angle_beta   107.95417663
_cell_angle_gamma   89.93182848
_symmetry_Int_Tables_number   1
_chemical_formula_structural   Sr7CaFe5Co3O20
_chemical_formula_sum   'Sr28 Ca4 Fe20 Co12 O80'
_cell_volume   1980.29597736
_cell_formula_units_Z   4
loop_
 _symmetry_equiv_pos_site_id
 _symmetry_equiv_pos_as_xyz
  1  'x, y, z'
loop_
 _atom_site_type_symbol
 _atom_site_label
 _atom_site_symmetry_multiplicity
 _atom_site_fract_x
 _atom_site_fract_y
 _atom_site_fract_z
 _atom_site_occupancy
  Sr  Sr0  1  0.30784134  0.06038865  0.60960259  1
  Sr  Sr1  1  0.30973488  0.56353048  0.60945041  1
  Sr  Sr2  1  0.80705955  0.06449776  0.61035888  1
  Sr  Sr3  1  0.80638290  0.56423234  0.10961270  1
  Sr  Sr4  1  0.80623429  0.56718906  0.61006934  1
  Sr  Sr5  1  0.19997461  0.43290240  0.38860983  1
  Sr  Sr6  1  0.19785451  0.44037941  0.89305145  1
  Sr  Sr7  1  0.19821303  0.93445667  0.38730181  1
  Sr  Sr8  1  0.19833856  0.93677208  0.89370379  1
  Sr  Sr9  1  0.69387129  0.43698822  0.38958999  1
  Sr  Sr10  1  0.69678912  0.43903065  0.89227296  1
  Sr  Sr11  1  0.69401844  0.93665599  0.38880413  1
  Sr  Sr12  1  0.70217271  0.93455677  0.89297249  1
  Sr  Sr13  1  0.05405947  0.29467417  0.10994174  1
  Sr  Sr14  1  0.05452783  0.29480973  0.60907209  1
  Sr  Sr15  1  0.05734909  0.79718660  0.60955023  1
  Sr  Sr16  1  0.56016741  0.29250364  0.11020596  1
  Sr  Sr17  1  0.55862467  0.29751584  0.60947133  1
  Sr  Sr18  1  0.55666344  0.79223823  0.10965500  1
  Sr  Sr19  1  0.55747400  0.79734367  0.61011428  1
  Sr  Sr20  1  0.44697471  0.20299801  0.38564643  1
  Sr  Sr21  1  0.44748667  0.20526566  0.89265806  1
  Sr  Sr22  1  0.44602642  0.70294485  0.38601584  1
  Sr  Sr23  1  0.44770361  0.70265297  0.89288688  1
  Sr  Sr24  1  0.94443174  0.20022509  0.38790317  1
  Sr  Sr25  1  0.95025606  0.20834529  0.89297652  1
  Sr  Sr26  1  0.94596715  0.70315058  0.38892605  1
  Sr  Sr27  1  0.95263880  0.70777451  0.89379711  1
  Ca  Ca28  1  0.29774113  0.06611042  0.10552614  1
  Ca  Ca29  1  0.29877212  0.56820713  0.10459488  1
  Ca  Ca30  1  0.80339966  0.06594594  0.10661268  1
  Ca  Ca31  1  0.05535395  0.78952648  0.10591725  1
  Fe  Fe32  1  0.00463588  0.99930974  0.49782920  1
  Fe  Fe33  1  0.00386550  0.49917131  0.49876539  1
  Fe  Fe34  1  0.25746830  0.25386359  0.00587710  1
  Fe  Fe35  1  0.25582042  0.24857840  0.50030251  1
  Fe  Fe36  1  0.10511108  0.08673921  0.24663778  1
  Fe  Fe37  1  0.10890177  0.09210398  0.75196858  1
  Fe  Fe38  1  0.10934313  0.59214898  0.24935547  1
  Fe  Fe39  1  0.10730541  0.59045421  0.74891065  1
  Fe  Fe40  1  0.60480544  0.08823504  0.24690857  1
  Fe  Fe41  1  0.60838549  0.09156068  0.75179717  1
  Fe  Fe42  1  0.60302365  0.58935815  0.24746238  1
  Fe  Fe43  1  0.60872049  0.59221092  0.75168407  1
  Fe  Fe44  1  0.35472670  0.40756083  0.24466461  1
  Fe  Fe45  1  0.35657626  0.40719542  0.74815844  1
  Fe  Fe46  1  0.34977702  0.90723965  0.24424244  1
  Fe  Fe47  1  0.35908461  0.90861648  0.75106042  1
  Fe  Fe48  1  0.85784425  0.40723685  0.25077550  1
  Fe  Fe49  1  0.85763836  0.41030979  0.74981397  1
  Fe  Fe50  1  0.85817258  0.91196172  0.24749073  1
  Fe  Fe51  1  0.85899291  0.91038134  0.75097933  1
  Co  Co52  1  0.00983789  0.00253097  0.00673725  1
  Co  Co53  1  0.00677231  0.50394788  0.00459286  1
  Co  Co54  1  0.50768458  0.00193687  0.00496996  1
  Co  Co55  1  0.50458226  0.00083194  0.49978519  1
  Co  Co56  1  0.50528954  0.50317534  0.00510025  1
  Co  Co57  1  0.50437435  0.50050814  0.50113535  1
  Co  Co58  1  0.25763558  0.75300912  0.00706317  1
  Co  Co59  1  0.25426721  0.74985614  0.49761817  1
  Co  Co60  1  0.75624196  0.24975471  0.99921797  1
  Co  Co61  1  0.75408600  0.24906282  0.49979720  1
  Co  Co62  1  0.76046161  0.75334536  0.00619979  1
  Co  Co63  1  0.75290793  0.75084018  0.49886465  1
  O  O64  1  0.12737923  0.12162012  0.49248176  1
  O  O65  1  0.12589311  0.12214747  0.99470429  1
  O  O66  1  0.13195940  0.62496567  0.49183566  1
  O  O67  1  0.12200769  0.62059303  0.99671153  1
  O  O68  1  0.62941865  0.13313333  0.49210462  1
  O  O69  1  0.62334106  0.11136939  0.99435901  1
  O  O70  1  0.63102001  0.63364540  0.49239122  1
  O  O71  1  0.62255058  0.61705376  0.99215919  1
  O  O72  1  0.13576481  0.38265942  0.01269975  1
  O  O73  1  0.12909049  0.37673096  0.50583600  1
  O  O74  1  0.13756475  0.88324967  0.01547476  1
  O  O75  1  0.12815690  0.87779667  0.50628916  1
  O  O76  1  0.63649643  0.36793277  0.00806927  1
  O  O77  1  0.62619254  0.38853312  0.50652244  1
  O  O78  1  0.64408781  0.87235460  0.01110249  1
  O  O79  1  0.62457866  0.88714335  0.50577588  1
  O  O80  1  0.38058626  0.11398173  0.49239429  1
  O  O81  1  0.37525858  0.12319400  0.99508205  1
  O  O82  1  0.38292437  0.61215509  0.49130186  1
  O  O83  1  0.37604011  0.61944651  0.99490869  1
  O  O84  1  0.87595413  0.11650342  0.49141068  1
  O  O85  1  0.87169112  0.12633223  0.99653435  1
  O  O86  1  0.87822815  0.61699173  0.49146859  1
  O  O87  1  0.87532237  0.62975934  0.99656179  1
  O  O88  1  0.38492973  0.38529798  0.01278620  1
  O  O89  1  0.37948545  0.37462458  0.50495253  1
  O  O90  1  0.39168919  0.89066844  0.01219850  1
  O  O91  1  0.37636537  0.86995044  0.50603725  1
  O  O92  1  0.88615801  0.38781651  0.00986086  1
  O  O93  1  0.87506301  0.37455185  0.50543792  1
  O  O94  1  0.89187533  0.89150949  0.01917085  1
  O  O95  1  0.87500194  0.87374612  0.50500891  1
  O  O96  1  0.10085376  0.10430301  0.14623791  1
  O  O97  1  0.08130280  0.09146380  0.64059219  1
  O  O98  1  0.08888878  0.60722950  0.14514936  1
  O  O99  1  0.07962384  0.58981431  0.63706890  1
  O  O100  1  0.59792207  0.09435980  0.14198321  1
  O  O101  1  0.58252352  0.09459767  0.64190138  1
  O  O102  1  0.59140331  0.59726669  0.14338166  1
  O  O103  1  0.58275667  0.59649128  0.64198050  1
  O  O104  1  0.44063185  0.40438968  0.35342699  1
  O  O105  1  0.44022279  0.39744535  0.85336317  1
  O  O106  1  0.43586720  0.90851100  0.35496361  1
  O  O107  1  0.44403997  0.90118867  0.85782461  1
  O  O108  1  0.94222794  0.40824364  0.36218687  1
  O  O109  1  0.94256132  0.40292775  0.85586846  1
  O  O110  1  0.94292907  0.91049476  0.35865591  1
  O  O111  1  0.94136546  0.90283859  0.85745982  1
  O  O112  1  0.33189478  0.28662153  0.13849880  1
  O  O113  1  0.33026153  0.29561074  0.63648054  1
  O  O114  1  0.33420237  0.78525183  0.14206133  1
  O  O115  1  0.33382609  0.79688150  0.64101251  1
  O  O116  1  0.83372772  0.28870038  0.14448848  1
  O  O117  1  0.83029062  0.29706080  0.63945416  1
  O  O118  1  0.83832967  0.79433693  0.14221944  1
  O  O119  1  0.83264642  0.79922818  0.64068828  1
  O  O120  1  0.19042096  0.19493485  0.35920116  1
  O  O121  1  0.19132803  0.20414302  0.86162120  1
  O  O122  1  0.19309715  0.70256453  0.35973165  1
  O  O123  1  0.19097383  0.70263654  0.85663901  1
  O  O124  1  0.68396492  0.20200027  0.35705830  1
  O  O125  1  0.69359418  0.20333298  0.86092158  1
  O  O126  1  0.68439369  0.70353869  0.35705007  1
  O  O127  1  0.69533710  0.70311420  0.85973042  1
  O  O128  1  0.42366446  0.05947377  0.23909884  1
  O  O129  1  0.43242914  0.06438465  0.75093293  1
  O  O130  1  0.42206218  0.56128466  0.23968037  1
  O  O131  1  0.43220864  0.56336862  0.75044901  1
  O  O132  1  0.92456867  0.06623176  0.24205376  1
  O  O133  1  0.93266852  0.06591985  0.75116804  1
  O  O134  1  0.93389427  0.55972718  0.24942122  1
  O  O135  1  0.93172010  0.56539285  0.74993057  1
  O  O136  1  0.18157578  0.43624888  0.24859334  1
  O  O137  1  0.18085427  0.43531614  0.74909935  1
  O  O138  1  0.17076550  0.92628480  0.24172246  1
  O  O139  1  0.18286737  0.93714973  0.75127310  1
  O  O140  1  0.68221562  0.43672026  0.25034229  1
  O  O141  1  0.68138611  0.43643624  0.75025134  1
  O  O142  1  0.68283020  0.93589841  0.24993234  1
  O  O143  1  0.68236090  0.93714650  0.75087903  1
