# generated using pymatgen
data_Ca3Mn2(GaO5)2
_symmetry_space_group_name_H-M   'P 1'
_cell_length_a   5.41464432
_cell_length_b   5.68449477
_cell_length_c   7.88730061
_cell_angle_alpha   109.52044838
_cell_angle_beta   109.05588131
_cell_angle_gamma   90.47898999
_symmetry_Int_Tables_number   1
_chemical_formula_structural   Ca3Mn2(GaO5)2
_chemical_formula_sum   'Ca3 Mn2 Ga2 O10'
_cell_volume   214.38683485
_cell_formula_units_Z   1
loop_
 _symmetry_equiv_pos_site_id
 _symmetry_equiv_pos_as_xyz
  1  'x, y, z'
loop_
 _atom_site_type_symbol
 _atom_site_label
 _atom_site_symmetry_multiplicity
 _atom_site_fract_x
 _atom_site_fract_y
 _atom_site_fract_z
 _atom_site_occupancy
  Ca  Ca0  1  0.39860497  0.87307115  0.80905830  1
  Ca  Ca1  1  0.10565767  0.56911833  0.22040629  1
  Ca  Ca2  1  0.88553975  0.42985156  0.76987946  1
  Mn  Mn3  1  0.98573753  0.00322653  0.01146148  1
  Mn  Mn4  1  0.48920582  0.49335259  0.01067555  1
  Ga  Ga5  1  0.29315794  0.16629490  0.49487535  1
  Ga  Ga6  1  0.78101115  0.84166867  0.49139710  1
  O  O7  1  0.63167712  0.12982087  0.49922225  1
  O  O8  1  0.13678122  0.87323846  0.50465992  1
  O  O9  1  0.31568121  0.43099221  0.71865531  1
  O  O10  1  0.58688858  0.56873504  0.27582715  1
  O  O11  1  0.81093208  0.80330204  0.72426466  1
  O  O12  1  0.09206164  0.20274565  0.27115589  1
  O  O13  1  0.23209615  0.75387500  0.02230864  1
  O  O14  1  0.19925818  0.22861625  0.95506108  1
  O  O15  1  0.71616589  0.23995976  0.95631824  1
  O  O16  1  0.75469807  0.73635299  0.02664834  1
