# generated using pymatgen
data_Ba3Sr5Ti7MnO24
_symmetry_space_group_name_H-M   'P 1'
_cell_length_a   7.94835004
_cell_length_b   7.94592982
_cell_length_c   7.94835004
_cell_angle_alpha   90.00719568
_cell_angle_beta   90.00874127
_cell_angle_gamma   89.99280432
_symmetry_Int_Tables_number   1
_chemical_formula_structural   Ba3Sr5Ti7MnO24
_chemical_formula_sum   'Ba3 Sr5 Ti7 Mn1 O24'
_cell_volume   501.99418084
_cell_formula_units_Z   1
loop_
 _symmetry_equiv_pos_site_id
 _symmetry_equiv_pos_as_xyz
  1  'x, y, z'
loop_
 _atom_site_type_symbol
 _atom_site_label
 _atom_site_symmetry_multiplicity
 _atom_site_fract_x
 _atom_site_fract_y
 _atom_site_fract_z
 _atom_site_occupancy
  Ba  Ba0  1  0.24837504  0.75155522  0.24849084  1
  Ba  Ba1  1  0.24841430  0.75155807  0.75158570  1
  Ba  Ba2  1  0.75150916  0.75155522  0.75162496  1
  Sr  Sr3  1  0.24801877  0.24842189  0.24806336  1
  Sr  Sr4  1  0.24808539  0.24848626  0.75191461  1
  Sr  Sr5  1  0.75194024  0.24829514  0.24805976  1
  Sr  Sr6  1  0.75193664  0.24842189  0.75198123  1
  Sr  Sr7  1  0.75175647  0.75172872  0.24824353  1
  Ti  Ti8  1  0.99860284  0.00401885  0.49762569  1
  Ti  Ti9  1  0.99868225  0.49334695  0.00131775  1
  Ti  Ti10  1  0.99857199  0.49590813  0.49862126  1
  Ti  Ti11  1  0.50237431  0.00401885  0.00139716  1
  Ti  Ti12  1  0.50135266  0.00422252  0.49864734  1
  Ti  Ti13  1  0.50137874  0.49590813  0.00142801  1
  Ti  Ti14  1  0.50135711  0.49595399  0.49864289  1
  Mn  Mn15  1  0.99918048  0.00259172  0.00081952  1
  O  O16  1  0.24648882  0.00893638  0.00086649  1
  O  O17  1  0.24915116  0.00842270  0.49906625  1
  O  O18  1  0.24930114  0.49173144  0.00103856  1
  O  O19  1  0.24948252  0.49173887  0.49899915  1
  O  O20  1  0.75313230  0.00571192  0.00383518  1
  O  O21  1  0.75072590  0.00575764  0.49652731  1
  O  O22  1  0.75058985  0.49446062  0.00350557  1
  O  O23  1  0.75046376  0.49440164  0.49655457  1
  O  O24  1  0.99902446  0.24728173  0.00097554  1
  O  O25  1  0.99882855  0.24941418  0.49895400  1
  O  O26  1  0.99576330  0.75346293  0.00423670  1
  O  O27  1  0.99613337  0.75096500  0.49618414  1
  O  O28  1  0.50104600  0.24941418  0.00117145  1
  O  O29  1  0.50110763  0.24955328  0.49889237  1
  O  O30  1  0.50381586  0.75096500  0.00386663  1
  O  O31  1  0.50380205  0.75062978  0.49619795  1
  O  O32  1  0.99616482  0.00571192  0.24686770  1
  O  O33  1  0.99913351  0.00893638  0.75351118  1
  O  O34  1  0.99649443  0.49446062  0.24941015  1
  O  O35  1  0.99896144  0.49173144  0.75069886  1
  O  O36  1  0.50347269  0.00575764  0.24927410  1
  O  O37  1  0.50093375  0.00842270  0.75084884  1
  O  O38  1  0.50344543  0.49440164  0.24953624  1
  O  O39  1  0.50100085  0.49173887  0.75051748  1
