# generated using pymatgen
data_VAu4
_symmetry_space_group_name_H-M   'P 1'
_cell_length_a   4.06337638
_cell_length_b   5.04150819
_cell_length_c   5.04150819
_cell_angle_alpha   80.65361085
_cell_angle_beta   66.23462663
_cell_angle_gamma   66.23462663
_symmetry_Int_Tables_number   1
_chemical_formula_structural   VAu4
_chemical_formula_sum   'V1 Au4'
_cell_volume   86.50540417
_cell_formula_units_Z   1
loop_
 _symmetry_equiv_pos_site_id
 _symmetry_equiv_pos_as_xyz
  1  'x, y, z'
loop_
 _atom_site_type_symbol
 _atom_site_label
 _atom_site_symmetry_multiplicity
 _atom_site_fract_x
 _atom_site_fract_y
 _atom_site_fract_z
 _atom_site_occupancy
  V  V0  1  -0.00000000  0.00000000  0.00000000  1
  Au  Au1  1  0.60343331  0.60162529  0.19150808  1
  Au  Au2  1  0.39656669  0.39837471  0.80849192  1
  Au  Au3  1  0.20505861  0.19150808  0.39837471  1
  Au  Au4  1  0.79494139  0.80849192  0.60162529  1
