# generated using pymatgen
data_TmB2Rh3
_symmetry_space_group_name_H-M   'P 1'
_cell_length_a   3.12248768
_cell_length_b   5.41054980
_cell_length_c   5.41134048
_cell_angle_alpha   60.00483337
_cell_angle_beta   90.01016920
_cell_angle_gamma   90.02034127
_symmetry_Int_Tables_number   1
_chemical_formula_structural   TmB2Rh3
_chemical_formula_sum   'Tm1 B2 Rh3'
_cell_volume   79.17694611
_cell_formula_units_Z   1
loop_
 _symmetry_equiv_pos_site_id
 _symmetry_equiv_pos_as_xyz
  1  'x, y, z'
loop_
 _atom_site_type_symbol
 _atom_site_label
 _atom_site_symmetry_multiplicity
 _atom_site_fract_x
 _atom_site_fract_y
 _atom_site_fract_z
 _atom_site_occupancy
  Tm  Tm0  1  0.50000000  0.50000000  0.00000000  1
  B  B1  1  0.50000000  0.16607549  0.66784903  1
  B  B2  1  0.50000000  0.83392451  0.33215097  1
  Rh  Rh3  1  0.00000000  -0.00000000  -0.00000000  1
  Rh  Rh4  1  0.00000000  0.50000000  0.50000000  1
  Rh  Rh5  1  0.00000000  -0.00000000  0.50000000  1
