# generated using pymatgen
data_MoW(SeS)2
_symmetry_space_group_name_H-M   'P 1'
_cell_length_a   3.25583674
_cell_length_b   3.25583411
_cell_length_c   36.35693408
_cell_angle_alpha   90.00019598
_cell_angle_beta   90.00000000
_cell_angle_gamma   120.00003690
_symmetry_Int_Tables_number   1
_chemical_formula_structural   MoW(SeS)2
_chemical_formula_sum   'Mo2 W2 Se4 S4'
_cell_volume   333.76639744
_cell_formula_units_Z   2
loop_
 _symmetry_equiv_pos_site_id
 _symmetry_equiv_pos_as_xyz
  1  'x, y, z'
loop_
 _atom_site_type_symbol
 _atom_site_label
 _atom_site_symmetry_multiplicity
 _atom_site_fract_x
 _atom_site_fract_y
 _atom_site_fract_z
 _atom_site_occupancy
  Mo  Mo0  1  0.33331041  0.66662082  0.09390383  1
  Mo  Mo1  1  0.33331097  0.66662193  0.46969139  1
  W  W2  1  0.66668796  0.33337591  0.28182636  1
  W  W3  1  0.66668865  0.33337731  0.65755092  1
  Se  Se4  1  0.66664684  0.33329268  0.04712305  1
  Se  Se5  1  0.66664783  0.33329465  0.42291624  1
  Se  Se6  1  0.66664750  0.33329400  0.14066258  1
  Se  Se7  1  0.66664768  0.33329436  0.51639196  1
  S  S8  1  0.33335761  0.66671622  0.32447496  1
  S  S9  1  0.33335281  0.66670662  0.70025294  1
  S  S10  1  0.33335142  0.66670384  0.23910077  1
  S  S11  1  0.33335033  0.66670166  0.61485300  1
