# generated using pymatgen
data_MgMn4O8
_symmetry_space_group_name_H-M   'P 1'
_cell_length_a   2.97969750
_cell_length_b   7.27403448
_cell_length_c   7.34917090
_cell_angle_alpha   80.56456936
_cell_angle_beta   78.31179936
_cell_angle_gamma   78.18428716
_symmetry_Int_Tables_number   1
_chemical_formula_structural   MgMn4O8
_chemical_formula_sum   'Mg1 Mn4 O8'
_cell_volume   151.42988194
_cell_formula_units_Z   1
loop_
 _symmetry_equiv_pos_site_id
 _symmetry_equiv_pos_as_xyz
  1  'x, y, z'
loop_
 _atom_site_type_symbol
 _atom_site_label
 _atom_site_symmetry_multiplicity
 _atom_site_fract_x
 _atom_site_fract_y
 _atom_site_fract_z
 _atom_site_occupancy
  Mg  Mg0  1  0.33754614  0.12864802  0.19656204  1
  Mn  Mn1  1  0.63326160  0.17077298  0.56292505  1
  Mn  Mn2  1  0.14430343  0.50548843  0.20583669  1
  Mn  Mn3  1  0.83756194  0.48405701  0.84096218  1
  Mn  Mn4  1  0.35292883  0.80296451  0.49107140  1
  O  O5  1  0.85575567  0.67018788  0.61824962  1
  O  O6  1  0.45165070  0.33860451  0.75827971  1
  O  O7  1  0.53408524  0.64516049  0.28656791  1
  O  O8  1  0.14085729  0.30077829  0.41771512  1
  O  O9  1  0.16456600  0.01076211  0.66032885  1
  O  O10  1  0.78940265  0.32396554  0.09771275  1
  O  O11  1  0.83973303  0.97634527  0.34435854  1
  O  O12  1  0.21583048  0.61837395  0.95007713  1
