# generated using pymatgen
data_Sr2GdRuO6
_symmetry_space_group_name_H-M   'P 1'
_cell_length_a   5.83494258
_cell_length_b   5.90342161
_cell_length_c   5.90342161
_cell_angle_alpha   59.23402984
_cell_angle_beta   60.38298513
_cell_angle_gamma   60.38298502
_symmetry_Int_Tables_number   1
_chemical_formula_structural   Sr2GdRuO6
_chemical_formula_sum   'Sr2 Gd1 Ru1 O6'
_cell_volume   143.75191434
_cell_formula_units_Z   1
loop_
 _symmetry_equiv_pos_site_id
 _symmetry_equiv_pos_as_xyz
  1  'x, y, z'
loop_
 _atom_site_type_symbol
 _atom_site_label
 _atom_site_symmetry_multiplicity
 _atom_site_fract_x
 _atom_site_fract_y
 _atom_site_fract_z
 _atom_site_occupancy
  Sr  Sr0  1  0.75000000  0.75000000  0.75000000  1
  Sr  Sr1  1  0.25000000  0.25000000  0.25000000  1
  Gd  Gd2  1  0.00000000  0.00000000  0.00000000  1
  Ru  Ru3  1  0.50000000  0.50000000  0.50000000  1
  O  O4  1  0.26555552  0.73444448  0.73444448  1
  O  O5  1  0.73444448  0.26555552  0.26555552  1
  O  O6  1  0.32671735  0.79183986  0.20816014  1
  O  O7  1  0.67328265  0.20816014  0.79183986  1
  O  O8  1  0.79183986  0.67328265  0.32671735  1
  O  O9  1  0.20816014  0.32671735  0.67328265  1
