# generated using pymatgen
data_Gd2CoSi2
_symmetry_space_group_name_H-M   'P 1'
_cell_length_a   4.14438358
_cell_length_b   5.68536144
_cell_length_c   8.96392382
_cell_angle_alpha   83.01228456
_cell_angle_beta   76.63402241
_cell_angle_gamma   68.62450464
_symmetry_Int_Tables_number   1
_chemical_formula_structural   Gd2CoSi2
_chemical_formula_sum   'Gd4 Co2 Si4'
_cell_volume   191.19143619
_cell_formula_units_Z   2
loop_
 _symmetry_equiv_pos_site_id
 _symmetry_equiv_pos_as_xyz
  1  'x, y, z'
loop_
 _atom_site_type_symbol
 _atom_site_label
 _atom_site_symmetry_multiplicity
 _atom_site_fract_x
 _atom_site_fract_y
 _atom_site_fract_z
 _atom_site_occupancy
  Gd  Gd0  1  0.99807087  0.33055066  0.67330760  1
  Gd  Gd1  1  0.00192913  0.66944934  0.32669240  1
  Gd  Gd2  1  0.18702887  0.72854347  0.89739879  1
  Gd  Gd3  1  0.81297113  0.27145653  0.10260121  1
  Co  Co4  1  0.27334143  0.07184728  0.38146986  1
  Co  Co5  1  0.72665857  0.92815272  0.61853014  1
  Si  Si6  1  0.34551080  0.74361398  0.56536443  1
  Si  Si7  1  0.65448920  0.25638602  0.43463557  1
  Si  Si8  1  0.50015834  0.12749221  0.87219112  1
  Si  Si9  1  0.49984166  0.87250779  0.12780888  1
