# generated using pymatgen
data_GaFe3
_symmetry_space_group_name_H-M   'P 1'
_cell_length_a   4.18263361
_cell_length_b   5.16713124
_cell_length_c   5.16713124
_cell_angle_alpha   120.07285185
_cell_angle_beta   90.00000000
_cell_angle_gamma   90.00000000
_symmetry_Int_Tables_number   1
_chemical_formula_structural   GaFe3
_chemical_formula_sum   'Ga2 Fe6'
_cell_volume   96.64071925
_cell_formula_units_Z   2
loop_
 _symmetry_equiv_pos_site_id
 _symmetry_equiv_pos_as_xyz
  1  'x, y, z'
loop_
 _atom_site_type_symbol
 _atom_site_label
 _atom_site_symmetry_multiplicity
 _atom_site_fract_x
 _atom_site_fract_y
 _atom_site_fract_z
 _atom_site_occupancy
  Ga  Ga0  1  0.75000000  0.66671827  0.33328173  1
  Ga  Ga1  1  0.25000000  0.33328173  0.66671827  1
  Fe  Fe2  1  0.75000000  0.15942174  0.31907379  1
  Fe  Fe3  1  0.75000000  0.15962818  0.84037182  1
  Fe  Fe4  1  0.75000000  0.68092621  0.84057826  1
  Fe  Fe5  1  0.25000000  0.84057826  0.68092621  1
  Fe  Fe6  1  0.25000000  0.84037182  0.15962818  1
  Fe  Fe7  1  0.25000000  0.31907379  0.15942174  1
