# generated using pymatgen
data_TbAl4
_symmetry_space_group_name_H-M   'P 1'
_cell_length_a   4.44848630
_cell_length_b   6.30013392
_cell_length_c   7.86599472
_cell_angle_alpha   113.60734159
_cell_angle_beta   106.42541316
_cell_angle_gamma   90.00000000
_symmetry_Int_Tables_number   1
_chemical_formula_structural   TbAl4
_chemical_formula_sum   'Tb2 Al8'
_cell_volume   192.14453264
_cell_formula_units_Z   2
loop_
 _symmetry_equiv_pos_site_id
 _symmetry_equiv_pos_as_xyz
  1  'x, y, z'
loop_
 _atom_site_type_symbol
 _atom_site_label
 _atom_site_symmetry_multiplicity
 _atom_site_fract_x
 _atom_site_fract_y
 _atom_site_fract_z
 _atom_site_occupancy
  Tb  Tb0  1  0.88690612  0.63690612  0.77381224  1
  Tb  Tb1  1  0.11309388  0.36309388  0.22618776  1
  Al  Al2  1  0.50000000  0.00000000  0.00000000  1
  Al  Al3  1  0.50000000  0.50000000  0.00000000  1
  Al  Al4  1  0.11219123  0.86219123  0.22438245  1
  Al  Al5  1  0.88780877  0.13780877  0.77561755  1
  Al  Al6  1  0.69836861  0.16351858  0.39673722  1
  Al  Al7  1  0.30163139  0.83648142  0.60326278  1
  Al  Al8  1  0.30163139  0.26678137  0.60326278  1
  Al  Al9  1  0.69836861  0.73321863  0.39673722  1
