# generated using pymatgen
data_Cs2LiBr3
_symmetry_space_group_name_H-M   'P 1'
_cell_length_a   4.51348039
_cell_length_b   8.24528085
_cell_length_c   12.54045317
_cell_angle_alpha   89.88742804
_cell_angle_beta   79.64648504
_cell_angle_gamma   90.01026916
_symmetry_Int_Tables_number   1
_chemical_formula_structural   Cs2LiBr3
_chemical_formula_sum   'Cs4 Li2 Br6'
_cell_volume   459.09206391
_cell_formula_units_Z   2
loop_
 _symmetry_equiv_pos_site_id
 _symmetry_equiv_pos_as_xyz
  1  'x, y, z'
loop_
 _atom_site_type_symbol
 _atom_site_label
 _atom_site_symmetry_multiplicity
 _atom_site_fract_x
 _atom_site_fract_y
 _atom_site_fract_z
 _atom_site_occupancy
  Cs  Cs0  1  0.99467792  0.24961807  0.01047394  1
  Cs  Cs1  1  0.82255738  0.74729544  0.35473580  1
  Cs  Cs2  1  0.17744262  0.25270456  0.64526420  1
  Cs  Cs3  1  0.00532208  0.75038193  0.98952606  1
  Li  Li4  1  0.35065251  0.24917275  0.29877732  1
  Li  Li5  1  0.64934849  0.75082725  0.70122268  1
  Br  Br6  1  0.41216916  0.50200335  0.17592100  1
  Br  Br7  1  0.41119569  0.99627233  0.17678913  1
  Br  Br8  1  0.79551083  0.25090655  0.40952361  1
  Br  Br9  1  0.20448817  0.74909445  0.59047639  1
  Br  Br10  1  0.58880431  0.00372767  0.82321087  1
  Br  Br11  1  0.58783084  0.49799665  0.82407900  1
