# generated using pymatgen
data_Ti5TlS8
_symmetry_space_group_name_H-M   'P 1'
_cell_length_a   3.51277444
_cell_length_b   8.83031785
_cell_length_c   9.10345614
_cell_angle_alpha   104.05356526
_cell_angle_beta   101.04141857
_cell_angle_gamma   90.25229715
_symmetry_Int_Tables_number   1
_chemical_formula_structural   Ti5TlS8
_chemical_formula_sum   'Ti5 Tl1 S8'
_cell_volume   268.47218388
_cell_formula_units_Z   1
loop_
 _symmetry_equiv_pos_site_id
 _symmetry_equiv_pos_as_xyz
  1  'x, y, z'
loop_
 _atom_site_type_symbol
 _atom_site_label
 _atom_site_symmetry_multiplicity
 _atom_site_fract_x
 _atom_site_fract_y
 _atom_site_fract_z
 _atom_site_occupancy
  Ti  Ti0  1  0.20686554  0.84646431  0.41879186  1
  Ti  Ti1  1  0.84418983  0.50462016  0.67931521  1
  Ti  Ti2  1  0.15581017  0.49537984  0.32068479  1
  Ti  Ti3  1  0.79313446  0.15353569  0.58120814  1
  Ti  Ti4  1  0.50000000  0.50000000  0.00000000  1
  Tl  Tl5  1  -0.00000000  -0.00000000  0.00000000  1
  S  S6  1  0.07545413  0.66610694  0.15137821  1
  S  S7  1  0.33719854  0.00849972  0.67519483  1
  S  S8  1  0.41767461  0.67045391  0.82323172  1
  S  S9  1  0.73717122  0.66674690  0.48077610  1
  S  S10  1  0.26282878  0.33325310  0.51922390  1
  S  S11  1  0.58232539  0.32954609  0.17676828  1
  S  S12  1  0.66280146  0.99150028  0.32480517  1
  S  S13  1  0.92454587  0.33389306  0.84862179  1
