# generated using pymatgen
data_MgCr4O8
_symmetry_space_group_name_H-M   'P 1'
_cell_length_a   2.97906165
_cell_length_b   7.23133203
_cell_length_c   7.33996023
_cell_angle_alpha   80.13580956
_cell_angle_beta   78.28769490
_cell_angle_gamma   78.11387848
_symmetry_Int_Tables_number   1
_chemical_formula_structural   MgCr4O8
_chemical_formula_sum   'Mg1 Cr4 O8'
_cell_volume   150.11961717
_cell_formula_units_Z   1
loop_
 _symmetry_equiv_pos_site_id
 _symmetry_equiv_pos_as_xyz
  1  'x, y, z'
loop_
 _atom_site_type_symbol
 _atom_site_label
 _atom_site_symmetry_multiplicity
 _atom_site_fract_x
 _atom_site_fract_y
 _atom_site_fract_z
 _atom_site_occupancy
  Mg  Mg0  1  0.33442989  0.13245086  0.19887553  1
  Cr  Cr1  1  0.63395837  0.16857384  0.56362787  1
  Cr  Cr2  1  0.14092836  0.51150233  0.20677904  1
  Cr  Cr3  1  0.84125805  0.48120499  0.83655518  1
  Cr  Cr4  1  0.34971834  0.80486174  0.49592843  1
  O  O5  1  0.85763160  0.66812630  0.61666112  1
  O  O6  1  0.45598899  0.33248921  0.75552111  1
  O  O7  1  0.53324756  0.64938023  0.28425339  1
  O  O8  1  0.14185394  0.30457940  0.41185445  1
  O  O9  1  0.16769367  0.00577970  0.65884953  1
  O  O10  1  0.78605930  0.32873883  0.09927813  1
  O  O11  1  0.83453876  0.97934583  0.35170519  1
  O  O12  1  0.22017418  0.60907574  0.95075704  1
