# generated using pymatgen
data_NbIr
_symmetry_space_group_name_H-M   'P 1'
_cell_length_a   2.87229627
_cell_length_b   4.89446691
_cell_length_c   13.90158762
_cell_angle_alpha   90.00000000
_cell_angle_beta   90.00000000
_cell_angle_gamma   90.00000000
_symmetry_Int_Tables_number   1
_chemical_formula_structural   NbIr
_chemical_formula_sum   'Nb6 Ir6'
_cell_volume   195.43351012
_cell_formula_units_Z   6
loop_
 _symmetry_equiv_pos_site_id
 _symmetry_equiv_pos_as_xyz
  1  'x, y, z'
loop_
 _atom_site_type_symbol
 _atom_site_label
 _atom_site_symmetry_multiplicity
 _atom_site_fract_x
 _atom_site_fract_y
 _atom_site_fract_z
 _atom_site_occupancy
  Nb  Nb0  1  0.00000000  0.04420795  0.25000000  1
  Nb  Nb1  1  0.00000000  0.95579205  0.75000000  1
  Nb  Nb2  1  -0.00000000  0.32329861  0.58447211  1
  Nb  Nb3  1  -0.00000000  0.67670139  0.41552789  1
  Nb  Nb4  1  -0.00000000  0.32329861  0.91552789  1
  Nb  Nb5  1  -0.00000000  0.67670139  0.08447211  1
  Ir  Ir6  1  0.50000000  0.53810604  0.25000000  1
  Ir  Ir7  1  0.50000000  0.46189396  0.75000000  1
  Ir  Ir8  1  0.50000000  0.82203102  0.58335409  1
  Ir  Ir9  1  0.50000000  0.17796898  0.41664591  1
  Ir  Ir10  1  0.50000000  0.82203102  0.91664591  1
  Ir  Ir11  1  0.50000000  0.17796898  0.08335409  1
