# generated using pymatgen
data_K4Na4Mo3W5O24
_symmetry_space_group_name_H-M   'P 1'
_cell_length_a   8.03477295
_cell_length_b   7.98914210
_cell_length_c   8.03026737
_cell_angle_alpha   90.00000000
_cell_angle_beta   90.00000000
_cell_angle_gamma   90.00000000
_symmetry_Int_Tables_number   1
_chemical_formula_structural   K4Na4Mo3W5O24
_chemical_formula_sum   'K4 Na4 Mo3 W5 O24'
_cell_volume   515.47043373
_cell_formula_units_Z   1
loop_
 _symmetry_equiv_pos_site_id
 _symmetry_equiv_pos_as_xyz
  1  'x, y, z'
loop_
 _atom_site_type_symbol
 _atom_site_label
 _atom_site_symmetry_multiplicity
 _atom_site_fract_x
 _atom_site_fract_y
 _atom_site_fract_z
 _atom_site_occupancy
  K  K0  1  0.25281757  0.25575113  0.25299938  1
  K  K1  1  0.25281757  0.74424887  0.25299938  1
  K  K2  1  0.74718243  0.25575113  0.25299938  1
  K  K3  1  0.74718243  0.74424887  0.25299938  1
  Na  Na4  1  0.25380628  0.25744434  0.74623341  1
  Na  Na5  1  0.25380628  0.74255566  0.74623341  1
  Na  Na6  1  0.74619372  0.25744434  0.74623341  1
  Na  Na7  1  0.74619372  0.74255566  0.74623341  1
  Mo  Mo8  1  0.00000000  0.50000000  0.50223567  1
  Mo  Mo9  1  0.50000000  0.50000000  0.99824188  1
  Mo  Mo10  1  0.50000000  0.50000000  0.50279024  1
  W  W11  1  0.00000000  0.00000000  0.99801449  1
  W  W12  1  0.00000000  0.00000000  0.50308184  1
  W  W13  1  0.00000000  0.50000000  0.99670495  1
  W  W14  1  0.50000000  0.00000000  0.99722662  1
  W  W15  1  0.50000000  0.00000000  0.50258271  1
  O  O16  1  0.25407260  -0.00000000  0.99462753  1
  O  O17  1  0.24286320  -0.00000000  0.50565297  1
  O  O18  1  0.23808473  0.50000000  0.99363181  1
  O  O19  1  0.24888788  0.50000000  0.50715337  1
  O  O20  1  0.74592740  0.00000000  0.99462753  1
  O  O21  1  0.75713680  -0.00000000  0.50565297  1
  O  O22  1  0.76191527  0.50000000  0.99363181  1
  O  O23  1  0.75111212  0.50000000  0.50715337  1
  O  O24  1  0.00000000  0.24452451  0.99519722  1
  O  O25  1  0.00000000  0.24174668  0.50556362  1
  O  O26  1  0.00000000  0.75547549  0.99519722  1
  O  O27  1  0.00000000  0.75825332  0.50556362  1
  O  O28  1  0.50000000  0.24173557  0.99484161  1
  O  O29  1  0.50000000  0.23798098  0.50590286  1
  O  O30  1  0.50000000  0.75826443  0.99484161  1
  O  O31  1  0.50000000  0.76201902  0.50590286  1
  O  O32  1  0.00000000  -0.00000000  0.25549504  1
  O  O33  1  0.00000000  0.00000000  0.74705307  1
  O  O34  1  0.00000000  0.50000000  0.23575018  1
  O  O35  1  0.00000000  0.50000000  0.75978644  1
  O  O36  1  0.50000000  -0.00000000  0.24178036  1
  O  O37  1  0.50000000  0.00000000  0.75627718  1
  O  O38  1  0.50000000  0.50000000  0.24942029  1
  O  O39  1  0.50000000  0.50000000  0.75148592  1
