# generated using pymatgen
data_W5(O2F11)2
_symmetry_space_group_name_H-M   'P 1'
_cell_length_a   10.22604723
_cell_length_b   10.22604723
_cell_length_c   12.70625626
_cell_angle_alpha   66.27157139
_cell_angle_beta   66.27157139
_cell_angle_gamma   90.00000000
_symmetry_Int_Tables_number   1
_chemical_formula_structural   W5(O2F11)2
_chemical_formula_sum   'W10 O8 F44'
_cell_volume   1092.57981972
_cell_formula_units_Z   2
loop_
 _symmetry_equiv_pos_site_id
 _symmetry_equiv_pos_as_xyz
  1  'x, y, z'
loop_
 _atom_site_type_symbol
 _atom_site_label
 _atom_site_symmetry_multiplicity
 _atom_site_fract_x
 _atom_site_fract_y
 _atom_site_fract_z
 _atom_site_occupancy
  W  W0  1  0.88773708  0.05242366  0.30674717  1
  W  W1  1  0.44757634  0.19448425  0.19325283  1
  W  W2  1  0.37500000  0.12500000  0.75000000  1
  W  W3  1  0.69448425  0.35917084  0.69325283  1
  W  W4  1  0.85917084  0.61226292  0.19325283  1
  W  W5  1  0.14082916  0.38773708  0.80674717  1
  W  W6  1  0.30551575  0.64082916  0.30674717  1
  W  W7  1  0.62500000  0.87500000  0.25000000  1
  W  W8  1  0.55242366  0.80551575  0.80674717  1
  W  W9  1  0.11226292  0.94757634  0.69325283  1
  O  O10  1  0.55858783  0.05292431  0.24526747  1
  O  O11  1  0.20180822  0.05858783  0.74526747  1
  O  O12  1  0.55292431  0.19614470  0.74526747  1
  O  O13  1  0.30385530  0.29819178  0.75473253  1
  O  O14  1  0.69614470  0.70180822  0.24526747  1
  O  O15  1  0.44707569  0.80385530  0.25473253  1
  O  O16  1  0.79819178  0.94141217  0.25473253  1
  O  O17  1  0.44141217  0.94707569  0.75473253  1
  F  F18  1  0.07482008  0.05730557  0.18872294  1
  F  F19  1  0.45034432  0.12324225  0.07651563  1
  F  F20  1  0.27517015  0.05590296  0.31795011  1
  F  F21  1  0.69975788  0.04965568  0.42348437  1
  F  F22  1  0.87385306  0.22482985  0.18204989  1
  F  F23  1  0.96793896  0.16532324  0.36034427  1
  F  F24  1  0.61999466  0.33000165  0.06677145  1
  F  F25  1  0.33467676  0.32828223  0.13965573  1
  F  F26  1  0.10322591  0.11999466  0.56677145  1
  F  F27  1  0.44269443  0.26354202  0.31127706  1
  F  F28  1  0.28455531  0.03455531  0.93088938  1
  F  F29  1  0.46544469  0.21544469  0.56911062  1
  F  F30  1  0.74602751  0.42517992  0.31127706  1
  F  F31  1  0.83000165  0.31323290  0.56677145  1
  F  F32  1  0.02566651  0.53206104  0.13965573  1
  F  F33  1  0.81323290  0.60322591  0.06677145  1
  F  F34  1  0.76354202  0.24602751  0.81127706  1
  F  F35  1  0.17171777  0.47433349  0.36034427  1
  F  F36  1  0.02685895  0.19975788  0.92348437  1
  F  F37  1  0.44409704  0.59312026  0.18204989  1
  F  F38  1  0.09312026  0.37385306  0.68204989  1
  F  F39  1  0.37675775  0.52685895  0.42348437  1
  F  F40  1  0.62324225  0.47314105  0.57651563  1
  F  F41  1  0.90687974  0.62614694  0.31795011  1
  F  F42  1  0.55590296  0.40687974  0.81795011  1
  F  F43  1  0.97314105  0.80024212  0.07651563  1
  F  F44  1  0.82828223  0.52566651  0.63965573  1
  F  F45  1  0.23645798  0.75397249  0.18872294  1
  F  F46  1  0.18676710  0.39677409  0.93322855  1
  F  F47  1  0.97433349  0.46793896  0.86034427  1
  F  F48  1  0.16999835  0.68676710  0.43322855  1
  F  F49  1  0.25397249  0.57482008  0.68872294  1
  F  F50  1  0.53455531  0.78455531  0.43088938  1
  F  F51  1  0.71544469  0.96544469  0.06911062  1
  F  F52  1  0.55730557  0.73645798  0.68872294  1
  F  F53  1  0.89677409  0.88000534  0.43322855  1
  F  F54  1  0.66532324  0.67171777  0.86034427  1
  F  F55  1  0.38000534  0.66999835  0.93322855  1
  F  F56  1  0.03206104  0.83467676  0.63965573  1
  F  F57  1  0.12614694  0.77517015  0.81795011  1
  F  F58  1  0.30024212  0.95034432  0.57651563  1
  F  F59  1  0.72482985  0.94409704  0.68204989  1
  F  F60  1  0.54965568  0.87675775  0.92348437  1
  F  F61  1  0.92517992  0.94269443  0.81127706  1
