# generated using pymatgen
data_MgCd3
_symmetry_space_group_name_H-M   'P 1'
_cell_length_a   3.20867546
_cell_length_b   10.57086961
_cell_length_c   5.28901162
_cell_angle_alpha   90.00000000
_cell_angle_beta   90.00000000
_cell_angle_gamma   90.00000000
_symmetry_Int_Tables_number   1
_chemical_formula_structural   MgCd3
_chemical_formula_sum   'Mg2 Cd6'
_cell_volume   179.39528726
_cell_formula_units_Z   2
loop_
 _symmetry_equiv_pos_site_id
 _symmetry_equiv_pos_as_xyz
  1  'x, y, z'
loop_
 _atom_site_type_symbol
 _atom_site_label
 _atom_site_symmetry_multiplicity
 _atom_site_fract_x
 _atom_site_fract_y
 _atom_site_fract_z
 _atom_site_occupancy
  Mg  Mg0  1  -0.00000000  0.00000000  0.33604560  1
  Mg  Mg1  1  0.50000000  0.50000000  0.83604560  1
  Cd  Cd2  1  0.50000000  0.00000000  0.83151799  1
  Cd  Cd3  1  0.00000000  0.25160390  0.99955120  1
  Cd  Cd4  1  0.50000000  0.24839610  0.49955120  1
  Cd  Cd5  1  0.00000000  0.50000000  0.33151799  1
  Cd  Cd6  1  0.50000000  0.75160390  0.49955120  1
  Cd  Cd7  1  0.00000000  0.74839610  0.99955120  1
