# generated using pymatgen
data_YAgS2
_symmetry_space_group_name_H-M   'P 1'
_cell_length_a   3.99466215
_cell_length_b   3.99466247
_cell_length_c   7.36876892
_cell_angle_alpha   74.27303263
_cell_angle_beta   74.27303008
_cell_angle_gamma   60.00000571
_symmetry_Int_Tables_number   1
_chemical_formula_structural   YAgS2
_chemical_formula_sum   'Y1 Ag1 S2'
_cell_volume   96.71606686
_cell_formula_units_Z   1
loop_
 _symmetry_equiv_pos_site_id
 _symmetry_equiv_pos_as_xyz
  1  'x, y, z'
loop_
 _atom_site_type_symbol
 _atom_site_label
 _atom_site_symmetry_multiplicity
 _atom_site_fract_x
 _atom_site_fract_y
 _atom_site_fract_z
 _atom_site_occupancy
  Y  Y0  1  0.00043919  0.00043919  0.99868242  1
  Ag  Ag1  1  0.85121086  0.85121086  0.44636741  1
  S  S2  1  0.73383774  0.73383774  0.79848677  1
  S  S3  1  0.25551220  0.25551220  0.23346341  1
