# generated using pymatgen
data_Tm3(FeGe)4
_symmetry_space_group_name_H-M   'P 1'
_cell_length_a   4.13370963
_cell_length_b   6.76643714
_cell_length_c   7.77621135
_cell_angle_alpha   115.78992736
_cell_angle_beta   105.41401616
_cell_angle_gamma   90.00000000
_symmetry_Int_Tables_number   1
_chemical_formula_structural   Tm3(FeGe)4
_chemical_formula_sum   'Tm3 Fe4 Ge4'
_cell_volume   187.11275056
_cell_formula_units_Z   1
loop_
 _symmetry_equiv_pos_site_id
 _symmetry_equiv_pos_as_xyz
  1  'x, y, z'
loop_
 _atom_site_type_symbol
 _atom_site_label
 _atom_site_symmetry_multiplicity
 _atom_site_fract_x
 _atom_site_fract_y
 _atom_site_fract_z
 _atom_site_occupancy
  Tm  Tm0  1  0.00000000  0.50000000  0.00000000  1
  Tm  Tm1  1  0.87314675  0.87314675  0.74629350  1
  Tm  Tm2  1  0.12685325  0.12685325  0.25370650  1
  Fe  Fe3  1  0.67626109  0.49460401  0.35252218  1
  Fe  Fe4  1  0.67626109  0.85791817  0.35252218  1
  Fe  Fe5  1  0.32373891  0.14208183  0.64747782  1
  Fe  Fe6  1  0.32373891  0.50539599  0.64747782  1
  Ge  Ge7  1  0.77793587  0.27793587  0.55587174  1
  Ge  Ge8  1  0.22206413  0.72206413  0.44412826  1
  Ge  Ge9  1  0.50000000  0.80297876  1.00000000  1
  Ge  Ge10  1  0.50000000  0.19702124  0.00000000  1
