# generated using pymatgen
data_TlAgS
_symmetry_space_group_name_H-M   'P 1'
_cell_length_a   4.46632108
_cell_length_b   7.32789828
_cell_length_c   8.66714120
_cell_angle_alpha   90.00000000
_cell_angle_beta   90.00000000
_cell_angle_gamma   90.00000000
_symmetry_Int_Tables_number   1
_chemical_formula_structural   TlAgS
_chemical_formula_sum   'Tl4 Ag4 S4'
_cell_volume   283.66466774
_cell_formula_units_Z   4
loop_
 _symmetry_equiv_pos_site_id
 _symmetry_equiv_pos_as_xyz
  1  'x, y, z'
loop_
 _atom_site_type_symbol
 _atom_site_label
 _atom_site_symmetry_multiplicity
 _atom_site_fract_x
 _atom_site_fract_y
 _atom_site_fract_z
 _atom_site_occupancy
  Tl  Tl0  1  0.25000000  0.18781263  0.00581704  1
  Tl  Tl1  1  0.25000000  0.31218737  0.50581704  1
  Tl  Tl2  1  0.75000000  0.81218737  0.99418296  1
  Tl  Tl3  1  0.75000000  0.68781263  0.49418296  1
  Ag  Ag4  1  0.25000000  0.91666477  0.68613357  1
  Ag  Ag5  1  0.25000000  0.58333523  0.18613357  1
  Ag  Ag6  1  0.75000000  0.08333523  0.31386643  1
  Ag  Ag7  1  0.75000000  0.41666477  0.81386643  1
  S  S8  1  0.25000000  0.60010094  0.81725026  1
  S  S9  1  0.25000000  0.89989906  0.31725026  1
  S  S10  1  0.75000000  0.39989906  0.18274974  1
  S  S11  1  0.75000000  0.10010094  0.68274974  1
