# generated using pymatgen
data_La7SmMn5(FeO8)3
_symmetry_space_group_name_H-M   'P 1'
_cell_length_a   7.82906837
_cell_length_b   7.84236717
_cell_length_c   7.82906837
_cell_angle_alpha   90.02162875
_cell_angle_beta   89.98854094
_cell_angle_gamma   89.97837125
_symmetry_Int_Tables_number   1
_chemical_formula_structural   La7SmMn5(FeO8)3
_chemical_formula_sum   'La7 Sm1 Mn5 Fe3 O24'
_cell_volume   480.69241822
_cell_formula_units_Z   1
loop_
 _symmetry_equiv_pos_site_id
 _symmetry_equiv_pos_as_xyz
  1  'x, y, z'
loop_
 _atom_site_type_symbol
 _atom_site_label
 _atom_site_symmetry_multiplicity
 _atom_site_fract_x
 _atom_site_fract_y
 _atom_site_fract_z
 _atom_site_occupancy
  La  La0  1  0.24837589  0.24549507  0.24829363  1
  La  La1  1  0.24883964  0.24581455  0.75116036  1
  La  La2  1  0.24825111  0.75454838  0.24845901  1
  La  La3  1  0.24821160  0.75481297  0.75178840  1
  La  La4  1  0.75170637  0.24549507  0.75162411  1
  La  La5  1  0.75118419  0.75424388  0.24881581  1
  La  La6  1  0.75154099  0.75454838  0.75174889  1
  Sm  Sm7  1  0.75205727  0.24458272  0.24794273  1
  Mn  Mn8  1  0.99959674  0.49954251  0.00040326  1
  Mn  Mn9  1  0.99956621  0.49960229  0.49957761  1
  Mn  Mn10  1  0.50044202  0.00049147  0.49955798  1
  Mn  Mn11  1  0.50042239  0.49960229  0.00043379  1
  Mn  Mn12  1  0.50041418  0.49961723  0.49958582  1
  Fe  Fe13  1  0.99971993  0.00027979  0.00028007  1
  Fe  Fe14  1  0.99971764  0.00030305  0.49964724  1
  Fe  Fe15  1  0.50035276  0.00030305  0.00028236  1
  O  O16  1  0.24493979  0.99984605  0.00010313  1
  O  O17  1  0.25761389  0.00018044  0.49982878  1
  O  O18  1  0.24987760  0.49979351  0.00015508  1
  O  O19  1  0.25016898  0.49977374  0.49980304  1
  O  O20  1  0.75513789  0.00219763  0.00195343  1
  O  O21  1  0.74258239  0.00179575  0.49824706  1
  O  O22  1  0.75010768  0.49837767  0.00164140  1
  O  O23  1  0.74983307  0.49850377  0.49848292  1
  O  O24  1  0.99821146  0.25038537  0.00178854  1
  O  O25  1  0.99821337  0.25781219  0.49837267  1
  O  O26  1  0.99970499  0.74942155  0.00029501  1
  O  O27  1  0.99985327  0.74213444  0.49983369  1
  O  O28  1  0.50162733  0.25781219  0.00178663  1
  O  O29  1  0.50158376  0.24854867  0.49841624  1
  O  O30  1  0.50016631  0.74213444  0.00014673  1
  O  O31  1  0.50019413  0.75153135  0.49980587  1
  O  O32  1  0.99804657  0.00219763  0.24486211  1
  O  O33  1  0.99989687  0.99984605  0.75506021  1
  O  O34  1  0.99835860  0.49837767  0.24989232  1
  O  O35  1  0.99984492  0.49979351  0.75012240  1
  O  O36  1  0.50175294  0.00179575  0.25741761  1
  O  O37  1  0.50017122  0.00018044  0.74238611  1
  O  O38  1  0.50151708  0.49850377  0.25016693  1
  O  O39  1  0.50019696  0.49977374  0.74983102  1
