# generated using pymatgen
data_Li2MoP4O13
_symmetry_space_group_name_H-M   'P 1'
_cell_length_a   5.31892870
_cell_length_b   8.21649145
_cell_length_c   14.26193027
_cell_angle_alpha   82.11554280
_cell_angle_beta   72.80097690
_cell_angle_gamma   80.23275235
_symmetry_Int_Tables_number   1
_chemical_formula_structural   Li2MoP4O13
_chemical_formula_sum   'Li4 Mo2 P8 O26'
_cell_volume   584.27461431
_cell_formula_units_Z   2
loop_
 _symmetry_equiv_pos_site_id
 _symmetry_equiv_pos_as_xyz
  1  'x, y, z'
loop_
 _atom_site_type_symbol
 _atom_site_label
 _atom_site_symmetry_multiplicity
 _atom_site_fract_x
 _atom_site_fract_y
 _atom_site_fract_z
 _atom_site_occupancy
  Li  Li0  1  0.00053211  0.34042469  0.98542977  1
  Li  Li1  1  0.25292048  0.46380597  0.50728766  1
  Li  Li2  1  0.74707956  0.53619414  0.49271191  1
  Li  Li3  1  0.99946853  0.65957421  0.01457008  1
  Mo  Mo4  1  0.37606034  0.07538165  0.26645609  1
  Mo  Mo5  1  0.62393841  0.92461940  0.73354441  1
  P  P6  1  0.99148121  0.09853879  0.84022655  1
  P  P7  1  0.78730785  0.30590794  0.68754778  1
  P  P8  1  0.00851933  0.90146115  0.15977252  1
  P  P9  1  0.21269330  0.69409209  0.31245264  1
  P  P10  1  0.24654289  0.74737050  0.63647669  1
  P  P11  1  0.75345704  0.25263033  0.36352374  1
  P  P12  1  0.61677216  0.43840876  0.18838043  1
  P  P13  1  0.38322829  0.56159022  0.81162062  1
  O  O14  1  0.20734297  0.51722294  0.91202462  1
  O  O15  1  0.00689036  0.23792578  0.74422554  1
  O  O16  1  0.17263918  0.03085216  0.17381769  1
  O  O17  1  0.99311113  0.76207424  0.25577375  1
  O  O18  1  0.12091360  0.81528633  0.06817330  1
  O  O19  1  0.03481027  0.17115695  0.36400185  1
  O  O20  1  0.10235263  0.57210571  0.39625106  1
  O  O21  1  0.19859791  0.62823362  0.74065579  1
  O  O22  1  0.28026937  0.01639858  0.82738894  1
  O  O23  1  0.42528700  0.31617535  0.19648352  1
  O  O24  1  0.82736033  0.96914780  0.82618135  1
  O  O25  1  0.38276912  0.64018566  0.55403478  1
  O  O26  1  0.45611976  0.60904245  0.22871840  1
  O  O27  1  0.31837129  0.83854433  0.33737031  1
  O  O28  1  0.41136635  0.87994934  0.64464056  1
  O  O29  1  0.58863352  0.12005134  0.35536024  1
  O  O30  1  0.87908631  0.18471357  0.93182635  1
  O  O31  1  0.54388281  0.39095710  0.77128245  1
  O  O32  1  0.61723223  0.35981358  0.44596418  1
  O  O33  1  0.79265699  0.48277646  0.08797571  1
  O  O34  1  0.57471283  0.68382509  0.80351684  1
  O  O35  1  0.71973115  0.98360057  0.17261081  1
  O  O36  1  0.80140320  0.37176423  0.25934424  1
  O  O37  1  0.89764554  0.42789492  0.60374911  1
  O  O38  1  0.96519200  0.82884246  0.63599852  1
  O  O39  1  0.68162964  0.16145560  0.66263020  1
