# generated using pymatgen
data_Dy(Mo3S4)2
_symmetry_space_group_name_H-M   'P 1'
_cell_length_a   6.50568134
_cell_length_b   6.50568169
_cell_length_c   6.50568134
_cell_angle_alpha   89.40735283
_cell_angle_beta   90.59265357
_cell_angle_gamma   90.59264717
_symmetry_Int_Tables_number   1
_chemical_formula_structural   Dy(Mo3S4)2
_chemical_formula_sum   'Dy1 Mo6 S8'
_cell_volume   275.30186739
_cell_formula_units_Z   1
loop_
 _symmetry_equiv_pos_site_id
 _symmetry_equiv_pos_as_xyz
  1  'x, y, z'
loop_
 _atom_site_type_symbol
 _atom_site_label
 _atom_site_symmetry_multiplicity
 _atom_site_fract_x
 _atom_site_fract_y
 _atom_site_fract_z
 _atom_site_occupancy
  Dy  Dy0  1  0.00000000  -0.00000000  -0.00000000  1
  Mo  Mo1  1  0.42005307  0.43960741  0.77643046  1
  Mo  Mo2  1  0.22356954  0.57994693  0.43960741  1
  Mo  Mo3  1  0.56039259  0.77643046  0.57994693  1
  Mo  Mo4  1  0.57994693  0.56039259  0.22356954  1
  Mo  Mo5  1  0.77643046  0.42005307  0.56039259  1
  Mo  Mo6  1  0.43960741  0.22356954  0.42005307  1
  S  S7  1  0.23843969  0.76156031  0.76156031  1
  S  S8  1  0.76156031  0.23843969  0.23843969  1
  S  S9  1  0.36830430  0.87189673  0.24855231  1
  S  S10  1  0.75144769  0.63169570  0.87189673  1
  S  S11  1  0.12810327  0.24855231  0.63169570  1
  S  S12  1  0.63169570  0.12810327  0.75144769  1
  S  S13  1  0.24855231  0.36830430  0.12810327  1
  S  S14  1  0.87189673  0.75144769  0.36830430  1
