# generated using pymatgen
data_MnTeMoO6
_symmetry_space_group_name_H-M   'P 1'
_cell_length_a   5.30361053
_cell_length_b   5.30361053
_cell_length_c   9.28707830
_cell_angle_alpha   90.00000000
_cell_angle_beta   90.00000000
_cell_angle_gamma   90.00000000
_symmetry_Int_Tables_number   1
_chemical_formula_structural   MnTeMoO6
_chemical_formula_sum   'Mn2 Te2 Mo2 O12'
_cell_volume   261.22958203
_cell_formula_units_Z   2
loop_
 _symmetry_equiv_pos_site_id
 _symmetry_equiv_pos_as_xyz
  1  'x, y, z'
loop_
 _atom_site_type_symbol
 _atom_site_label
 _atom_site_symmetry_multiplicity
 _atom_site_fract_x
 _atom_site_fract_y
 _atom_site_fract_z
 _atom_site_occupancy
  Mn  Mn0  1  0.00000000  -0.00000000  -0.00000000  1
  Mn  Mn1  1  0.50000000  0.50000000  -0.00000000  1
  Te  Te2  1  0.00000000  0.50000000  0.75583732  1
  Te  Te3  1  0.50000000  0.00000000  0.24416268  1
  Mo  Mo4  1  0.50000000  0.00000000  0.69139234  1
  Mo  Mo5  1  -0.00000000  0.50000000  0.30860766  1
  O  O6  1  0.31419311  0.81419311  0.57910032  1
  O  O7  1  0.18580689  0.31419311  0.42089968  1
  O  O8  1  0.68580689  0.18580689  0.57910032  1
  O  O9  1  0.81419311  0.68580689  0.42089968  1
  O  O10  1  0.28148832  0.21851168  0.79378543  1
  O  O11  1  0.21851168  0.71851168  0.20621457  1
  O  O12  1  0.71851168  0.78148832  0.79378543  1
  O  O13  1  0.78148832  0.28148832  0.20621457  1
  O  O14  1  0.80812309  0.30812309  0.89296335  1
  O  O15  1  0.69187691  0.80812309  0.10703665  1
  O  O16  1  0.19187691  0.69187691  0.89296335  1
  O  O17  1  0.30812309  0.19187691  0.10703665  1
