# generated using pymatgen
data_Tm3Ga8Rh3
_symmetry_space_group_name_H-M   'P 1'
_cell_length_a   4.18311138
_cell_length_b   8.12651044
_cell_length_c   8.12651044
_cell_angle_alpha   75.13994199
_cell_angle_beta   75.08567525
_cell_angle_gamma   75.08567525
_symmetry_Int_Tables_number   1
_chemical_formula_structural   Tm3Ga8Rh3
_chemical_formula_sum   'Tm3 Ga8 Rh3'
_cell_volume   252.54488013
_cell_formula_units_Z   1
loop_
 _symmetry_equiv_pos_site_id
 _symmetry_equiv_pos_as_xyz
  1  'x, y, z'
loop_
 _atom_site_type_symbol
 _atom_site_label
 _atom_site_symmetry_multiplicity
 _atom_site_fract_x
 _atom_site_fract_y
 _atom_site_fract_z
 _atom_site_occupancy
  Tm  Tm0  1  0.50000000  0.50000000  0.50000000  1
  Tm  Tm1  1  0.17149471  0.82850529  0.82850529  1
  Tm  Tm2  1  0.82850529  0.17149471  0.17149471  1
  Ga  Ga3  1  0.37430992  0.33951642  0.91186373  1
  Ga  Ga4  1  0.62569008  0.66048358  0.08813627  1
  Ga  Ga5  1  0.37430992  0.91186373  0.33951642  1
  Ga  Ga6  1  0.62569008  0.08813627  0.66048358  1
  Ga  Ga7  1  0.16429160  0.46319657  0.20822022  1
  Ga  Ga8  1  0.83570840  0.53680343  0.79177978  1
  Ga  Ga9  1  0.16429160  0.20822022  0.46319657  1
  Ga  Ga10  1  0.83570840  0.79177978  0.53680343  1
  Rh  Rh11  1  0.50000000  -0.00000000  0.00000000  1
  Rh  Rh12  1  -0.00000000  0.78683330  0.21316670  1
  Rh  Rh13  1  0.00000000  0.21316670  0.78683330  1
