# generated using pymatgen
data_Ca(FeO2)2
_symmetry_space_group_name_H-M   'P 1'
_cell_length_a   3.04875135
_cell_length_b   8.64973855
_cell_length_c   7.47063593
_cell_angle_alpha   69.19366975
_cell_angle_beta   78.15412656
_cell_angle_gamma   79.74373653
_symmetry_Int_Tables_number   1
_chemical_formula_structural   Ca(FeO2)2
_chemical_formula_sum   'Ca2 Fe4 O8'
_cell_volume   179.04383972
_cell_formula_units_Z   2
loop_
 _symmetry_equiv_pos_site_id
 _symmetry_equiv_pos_as_xyz
  1  'x, y, z'
loop_
 _atom_site_type_symbol
 _atom_site_label
 _atom_site_symmetry_multiplicity
 _atom_site_fract_x
 _atom_site_fract_y
 _atom_site_fract_z
 _atom_site_occupancy
  Ca  Ca0  1  0.34110648  0.15506539  0.16255060  1
  Ca  Ca1  1  0.64613405  0.82390454  0.88172361  1
  Fe  Fe2  1  0.58948911  0.20176650  0.62783158  1
  Fe  Fe3  1  0.14754754  0.49581874  0.20349561  1
  Fe  Fe4  1  0.85155464  0.48223348  0.82459344  1
  Fe  Fe5  1  0.40616174  0.77375318  0.40525018  1
  O  O6  1  0.87065387  0.67274892  0.57882462  1
  O  O7  1  0.43842663  0.33136870  0.80331738  1
  O  O8  1  0.55885137  0.64765535  0.22488332  1
  O  O9  1  0.13425726  0.29426381  0.44509568  1
  O  O10  1  0.10428130  0.03337539  0.75694887  1
  O  O11  1  0.75908501  0.36415568  0.11807817  1
  O  O12  1  0.88321957  0.94532789  0.28485701  1
  O  O13  1  0.23750943  0.61789743  0.90816895  1
