# generated using pymatgen
data_BaCa2Mg(SiO4)2
_symmetry_space_group_name_H-M   'P 1'
_cell_length_a   5.48467890
_cell_length_b   5.48468691
_cell_length_c   6.89719864
_cell_angle_alpha   90.00043907
_cell_angle_beta   90.00070952
_cell_angle_gamma   120.00146357
_symmetry_Int_Tables_number   1
_chemical_formula_structural   BaCa2Mg(SiO4)2
_chemical_formula_sum   'Ba1 Ca2 Mg1 Si2 O8'
_cell_volume   179.68011135
_cell_formula_units_Z   1
loop_
 _symmetry_equiv_pos_site_id
 _symmetry_equiv_pos_as_xyz
  1  'x, y, z'
loop_
 _atom_site_type_symbol
 _atom_site_label
 _atom_site_symmetry_multiplicity
 _atom_site_fract_x
 _atom_site_fract_y
 _atom_site_fract_z
 _atom_site_occupancy
  Ba  Ba0  1  0.00000000  0.00000000  0.50000000  1
  Ca  Ca1  1  0.33334400  0.66667328  0.83833042  1
  Ca  Ca2  1  0.66665600  0.33332672  0.16166958  1
  Mg  Mg3  1  0.00000000  0.00000000  0.00000000  1
  Si  Si4  1  0.33334152  0.66667229  0.27227165  1
  Si  Si5  1  0.66665848  0.33332771  0.72772835  1
  O  O6  1  0.33335724  0.66667752  0.50753263  1
  O  O7  1  0.66664276  0.33332248  0.49246737  1
  O  O8  1  0.64599375  0.88305402  0.17585509  1
  O  O9  1  0.11695414  0.76294321  0.17587042  1
  O  O10  1  0.23705986  0.35401130  0.17586257  1
  O  O11  1  0.35400625  0.11694598  0.82414491  1
  O  O12  1  0.88304586  0.23705679  0.82412958  1
  O  O13  1  0.76294014  0.64598870  0.82413743  1
