# generated using pymatgen
data_V3O5F
_symmetry_space_group_name_H-M   'P 1'
_cell_length_a   4.59041544
_cell_length_b   4.59041544
_cell_length_c   9.16504874
_cell_angle_alpha   90.00000000
_cell_angle_beta   90.00000000
_cell_angle_gamma   92.02581506
_symmetry_Int_Tables_number   1
_chemical_formula_structural   V3O5F
_chemical_formula_sum   'V6 O10 F2'
_cell_volume   193.00441485
_cell_formula_units_Z   2
loop_
 _symmetry_equiv_pos_site_id
 _symmetry_equiv_pos_as_xyz
  1  'x, y, z'
loop_
 _atom_site_type_symbol
 _atom_site_label
 _atom_site_symmetry_multiplicity
 _atom_site_fract_x
 _atom_site_fract_y
 _atom_site_fract_z
 _atom_site_occupancy
  V  V0  1  0.00800087  0.99199913  0.01041421  1
  V  V1  1  0.00800087  0.99199913  0.32291879  1
  V  V2  1  0.00897137  0.99102863  0.66666700  1
  V  V3  1  0.51010980  0.48989020  0.16666700  1
  V  V4  1  0.47053259  0.52946741  0.83217181  1
  V  V5  1  0.47053259  0.52946741  0.50116119  1
  O  O6  1  0.20261853  0.79738147  0.16666700  1
  O  O7  1  0.19984715  0.80015285  0.49799306  1
  O  O8  1  0.19984715  0.80015285  0.83533994  1
  O  O9  1  0.30328817  0.29688198  0.99602116  1
  O  O10  1  0.30328817  0.29688198  0.33731284  1
  O  O11  1  0.30924738  0.30439931  0.66666700  1
  O  O12  1  0.70311802  0.69671183  0.99602116  1
  O  O13  1  0.70311802  0.69671183  0.33731284  1
  O  O14  1  0.69560069  0.69075262  0.66666700  1
  O  O15  1  0.80578624  0.19421376  0.16666700  1
  F  F16  1  0.79904670  0.20095330  0.83497909  1
  F  F17  1  0.79904670  0.20095330  0.49835391  1
