# generated using pymatgen
data_Sm3Al11
_symmetry_space_group_name_H-M   'P 1'
_cell_length_a   4.32648067
_cell_length_b   8.45600642
_cell_length_c   8.45600642
_cell_angle_alpha   72.55860616
_cell_angle_beta   75.17764284
_cell_angle_gamma   75.17764284
_symmetry_Int_Tables_number   1
_chemical_formula_structural   Sm3Al11
_chemical_formula_sum   'Sm3 Al11'
_cell_volume   279.88234505
_cell_formula_units_Z   1
loop_
 _symmetry_equiv_pos_site_id
 _symmetry_equiv_pos_as_xyz
  1  'x, y, z'
loop_
 _atom_site_type_symbol
 _atom_site_label
 _atom_site_symmetry_multiplicity
 _atom_site_fract_x
 _atom_site_fract_y
 _atom_site_fract_z
 _atom_site_occupancy
  Sm  Sm0  1  -0.00000000  0.00000000  -0.00000000  1
  Sm  Sm1  1  0.31742808  0.68257192  0.68257192  1
  Sm  Sm2  1  0.68257192  0.31742808  0.31742808  1
  Al  Al3  1  -0.00000000  0.50000000  0.50000000  1
  Al  Al4  1  0.50000000  0.28479942  0.71520058  1
  Al  Al5  1  0.50000000  0.71520058  0.28479942  1
  Al  Al6  1  0.33410338  0.29560311  0.03619014  1
  Al  Al7  1  0.66589662  0.70439689  0.96380986  1
  Al  Al8  1  0.33410338  0.03619014  0.29560311  1
  Al  Al9  1  0.66589662  0.96380986  0.70439689  1
  Al  Al10  1  0.13714464  0.58856680  0.13714392  1
  Al  Al11  1  0.86285536  0.41143320  0.86285608  1
  Al  Al12  1  0.13714464  0.13714392  0.58856680  1
  Al  Al13  1  0.86285536  0.86285608  0.41143320  1
