# generated using pymatgen
data_Rb2TiHgF6
_symmetry_space_group_name_H-M   'P 1'
_cell_length_a   6.86239323
_cell_length_b   6.86239331
_cell_length_c   6.86239331
_cell_angle_alpha   59.99999974
_cell_angle_beta   59.99999956
_cell_angle_gamma   59.99999961
_symmetry_Int_Tables_number   1
_chemical_formula_structural   Rb2TiHgF6
_chemical_formula_sum   'Rb2 Ti1 Hg1 F6'
_cell_volume   228.51347246
_cell_formula_units_Z   1
loop_
 _symmetry_equiv_pos_site_id
 _symmetry_equiv_pos_as_xyz
  1  'x, y, z'
loop_
 _atom_site_type_symbol
 _atom_site_label
 _atom_site_symmetry_multiplicity
 _atom_site_fract_x
 _atom_site_fract_y
 _atom_site_fract_z
 _atom_site_occupancy
  Rb  Rb0  1  0.25000000  0.25000000  0.25000000  1
  Rb  Rb1  1  0.75000000  0.75000000  0.75000000  1
  Ti  Ti2  1  0.00000000  -0.00000000  -0.00000000  1
  Hg  Hg3  1  0.50000000  0.50000000  0.50000000  1
  F  F4  1  0.19510035  0.80489965  0.19510036  1
  F  F5  1  0.80489965  0.80489964  0.19510035  1
  F  F6  1  0.80489965  0.19510035  0.80489964  1
  F  F7  1  0.80489965  0.19510035  0.19510035  1
  F  F8  1  0.19510035  0.80489965  0.80489965  1
  F  F9  1  0.19510035  0.19510036  0.80489965  1
