# generated using pymatgen
data_Sm5Ga3
_symmetry_space_group_name_H-M   'P 1'
_cell_length_a   7.78439904
_cell_length_b   7.78439904
_cell_length_c   9.10320267
_cell_angle_alpha   115.31304900
_cell_angle_beta   115.31304900
_cell_angle_gamma   90.00000000
_symmetry_Int_Tables_number   1
_chemical_formula_structural   Sm5Ga3
_chemical_formula_sum   'Sm10 Ga6'
_cell_volume   439.35807254
_cell_formula_units_Z   2
loop_
 _symmetry_equiv_pos_site_id
 _symmetry_equiv_pos_as_xyz
  1  'x, y, z'
loop_
 _atom_site_type_symbol
 _atom_site_label
 _atom_site_symmetry_multiplicity
 _atom_site_fract_x
 _atom_site_fract_y
 _atom_site_fract_z
 _atom_site_occupancy
  Sm  Sm0  1  0.50000000  0.50000000  -0.00000000  1
  Sm  Sm1  1  -0.00000000  0.00000000  -0.00000000  1
  Sm  Sm2  1  0.02339576  0.52339576  0.70381820  1
  Sm  Sm3  1  0.68042244  0.18042244  0.70381820  1
  Sm  Sm4  1  0.18042244  0.02339576  0.70381820  1
  Sm  Sm5  1  0.52339576  0.68042244  0.70381820  1
  Sm  Sm6  1  0.97660424  0.47660424  0.29618180  1
  Sm  Sm7  1  0.31957756  0.81957756  0.29618180  1
  Sm  Sm8  1  0.81957756  0.97660424  0.29618180  1
  Sm  Sm9  1  0.47660424  0.31957756  0.29618180  1
  Ga  Ga10  1  0.25000000  0.25000000  0.50000000  1
  Ga  Ga11  1  0.75000000  0.75000000  0.50000000  1
  Ga  Ga12  1  0.38011962  0.88011962  -0.00000000  1
  Ga  Ga13  1  0.61988038  0.11988038  -0.00000000  1
  Ga  Ga14  1  0.11988038  0.38011962  -0.00000000  1
  Ga  Ga15  1  0.88011962  0.61988038  -0.00000000  1
