# generated using pymatgen
data_V6Zn(FeO6)4
_symmetry_space_group_name_H-M   'P 1'
_cell_length_a   6.74799700
_cell_length_b   8.32041887
_cell_length_c   10.00335075
_cell_angle_alpha   107.20344173
_cell_angle_beta   105.22841775
_cell_angle_gamma   103.66113596
_symmetry_Int_Tables_number   1
_chemical_formula_structural   V6Zn(FeO6)4
_chemical_formula_sum   'V6 Zn1 Fe4 O24'
_cell_volume   486.74373436
_cell_formula_units_Z   1
loop_
 _symmetry_equiv_pos_site_id
 _symmetry_equiv_pos_as_xyz
  1  'x, y, z'
loop_
 _atom_site_type_symbol
 _atom_site_label
 _atom_site_symmetry_multiplicity
 _atom_site_fract_x
 _atom_site_fract_y
 _atom_site_fract_z
 _atom_site_occupancy
  V  V0  1  0.88750533  0.89138223  0.66090773  1
  V  V1  1  0.11249467  0.10861777  0.33909227  1
  V  V2  1  0.20597826  0.66214726  0.26691066  1
  V  V3  1  0.79402174  0.33785274  0.73308934  1
  V  V4  1  0.60918319  0.25838055  0.13747815  1
  V  V5  1  0.39081681  0.74161945  0.86252185  1
  Zn  Zn6  1  0.00000000  0.50000000  0.50000000  1
  Fe  Fe7  1  0.37514024  0.96093347  0.60602038  1
  Fe  Fe8  1  0.62485976  0.03906653  0.39397962  1
  Fe  Fe9  1  0.05013000  0.20571295  0.01203101  1
  Fe  Fe10  1  0.94987000  0.79428705  0.98796899  1
  O  O11  1  0.06925323  0.05788855  0.14385527  1
  O  O12  1  0.93074677  0.94211145  0.85614473  1
  O  O13  1  0.55430755  0.10873179  0.22446009  1
  O  O14  1  0.44569245  0.89126821  0.77553991  1
  O  O15  1  0.16792292  0.44126141  0.17811519  1
  O  O16  1  0.83207708  0.55873859  0.82188481  1
  O  O17  1  0.99041928  0.27797190  0.84085969  1
  O  O18  1  0.00958072  0.72202810  0.15914031  1
  O  O19  1  0.24232937  0.80379947  0.97855148  1
  O  O20  1  0.75767063  0.19620053  0.02144852  1
  O  O21  1  0.88201733  0.99500615  0.35807145  1
  O  O22  1  0.11798267  0.00499385  0.64192855  1
  O  O23  1  0.54275981  0.21879833  0.72930738  1
  O  O24  1  0.45724019  0.78120167  0.27069262  1
  O  O25  1  0.35743368  0.25324364  0.02719589  1
  O  O26  1  0.64256632  0.74675636  0.97280411  1
  O  O27  1  0.34047101  0.04861445  0.43067827  1
  O  O28  1  0.65952899  0.95138555  0.56932173  1
  O  O29  1  0.21103745  0.71155815  0.45690566  1
  O  O30  1  0.78896255  0.28844185  0.54309434  1
  O  O31  1  0.77331981  0.45653318  0.28316315  1
  O  O32  1  0.22668019  0.54346682  0.71683685  1
  O  O33  1  0.14699235  0.32705262  0.41683391  1
  O  O34  1  0.85300765  0.67294738  0.58316609  1
