# generated using pymatgen
data_Hf3Fe2Si3
_symmetry_space_group_name_H-M   'P 1'
_cell_length_a   3.85383252
_cell_length_b   5.31724236
_cell_length_c   12.85682943
_cell_angle_alpha   90.00000000
_cell_angle_beta   90.00000000
_cell_angle_gamma   111.24705105
_symmetry_Int_Tables_number   1
_chemical_formula_structural   Hf3Fe2Si3
_chemical_formula_sum   'Hf6 Fe4 Si6'
_cell_volume   245.55085255
_cell_formula_units_Z   2
loop_
 _symmetry_equiv_pos_site_id
 _symmetry_equiv_pos_as_xyz
  1  'x, y, z'
loop_
 _atom_site_type_symbol
 _atom_site_label
 _atom_site_symmetry_multiplicity
 _atom_site_fract_x
 _atom_site_fract_y
 _atom_site_fract_z
 _atom_site_occupancy
  Hf  Hf0  1  0.07796775  0.15593549  0.38664298  1
  Hf  Hf1  1  0.92203225  0.84406451  0.61335702  1
  Hf  Hf2  1  0.07796775  0.15593549  0.11335702  1
  Hf  Hf3  1  0.92203225  0.84406451  0.88664298  1
  Hf  Hf4  1  0.36316505  0.72633011  0.25000000  1
  Hf  Hf5  1  0.63683495  0.27366989  0.75000000  1
  Fe  Fe6  1  0.21972284  0.43944567  0.91847338  1
  Fe  Fe7  1  0.78027716  0.56055433  0.08152662  1
  Fe  Fe8  1  0.21972284  0.43944567  0.58152662  1
  Fe  Fe9  1  0.78027716  0.56055433  0.41847338  1
  Si  Si10  1  0.38834877  0.77669755  0.45756476  1
  Si  Si11  1  0.61165123  0.22330245  0.54243524  1
  Si  Si12  1  0.38834877  0.77669755  0.04243524  1
  Si  Si13  1  0.61165123  0.22330245  0.95756476  1
  Si  Si14  1  0.66356081  0.32712162  0.25000000  1
  Si  Si15  1  0.33643919  0.67287838  0.75000000  1
