# generated using pymatgen
data_Ba6ZnCo5(SiO4)6
_symmetry_space_group_name_H-M   'P 1'
_cell_length_a   8.83792288
_cell_length_b   9.23621867
_cell_length_c   9.22677375
_cell_angle_alpha   120.00092030
_cell_angle_beta   89.98264894
_cell_angle_gamma   90.03779666
_symmetry_Int_Tables_number   1
_chemical_formula_structural   Ba6ZnCo5(SiO4)6
_chemical_formula_sum   'Ba6 Zn1 Co5 Si6 O24'
_cell_volume   652.26007290
_cell_formula_units_Z   1
loop_
 _symmetry_equiv_pos_site_id
 _symmetry_equiv_pos_as_xyz
  1  'x, y, z'
loop_
 _atom_site_type_symbol
 _atom_site_label
 _atom_site_symmetry_multiplicity
 _atom_site_fract_x
 _atom_site_fract_y
 _atom_site_fract_z
 _atom_site_occupancy
  Ba  Ba0  1  0.77809034  0.33309542  0.66631780  1
  Ba  Ba1  1  0.27767899  0.66624780  0.33295315  1
  Ba  Ba2  1  0.77046642  0.66692465  0.33368403  1
  Ba  Ba3  1  0.27036281  0.33346846  0.66753514  1
  Ba  Ba4  1  0.75046216  0.99973132  0.00010267  1
  Ba  Ba5  1  0.25043581  0.00045949  0.99943527  1
  Zn  Zn6  1  0.46621930  0.31939653  0.98939987  1
  Co  Co7  1  0.96434302  0.98858316  0.67034617  1
  Co  Co8  1  0.46414815  0.66972113  0.68134446  1
  Co  Co9  1  0.96418203  0.68158270  0.01150535  1
  Co  Co10  1  0.46405625  0.01141989  0.32978781  1
  Co  Co11  1  0.96435438  0.32972194  0.31818855  1
  Si  Si12  1  0.56771360  0.34010218  0.32883962  1
  Si  Si13  1  0.06735652  0.32921284  0.98897481  1
  Si  Si14  1  0.56735831  0.98890357  0.66039112  1
  Si  Si15  1  0.06747107  0.65989195  0.67089015  1
  Si  Si16  1  0.56734767  0.67077650  0.01070585  1
  Si  Si17  1  0.06754943  0.01099130  0.34004522  1
  O  O18  1  0.47684365  0.23619928  0.14839942  1
  O  O19  1  0.97541572  0.15002004  0.91266409  1
  O  O20  1  0.47578638  0.91164882  0.76264283  1
  O  O21  1  0.97567287  0.76273338  0.85035490  1
  O  O22  1  0.47566637  0.85004619  0.08740213  1
  O  O23  1  0.97570480  0.08760952  0.23736319  1
  O  O24  1  0.51030467  0.53574663  0.43933186  1
  O  O25  1  0.00995137  0.44002061  0.90381485  1
  O  O26  1  0.51046763  0.90422335  0.46421192  1
  O  O27  1  0.01039270  0.46393898  0.56006593  1
  O  O28  1  0.50936609  0.56074264  0.09667680  1
  O  O29  1  0.01051666  0.09620869  0.53624631  1
  O  O30  1  0.54942092  0.23982375  0.43402048  1
  O  O31  1  0.04962169  0.43458572  0.19462331  1
  O  O32  1  0.54900667  0.19437608  0.76072831  1
  O  O33  1  0.04953791  0.76017182  0.56561415  1
  O  O34  1  0.54976360  0.56520600  0.80514456  1
  O  O35  1  0.04957334  0.80560497  0.24002705  1
  O  O36  1  0.24623418  0.28070262  0.93484282  1
  O  O37  1  0.74634180  0.93550016  0.65509884  1
  O  O38  1  0.24643322  0.65488529  0.71975753  1
  O  O39  1  0.74622892  0.71925775  0.06496855  1
  O  O40  1  0.24655034  0.06501535  0.34508872  1
  O  O41  1  0.74660225  0.34543553  0.28043141  1
