# generated using pymatgen
data_Cu6SnO8
_symmetry_space_group_name_H-M   'P 1'
_cell_length_a   6.53824191
_cell_length_b   6.54700663
_cell_length_c   6.55218707
_cell_angle_alpha   59.89347946
_cell_angle_beta   59.84442235
_cell_angle_gamma   59.83167048
_symmetry_Int_Tables_number   1
_chemical_formula_structural   Cu6SnO8
_chemical_formula_sum   'Cu6 Sn1 O8'
_cell_volume   197.67805313
_cell_formula_units_Z   1
loop_
 _symmetry_equiv_pos_site_id
 _symmetry_equiv_pos_as_xyz
  1  'x, y, z'
loop_
 _atom_site_type_symbol
 _atom_site_label
 _atom_site_symmetry_multiplicity
 _atom_site_fract_x
 _atom_site_fract_y
 _atom_site_fract_z
 _atom_site_occupancy
  Cu  Cu0  1  0.50000000  -0.00000050  0.49999842  1
  Cu  Cu1  1  0.50000178  0.50000028  -0.00000035  1
  Cu  Cu2  1  0.99999839  0.50000111  0.49999969  1
  Cu  Cu3  1  0.99999828  0.50000053  0.00000179  1
  Cu  Cu4  1  0.00000098  0.00000093  0.49999829  1
  Cu  Cu5  1  0.50000214  0.99999790  0.00000099  1
  Sn  Sn6  1  0.49999874  0.49999941  0.50000123  1
  O  O7  1  0.63967656  0.07902133  0.64050440  1
  O  O8  1  0.07912080  0.63995904  0.64033761  1
  O  O9  1  0.63987792  0.64033099  0.07886651  1
  O  O10  1  0.92087661  0.36004165  0.35966424  1
  O  O11  1  0.63996242  0.64045576  0.64075960  1
  O  O12  1  0.36003661  0.35954580  0.35923961  1
  O  O13  1  0.36032531  0.92097537  0.35949504  1
  O  O14  1  0.36012347  0.35966841  0.92113293  1
