# generated using pymatgen
data_AgBiS2
_symmetry_space_group_name_H-M   'P 1'
_cell_length_a   4.04844029
_cell_length_b   4.04844143
_cell_length_c   19.11027719
_cell_angle_alpha   90.00000000
_cell_angle_beta   90.00000000
_cell_angle_gamma   120.00000145
_symmetry_Int_Tables_number   1
_chemical_formula_structural   AgBiS2
_chemical_formula_sum   'Ag3 Bi3 S6'
_cell_volume   271.25216321
_cell_formula_units_Z   3
loop_
 _symmetry_equiv_pos_site_id
 _symmetry_equiv_pos_as_xyz
  1  'x, y, z'
loop_
 _atom_site_type_symbol
 _atom_site_label
 _atom_site_symmetry_multiplicity
 _atom_site_fract_x
 _atom_site_fract_y
 _atom_site_fract_z
 _atom_site_occupancy
  Ag  Ag0  1  0.33333300  0.66666700  0.66870313  1
  Ag  Ag1  1  0.66666700  0.33333300  0.33129687  1
  Ag  Ag2  1  0.00000000  0.00000000  -0.00000000  1
  Bi  Bi3  1  0.66666700  0.33333300  0.83492924  1
  Bi  Bi4  1  0.33333300  0.66666700  0.16507076  1
  Bi  Bi5  1  0.00000000  0.00000000  0.50000000  1
  S  S6  1  0.66666700  0.33333300  0.58645518  1
  S  S7  1  0.00000000  0.00000000  0.74921918  1
  S  S8  1  0.33333300  0.66666700  0.92071461  1
  S  S9  1  -0.00000000  0.00000000  0.25078082  1
  S  S10  1  0.66666700  0.33333300  0.07928539  1
  S  S11  1  0.33333300  0.66666700  0.41354482  1
