# generated using pymatgen
data_Al5Cu3Si6(O7F2)3
_symmetry_space_group_name_H-M   'P 1'
_cell_length_a   14.54149767
_cell_length_b   8.90176452
_cell_length_c   14.06366493
_cell_angle_alpha   90.01824209
_cell_angle_beta   90.01021415
_cell_angle_gamma   90.03413457
_symmetry_Int_Tables_number   1
_chemical_formula_structural   Al5Cu3Si6(O7F2)3
_chemical_formula_sum   'Al20 Cu12 Si24 O84 F24'
_cell_volume   1820.47049539
_cell_formula_units_Z   4
loop_
 _symmetry_equiv_pos_site_id
 _symmetry_equiv_pos_as_xyz
  1  'x, y, z'
loop_
 _atom_site_type_symbol
 _atom_site_label
 _atom_site_symmetry_multiplicity
 _atom_site_fract_x
 _atom_site_fract_y
 _atom_site_fract_z
 _atom_site_occupancy
  Al  Al0  1  0.19559120  0.38312901  0.95457175  1
  Al  Al1  1  0.53192544  0.36882423  0.95132025  1
  Al  Al2  1  0.86348272  0.36909503  0.95263047  1
  Al  Al3  1  0.30152322  0.86880405  0.54855119  1
  Al  Al4  1  0.63769467  0.88314536  0.54534797  1
  Al  Al5  1  0.96964624  0.86907436  0.54748170  1
  Al  Al6  1  0.03607765  0.13725817  0.45270711  1
  Al  Al7  1  0.36294771  0.13727526  0.45376818  1
  Al  Al8  1  0.29740486  0.86276253  0.95255859  1
  Al  Al9  1  0.97029284  0.86269121  0.95375543  1
  Al  Al10  1  0.47020902  0.63701280  0.04644101  1
  Al  Al11  1  0.79755334  0.63695545  0.04719992  1
  Al  Al12  1  0.13788714  0.61658399  0.45467631  1
  Al  Al13  1  0.46967195  0.63093385  0.45257729  1
  Al  Al14  1  0.80144938  0.63118901  0.45173524  1
  Al  Al15  1  0.03192767  0.13128570  0.04843424  1
  Al  Al16  1  0.36362332  0.13092314  0.04746615  1
  Al  Al17  1  0.69597671  0.11726531  0.04528182  1
  Al  Al18  1  0.53590766  0.36276750  0.54752266  1
  Al  Al19  1  0.86288213  0.36285230  0.54619161  1
  Cu  Cu20  1  0.28504515  0.84939236  0.74937214  1
  Cu  Cu21  1  0.61764200  0.85008886  0.75256127  1
  Cu  Cu22  1  0.95223641  0.85315644  0.75005777  1
  Cu  Cu23  1  0.11757942  0.64993975  0.24762265  1
  Cu  Cu24  1  0.45221971  0.64681635  0.24995749  1
  Cu  Cu25  1  0.78503020  0.65083913  0.25064458  1
  Cu  Cu26  1  0.21577195  0.35000937  0.74729043  1
  Cu  Cu27  1  0.54830013  0.34927625  0.75066108  1
  Cu  Cu28  1  0.88109669  0.35318778  0.74987386  1
  Cu  Cu29  1  0.04832451  0.15060876  0.24938158  1
  Cu  Cu30  1  0.38112563  0.14684079  0.25009560  1
  Cu  Cu31  1  0.71577041  0.15002613  0.25263631  1
  Si  Si32  1  0.03246117  0.55847936  0.85221720  1
  Si  Si33  1  0.36593607  0.55871423  0.85179049  1
  Si  Si34  1  0.69791589  0.56387037  0.85222752  1
  Si  Si35  1  0.13521643  0.06042546  0.85132450  1
  Si  Si36  1  0.46855961  0.05463569  0.85185068  1
  Si  Si37  1  0.80421957  0.05978429  0.85317325  1
  Si  Si38  1  0.19787935  0.93969813  0.35143581  1
  Si  Si39  1  0.52911544  0.94017098  0.35298481  1
  Si  Si40  1  0.86457496  0.94550983  0.35197460  1
  Si  Si41  1  0.30088765  0.44134349  0.35223536  1
  Si  Si42  1  0.63538885  0.43630951  0.35218102  1
  Si  Si43  1  0.96750172  0.44069232  0.35178442  1
  Si  Si44  1  0.30420677  0.44013220  0.14702181  1
  Si  Si45  1  0.63530573  0.43960709  0.14851891  1
  Si  Si46  1  0.96870925  0.44498641  0.14820645  1
  Si  Si47  1  0.13529716  0.06394566  0.64774955  1
  Si  Si48  1  0.46749157  0.05887265  0.64819993  1
  Si  Si49  1  0.80088659  0.05849801  0.64777666  1
  Si  Si50  1  0.19785468  0.93658885  0.14789571  1
  Si  Si51  1  0.53233016  0.94136699  0.14784562  1
  Si  Si52  1  0.86577400  0.94101555  0.14813510  1
  Si  Si53  1  0.02911925  0.55972917  0.64682816  1
  Si  Si54  1  0.36472279  0.55435884  0.64803652  1
  Si  Si55  1  0.69801476  0.56051770  0.64859052  1
  O  O56  1  0.25351203  0.47453789  0.24802786  1
  O  O57  1  0.58439969  0.48230473  0.24981287  1
  O  O58  1  0.91356109  0.47420630  0.25051455  1
  O  O59  1  0.17411967  0.75709834  0.34898238  1
  O  O60  1  0.50559520  0.75447018  0.34938653  1
  O  O61  1  0.84287925  0.75721007  0.35158914  1
  O  O62  1  0.00837864  0.74329426  0.84957018  1
  O  O63  1  0.34325932  0.74351282  0.85001484  1
  O  O64  1  0.67754560  0.74249122  0.84562680  1
  O  O65  1  0.32772212  0.25447293  0.15052675  1
  O  O66  1  0.65932914  0.25703591  0.15102487  1
  O  O67  1  0.99029623  0.25780809  0.14826646  1
  O  O68  1  0.09891043  0.03376577  0.35014029  1
  O  O69  1  0.43066781  0.03726539  0.35229430  1
  O  O70  1  0.76631917  0.02859920  0.34383453  1
  O  O71  1  0.06505376  0.53733776  0.35064132  1
  O  O72  1  0.40154414  0.53566354  0.35248039  1
  O  O73  1  0.73388555  0.53693683  0.35260489  1
  O  O74  1  0.23404604  0.96290611  0.64728822  1
  O  O75  1  0.56509827  0.96251829  0.64948687  1
  O  O76  1  0.90160175  0.96423636  0.64752994  1
  O  O77  1  0.06704093  0.52864984  0.15601240  1
  O  O78  1  0.40273158  0.53740981  0.14757632  1
  O  O79  1  0.73444516  0.53422462  0.14982447  1
  O  O80  1  0.09953119  0.03679167  0.14734712  1
  O  O81  1  0.43177576  0.03580863  0.14737632  1
  O  O82  1  0.76814566  0.03745477  0.14936982  1
  O  O83  1  0.15577890  0.24250401  0.65454219  1
  O  O84  1  0.48984993  0.24304765  0.64966432  1
  O  O85  1  0.82493957  0.24319175  0.65049430  1
  O  O86  1  0.32493538  0.25679616  0.34951124  1
  O  O87  1  0.65581663  0.25733953  0.34552907  1
  O  O88  1  0.98989866  0.25718043  0.35001174  1
  O  O89  1  0.26578100  0.98241724  0.44036587  1
  O  O90  1  0.58679055  0.97410487  0.44529944  1
  O  O91  1  0.93396784  0.98663939  0.44103983  1
  O  O92  1  0.06746781  0.01171909  0.55993264  1
  O  O93  1  0.40187109  0.00962709  0.55868763  1
  O  O94  1  0.73706658  -0.00105362  0.56549368  1
  O  O95  1  0.26821836  0.46242148  0.85063735  1
  O  O96  1  0.59953392  0.46339932  0.85299584  1
  O  O97  1  0.93172482  0.46414340  0.85248275  1
  O  O98  1  0.26591448  0.98809735  0.05995661  1
  O  O99  1  0.59607155  0.00057787  0.06556610  1
  O  O100  1  0.93160988  0.99053354  0.05857039  1
  O  O101  1  0.09624395  0.49902732  0.93443212  1
  O  O102  1  0.43155839  0.50951866  0.94141437  1
  O  O103  1  0.76594150  0.51180681  0.94020977  1
  O  O104  1  0.24890956  0.98228632  0.25023557  1
  O  O105  1  0.57992111  0.97443418  0.25204873  1
  O  O106  1  0.91981397  0.97408730  0.24947305  1
  O  O107  1  0.24646105  0.47434874  0.05464717  1
  O  O108  1  0.56741571  0.48249053  0.05950072  1
  O  O109  1  0.89945845  0.48666219  0.05897538  1
  O  O110  1  0.23689482  0.50122852  0.43453419  1
  O  O111  1  0.56738917  0.48824593  0.44014887  1
  O  O112  1  0.90194192  0.49041663  0.44126274  1
  O  O113  1  0.08669285  0.52583825  0.55456233  1
  O  O114  1  0.43391771  0.51342454  0.55913034  1
  O  O115  1  0.76578409  0.51749494  0.55958169  1
  O  O116  1  0.07981836  0.52540973  0.74790504  1
  O  O117  1  0.41980876  0.52597370  0.75048265  1
  O  O118  1  0.74894189  0.51776412  0.74988359  1
  O  O119  1  0.26639358  0.47163155  0.65624492  1
  O  O120  1  0.59894029  0.46612329  0.64953748  1
  O  O121  1  0.93057687  0.46260204  0.64762934  1
  O  O122  1  0.06752866  0.01742395  0.94041387  1
  O  O123  1  0.39943323  0.01353134  0.94086953  1
  O  O124  1  0.74664541  0.02584179  0.94535616  1
  O  O125  1  0.15925152  0.24279178  0.84904336  1
  O  O126  1  0.49023251  0.24261443  0.85200845  1
  O  O127  1  0.82783882  0.24551129  0.84944671  1
  O  O128  1  0.17769227  0.75719679  0.15432823  1
  O  O129  1  0.50839587  0.75665935  0.15034013  1
  O  O130  1  0.84331930  0.75687264  0.15004063  1
  O  O131  1  0.23462138  0.96567260  0.85020206  1
  O  O132  1  0.56709470  0.97157408  0.84398123  1
  O  O133  1  0.90274785  0.96266519  0.85238838  1
  O  O134  1  0.08445301  0.01777085  0.75012266  1
  O  O135  1  0.41350303  0.02588792  0.74947326  1
  O  O136  1  0.75352596  0.02546169  0.75206159  1
  O  O137  1  0.00552383  0.74548841  0.65051013  1
  O  O138  1  0.34288920  0.74292901  0.64828777  1
  O  O139  1  0.67399903  0.74275175  0.65106292  1
  F  F140  1  0.13092543  0.25209955  0.03005532  1
  F  F141  1  0.46324763  0.25364701  0.03043236  1
  F  F142  1  0.79568712  0.25739429  0.03282541  1
  F  F143  1  0.03035356  0.75730817  0.03150739  1
  F  F144  1  0.36802284  0.75472630  0.03311446  1
  F  F145  1  0.70351704  0.74932163  0.03347073  1
  F  F146  1  0.20231249  0.74795248  0.53015379  1
  F  F147  1  0.53765957  0.74253012  0.53277974  1
  F  F148  1  0.87007882  0.74639592  0.53046148  1
  F  F149  1  0.30310697  0.24269758  0.53145081  1
  F  F150  1  0.62966555  0.25082441  0.53346766  1
  F  F151  1  0.96531347  0.24532392  0.53318531  1
  F  F152  1  0.20366394  0.75094426  0.96661104  1
  F  F153  1  0.53049520  0.74297382  0.96844320  1
  F  F154  1  0.86797537  0.74532732  0.96694940  1
  F  F155  1  0.12956974  0.24891902  0.46650550  1
  F  F156  1  0.46540013  0.25468970  0.46686375  1
  F  F157  1  0.80308660  0.25738769  0.46851793  1
  F  F158  1  0.03763509  0.75749994  0.46717009  1
  F  F159  1  0.37008897  0.75355414  0.46950778  1
  F  F160  1  0.70229968  0.75217939  0.46990171  1
  F  F161  1  0.29571521  0.24249514  0.96724390  1
  F  F162  1  0.63093409  0.24786588  0.96989407  1
  F  F163  1  0.96324425  0.24652530  0.96941041  1
