# generated using pymatgen
data_Sr8La2Ta5(FeO6)5
_symmetry_space_group_name_H-M   'P 1'
_cell_length_a   5.69182914
_cell_length_b   5.69840525
_cell_length_c   40.46834509
_cell_angle_alpha   90.00000000
_cell_angle_beta   90.31054311
_cell_angle_gamma   90.00000000
_symmetry_Int_Tables_number   1
_chemical_formula_structural   Sr8La2Ta5(FeO6)5
_chemical_formula_sum   'Sr16 La4 Ta10 Fe10 O60'
_cell_volume   1312.54515119
_cell_formula_units_Z   2
loop_
 _symmetry_equiv_pos_site_id
 _symmetry_equiv_pos_as_xyz
  1  'x, y, z'
loop_
 _atom_site_type_symbol
 _atom_site_label
 _atom_site_symmetry_multiplicity
 _atom_site_fract_x
 _atom_site_fract_y
 _atom_site_fract_z
 _atom_site_occupancy
  Sr  Sr0  1  0.00081753  0.98904280  0.85038960  1
  Sr  Sr1  1  0.99874171  0.99048332  0.64762023  1
  Sr  Sr2  1  0.99861434  0.98553136  0.45045721  1
  Sr  Sr3  1  0.00156872  0.98991796  0.05230277  1
  Sr  Sr4  1  0.49918247  0.48904280  0.84961040  1
  Sr  Sr5  1  0.49843128  0.48991796  0.64769723  1
  Sr  Sr6  1  0.50138566  0.48553136  0.24954279  1
  Sr  Sr7  1  0.50125829  0.49048332  0.05237977  1
  Sr  Sr8  1  0.49861434  0.51446864  0.95045721  1
  Sr  Sr9  1  0.50156872  0.51008204  0.55230277  1
  Sr  Sr10  1  0.50081753  0.51095720  0.35038960  1
  Sr  Sr11  1  0.49874171  0.50951668  0.14762023  1
  Sr  Sr12  1  0.00138566  0.01446864  0.74954279  1
  Sr  Sr13  1  0.00125829  0.00951668  0.55237977  1
  Sr  Sr14  1  0.99918247  0.01095720  0.34961040  1
  Sr  Sr15  1  0.99843128  0.01008204  0.14769723  1
  La  La16  1  0.00708157  0.97546095  0.24811258  1
  La  La17  1  0.49291843  0.47546095  0.45188742  1
  La  La18  1  0.50708157  0.52453905  0.74811258  1
  La  La19  1  0.99291843  0.02453905  0.95188742  1
  Ta  Ta20  1  0.50160986  0.00071718  0.80044088  1
  Ta  Ta21  1  0.50000000  -0.00000000  0.60000000  1
  Ta  Ta22  1  0.49839014  -0.00071718  0.39955912  1
  Ta  Ta23  1  0.49996926  0.00144469  0.19979498  1
  Ta  Ta24  1  0.50003074  0.99855531  0.00020502  1
  Ta  Ta25  1  0.99839014  0.50071718  0.89955912  1
  Ta  Ta26  1  -0.00003074  0.49855531  0.69979498  1
  Ta  Ta27  1  0.00003074  0.50144469  0.50020502  1
  Ta  Ta28  1  0.00160986  0.49928282  0.30044088  1
  Ta  Ta29  1  -0.00000000  0.50000000  0.10000000  1
  Fe  Fe30  1  -0.00027157  0.50139718  0.80000946  1
  Fe  Fe31  1  -0.00053173  0.50084534  0.00037607  1
  Fe  Fe32  1  0.50027157  0.00139718  0.89999054  1
  Fe  Fe33  1  0.50053173  0.00084534  0.69962393  1
  Fe  Fe34  1  0.49946827  0.99915466  0.50037607  1
  Fe  Fe35  1  0.49972843  0.99860282  0.30000946  1
  Fe  Fe36  1  0.50000000  -0.00000000  0.10000000  1
  Fe  Fe37  1  -0.00000000  0.50000000  0.60000000  1
  Fe  Fe38  1  0.00027157  0.49860282  0.39999054  1
  Fe  Fe39  1  0.00053173  0.49915466  0.19962393  1
  O  O40  1  0.03826757  0.50436483  0.85038735  1
  O  O41  1  0.03663779  0.50455836  0.65294306  1
  O  O42  1  0.05611594  0.50303057  0.44858445  1
  O  O43  1  0.03878037  0.51851306  0.25194744  1
  O  O44  1  0.03747680  0.50835713  0.04998937  1
  O  O45  1  0.21101769  0.78184637  0.90493517  1
  O  O46  1  0.21715199  0.76956838  0.70737511  1
  O  O47  1  0.20801471  0.78156800  0.50103417  1
  O  O48  1  0.21365579  0.78102636  0.30407334  1
  O  O49  1  0.20770973  0.77887679  0.10407584  1
  O  O50  1  0.21737451  0.79251585  0.99150851  1
  O  O51  1  0.22577089  0.77999740  0.79671892  1
  O  O52  1  0.22236201  0.79376808  0.59665140  1
  O  O53  1  0.22300189  0.78445955  0.39559788  1
  O  O54  1  0.21564857  0.79705422  0.19906101  1
  O  O55  1  0.27422911  0.27999740  0.90328108  1
  O  O56  1  0.28262549  0.29251585  0.70849149  1
  O  O57  1  0.28435143  0.29705422  0.50093899  1
  O  O58  1  0.27699811  0.28445955  0.30440212  1
  O  O59  1  0.27763799  0.29376808  0.10334860  1
  O  O60  1  0.28284801  0.26956838  0.99262489  1
  O  O61  1  0.28898231  0.28184637  0.79506483  1
  O  O62  1  0.29229027  0.27887679  0.59592416  1
  O  O63  1  0.28634421  0.28102636  0.39592666  1
  O  O64  1  0.29198529  0.28156800  0.19896583  1
  O  O65  1  0.46173243  0.00436483  0.84961265  1
  O  O66  1  0.46252320  0.00835713  0.65001063  1
  O  O67  1  0.46121963  0.01851306  0.44805256  1
  O  O68  1  0.44388406  0.00303057  0.25141555  1
  O  O69  1  0.46336221  0.00455836  0.04705694  1
  O  O70  1  0.55611594  0.99696943  0.94858445  1
  O  O71  1  0.53878037  0.98148694  0.75194744  1
  O  O72  1  0.53747680  0.99164287  0.54998937  1
  O  O73  1  0.53826757  0.99563517  0.35038735  1
  O  O74  1  0.53663779  0.99544164  0.15294306  1
  O  O75  1  0.71365579  0.71897364  0.80407334  1
  O  O76  1  0.70770973  0.72112321  0.60407584  1
  O  O77  1  0.71101769  0.71815363  0.40493517  1
  O  O78  1  0.71715199  0.73043162  0.20737511  1
  O  O79  1  0.70801471  0.71843200  0.00103417  1
  O  O80  1  0.72300189  0.71554045  0.89559788  1
  O  O81  1  0.71564857  0.70294578  0.69906101  1
  O  O82  1  0.71737451  0.70748415  0.49150851  1
  O  O83  1  0.72577089  0.72000260  0.29671892  1
  O  O84  1  0.72236201  0.70623192  0.09665140  1
  O  O85  1  0.77699811  0.21554045  0.80440212  1
  O  O86  1  0.77763799  0.20623192  0.60334860  1
  O  O87  1  0.77422911  0.22000260  0.40328108  1
  O  O88  1  0.78262549  0.20748415  0.20849149  1
  O  O89  1  0.78435143  0.20294578  0.00093899  1
  O  O90  1  0.78634421  0.21897364  0.89592666  1
  O  O91  1  0.79198529  0.21843200  0.69896583  1
  O  O92  1  0.78284801  0.23043162  0.49262489  1
  O  O93  1  0.78898231  0.21815363  0.29506483  1
  O  O94  1  0.79229027  0.22112321  0.09592416  1
  O  O95  1  0.96121963  0.48148694  0.94805256  1
  O  O96  1  0.94388406  0.49696943  0.75141555  1
  O  O97  1  0.96336221  0.49544164  0.54705694  1
  O  O98  1  0.96173243  0.49563517  0.34961265  1
  O  O99  1  0.96252320  0.49164287  0.15001063  1
