# generated using pymatgen
data_Na3ZrNi(PO4)3
_symmetry_space_group_name_H-M   'P 1'
_cell_length_a   9.05724980
_cell_length_b   9.05606450
_cell_length_c   18.11170933
_cell_angle_alpha   59.85438426
_cell_angle_beta   59.72423376
_cell_angle_gamma   59.84708691
_symmetry_Int_Tables_number   1
_chemical_formula_structural   Na3ZrNi(PO4)3
_chemical_formula_sum   'Na12 Zr4 Ni4 P12 O48'
_cell_volume   1045.89373836
_cell_formula_units_Z   4
loop_
 _symmetry_equiv_pos_site_id
 _symmetry_equiv_pos_as_xyz
  1  'x, y, z'
loop_
 _atom_site_type_symbol
 _atom_site_label
 _atom_site_symmetry_multiplicity
 _atom_site_fract_x
 _atom_site_fract_y
 _atom_site_fract_z
 _atom_site_occupancy
  Na  Na0  1  0.98142963  0.97826992  0.00901177  1
  Na  Na1  1  0.01294602  0.99772336  0.48638786  1
  Na  Na2  1  0.40374828  0.75292607  0.04555316  1
  Na  Na3  1  0.49821117  0.50271553  0.24978720  1
  Na  Na4  1  0.61239555  0.23282365  0.44793905  1
  Na  Na5  1  0.10902495  0.38374003  0.86447914  1
  Na  Na6  1  0.38469514  0.73190188  0.56068609  1
  Na  Na7  1  0.73093024  0.10428302  0.69306936  1
  Na  Na8  1  0.49916181  0.49959437  0.75016805  1
  Na  Na9  1  0.25005140  0.88363465  0.81190418  1
  Na  Na10  1  0.62351800  0.25184450  0.93473049  1
  Na  Na11  1  0.88016679  0.62582395  0.62716933  1
  Zr  Zr12  1  0.13475540  0.14887095  0.07650484  1
  Zr  Zr13  1  0.35069221  0.34887322  0.18025117  1
  Zr  Zr14  1  0.14811938  0.15149213  0.57182795  1
  Zr  Zr15  1  0.65208557  0.65029369  0.31975992  1
  Ni  Ni16  1  0.35168465  0.35329137  0.67577532  1
  Ni  Ni17  1  0.86210647  0.84904136  0.42431717  1
  Ni  Ni18  1  0.64687857  0.64920591  0.82374805  1
  Ni  Ni19  1  0.84988413  0.85073193  0.92626433  1
  P  P20  1  0.04897712  0.75085432  0.23018501  1
  P  P21  1  0.46688240  0.04723245  0.37596477  1
  P  P22  1  0.74636410  0.46124784  0.01744010  1
  P  P23  1  0.25100646  0.55392721  0.47911563  1
  P  P24  1  0.54399701  0.95022446  0.12230590  1
  P  P25  1  0.04284323  0.74871027  0.72979774  1
  P  P26  1  0.95021594  0.24450370  0.27733608  1
  P  P27  1  0.45584312  0.04650071  0.87348932  1
  P  P28  1  0.75012397  0.45855046  0.52378090  1
  P  P29  1  0.24769968  0.55089428  0.97640427  1
  P  P30  1  0.55098369  0.95430476  0.62680654  1
  P  P31  1  0.95568152  0.25248273  0.77473329  1
  O  O32  1  0.10982271  0.29812161  0.25489066  1
  O  O33  1  0.29516068  0.51268995  0.05780462  1
  O  O34  1  0.07015016  0.90856612  0.13613793  1
  O  O35  1  0.48989884  0.11698282  0.14707336  1
  O  O36  1  0.01919678  0.79527462  0.30691245  1
  O  O37  1  0.23169486  0.59127318  0.21177130  1
  O  O38  1  0.28558897  0.05277735  0.45906072  1
  O  O39  1  0.43104585  0.22345942  0.29526517  1
  O  O40  1  0.21885009  0.37987182  0.49952949  1
  O  O41  1  0.58324571  0.43195976  0.10880000  1
  O  O42  1  0.08310232  0.72188045  0.47004948  1
  O  O43  1  0.38246637  0.97583899  0.10265862  1
  O  O44  1  0.61723351  0.02734776  0.39862388  1
  O  O45  1  0.11714245  0.29258419  0.75845462  1
  O  O46  1  0.91519115  0.28408948  0.02988633  1
  O  O47  1  0.41864099  0.56351970  0.38935067  1
  O  O48  1  0.77280881  0.62768389  0.00308517  1
  O  O49  1  0.29637098  0.52640808  0.55701554  1
  O  O50  1  0.56931774  0.77517930  0.20480335  1
  O  O51  1  0.06980813  0.91597107  0.63808115  1
  O  O52  1  0.51876840  0.11860203  0.64473233  1
  O  O53  1  0.71555265  0.94795057  0.03901364  1
  O  O54  1  0.01588614  0.78991475  0.80899393  1
  O  O55  1  0.22343966  0.58767743  0.71599601  1
  O  O56  1  0.77007283  0.40882069  0.28687832  1
  O  O57  1  0.98859664  0.20277337  0.19505191  1
  O  O58  1  0.27155053  0.07439133  0.95683274  1
  O  O59  1  0.51055959  0.88049784  0.35433842  1
  O  O60  1  0.92774863  0.08840292  0.36645178  1
  O  O61  1  0.43003357  0.22539972  0.79245792  1
  O  O62  1  0.70705061  0.49034677  0.44217418  1
  O  O63  1  0.20423975  0.38184232  0.99976637  1
  O  O64  1  0.58774801  0.43234052  0.61307240  1
  O  O65  1  0.08894654  0.72796247  0.96437676  1
  O  O66  1  0.89042805  0.70153004  0.24674031  1
  O  O67  1  0.38565263  0.99416228  0.60321163  1
  O  O68  1  0.61389697  0.01954395  0.89438118  1
  O  O69  1  0.91215276  0.27413646  0.53488400  1
  O  O70  1  0.41513176  0.55687859  0.88878031  1
  O  O71  1  0.79148109  0.61766838  0.50815744  1
  O  O72  1  0.55780868  0.77741090  0.70986074  1
  O  O73  1  0.72886998  0.92848583  0.54554666  1
  O  O74  1  0.77679399  0.41655469  0.77931759  1
  O  O75  1  0.99636721  0.20793964  0.69089532  1
  O  O76  1  0.47668879  0.88023591  0.86061045  1
  O  O77  1  0.93324741  0.08729774  0.86233732  1
  O  O78  1  0.71244359  0.47365217  0.93918538  1
  O  O79  1  0.87900286  0.71958649  0.74000651  1
