# generated using pymatgen
data_NaZnFe(PO4)2
_symmetry_space_group_name_H-M   'P 1'
_cell_length_a   12.96344960
_cell_length_b   9.29331357
_cell_length_c   9.30468051
_cell_angle_alpha   85.76960929
_cell_angle_beta   63.94663383
_cell_angle_gamma   63.68333795
_symmetry_Int_Tables_number   1
_chemical_formula_structural   NaZnFe(PO4)2
_chemical_formula_sum   'Na6 Zn6 Fe6 P12 O48'
_cell_volume   892.44609578
_cell_formula_units_Z   6
loop_
 _symmetry_equiv_pos_site_id
 _symmetry_equiv_pos_as_xyz
  1  'x, y, z'
loop_
 _atom_site_type_symbol
 _atom_site_label
 _atom_site_symmetry_multiplicity
 _atom_site_fract_x
 _atom_site_fract_y
 _atom_site_fract_z
 _atom_site_occupancy
  Na  Na0  1  0.00140772  0.50066296  0.49638374  1
  Na  Na1  1  0.11684509  0.99401045  0.01130129  1
  Na  Na2  1  0.25000000  0.50000000  0.50000000  1
  Na  Na3  1  0.38315491  0.00598955  0.98869871  1
  Na  Na4  1  0.49859228  0.49933704  0.50361626  1
  Na  Na5  1  0.75000000  0.50000000  0.50000000  1
  Zn  Zn6  1  0.09801780  0.06698530  0.37266043  1
  Zn  Zn7  1  0.12690962  0.26523926  0.72544960  1
  Zn  Zn8  1  0.37309038  0.73476074  0.27455040  1
  Zn  Zn9  1  0.40198220  0.93301470  0.62733957  1
  Zn  Zn10  1  0.62570515  0.26585050  0.73414006  1
  Zn  Zn11  1  0.87429485  0.73414950  0.26585994  1
  Fe  Fe12  1  0.34932057  0.37414373  0.06052995  1
  Fe  Fe13  1  0.15067943  0.62585627  0.93947005  1
  Fe  Fe14  1  0.59677448  0.06002719  0.36817562  1
  Fe  Fe15  1  0.84696411  0.36432672  0.06203760  1
  Fe  Fe16  1  0.65303589  0.63567328  0.93796240  1
  Fe  Fe17  1  0.90322552  0.93997281  0.63182438  1
  P  P18  1  0.07573724  0.34762293  0.12422204  1
  P  P19  1  0.12622039  0.71156456  0.28842065  1
  P  P20  1  0.32745477  0.12704537  0.34205114  1
  P  P21  1  0.17254523  0.87295463  0.65794886  1
  P  P22  1  0.37377961  0.28843544  0.71157935  1
  P  P23  1  0.57261506  0.35057224  0.13270537  1
  P  P24  1  0.42426276  0.65237707  0.87577796  1
  P  P25  1  0.62761538  0.70767248  0.28826658  1
  P  P26  1  0.82237259  0.12772603  0.35246991  1
  P  P27  1  0.67762741  0.87227397  0.64753009  1
  P  P28  1  0.87238462  0.29232752  0.71173342  1
  P  P29  1  0.92738494  0.64942776  0.86729463  1
  O  O30  1  0.02894288  0.33037940  0.99871776  1
  O  O31  1  0.13782122  0.17503398  0.16405813  1
  O  O32  1  0.18347894  0.40568163  0.04005431  1
  O  O33  1  0.05917683  0.74149191  0.17499659  1
  O  O34  1  0.29039126  0.99403101  0.32052018  1
  O  O35  1  0.02497834  0.73881086  0.46623881  1
  O  O36  1  0.04134387  0.51577384  0.72510137  1
  O  O37  1  0.21293722  0.26950870  0.47406127  1
  O  O38  1  0.37307433  0.18551901  0.17388598  1
  O  O39  1  0.22528539  0.52993639  0.26115079  1
  O  O40  1  0.19527641  0.81947279  0.25547155  1
  O  O41  1  0.43999666  0.04829131  0.38893995  1
  O  O42  1  0.06000334  0.95170869  0.61106005  1
  O  O43  1  0.30472359  0.18052721  0.74452845  1
  O  O44  1  0.53012014  0.33298599  0.00286533  1
  O  O45  1  0.27471461  0.47006361  0.73884921  1
  O  O46  1  0.12692567  0.81448099  0.82611402  1
  O  O47  1  0.28706278  0.73049130  0.52593873  1
  O  O48  1  0.45865613  0.48422616  0.27489863  1
  O  O49  1  0.62268905  0.18620237  0.19059548  1
  O  O50  1  0.47502166  0.26118914  0.53376119  1
  O  O51  1  0.20960874  0.00596899  0.67947982  1
  O  O52  1  0.44082317  0.25850809  0.82500341  1
  O  O53  1  0.68398957  0.40089190  0.04819371  1
  O  O54  1  0.31652106  0.59431837  0.95994569  1
  O  O55  1  0.56164206  0.73640530  0.17490250  1
  O  O56  1  0.77838468  0.00160360  0.33095043  1
  O  O57  1  0.52824398  0.73037683  0.46441056  1
  O  O58  1  0.36217878  0.82496602  0.83594187  1
  O  O59  1  0.53586748  0.52347672  0.72978061  1
  O  O60  1  0.70825080  0.27499136  0.47974409  1
  O  O61  1  0.88130593  0.17928491  0.18362548  1
  O  O62  1  0.73330028  0.52889995  0.25499173  1
  O  O63  1  0.47105712  0.66962060  0.00128224  1
  O  O64  1  0.69397263  0.81982197  0.26088067  1
  O  O65  1  0.93056411  0.04192487  0.40669503  1
  O  O66  1  0.56943589  0.95807513  0.59330497  1
  O  O67  1  0.80602737  0.18017803  0.73911933  1
  O  O68  1  0.76669972  0.47110005  0.74500827  1
  O  O69  1  0.61869407  0.82071509  0.81637452  1
  O  O70  1  0.79174920  0.72500864  0.52025591  1
  O  O71  1  0.96413252  0.47652328  0.27021939  1
  O  O72  1  0.97175602  0.26962317  0.53558944  1
  O  O73  1  0.72161532  0.99839640  0.66904957  1
  O  O74  1  0.93835794  0.26359470  0.82509750  1
  O  O75  1  0.81601043  0.59910810  0.95180629  1
  O  O76  1  0.87731095  0.81379763  0.80940452  1
  O  O77  1  0.96987986  0.66701401  0.99713467  1
