# generated using pymatgen
data_LiMn3O6
_symmetry_space_group_name_H-M   'P 1'
_cell_length_a   5.92540714
_cell_length_b   5.92540714
_cell_length_c   13.31960845
_cell_angle_alpha   103.62798755
_cell_angle_beta   103.62798755
_cell_angle_gamma   87.63746523
_symmetry_Int_Tables_number   1
_chemical_formula_structural   LiMn3O6
_chemical_formula_sum   'Li4 Mn12 O24'
_cell_volume   441.64471740
_cell_formula_units_Z   4
loop_
 _symmetry_equiv_pos_site_id
 _symmetry_equiv_pos_as_xyz
  1  'x, y, z'
loop_
 _atom_site_type_symbol
 _atom_site_label
 _atom_site_symmetry_multiplicity
 _atom_site_fract_x
 _atom_site_fract_y
 _atom_site_fract_z
 _atom_site_occupancy
  Li  Li0  1  0.87930330  0.63125229  0.24690367  1
  Li  Li1  1  0.45847109  0.70054562  0.41824506  1
  Li  Li2  1  0.13125229  0.37930330  0.74690367  1
  Li  Li3  1  0.20054562  0.95847109  0.91824506  1
  Mn  Mn4  1  0.00194460  0.50836904  0.99652130  1
  Mn  Mn5  1  0.50572997  0.50808752  0.00056943  1
  Mn  Mn6  1  0.32699205  0.83295177  0.16895184  1
  Mn  Mn7  1  0.32675200  0.32589324  0.16486335  1
  Mn  Mn8  1  0.66505648  0.16623539  0.33468898  1
  Mn  Mn9  1  0.16838957  0.16246400  0.33391389  1
  Mn  Mn10  1  0.00836904  0.50194460  0.49652130  1
  Mn  Mn11  1  0.00808752  0.00572997  0.50056943  1
  Mn  Mn12  1  0.33295177  0.82699205  0.66895184  1
  Mn  Mn13  1  0.82589324  0.82675200  0.66486335  1
  Mn  Mn14  1  0.66623539  0.16505648  0.83468898  1
  Mn  Mn15  1  0.66246400  0.66838957  0.83391389  1
  O  O16  1  0.25242109  0.73448606  0.01204843  1
  O  O17  1  0.26024032  0.29307405  -0.00169986  1
  O  O18  1  0.55556683  0.58589858  0.15485422  1
  O  O19  1  0.10553174  0.57682116  0.15264304  1
  O  O20  1  0.54111944  0.07739507  0.17793811  1
  O  O21  1  0.10692274  0.07842028  0.18189146  1
  O  O22  1  0.40574895  0.37455320  0.33336734  1
  O  O23  1  0.39128056  0.91450673  0.32131520  1
  O  O24  1  0.94571843  0.40958370  0.34458239  1
  O  O25  1  0.92928793  0.95245309  0.34393128  1
  O  O26  1  0.21732725  0.23909692  0.49011338  1
  O  O27  1  0.79198826  0.25878571  0.49102250  1
  O  O28  1  0.23448606  0.75242109  0.51204843  1
  O  O29  1  0.79307405  0.76024032  0.49830014  1
  O  O30  1  0.08589858  0.05556683  0.65485422  1
  O  O31  1  0.07682116  0.60553174  0.65264304  1
  O  O32  1  0.57842028  0.60692274  0.68189146  1
  O  O33  1  0.57739507  0.04111944  0.67793811  1
  O  O34  1  0.87455320  0.90574895  0.83336734  1
  O  O35  1  0.41450673  0.89128056  0.82131520  1
  O  O36  1  0.45245309  0.42928793  0.84393128  1
  O  O37  1  0.90958370  0.44571843  0.84458239  1
  O  O38  1  0.75878571  0.29198826  0.99102250  1
  O  O39  1  0.73909692  0.71732725  0.99011338  1
