# generated using pymatgen
data_Na2CeO3
_symmetry_space_group_name_H-M   'P 1'
_cell_length_a   7.64928008
_cell_length_b   7.64928076
_cell_length_c   18.38083507
_cell_angle_alpha   96.81558571
_cell_angle_beta   96.81558629
_cell_angle_gamma   85.44007775
_symmetry_Int_Tables_number   1
_chemical_formula_structural   Na2CeO3
_chemical_formula_sum   'Na24 Ce12 O36'
_cell_volume   1058.00661512
_cell_formula_units_Z   12
loop_
 _symmetry_equiv_pos_site_id
 _symmetry_equiv_pos_as_xyz
  1  'x, y, z'
loop_
 _atom_site_type_symbol
 _atom_site_label
 _atom_site_symmetry_multiplicity
 _atom_site_fract_x
 _atom_site_fract_y
 _atom_site_fract_z
 _atom_site_occupancy
  Na  Na0  1  0.17439503  0.83070074  0.83434662  1
  Na  Na1  1  0.18236112  0.82854755  0.49562847  1
  Na  Na2  1  0.08582245  0.41417755  0.75000000  1
  Na  Na3  1  0.16313667  0.83907794  0.16543969  1
  Na  Na4  1  0.33907794  0.66313667  0.66543969  1
  Na  Na5  1  0.99439404  0.00954188  0.66827935  1
  Na  Na6  1  0.33070074  0.67439503  0.33434662  1
  Na  Na7  1  0.58204522  0.91660186  0.91806995  1
  Na  Na8  1  0.00560596  0.99045812  0.33172065  1
  Na  Na9  1  0.32854755  0.68236112  0.99562947  1
  Na  Na10  1  0.58339814  0.91795478  0.58193005  1
  Na  Na11  1  0.00000000  0.00000000  -0.00000000  1
  Na  Na12  1  0.49045812  0.50560596  0.83172065  1
  Na  Na13  1  0.50000000  0.50000000  0.50000000  1
  Na  Na14  1  0.50954188  0.49439404  0.16827935  1
  Na  Na15  1  0.41660186  0.08204522  0.41806995  1
  Na  Na16  1  0.67145245  0.31763888  0.00437053  1
  Na  Na17  1  0.41795478  0.08339814  0.08193005  1
  Na  Na18  1  0.66929926  0.32560497  0.66565338  1
  Na  Na19  1  0.66092206  0.33686333  0.33456031  1
  Na  Na20  1  0.83686333  0.16092206  0.83456031  1
  Na  Na21  1  0.91417755  0.58582245  0.25000000  1
  Na  Na22  1  0.81763888  0.17145245  0.50437053  1
  Na  Na23  1  0.82560497  0.16929926  0.16565338  1
  Ce  Ce24  1  0.08306370  0.41454012  0.41387000  1
  Ce  Ce25  1  0.08545988  0.41693630  0.08613000  1
  Ce  Ce26  1  0.26086782  0.23792800  0.91934041  1
  Ce  Ce27  1  0.26207200  0.23913218  0.58065959  1
  Ce  Ce28  1  0.24958780  0.25041220  0.25000000  1
  Ce  Ce29  1  0.58539336  0.91460664  0.25000000  1
  Ce  Ce30  1  0.41460664  0.08539336  0.75000000  1
  Ce  Ce31  1  0.75041220  0.74958780  0.75000000  1
  Ce  Ce32  1  0.73792800  0.76086782  0.41934041  1
  Ce  Ce33  1  0.73913218  0.76207200  0.08065959  1
  Ce  Ce34  1  0.91454012  0.58306370  0.91387000  1
  Ce  Ce35  1  0.91693630  0.58545988  0.58613000  1
  O  O36  1  0.28263496  0.98373912  0.95538625  1
  O  O37  1  0.29598821  0.98604505  0.63338584  1
  O  O38  1  0.97931236  0.31082972  0.96170208  1
  O  O39  1  0.30355322  0.97238641  0.28074577  1
  O  O40  1  0.97556714  0.31097573  0.61656684  1
  O  O41  1  0.18902427  0.52443286  0.88343316  1
  O  O42  1  0.98967873  0.29484114  0.30046370  1
  O  O43  1  0.18917028  0.52068764  0.53829792  1
  O  O44  1  0.15847985  0.12974430  0.80040889  1
  O  O45  1  0.47238641  0.80355322  0.78074577  1
  O  O46  1  0.20515886  0.51032127  0.19953630  1
  O  O47  1  0.12946027  0.15857021  0.46303431  1
  O  O48  1  0.48373912  0.78263496  0.45538625  1
  O  O49  1  0.12590310  0.16040249  0.13413167  1
  O  O50  1  0.37025570  0.34152015  0.69959111  1
  O  O51  1  0.65857021  0.62946027  0.96303431  1
  O  O52  1  0.48604505  0.79598821  0.13338584  1
  O  O53  1  0.33959751  0.37409690  0.36586833  1
  O  O54  1  0.66040249  0.62590310  0.63413167  1
  O  O55  1  0.51395495  0.20401179  0.86661416  1
  O  O56  1  0.34142979  0.37053973  0.03696569  1
  O  O57  1  0.62974430  0.65847985  0.30040889  1
  O  O58  1  0.87409690  0.83959751  0.86586833  1
  O  O59  1  0.51626088  0.21736504  0.54461375  1
  O  O60  1  0.87053973  0.84142979  0.53696569  1
  O  O61  1  0.79484114  0.48967873  0.80046370  1
  O  O62  1  0.52761359  0.19644678  0.21925423  1
  O  O63  1  0.84152015  0.87025570  0.19959111  1
  O  O64  1  0.81082972  0.47931236  0.46170208  1
  O  O65  1  0.01032127  0.70515886  0.69953630  1
  O  O66  1  0.81097573  0.47556714  0.11656684  1
  O  O67  1  0.02443286  0.68902427  0.38343316  1
  O  O68  1  0.69644678  0.02761359  0.71925423  1
  O  O69  1  0.02068764  0.68917028  0.03829792  1
  O  O70  1  0.70401179  0.01395495  0.36661416  1
  O  O71  1  0.71736504  0.01626088  0.04461375  1
