# generated using pymatgen
data_Sr2Nd2MnCuO8
_symmetry_space_group_name_H-M   'P 1'
_cell_length_a   3.83667045
_cell_length_b   15.32540586
_cell_length_c   6.93686762
_cell_angle_alpha   106.64069387
_cell_angle_beta   106.14999579
_cell_angle_gamma   89.97652661
_symmetry_Int_Tables_number   1
_chemical_formula_structural   Sr2Nd2MnCuO8
_chemical_formula_sum   'Sr4 Nd4 Mn2 Cu2 O16'
_cell_volume   373.97928034
_cell_formula_units_Z   2
loop_
 _symmetry_equiv_pos_site_id
 _symmetry_equiv_pos_as_xyz
  1  'x, y, z'
loop_
 _atom_site_type_symbol
 _atom_site_label
 _atom_site_symmetry_multiplicity
 _atom_site_fract_x
 _atom_site_fract_y
 _atom_site_fract_z
 _atom_site_occupancy
  Sr  Sr0  1  0.35844425  0.34020204  0.71473323  1
  Sr  Sr1  1  0.35494702  0.59161810  0.71132869  1
  Sr  Sr2  1  0.64494839  0.15838940  0.28858254  1
  Sr  Sr3  1  0.64152837  0.40977659  0.28517835  1
  Nd  Nd4  1  0.36573994  0.08586041  0.72784064  1
  Nd  Nd5  1  0.35169404  0.83784941  0.71956309  1
  Nd  Nd6  1  0.63425372  0.66415112  0.27217488  1
  Nd  Nd7  1  0.64844033  0.91212511  0.28054191  1
  Mn  Mn8  1  0.00280872  0.24854311  0.00135770  1
  Mn  Mn9  1  0.99731457  0.50143660  -0.00140402  1
  Cu  Cu10  1  0.00332457  0.99829059  0.00170743  1
  Cu  Cu11  1  0.99673680  0.75180575  0.99840891  1
  O  O12  1  0.99640024  0.12119060  0.99123851  1
  O  O13  1  0.99997551  0.37498868  0.99991585  1
  O  O14  1  0.00363825  0.62880770  0.00877065  1
  O  O15  1  0.00010726  0.87498289  0.00006768  1
  O  O16  1  0.18727115  0.03063001  0.36416792  1
  O  O17  1  0.16224060  0.28746235  0.31556501  1
  O  O18  1  0.15840711  0.55124251  0.31986670  1
  O  O19  1  0.16487478  0.79690286  0.35748754  1
  O  O20  1  0.49819126  0.99447247  0.99092371  1
  O  O21  1  0.49597785  0.24402550  0.99003689  1
  O  O22  1  0.50373694  0.50596337  0.00985933  1
  O  O23  1  0.50205027  0.75557428  0.00923790  1
  O  O24  1  0.84161713  0.19870125  0.68006602  1
  O  O25  1  0.83759469  0.46254857  0.68433453  1
  O  O26  1  0.81257402  0.71935345  0.63574278  1
  O  O27  1  0.83516224  0.95310427  0.64270564  1
