# generated using pymatgen
data_LiNiO2
_symmetry_space_group_name_H-M   'P 1'
_cell_length_a   2.93376145
_cell_length_b   2.78131148
_cell_length_c   9.73009803
_cell_angle_alpha   90.01776307
_cell_angle_beta   89.95694110
_cell_angle_gamma   118.30629286
_symmetry_Int_Tables_number   1
_chemical_formula_structural   LiNiO2
_chemical_formula_sum   'Li2 Ni2 O4'
_cell_volume   69.90110181
_cell_formula_units_Z   2
loop_
 _symmetry_equiv_pos_site_id
 _symmetry_equiv_pos_as_xyz
  1  'x, y, z'
loop_
 _atom_site_type_symbol
 _atom_site_label
 _atom_site_symmetry_multiplicity
 _atom_site_fract_x
 _atom_site_fract_y
 _atom_site_fract_z
 _atom_site_occupancy
  Li  Li0  1  0.67803659  0.33767884  0.24266040  1
  Li  Li1  1  0.32123209  0.66219611  0.74269180  1
  Ni  Ni2  1  0.32969632  0.66460245  0.00083462  1
  Ni  Ni3  1  0.67066653  0.33543666  0.50084382  1
  O  O4  1  0.04710118  0.02314857  0.11283359  1
  O  O5  1  0.95274072  0.97689315  0.61285818  1
  O  O6  1  0.38466291  0.69206980  0.38964352  1
  O  O7  1  0.61609767  0.30797442  0.88965407  1
