# generated using pymatgen
data_Mg(VS2)2
_symmetry_space_group_name_H-M   'P 1'
_cell_length_a   7.09758044
_cell_length_b   7.09758160
_cell_length_c   7.31887287
_cell_angle_alpha   119.00474633
_cell_angle_beta   119.00475049
_cell_angle_gamma   89.99999354
_symmetry_Int_Tables_number   1
_chemical_formula_structural   Mg(VS2)2
_chemical_formula_sum   'Mg2 V4 S8'
_cell_volume   268.35654164
_cell_formula_units_Z   2
loop_
 _symmetry_equiv_pos_site_id
 _symmetry_equiv_pos_as_xyz
  1  'x, y, z'
loop_
 _atom_site_type_symbol
 _atom_site_label
 _atom_site_symmetry_multiplicity
 _atom_site_fract_x
 _atom_site_fract_y
 _atom_site_fract_z
 _atom_site_occupancy
  Mg  Mg0  1  0.37500000  0.62500000  0.75000000  1
  Mg  Mg1  1  0.62500000  0.37500000  0.25000000  1
  V  V2  1  0.00000000  0.00000000  0.50000000  1
  V  V3  1  0.00000000  0.50000000  0.00000000  1
  V  V4  1  0.50000000  0.00000000  0.50000000  1
  V  V5  1  0.00000000  0.00000000  0.00000000  1
  S  S6  1  0.76961899  0.78355905  0.53923799  1
  S  S7  1  0.74432206  0.23038100  0.96076201  1
  S  S8  1  0.21644095  0.23038100  0.96076201  1
  S  S9  1  0.23038101  0.21644095  0.46076201  1
  S  S10  1  0.23038100  0.74432205  0.46076201  1
  S  S11  1  0.25567794  0.76961900  0.03923799  1
  S  S12  1  0.76961900  0.25567795  0.53923799  1
  S  S13  1  0.78355905  0.76961900  0.03923799  1
