# generated using pymatgen
data_NaLaNiWO6
_symmetry_space_group_name_H-M   'P 1'
_cell_length_a   16.82514680
_cell_length_b   7.91736559
_cell_length_c   7.90161007
_cell_angle_alpha   90.04491855
_cell_angle_beta   90.06587020
_cell_angle_gamma   44.87937048
_symmetry_Int_Tables_number   1
_chemical_formula_structural   NaLaNiWO6
_chemical_formula_sum   'Na6 La6 Ni6 W6 O36'
_cell_volume   742.71738031
_cell_formula_units_Z   6
loop_
 _symmetry_equiv_pos_site_id
 _symmetry_equiv_pos_as_xyz
  1  'x, y, z'
loop_
 _atom_site_type_symbol
 _atom_site_label
 _atom_site_symmetry_multiplicity
 _atom_site_fract_x
 _atom_site_fract_y
 _atom_site_fract_z
 _atom_site_occupancy
  Na  Na0  1  0.32577150  0.25472499  0.99984184  1
  Na  Na1  1  0.33329377  0.75843213  0.99710037  1
  Na  Na2  1  0.66462518  0.24715644  0.00224341  1
  Na  Na3  1  0.66984124  0.75156981  0.00085147  1
  Na  Na4  1  0.00159561  0.24847697  0.49659990  1
  Na  Na5  1  0.00618018  0.74180243  0.99855169  1
  La  La6  1  0.99492349  0.24905426  0.99483831  1
  La  La7  1  0.00101904  0.74099415  0.50078119  1
  La  La8  1  0.33497842  0.24717982  0.49880458  1
  La  La9  1  0.33099883  0.75297215  0.50015557  1
  La  La10  1  0.66498871  0.25288801  0.49865004  1
  La  La11  1  0.66529290  0.75168559  0.50200349  1
  Ni  Ni12  1  0.16521492  0.25073714  0.24825316  1
  Ni  Ni13  1  0.16740854  0.74913851  0.74985659  1
  Ni  Ni14  1  0.50013419  0.24861582  0.24462830  1
  Ni  Ni15  1  0.49981581  0.75235457  0.75555775  1
  Ni  Ni16  1  0.83303484  0.25030981  0.24962096  1
  Ni  Ni17  1  0.83396631  0.74885046  0.75120915  1
  W  W18  1  0.16687967  0.24962272  0.75695462  1
  W  W19  1  0.16753114  0.74827834  0.24076418  1
  W  W20  1  0.50008117  0.25115098  0.76462803  1
  W  W21  1  0.49957247  0.75056921  0.23600121  1
  W  W22  1  0.83249552  0.24915960  0.75743379  1
  W  W23  1  0.83357098  0.75117128  0.24072198  1
  O  O24  1  0.16965639  0.00322899  0.71043850  1
  O  O25  1  0.00529800  0.49283697  0.70922210  1
  O  O26  1  0.19093350  0.24936875  0.50605815  1
  O  O27  1  0.13863322  0.25057161  0.99281983  1
  O  O28  1  0.16435845  0.49551532  0.77352444  1
  O  O29  1  0.99451020  0.00674322  0.79551329  1
  O  O30  1  0.33922472  0.99979708  0.22729038  1
  O  O31  1  0.16922315  0.50449548  0.22160707  1
  O  O32  1  0.19106321  0.75673482  0.00802244  1
  O  O33  1  0.14250980  0.74172781  0.49068927  1
  O  O34  1  0.33922861  0.49010159  0.69247490  1
  O  O35  1  0.50019160  0.00842419  0.69688517  1
  O  O36  1  0.32935379  0.50332551  0.30300504  1
  O  O37  1  0.17121456  0.98411689  0.29306568  1
  O  O38  1  0.52664275  0.24620960  0.50469073  1
  O  O39  1  0.47182062  0.25241194  0.99095895  1
  O  O40  1  0.49562110  0.49814138  0.77516580  1
  O  O41  1  0.32763901  0.00969798  0.77759745  1
  O  O42  1  0.67316077  0.99456349  0.21685258  1
  O  O43  1  0.50269425  0.50521473  0.22548105  1
  O  O44  1  0.52572441  0.75081286  0.00910110  1
  O  O45  1  0.47448088  0.75052451  0.49541316  1
  O  O46  1  0.83401757  0.00494615  0.69612238  1
  O  O47  1  0.67056522  0.49400644  0.70061497  1
  O  O48  1  0.50237325  0.98874543  0.30373359  1
  O  O49  1  0.66133979  0.50981794  0.30484464  1
  O  O50  1  0.85688375  0.25453962  0.51358793  1
  O  O51  1  0.80701901  0.24763549  0.98997912  1
  O  O52  1  0.83140606  0.49426483  0.79768077  1
  O  O53  1  0.66062319  0.00569468  0.77628520  1
  O  O54  1  0.00575361  0.99906770  0.20723178  1
  O  O55  1  0.83932278  0.49971621  0.20790015  1
  O  O56  1  0.86458112  0.73898129  0.00870957  1
  O  O57  1  0.80317830  0.76059862  0.49079680  1
  O  O58  1  0.99409426  0.51492623  0.29558472  1
  O  O59  1  0.83244467  0.99559949  0.30499970  1
