# generated using pymatgen
data_LiMnF5
_symmetry_space_group_name_H-M   'P 1'
_cell_length_a   8.25319717
_cell_length_b   6.39328349
_cell_length_c   7.37144629
_cell_angle_alpha   90.00000000
_cell_angle_beta   63.79869927
_cell_angle_gamma   90.00000000
_symmetry_Int_Tables_number   1
_chemical_formula_structural   LiMnF5
_chemical_formula_sum   'Li4 Mn4 F20'
_cell_volume   348.98885289
_cell_formula_units_Z   4
loop_
 _symmetry_equiv_pos_site_id
 _symmetry_equiv_pos_as_xyz
  1  'x, y, z'
loop_
 _atom_site_type_symbol
 _atom_site_label
 _atom_site_symmetry_multiplicity
 _atom_site_fract_x
 _atom_site_fract_y
 _atom_site_fract_z
 _atom_site_occupancy
  Li  Li0  1  0.00041633  0.52239419  0.24847978  1
  Li  Li1  1  0.49958367  0.02239419  0.75152022  1
  Li  Li2  1  0.50041633  0.97760581  0.24847978  1
  Li  Li3  1  0.99958367  0.47760581  0.75152022  1
  Mn  Mn4  1  -0.00000000  -0.00000000  0.50000000  1
  Mn  Mn5  1  -0.00000000  0.00000000  0.00000000  1
  Mn  Mn6  1  0.50000000  0.50000000  0.50000000  1
  Mn  Mn7  1  0.50000000  0.50000000  0.00000000  1
  F  F8  1  0.02014624  0.27799078  0.94234335  1
  F  F9  1  0.24305673  0.97305392  0.88784911  1
  F  F10  1  0.01645445  0.72176800  0.44276820  1
  F  F11  1  0.99663561  0.08060836  0.25168648  1
  F  F12  1  0.25672108  0.52373854  0.61830050  1
  F  F13  1  0.52014624  0.22200922  0.94234335  1
  F  F14  1  0.24327892  0.02373854  0.38169950  1
  F  F15  1  0.50336439  0.58060836  0.74831352  1
  F  F16  1  0.48354555  0.22176800  0.55723180  1
  F  F17  1  0.74305673  0.52694608  0.88784911  1
  F  F18  1  0.25694327  0.47305392  0.11215089  1
  F  F19  1  0.51645445  0.77823200  0.44276820  1
  F  F20  1  0.49663561  0.41939164  0.25168648  1
  F  F21  1  0.75672108  0.97626146  0.61830050  1
  F  F22  1  0.47985376  0.77799078  0.05765665  1
  F  F23  1  0.74327892  0.47626146  0.38169950  1
  F  F24  1  0.00336439  0.91939164  0.74831352  1
  F  F25  1  0.98354555  0.27823200  0.55723180  1
  F  F26  1  0.75694327  0.02694608  0.11215089  1
  F  F27  1  0.97985376  0.72200922  0.05765665  1
