# generated using pymatgen
data_Mn2HgO4
_symmetry_space_group_name_H-M   'P 1'
_cell_length_a   5.98242261
_cell_length_b   6.61782850
_cell_length_c   5.98242261
_cell_angle_alpha   63.12838971
_cell_angle_beta   90.00000000
_cell_angle_gamma   116.87161029
_symmetry_Int_Tables_number   1
_chemical_formula_structural   Mn2HgO4
_chemical_formula_sum   'Mn4 Hg2 O8'
_cell_volume   182.14288306
_cell_formula_units_Z   2
loop_
 _symmetry_equiv_pos_site_id
 _symmetry_equiv_pos_as_xyz
  1  'x, y, z'
loop_
 _atom_site_type_symbol
 _atom_site_label
 _atom_site_symmetry_multiplicity
 _atom_site_fract_x
 _atom_site_fract_y
 _atom_site_fract_z
 _atom_site_occupancy
  Mn  Mn0  1  0.37500000  0.25000000  0.37500000  1
  Mn  Mn1  1  0.87500000  0.25000000  0.37500000  1
  Mn  Mn2  1  0.37500000  0.75000000  0.37500000  1
  Mn  Mn3  1  0.37500000  0.75000000  0.87500000  1
  Hg  Hg4  1  0.00000000  -0.00000000  0.00000000  1
  Hg  Hg5  1  0.75000000  0.50000000  0.75000000  1
  O  O6  1  0.14612760  0.29225520  0.13952433  1
  O  O7  1  0.60387240  0.20774480  0.18177953  1
  O  O8  1  0.56822047  0.70774480  0.14612760  1
  O  O9  1  0.13952433  0.70774480  0.14612760  1
  O  O10  1  0.60387240  0.20774480  0.61047567  1
  O  O11  1  0.14612760  0.29225520  0.56822047  1
  O  O12  1  0.18177953  0.79225520  0.60387240  1
  O  O13  1  0.61047567  0.79225520  0.60387240  1
