# generated using pymatgen
data_Li15V6(P8O29)2
_symmetry_space_group_name_H-M   'P 1'
_cell_length_a   9.85071527
_cell_length_b   9.85710328
_cell_length_c   13.84921206
_cell_angle_alpha   90.14826604
_cell_angle_beta   90.15927446
_cell_angle_gamma   59.95233687
_symmetry_Int_Tables_number   1
_chemical_formula_structural   Li15V6(P8O29)2
_chemical_formula_sum   'Li15 V6 P16 O58'
_cell_volume   1164.02388515
_cell_formula_units_Z   1
loop_
 _symmetry_equiv_pos_site_id
 _symmetry_equiv_pos_as_xyz
  1  'x, y, z'
loop_
 _atom_site_type_symbol
 _atom_site_label
 _atom_site_symmetry_multiplicity
 _atom_site_fract_x
 _atom_site_fract_y
 _atom_site_fract_z
 _atom_site_occupancy
  Li  Li0  1  0.90270780  0.76790947  0.06467510  1
  Li  Li1  1  0.77098444  0.90449868  0.55821664  1
  Li  Li2  1  0.90494665  0.32131521  0.56112640  1
  Li  Li3  1  0.66858826  0.66302907  0.88134010  1
  Li  Li4  1  0.76716993  0.32997248  0.06392733  1
  Li  Li5  1  0.33433568  0.90195984  0.06285774  1
  Li  Li6  1  0.68145092  0.22860308  0.43803960  1
  Li  Li7  1  0.32646064  0.77021420  0.56214251  1
  Li  Li8  1  0.65802899  0.10565208  0.94094007  1
  Li  Li9  1  0.23570245  0.66462693  0.93816779  1
  Li  Li10  1  0.33341621  0.33527870  0.61697665  1
  Li  Li11  1  0.09042730  0.68267805  0.43677052  1
  Li  Li12  1  0.22395919  0.09042604  0.43797894  1
  Li  Li13  1  0.10230088  0.23594398  0.93902797  1
  Li  Li14  1  0.00052038  0.00191705  0.00223822  1
  V  V15  1  0.56640033  0.43432781  0.24985346  1
  V  V16  1  0.43196153  0.56633085  0.75079477  1
  V  V17  1  0.56671747  0.00072207  0.75023656  1
  V  V18  1  0.43353861  0.99937076  0.25056386  1
  V  V19  1  0.99912086  0.56652830  0.24877916  1
  V  V20  1  0.00066946  0.43298715  0.74991712  1
  P  P21  1  0.90975888  0.77454169  0.84459344  1
  P  P22  1  0.76753807  0.91423029  0.34265358  1
  P  P23  1  0.91001433  0.32096866  0.34209673  1
  P  P24  1  0.66381423  0.66732153  0.12450259  1
  P  P25  1  0.66312318  0.67059912  0.62503566  1
  P  P26  1  0.77304746  0.31612493  0.84440318  1
  P  P27  1  0.67789015  0.22999687  0.65659892  1
  P  P28  1  0.31602288  0.91244673  0.84397136  1
  P  P29  1  0.68320413  0.08896488  0.15762121  1
  P  P30  1  0.32121124  0.76813169  0.34171961  1
  P  P31  1  0.22772109  0.68702376  0.15563052  1
  P  P32  1  0.33528485  0.33290682  0.37286311  1
  P  P33  1  0.33588240  0.32911648  0.87663016  1
  P  P34  1  0.08951211  0.67856303  0.65598057  1
  P  P35  1  0.23188182  0.08881233  0.65603869  1
  P  P36  1  0.08731000  0.22468455  0.15787913  1
  O  O37  1  0.99312910  0.75590123  0.56723388  1
  O  O38  1  0.91526194  0.75404122  0.34364916  1
  O  O39  1  0.77785956  0.00325376  0.06855176  1
  O  O40  1  0.74721172  0.92500858  0.84476748  1
  O  O41  1  0.88976511  0.62988148  0.83682418  1
  O  O42  1  0.80740478  0.67995131  0.15901598  1
  O  O43  1  0.89378133  0.48010103  0.32587852  1
  O  O44  1  0.00417001  0.20935278  0.06857262  1
  O  O45  1  0.92332986  0.32648352  0.84491179  1
  O  O46  1  0.66398739  0.81944356  0.67500366  1
  O  O47  1  0.61899799  0.90202623  0.32018214  1
  O  O48  1  0.81092637  0.52002683  0.66395396  1
  O  O49  1  0.65603528  0.66605695  0.01524291  1
  O  O50  1  0.66201181  0.68993820  0.51830752  1
  O  O51  1  0.67772880  0.51069369  0.16419043  1
  O  O52  1  0.48068714  0.89534696  0.83325985  1
  O  O53  1  0.50886814  0.81020099  0.16436920  1
  O  O54  1  0.74593758  0.33309508  0.34020583  1
  O  O55  1  0.78313389  0.21579223  0.74996247  1
  O  O56  1  0.75768333  0.24427361  0.56778999  1
  O  O57  1  0.76996551  0.22578920  0.93283893  1
  O  O58  1  0.62903854  0.48118610  0.83433109  1
  O  O59  1  0.51267120  0.67484704  0.66445988  1
  O  O60  1  0.66176351  0.25608487  0.15881092  1
  O  O61  1  0.48193479  0.62009332  0.32265511  1
  O  O62  1  0.33680700  0.91646385  0.34266719  1
  O  O63  1  0.78865510  0.00465017  0.25146090  1
  O  O64  1  0.74545586  0.00826920  0.43276688  1
  O  O65  1  0.25261413  0.99281133  0.56684275  1
  O  O66  1  0.67203785  0.07627634  0.65655664  1
  O  O67  1  0.51078021  0.36911697  0.67129640  1
  O  O68  1  0.32981779  0.75074275  0.84589261  1
  O  O69  1  0.48893125  0.32518586  0.33175388  1
  O  O70  1  0.38090889  0.53073144  0.16808022  1
  O  O71  1  0.22603812  0.77909819  0.06679567  1
  O  O72  1  0.24488288  0.75451364  0.43224279  1
  O  O73  1  0.21031158  0.79202480  0.25021004  1
  O  O74  1  0.24723702  0.67428947  0.65585613  1
  O  O75  1  0.48786504  0.18264467  0.82830168  1
  O  O76  1  0.52820682  0.09144694  0.16815444  1
  O  O77  1  0.32661852  0.48297679  0.83909686  1
  O  O78  1  0.35713080  0.30979205  0.98366266  1
  O  O79  1  0.34538359  0.32458323  0.48173768  1
  O  O80  1  0.18918603  0.48571250  0.33768403  1
  O  O81  1  0.37384037  0.11407400  0.67330776  1
  O  O82  1  0.32805533  0.18549019  0.33370826  1
  O  O83  1  0.08203988  0.66990106  0.15549312  1
  O  O84  1  0.99765496  0.78403155  0.74949784  1
  O  O85  1  0.00170994  0.77656790  0.93268085  1
  O  O86  1  0.11904684  0.51066238  0.67199969  1
  O  O87  1  0.19028740  0.32179251  0.83898881  1
  O  O88  1  0.09329635  0.37429623  0.16382980  1
  O  O89  1  0.25550031  0.07735620  0.16221508  1
  O  O90  1  0.22793276  0.00568607  0.93264890  1
  O  O91  1  0.21581072  0.99927943  0.74917906  1
  O  O92  1  0.08094139  0.24795512  0.65404634  1
  O  O93  1  0.99849061  0.23792268  0.43249764  1
  O  O94  1  0.00038620  0.20605956  0.25108917  1
