# generated using pymatgen
data_Li7Mn4(P2O7)4
_symmetry_space_group_name_H-M   'P 1'
_cell_length_a   9.89259998
_cell_length_b   9.86777327
_cell_length_c   11.36929959
_cell_angle_alpha   89.81502258
_cell_angle_beta   102.54337592
_cell_angle_gamma   89.85413055
_symmetry_Int_Tables_number   1
_chemical_formula_structural   Li7Mn4(P2O7)4
_chemical_formula_sum   'Li14 Mn8 P16 O56'
_cell_volume   1083.34590878
_cell_formula_units_Z   2
loop_
 _symmetry_equiv_pos_site_id
 _symmetry_equiv_pos_as_xyz
  1  'x, y, z'
loop_
 _atom_site_type_symbol
 _atom_site_label
 _atom_site_symmetry_multiplicity
 _atom_site_fract_x
 _atom_site_fract_y
 _atom_site_fract_z
 _atom_site_occupancy
  Li  Li0  1  0.11376395  0.72003651  0.44877552  1
  Li  Li1  1  0.18632335  0.40820425  0.55541459  1
  Li  Li2  1  0.08550939  0.10701581  0.02851921  1
  Li  Li3  1  0.34634477  0.91034700  0.95651323  1
  Li  Li4  1  0.15546397  0.40880099  0.04129498  1
  Li  Li5  1  0.41306896  0.60724339  0.97050066  1
  Li  Li6  1  0.35694621  0.94142502  0.47439502  1
  Li  Li7  1  0.64305379  0.05857498  0.52560498  1
  Li  Li8  1  0.58693104  0.39275661  0.02949934  1
  Li  Li9  1  0.84453603  0.59119901  0.95870502  1
  Li  Li10  1  0.65365523  0.08965300  0.04348677  1
  Li  Li11  1  0.91449061  0.89298419  0.97148079  1
  Li  Li12  1  0.81367665  0.59179575  0.44458541  1
  Li  Li13  1  0.88623605  0.27996349  0.55122448  1
  Mn  Mn14  1  0.20133039  0.92316726  0.67232651  1
  Mn  Mn15  1  0.25336019  0.21378693  0.82086675  1
  Mn  Mn16  1  0.24904790  0.71541994  0.17905613  1
  Mn  Mn17  1  0.30116058  0.42031310  0.32960976  1
  Mn  Mn18  1  0.69883942  0.57968690  0.67039024  1
  Mn  Mn19  1  0.75095210  0.28458006  0.82094387  1
  Mn  Mn20  1  0.74663981  0.78621307  0.17913325  1
  Mn  Mn21  1  0.79866961  0.07683274  0.32767349  1
  P  P22  1  0.02205265  0.45638860  0.75693257  1
  P  P23  1  0.11794793  0.70358954  0.89189491  1
  P  P24  1  0.06105263  0.93146805  0.24334340  1
  P  P25  1  0.12359562  0.15201405  0.42193918  1
  P  P26  1  0.37899830  0.64956703  0.57783656  1
  P  P27  1  0.43914262  0.43558807  0.75742815  1
  P  P28  1  0.52293570  0.04519667  0.75782845  1
  P  P29  1  0.38074030  0.20523695  0.10772318  1
  P  P30  1  0.61925970  0.79476305  0.89227682  1
  P  P31  1  0.47706430  0.95480333  0.24217155  1
  P  P32  1  0.56085738  0.56441193  0.24257185  1
  P  P33  1  0.62100170  0.35043297  0.42216344  1
  P  P34  1  0.87640438  0.84798595  0.57806082  1
  P  P35  1  0.93894737  0.06853195  0.75665660  1
  P  P36  1  0.88205207  0.29641046  0.10810509  1
  P  P37  1  0.97794735  0.54361140  0.24306743  1
  O  O38  1  0.02557602  0.41445769  0.62970465  1
  O  O39  1  0.02510264  0.83015896  0.56117565  1
  O  O40  1  0.08452082  0.08679113  0.73013260  1
  O  O41  1  0.10258079  0.36344056  0.85649591  1
  O  O42  1  0.09519434  0.60235013  0.77573603  1
  O  O43  1  0.18343221  0.82882263  0.84816920  1
  O  O44  1  0.22070505  0.63110584  0.99764081  1
  O  O45  1  0.02135974  0.27723150  0.07731912  1
  O  O46  1  0.11447079  0.08045636  0.29195880  1
  O  O47  1  0.06421387  0.93420376  0.11071669  1
  O  O48  1  0.13151511  0.52651663  0.22465823  1
  O  O49  1  0.18385384  0.29461903  0.40843450  1
  O  O50  1  0.16306069  0.82420942  0.31119992  1
  O  O51  1  0.21435448  0.06094133  0.51481057  1
  O  O52  1  0.27925957  0.56327632  0.48547889  1
  O  O53  1  0.33404396  0.33185243  0.69289924  1
  O  O54  1  0.31838855  0.79210014  0.58065736  1
  O  O55  1  0.37596009  0.03071990  0.78713131  1
  O  O56  1  0.38068092  0.58395439  0.70891382  1
  O  O57  1  0.44367646  0.43743723  0.89103215  1
  O  O58  1  0.48059812  0.77564617  0.92542302  1
  O  O59  1  0.27578769  0.13710381  0.00181674  1
  O  O60  1  0.31756111  0.33110981  0.15338948  1
  O  O61  1  0.40279012  0.10253082  0.22089948  1
  O  O62  1  0.41433632  0.57790388  0.27317872  1
  O  O63  1  0.38981103  0.86163884  0.14601384  1
  O  O64  1  0.52032023  0.07681245  0.62829720  1
  O  O65  1  0.46987884  0.34813810  0.43501739  1
  O  O66  1  0.53012116  0.65186190  0.56498261  1
  O  O67  1  0.47967977  0.92318755  0.37170280  1
  O  O68  1  0.61018897  0.13836116  0.85398616  1
  O  O69  1  0.58566368  0.42209612  0.72682128  1
  O  O70  1  0.59720988  0.89746918  0.77910052  1
  O  O71  1  0.68243889  0.66889019  0.84661052  1
  O  O72  1  0.72421231  0.86289619  0.99818326  1
  O  O73  1  0.51940188  0.22435383  0.07457698  1
  O  O74  1  0.55632354  0.56256277  0.10896785  1
  O  O75  1  0.61931908  0.41604561  0.29108618  1
  O  O76  1  0.62403991  0.96928010  0.21286869  1
  O  O77  1  0.68161145  0.20789986  0.41934264  1
  O  O78  1  0.66595604  0.66814757  0.30710076  1
  O  O79  1  0.72074043  0.43672368  0.51452111  1
  O  O80  1  0.78564552  0.93905867  0.48518943  1
  O  O81  1  0.83693931  0.17579058  0.68880008  1
  O  O82  1  0.81614616  0.70538097  0.59156550  1
  O  O83  1  0.86848489  0.47348337  0.77534177  1
  O  O84  1  0.93578613  0.06579624  0.88928331  1
  O  O85  1  0.88552921  0.91954364  0.70804120  1
  O  O86  1  0.97864026  0.72276850  0.92268088  1
  O  O87  1  0.77929495  0.36889416  0.00235919  1
  O  O88  1  0.81656779  0.17117737  0.15183080  1
  O  O89  1  0.90480566  0.39764987  0.22426397  1
  O  O90  1  0.89741921  0.63655944  0.14350409  1
  O  O91  1  0.91547918  0.91320887  0.26986740  1
  O  O92  1  0.97489736  0.16984104  0.43882435  1
  O  O93  1  0.97442398  0.58554231  0.37029535  1
