# generated using pymatgen
data_Li7V3P8O29
_symmetry_space_group_name_H-M   'P 1'
_cell_length_a   9.90548814
_cell_length_b   9.83734082
_cell_length_c   13.90502276
_cell_angle_alpha   90.15795023
_cell_angle_beta   90.20806709
_cell_angle_gamma   60.07240521
_symmetry_Int_Tables_number   1
_chemical_formula_structural   Li7V3P8O29
_chemical_formula_sum   'Li14 V6 P16 O58'
_cell_volume   1174.27337581
_cell_formula_units_Z   2
loop_
 _symmetry_equiv_pos_site_id
 _symmetry_equiv_pos_as_xyz
  1  'x, y, z'
loop_
 _atom_site_type_symbol
 _atom_site_label
 _atom_site_symmetry_multiplicity
 _atom_site_fract_x
 _atom_site_fract_y
 _atom_site_fract_z
 _atom_site_occupancy
  Li  Li0  1  0.91172856  0.77753249  0.06000881  1
  Li  Li1  1  0.66733705  0.67430933  0.38809784  1
  Li  Li2  1  0.67331520  0.66478791  0.88289988  1
  Li  Li3  1  0.77384675  0.31434482  0.05957946  1
  Li  Li4  1  0.31577495  0.91147175  0.06253704  1
  Li  Li5  1  0.66943766  0.23169359  0.43955891  1
  Li  Li6  1  0.32642064  0.76720690  0.56258098  1
  Li  Li7  1  0.67863031  0.09354628  0.93792211  1
  Li  Li8  1  0.22401696  0.68319436  0.93951682  1
  Li  Li9  1  0.32746810  0.33491070  0.61663816  1
  Li  Li10  1  0.09458778  0.67238294  0.44050654  1
  Li  Li11  1  0.22759250  0.09822037  0.43852669  1
  Li  Li12  1  0.09339760  0.22762644  0.93568526  1
  Li  Li13  1  0.95815722  0.02132747  0.50934191  1
  V  V14  1  0.56963031  0.42910418  0.24930070  1
  V  V15  1  0.43543176  0.56389120  0.75053986  1
  V  V16  1  0.56847919  0.99612684  0.74670184  1
  V  V17  1  0.43300658  0.00210183  0.25101127  1
  V  V18  1  0.00286119  0.56563228  0.25001781  1
  V  V19  1  0.99855192  0.43292041  0.74608116  1
  P  P20  1  0.91034297  0.76895422  0.84091818  1
  P  P21  1  0.77755858  0.91134815  0.34104625  1
  P  P22  1  0.91119359  0.31251022  0.34158400  1
  P  P23  1  0.66822455  0.66421596  0.12635980  1
  P  P24  1  0.66031428  0.66615477  0.62701069  1
  P  P25  1  0.76892927  0.32090795  0.84182595  1
  P  P26  1  0.68302470  0.22559793  0.65642026  1
  P  P27  1  0.32335965  0.90868587  0.84391917  1
  P  P28  1  0.67786860  0.08681787  0.15572101  1
  P  P29  1  0.31921392  0.77050021  0.34453807  1
  P  P30  1  0.23501938  0.67838429  0.15957472  1
  P  P31  1  0.33361709  0.33587597  0.37550791  1
  P  P32  1  0.33661449  0.32949463  0.87316692  1
  P  P33  1  0.09213602  0.68378598  0.65505263  1
  P  P34  1  0.22925969  0.08833016  0.65724019  1
  P  P35  1  0.08292493  0.23340184  0.15535957  1
  O  O36  1  0.01076777  0.77497611  0.56615826  1
  O  O37  1  0.92339027  0.74143474  0.33845143  1
  O  O38  1  0.75678601  0.00118784  0.06440684  1
  O  O39  1  0.75020615  0.92100681  0.84129892  1
  O  O40  1  0.88403105  0.62880768  0.82681521  1
  O  O41  1  0.81587461  0.66989221  0.16589719  1
  O  O42  1  0.89770703  0.47583976  0.33305193  1
  O  O43  1  0.99387399  0.25556961  0.06347579  1
  O  O44  1  0.91797456  0.33030158  0.84510082  1
  O  O45  1  0.65294840  0.81862835  0.67158604  1
  O  O46  1  0.63254138  0.89368898  0.33633772  1
  O  O47  1  0.80468614  0.52370505  0.66630469  1
  O  O48  1  0.67317553  0.65774184  0.01813137  1
  O  O49  1  0.64316463  0.67970575  0.52002311  1
  O  O50  1  0.67526664  0.50974601  0.16598572  1
  O  O51  1  0.48831505  0.88568066  0.83003029  1
  O  O52  1  0.51682820  0.81013231  0.16362593  1
  O  O53  1  0.74153202  0.33937673  0.34077978  1
  O  O54  1  0.78554861  0.21592869  0.74907937  1
  O  O55  1  0.76804432  0.22028478  0.56614267  1
  O  O56  1  0.74532174  0.24691234  0.93021579  1
  O  O57  1  0.62717791  0.48861951  0.82510258  1
  O  O58  1  0.50906597  0.66830418  0.66806988  1
  O  O59  1  0.67039387  0.24904308  0.16045488  1
  O  O60  1  0.48268334  0.62569664  0.32904129  1
  O  O61  1  0.33165758  0.91923398  0.34519116  1
  O  O62  1  0.79374876  0.98783601  0.24257772  1
  O  O63  1  0.79230546  0.00388255  0.42228388  1
  O  O64  1  0.23749336  0.99394912  0.56870939  1
  O  O65  1  0.65972524  0.08384318  0.66308598  1
  O  O66  1  0.52099028  0.37715979  0.66758201  1
  O  O67  1  0.33455599  0.74627293  0.84564833  1
  O  O68  1  0.48741815  0.32532691  0.33543034  1
  O  O69  1  0.38432926  0.51964837  0.17954778  1
  O  O70  1  0.24770794  0.75398737  0.06905070  1
  O  O71  1  0.23450713  0.76075442  0.43204619  1
  O  O72  1  0.21406046  0.78792248  0.25042254  1
  O  O73  1  0.25478698  0.67021979  0.66190686  1
  O  O74  1  0.48332457  0.17841507  0.83034540  1
  O  O75  1  0.51882104  0.10542433  0.17360703  1
  O  O76  1  0.34121503  0.47752715  0.82675128  1
  O  O77  1  0.34764072  0.33714542  0.97954272  1
  O  O78  1  0.33551113  0.34338321  0.48380721  1
  O  O79  1  0.18854596  0.48926069  0.33577354  1
  O  O80  1  0.37627261  0.10605060  0.66903553  1
  O  O81  1  0.32332290  0.19092531  0.34045485  1
  O  O82  1  0.08799831  0.66141344  0.15867943  1
  O  O83  1  0.00031841  0.78377891  0.74916212  1
  O  O84  1  0.00377809  0.75504021  0.93025345  1
  O  O85  1  0.11232654  0.51900783  0.66476246  1
  O  O86  1  0.18778793  0.33184534  0.83574277  1
  O  O87  1  0.09389911  0.38239809  0.18073595  1
  O  O88  1  0.24330014  0.08750233  0.15645306  1
  O  O89  1  0.24323639  0.00298665  0.93230770  1
  O  O90  1  0.22046780  0.99488983  0.75057041  1
  O  O91  1  0.08477461  0.24813490  0.65880502  1
  O  O92  1  0.00277655  0.20924423  0.42340646  1
  O  O93  1  0.98501441  0.21810524  0.24250386  1
