# generated using pymatgen
data_Li9V21O40
_symmetry_space_group_name_H-M   'P 1'
_cell_length_a   10.44772052
_cell_length_b   8.29875242
_cell_length_c   10.44772053
_cell_angle_alpha   113.40051025
_cell_angle_beta   80.92466774
_cell_angle_gamma   113.40051026
_symmetry_Int_Tables_number   1
_chemical_formula_structural   Li9V21O40
_chemical_formula_sum   'Li9 V21 O40'
_cell_volume   762.96693757
_cell_formula_units_Z   1
loop_
 _symmetry_equiv_pos_site_id
 _symmetry_equiv_pos_as_xyz
  1  'x, y, z'
loop_
 _atom_site_type_symbol
 _atom_site_label
 _atom_site_symmetry_multiplicity
 _atom_site_fract_x
 _atom_site_fract_y
 _atom_site_fract_z
 _atom_site_occupancy
  Li  Li0  1  0.34881786  0.52313694  0.95030177  1
  Li  Li1  1  0.15030177  0.72716484  0.55118214  1
  Li  Li2  1  0.45028199  0.67356066  0.64835605  1
  Li  Li3  1  0.25164395  0.87672133  0.25028199  1
  Li  Li4  1  0.75118214  0.12401730  0.74969823  1
  Li  Li5  1  0.55000000  0.32500000  0.35000000  1
  Li  Li6  1  0.84835605  0.27479538  0.44971801  1
  Li  Li7  1  0.64971801  0.47492263  0.05164395  1
  Li  Li8  1  0.94969823  0.92568092  0.14881786  1
  V  V9  1  0.05000000  0.07500000  0.85000000  1
  V  V10  1  0.00091961  0.00154775  0.49350250  1
  V  V11  1  0.19933766  0.79486299  0.89919778  1
  V  V12  1  0.09919778  0.40433479  0.70066234  1
  V  V13  1  0.40649750  0.09937186  0.80091961  1
  V  V14  1  0.30300180  0.19830243  0.59839331  1
  V  V15  1  0.00080222  0.50447467  0.99933766  1
  V  V16  1  0.20094169  0.30412082  0.40434729  1
  V  V17  1  0.09908039  0.40712564  0.20649750  1
  V  V18  1  0.50251235  0.00385872  0.50390251  1
  V  V19  1  0.60434729  0.40022647  0.69905831  1
  V  V20  1  0.39609749  0.59865363  0.30251235  1
  V  V21  1  0.69350250  0.79195475  0.89908039  1
  V  V22  1  0.30160669  0.20469836  0.10300180  1
  V  V23  1  0.90066234  0.59632756  0.80080222  1
  V  V24  1  0.59748765  0.89744386  0.19609749  1
  V  V25  1  0.70390251  0.80004379  0.39748765  1
  V  V26  1  0.79839331  0.70009087  0.59699820  1
  V  V27  1  0.49565271  0.99682087  0.00094169  1
  V  V28  1  0.79699820  0.19690833  0.10160669  1
  V  V29  1  0.89905831  0.59883184  0.29565271  1
  O  O30  1  0.00229105  0.73681320  0.98443796  1
  O  O31  1  0.09770895  0.65008419  0.71556204  1
  O  O32  1  0.18443796  0.54762476  0.89770895  1
  O  O33  1  0.21374131  0.05468807  0.90027994  1
  O  O34  1  0.01002140  0.23547575  0.50056318  1
  O  O35  1  0.10027994  0.14559187  0.68625869  1
  O  O36  1  0.08997860  0.62489117  0.19943682  1
  O  O37  1  0.39943682  0.87454565  0.81002140  1
  O  O38  1  0.48188016  0.23307728  0.99388104  1
  O  O39  1  0.28561602  0.42840009  0.59603395  1
  O  O40  1  0.19388104  0.06080376  0.41811984  1
  O  O41  1  0.40654954  0.32393001  0.78420555  1
  O  O42  1  0.11579445  0.18262052  0.20654954  1
  O  O43  1  0.20549469  0.54270973  0.38407305  1
  O  O44  1  0.32348780  0.96828518  0.60503926  1
  O  O45  1  0.39239634  0.37128698  0.30310901  1
  O  O46  1  0.29496074  0.45520262  0.12348780  1
  O  O47  1  0.69345046  0.03317393  0.91579445  1
  O  O48  1  0.58407305  0.14136332  0.69450531  1
  O  O49  1  0.50310901  0.23182203  0.50760366  1
  O  O50  1  0.50796443  0.76315047  0.48428524  1
  O  O51  1  0.61811984  0.65731608  0.70611896  1
  O  O52  1  0.41571476  0.84481396  0.30796443  1
  O  O53  1  0.70056318  0.56508743  0.88997860  1
  O  O54  1  0.30396605  0.95721593  0.08561602  1
  O  O55  1  0.59203557  0.67090081  0.21571476  1
  O  O56  1  0.88625869  0.84066682  0.79972006  1
  O  O57  1  0.68428524  0.02113476  0.39203557  1
  O  O58  1  0.79603395  0.46763386  0.61438398  1
  O  O59  1  0.91556204  0.36547785  0.80229105  1
  O  O60  1  0.51592695  0.76278496  0.00549469  1
  O  O61  1  0.80503926  0.93675407  0.57651220  1
  O  O62  1  0.70760366  0.57578163  0.39689099  1
  O  O63  1  0.59689099  0.12110936  0.19239634  1
  O  O64  1  0.89450531  0.85314199  0.31592695  1
  O  O65  1  0.98420555  0.76027654  0.49345046  1
  O  O66  1  0.77651220  0.93975912  0.09496074  1
  O  O67  1  0.90611896  0.34880287  0.28188016  1
  O  O68  1  0.81438398  0.44675011  0.10396605  1
  O  O69  1  0.99972006  0.25905324  0.01374131  1
