# generated using pymatgen
data_VIr
_symmetry_space_group_name_H-M   'P 1'
_cell_length_a   8.66676422
_cell_length_b   8.66676422
_cell_length_c   8.66676422
_cell_angle_alpha   131.00357757
_cell_angle_beta   100.12750349
_cell_angle_gamma   99.67472596
_symmetry_Int_Tables_number   1
_chemical_formula_structural   VIr
_chemical_formula_sum   'V16 Ir16'
_cell_volume   447.04528924
_cell_formula_units_Z   16
loop_
 _symmetry_equiv_pos_site_id
 _symmetry_equiv_pos_as_xyz
  1  'x, y, z'
loop_
 _atom_site_type_symbol
 _atom_site_label
 _atom_site_symmetry_multiplicity
 _atom_site_fract_x
 _atom_site_fract_y
 _atom_site_fract_z
 _atom_site_occupancy
  V  V0  1  0.22101791  0.35220077  0.86881715  1
  V  V1  1  0.48338362  0.35220077  0.13118285  1
  V  V2  1  0.97395576  0.35511327  0.61884249  1
  V  V3  1  0.73627079  0.35511327  0.38115751  1
  V  V4  1  0.49296994  0.62500000  0.86796994  1
  V  V5  1  0.75703006  0.62500000  0.13203006  1
  V  V6  1  0.24114394  0.62500000  0.61614394  1
  V  V7  1  0.00885606  0.62500000  0.38385606  1
  V  V8  1  0.99481283  0.12500000  0.86981283  1
  V  V9  1  0.25518717  0.12500000  0.13018717  1
  V  V10  1  0.74525791  0.12500000  0.62025791  1
  V  V11  1  0.50474209  0.12500000  0.37974209  1
  V  V12  1  0.76661638  0.89779923  0.86881715  1
  V  V13  1  0.02898209  0.89779923  0.13118285  1
  V  V14  1  0.51372921  0.89488673  0.61884249  1
  V  V15  1  0.27604424  0.89488673  0.38115751  1
  Ir  Ir16  1  0.25194263  0.50879219  0.25684956  1
  Ir  Ir17  1  0.25194263  0.99509306  0.74315044  1
  Ir  Ir18  1  0.00232854  0.52011510  0.01856676  1
  Ir  Ir19  1  0.50154834  0.98376178  0.98143324  1
  Ir  Ir20  1  0.00232854  0.98376178  0.48221343  1
  Ir  Ir21  1  0.50154834  0.52011510  0.51778657  1
  Ir  Ir22  1  0.75202743  0.97498412  0.22295669  1
  Ir  Ir23  1  0.75202743  0.52907074  0.77704331  1
  Ir  Ir24  1  0.99805737  0.25490694  0.25684956  1
  Ir  Ir25  1  0.99805737  0.74120781  0.74315044  1
  Ir  Ir26  1  0.74845166  0.26623822  0.01856676  1
  Ir  Ir27  1  0.24767146  0.72988490  0.98143324  1
  Ir  Ir28  1  0.74845166  0.72988490  0.48221343  1
  Ir  Ir29  1  0.24767146  0.26623822  0.51778657  1
  Ir  Ir30  1  0.49797257  0.72092926  0.22295669  1
  Ir  Ir31  1  0.49797257  0.27501588  0.77704331  1
