# generated using pymatgen
data_Li2VOF4
_symmetry_space_group_name_H-M   'P 1'
_cell_length_a   5.08050411
_cell_length_b   5.77024284
_cell_length_c   6.90844967
_cell_angle_alpha   71.52566112
_cell_angle_beta   89.99999997
_cell_angle_gamma   63.88123685
_symmetry_Int_Tables_number   1
_chemical_formula_structural   Li2VOF4
_chemical_formula_sum   'Li4 V2 O2 F8'
_cell_volume   170.14403699
_cell_formula_units_Z   2
loop_
 _symmetry_equiv_pos_site_id
 _symmetry_equiv_pos_as_xyz
  1  'x, y, z'
loop_
 _atom_site_type_symbol
 _atom_site_label
 _atom_site_symmetry_multiplicity
 _atom_site_fract_x
 _atom_site_fract_y
 _atom_site_fract_z
 _atom_site_occupancy
  Li  Li0  1  0.64498956  0.71607355  0.74462950  1
  Li  Li1  1  0.63893789  0.71607355  0.24462950  1
  Li  Li2  1  0.36106211  0.28392645  0.75537050  1
  Li  Li3  1  0.35501044  0.28392645  0.25537050  1
  V  V4  1  0.00000000  -0.00000000  0.50000000  1
  V  V5  1  0.00000000  -0.00000000  0.00000000  1
  O  O6  1  0.86058487  1.00000000  0.75000000  1
  O  O7  1  0.13941513  0.00000000  0.25000000  1
  F  F8  1  0.41313691  0.82499003  0.95991362  1
  F  F9  1  0.76187306  0.82499003  0.45991362  1
  F  F10  1  0.34025102  0.64248039  0.64151595  1
  F  F11  1  0.98273141  0.35751961  0.85848405  1
  F  F12  1  0.01726859  0.64248039  0.14151595  1
  F  F13  1  0.65974898  0.35751961  0.35848405  1
  F  F14  1  0.23812694  0.17500997  0.54008638  1
  F  F15  1  0.58686309  0.17500997  0.04008638  1
