# generated using pymatgen
data_Li3MnCr3O8
_symmetry_space_group_name_H-M   'P 1'
_cell_length_a   10.31085415
_cell_length_b   10.31085559
_cell_length_c   14.59477039
_cell_angle_alpha   19.32719758
_cell_angle_beta   19.32715771
_cell_angle_gamma   33.31159311
_symmetry_Int_Tables_number   1
_chemical_formula_structural   Li3MnCr3O8
_chemical_formula_sum   'Li3 Mn1 Cr3 O8'
_cell_volume   147.18846359
_cell_formula_units_Z   1
loop_
 _symmetry_equiv_pos_site_id
 _symmetry_equiv_pos_as_xyz
  1  'x, y, z'
loop_
 _atom_site_type_symbol
 _atom_site_label
 _atom_site_symmetry_multiplicity
 _atom_site_fract_x
 _atom_site_fract_y
 _atom_site_fract_z
 _atom_site_occupancy
  Li  Li0  1  -0.00000000  0.50000000  0.50000000  1
  Li  Li1  1  0.50000000  0.00000100  0.50000000  1
  Li  Li2  1  0.50000000  0.50000000  0.50000000  1
  Mn  Mn3  1  -0.00000000  0.99999800  0.00000200  1
  Cr  Cr4  1  -0.00000000  0.50000000  -0.00000000  1
  Cr  Cr5  1  0.50000000  0.00000000  -0.00000000  1
  Cr  Cr6  1  0.50000000  0.50000100  -0.00000000  1
  O  O7  1  0.99999782  0.99999815  0.25923443  1
  O  O8  1  0.99997713  0.52240218  0.24678941  1
  O  O9  1  0.52240389  0.99997799  0.24678822  1
  O  O10  1  0.00000518  0.00000485  0.74076257  1
  O  O11  1  0.47757318  0.47757417  0.29161030  1
  O  O12  1  0.00002187  0.47759582  0.75321159  1
  O  O13  1  0.47759711  0.00002301  0.75321078  1
  O  O14  1  0.52242382  0.52242383  0.70839270  1
