# generated using pymatgen
data_Li4Fe3Co3(TeO8)2
_symmetry_space_group_name_H-M   'P 1'
_cell_length_a   5.98121920
_cell_length_b   5.96425696
_cell_length_c   9.76310792
_cell_angle_alpha   89.88469916
_cell_angle_beta   89.38231358
_cell_angle_gamma   119.71533626
_symmetry_Int_Tables_number   1
_chemical_formula_structural   Li4Fe3Co3(TeO8)2
_chemical_formula_sum   'Li4 Fe3 Co3 Te2 O16'
_cell_volume   302.45626941
_cell_formula_units_Z   1
loop_
 _symmetry_equiv_pos_site_id
 _symmetry_equiv_pos_as_xyz
  1  'x, y, z'
loop_
 _atom_site_type_symbol
 _atom_site_label
 _atom_site_symmetry_multiplicity
 _atom_site_fract_x
 _atom_site_fract_y
 _atom_site_fract_z
 _atom_site_occupancy
  Li  Li0  1  0.33348489  0.66925624  0.91152787  1
  Li  Li1  1  0.00285989  0.00169083  0.98586501  1
  Li  Li2  1  0.00948638  0.00320729  0.48390106  1
  Li  Li3  1  0.66948117  0.33617663  0.41042104  1
  Fe  Fe4  1  0.65965793  0.82846584  0.21384038  1
  Fe  Fe5  1  0.82834086  0.65947303  0.71293635  1
  Fe  Fe6  1  0.82559940  0.16792740  0.71252686  1
  Co  Co7  1  0.17029665  0.82703033  0.21150803  1
  Co  Co8  1  0.17110528  0.34323894  0.21184114  1
  Co  Co9  1  0.34344637  0.17076863  0.71139910  1
  Te  Te10  1  0.32979271  0.66469508  0.48279726  1
  Te  Te11  1  0.66133210  0.32785051  0.98510679  1
  O  O12  1  0.16708741  0.82536785  0.58942009  1
  O  O13  1  0.04018367  0.52391026  0.35086268  1
  O  O14  1  0.33430587  0.67812886  0.11367846  1
  O  O15  1  0.00481770  0.99134813  0.29421379  1
  O  O16  1  0.99303112  0.99587483  0.79708236  1
  O  O17  1  0.16495185  0.34169263  0.58767843  1
  O  O18  1  0.48655163  0.96426885  0.35322130  1
  O  O19  1  0.48977650  0.52709718  0.35461169  1
  O  O20  1  0.33427478  0.16476409  0.08830389  1
  O  O21  1  0.65061953  0.82592538  0.59426576  1
  O  O22  1  0.52264276  0.48501597  0.85486427  1
  O  O23  1  0.52615387  0.03809343  0.85364770  1
  O  O24  1  0.67837563  0.34086483  0.60893002  1
  O  O25  1  0.82072172  0.65222051  0.09087167  1
  O  O26  1  0.96068176  0.47965616  0.85176876  1
  O  O27  1  0.82094055  0.16629029  0.09074825  1
