# generated using pymatgen
data_Fe10OF19
_symmetry_space_group_name_H-M   'P 1'
_cell_length_a   17.32032477
_cell_length_b   6.82310436
_cell_length_c   3.28715014
_cell_angle_alpha   90.00000000
_cell_angle_beta   90.00000000
_cell_angle_gamma   78.64028007
_symmetry_Int_Tables_number   1
_chemical_formula_structural   Fe10OF19
_chemical_formula_sum   'Fe10 O1 F19'
_cell_volume   380.85991751
_cell_formula_units_Z   1
loop_
 _symmetry_equiv_pos_site_id
 _symmetry_equiv_pos_as_xyz
  1  'x, y, z'
loop_
 _atom_site_type_symbol
 _atom_site_label
 _atom_site_symmetry_multiplicity
 _atom_site_fract_x
 _atom_site_fract_y
 _atom_site_fract_z
 _atom_site_occupancy
  Fe  Fe0  1  0.00069504  0.99965248  -0.00000000  1
  Fe  Fe1  1  0.99603541  0.50198230  0.50000000  1
  Fe  Fe2  1  0.19769796  0.40115052  -0.00000000  1
  Fe  Fe3  1  0.20017754  0.89991123  0.50000000  1
  Fe  Fe4  1  0.39910722  0.30044639  0.50000000  1
  Fe  Fe5  1  0.40025200  0.79987400  -0.00000000  1
  Fe  Fe6  1  0.59911760  0.20044170  0.00000000  1
  Fe  Fe7  1  0.79959391  0.10020255  0.50000000  1
  Fe  Fe8  1  0.60134029  0.69933035  0.50000000  1
  Fe  Fe9  1  0.81362147  0.59318876  -0.00000000  1
  O  O10  1  0.87468366  0.56265767  0.50000000  1
  F  F11  1  0.00044762  0.29882877  0.00000000  1
  F  F12  1  0.00044762  0.70072361  0.00000000  1
  F  F13  1  0.20058334  0.09955457  -0.00000000  1
  F  F14  1  0.11789730  0.44105085  0.50000000  1
  F  F15  1  0.08002701  0.95998699  0.50000000  1
  F  F16  1  0.27957760  0.36021120  0.50000000  1
  F  F17  1  0.20058334  0.69986208  0.00000000  1
  F  F18  1  0.40063490  0.09970383  -0.00000000  1
  F  F19  1  0.40063490  0.49966127  0.00000000  1
  F  F20  1  0.32061939  0.83969030  0.50000000  1
  F  F21  1  0.51966222  0.24016889  0.50000000  1
  F  F22  1  0.48087681  0.75956109  0.50000000  1
  F  F23  1  0.67985489  0.16007306  0.50000000  1
  F  F24  1  0.60041867  0.49995679  0.00000000  1
  F  F25  1  0.60041867  0.89962454  -0.00000000  1
  F  F26  1  0.79637063  0.30715002  -0.00000000  1
  F  F27  1  0.72356014  0.63821993  0.50000000  1
  F  F28  1  0.91869220  0.04065390  0.50000000  1
  F  F29  1  0.79637063  0.89647935  -0.00000000  1
