# generated using pymatgen
data_Li7Mn4(P2O7)4
_symmetry_space_group_name_H-M   'P 1'
_cell_length_a   9.90395318
_cell_length_b   9.90031487
_cell_length_c   11.32547308
_cell_angle_alpha   89.78860749
_cell_angle_beta   102.66467308
_cell_angle_gamma   89.65814681
_symmetry_Int_Tables_number   1
_chemical_formula_structural   Li7Mn4(P2O7)4
_chemical_formula_sum   'Li14 Mn8 P16 O56'
_cell_volume   1083.43639665
_cell_formula_units_Z   2
loop_
 _symmetry_equiv_pos_site_id
 _symmetry_equiv_pos_as_xyz
  1  'x, y, z'
loop_
 _atom_site_type_symbol
 _atom_site_label
 _atom_site_symmetry_multiplicity
 _atom_site_fract_x
 _atom_site_fract_y
 _atom_site_fract_z
 _atom_site_occupancy
  Li  Li0  1  0.11349885  0.71292014  0.44976093  1
  Li  Li1  1  0.08599503  0.10692204  0.02832729  1
  Li  Li2  1  0.34454256  0.91038188  0.95738725  1
  Li  Li3  1  0.15497796  0.40907703  0.04352127  1
  Li  Li4  1  0.41458727  0.60790553  0.97044608  1
  Li  Li5  1  0.33588850  0.92033747  0.45761213  1
  Li  Li6  1  0.38236908  0.22422726  0.55209818  1
  Li  Li7  1  0.66327740  0.06974501  0.54108743  1
  Li  Li8  1  0.58425605  0.39211585  0.02936912  1
  Li  Li9  1  0.84563206  0.59082242  0.95499790  1
  Li  Li10  1  0.65483518  0.09105916  0.04317429  1
  Li  Li11  1  0.91477704  0.89299016  0.97164868  1
  Li  Li12  1  0.82871419  0.58093396  0.45478352  1
  Li  Li13  1  0.89482327  0.28048990  0.55285677  1
  Mn  Mn14  1  0.20107623  0.91945605  0.67328991  1
  Mn  Mn15  1  0.25244946  0.21577650  0.82004085  1
  Mn  Mn16  1  0.24781042  0.71600848  0.17820678  1
  Mn  Mn17  1  0.29594437  0.42609220  0.33296985  1
  Mn  Mn18  1  0.69971555  0.58028974  0.67046302  1
  Mn  Mn19  1  0.75517070  0.28534239  0.82266986  1
  Mn  Mn20  1  0.74267679  0.78424104  0.17929162  1
  Mn  Mn21  1  0.79909291  0.07642684  0.32841494  1
  P  P22  1  0.02301614  0.45654991  0.75724454  1
  P  P23  1  0.11865608  0.70362166  0.89169919  1
  P  P24  1  0.05904473  0.93105195  0.24385703  1
  P  P25  1  0.12462030  0.15148851  0.42420134  1
  P  P26  1  0.37788189  0.64738452  0.57395449  1
  P  P27  1  0.44117276  0.43275936  0.75654088  1
  P  P28  1  0.52474012  0.04711372  0.76045630  1
  P  P29  1  0.38090200  0.20521518  0.10751995  1
  P  P30  1  0.61853698  0.79622720  0.89151508  1
  P  P31  1  0.47529890  0.95400538  0.24243090  1
  P  P32  1  0.55959982  0.56723408  0.24333832  1
  P  P33  1  0.62269536  0.35042205  0.42606688  1
  P  P34  1  0.87572828  0.84870740  0.57421444  1
  P  P35  1  0.93986846  0.06703629  0.75552981  1
  P  P36  1  0.88108396  0.29608513  0.10883468  1
  P  P37  1  0.97309142  0.54590359  0.23996662  1
  O  O38  1  0.01868589  0.41548422  0.62984903  1
  O  O39  1  0.02361076  0.83500953  0.55463973  1
  O  O40  1  0.08556106  0.08584770  0.73026878  1
  O  O41  1  0.10892978  0.36507596  0.85708591  1
  O  O42  1  0.09473620  0.60314276  0.77594593  1
  O  O43  1  0.18243776  0.82896339  0.84727628  1
  O  O44  1  0.22323087  0.63276779  0.99755176  1
  O  O45  1  0.01949215  0.27652982  0.07592671  1
  O  O46  1  0.11223341  0.07772695  0.29421341  1
  O  O47  1  0.06373941  0.93422307  0.11114052  1
  O  O48  1  0.12280473  0.53151592  0.21527577  1
  O  O49  1  0.19200510  0.28688126  0.41106025  1
  O  O50  1  0.16279616  0.82538893  0.31338698  1
  O  O51  1  0.22327587  0.06361771  0.51795499  1
  O  O52  1  0.28120262  0.57109701  0.47409249  1
  O  O53  1  0.34760247  0.31950466  0.69400251  1
  O  O54  1  0.31764467  0.78929836  0.58388722  1
  O  O55  1  0.37729153  0.03327656  0.78674674  1
  O  O56  1  0.37913982  0.57651719  0.70326906  1
  O  O57  1  0.44076210  0.43842675  0.88960992  1
  O  O58  1  0.48031115  0.77727218  0.92429898  1
  O  O59  1  0.27665194  0.13533167  0.00159112  1
  O  O60  1  0.31719552  0.33040908  0.15308987  1
  O  O61  1  0.40526361  0.10303260  0.22210166  1
  O  O62  1  0.41351233  0.58381079  0.27099807  1
  O  O63  1  0.38797537  0.86385769  0.14380666  1
  O  O64  1  0.52258566  0.08665069  0.63066636  1
  O  O65  1  0.47429252  0.34213774  0.44518386  1
  O  O66  1  0.53065872  0.65139871  0.56424502  1
  O  O67  1  0.47467778  0.92057666  0.37099530  1
  O  O68  1  0.61544331  0.13659832  0.85691252  1
  O  O69  1  0.58947946  0.42150523  0.72875946  1
  O  O70  1  0.59604413  0.89873684  0.77653971  1
  O  O71  1  0.68258230  0.67115426  0.84559262  1
  O  O72  1  0.72295627  0.86467620  0.99833665  1
  O  O73  1  0.51945349  0.22328426  0.07441935  1
  O  O74  1  0.55880608  0.56221799  0.10974276  1
  O  O75  1  0.61382449  0.41856448  0.29518633  1
  O  O76  1  0.62466489  0.96553918  0.21534833  1
  O  O77  1  0.68593149  0.20967098  0.41879734  1
  O  O78  1  0.66704574  0.66947972  0.30786540  1
  O  O79  1  0.72316523  0.43614824  0.51840033  1
  O  O80  1  0.78229064  0.94050133  0.48325895  1
  O  O81  1  0.83569838  0.17290167  0.68641108  1
  O  O82  1  0.81770029  0.70651794  0.58957984  1
  O  O83  1  0.87154286  0.47446136  0.78379942  1
  O  O84  1  0.93598463  0.06487034  0.88850607  1
  O  O85  1  0.88678653  0.91919870  0.70586083  1
  O  O86  1  0.98030572  0.72345962  0.92498996  1
  O  O87  1  0.77668746  0.36727125  0.00313058  1
  O  O88  1  0.81755362  0.17118656  0.15417901  1
  O  O89  1  0.90421420  0.39820584  0.22433071  1
  O  O90  1  0.88505156  0.63749422  0.14113934  1
  O  O91  1  0.91248924  0.91260589  0.26799709  1
  O  O92  1  0.97643543  0.16286317  0.44278706  1
  O  O93  1  0.97261552  0.58860508  0.36737323  1
