# generated using pymatgen
data_NaHO
_symmetry_space_group_name_H-M   'P 1'
_cell_length_a   5.62414923
_cell_length_b   5.62416822
_cell_length_c   5.62420200
_cell_angle_alpha   111.39222259
_cell_angle_beta   111.39509912
_cell_angle_gamma   105.69408173
_symmetry_Int_Tables_number   1
_chemical_formula_structural   NaHO
_chemical_formula_sum   'Na4 H4 O4'
_cell_volume   136.49973741
_cell_formula_units_Z   4
loop_
 _symmetry_equiv_pos_site_id
 _symmetry_equiv_pos_as_xyz
  1  'x, y, z'
loop_
 _atom_site_type_symbol
 _atom_site_label
 _atom_site_symmetry_multiplicity
 _atom_site_fract_x
 _atom_site_fract_y
 _atom_site_fract_z
 _atom_site_occupancy
  Na  Na0  1  0.00000985  0.99995605  0.00000464  1
  Na  Na1  1  0.49993893  0.49999368  0.99996952  1
  Na  Na2  1  0.49994156  0.99995830  0.49995843  1
  Na  Na3  1  0.00001459  0.49999688  0.50006823  1
  H  H4  1  0.00215906  0.00215747  0.49993971  1
  H  H5  1  0.99802494  0.49803026  0.00006019  1
  H  H6  1  0.49787518  0.99787798  0.00006321  1
  H  H7  1  0.50205280  0.50204895  0.49994137  1
  O  O8  1  0.85885595  0.85885614  0.49999098  1
  O  O9  1  0.14122232  0.64122240  0.00000447  1
  O  O10  1  0.64108942  0.14108628  0.00000702  1
  O  O11  1  0.35881539  0.35881563  0.49999224  1
