# generated using pymatgen
data_Y4In20Ni11
_symmetry_space_group_name_H-M   'P 1'
_cell_length_a   4.34285290
_cell_length_b   11.51414064
_cell_length_c   14.18194632
_cell_angle_alpha   80.14681590
_cell_angle_beta   80.95727384
_cell_angle_gamma   79.00524239
_symmetry_Int_Tables_number   1
_chemical_formula_structural   Y4In20Ni11
_chemical_formula_sum   'Y4 In20 Ni11'
_cell_volume   680.16233824
_cell_formula_units_Z   1
loop_
 _symmetry_equiv_pos_site_id
 _symmetry_equiv_pos_as_xyz
  1  'x, y, z'
loop_
 _atom_site_type_symbol
 _atom_site_label
 _atom_site_symmetry_multiplicity
 _atom_site_fract_x
 _atom_site_fract_y
 _atom_site_fract_z
 _atom_site_occupancy
  Y  Y0  1  0.23078007  0.36713199  0.17293328  1
  Y  Y1  1  0.11802223  0.09386579  0.66769288  1
  Y  Y2  1  0.88433633  0.90480816  0.33180993  1
  Y  Y3  1  0.77030431  0.63150046  0.82576842  1
  In  In4  1  0.24627708  0.79680929  0.70958845  1
  In  In5  1  0.70290448  0.09494579  0.49737174  1
  In  In6  1  0.38788304  0.53175398  0.69014679  1
  In  In7  1  0.61374047  0.46762142  0.30768961  1
  In  In8  1  0.46281503  0.70333049  0.37645505  1
  In  In9  1  0.93677045  0.33655987  0.78920308  1
  In  In10  1  0.60218413  0.78813050  0.00854775  1
  In  In11  1  0.75409315  0.20197815  0.29014994  1
  In  In12  1  0.11505807  0.32144283  0.44847989  1
  In  In13  1  0.54065386  0.29549216  0.62192561  1
  In  In14  1  0.98833303  0.92524265  0.09523069  1
  In  In15  1  0.01220505  0.07424059  0.90396131  1
  In  In16  1  0.39753617  0.21134820  0.99044529  1
  In  In17  1  0.63096827  0.93875842  0.80206778  1
  In  In18  1  0.79929735  0.40118898  0.00258169  1
  In  In19  1  0.29802088  0.90266888  0.50237132  1
  In  In20  1  0.20193305  0.59816825  0.99565034  1
  In  In21  1  0.88644116  0.67703456  0.54918882  1
  In  In22  1  0.37052486  0.05993491  0.19728426  1
  In  In23  1  0.06695779  0.66273423  0.20880262  1
  Ni  Ni24  1  0.25309213  0.11095874  0.38258122  1
  Ni  Ni25  1  0.34743554  0.42704368  0.87821792  1
  Ni  Ni26  1  0.86190653  0.16877517  0.10346103  1
  Ni  Ni27  1  0.02596970  0.55511316  0.39874548  1
  Ni  Ni28  1  0.49454742  0.81810551  0.19378874  1
  Ni  Ni29  1  0.97780659  0.44326375  0.59893470  1
  Ni  Ni30  1  0.50134598  0.49970502  0.49925586  1
  Ni  Ni31  1  0.65560924  0.57235051  0.11967749  1
  Ni  Ni32  1  0.13762649  0.83108921  0.89610239  1
  Ni  Ni33  1  0.50805015  0.18059344  0.80515790  1
  Ni  Ni34  1  0.74775291  0.88650228  0.61699174  1
