# generated using pymatgen
data_BaMo3O10
_symmetry_space_group_name_H-M   'P 1'
_cell_length_a   15.05268954
_cell_length_b   7.70257505
_cell_length_c   7.22572358
_cell_angle_alpha   90.00000000
_cell_angle_beta   101.03695858
_cell_angle_gamma   90.00000000
_symmetry_Int_Tables_number   1
_chemical_formula_structural   BaMo3O10
_chemical_formula_sum   'Ba4 Mo12 O40'
_cell_volume   822.28698281
_cell_formula_units_Z   4
loop_
 _symmetry_equiv_pos_site_id
 _symmetry_equiv_pos_as_xyz
  1  'x, y, z'
loop_
 _atom_site_type_symbol
 _atom_site_label
 _atom_site_symmetry_multiplicity
 _atom_site_fract_x
 _atom_site_fract_y
 _atom_site_fract_z
 _atom_site_occupancy
  Ba  Ba0  1  0.93372020  0.24892490  0.11596130  1
  Ba  Ba1  1  0.06627980  0.74892490  0.88403870  1
  Ba  Ba2  1  0.43141450  0.00464240  0.60485784  1
  Ba  Ba3  1  0.56858550  0.50464240  0.39514216  1
  Mo  Mo4  1  0.34924685  0.74788679  0.06311549  1
  Mo  Mo5  1  0.65075315  0.24788679  0.93688451  1
  Mo  Mo6  1  0.61701049  0.73689129  0.94093706  1
  Mo  Mo7  1  0.38298951  0.23689129  0.05906294  1
  Mo  Mo8  1  0.14728528  0.00917282  0.43464975  1
  Mo  Mo9  1  0.85271472  0.50917282  0.56535025  1
  Mo  Mo10  1  0.88379314  0.02082864  0.55483115  1
  Mo  Mo11  1  0.11620686  0.52082864  0.44516885  1
  Mo  Mo12  1  0.83474325  0.74824164  0.18433043  1
  Mo  Mo13  1  0.16525675  0.24824164  0.81566957  1
  Mo  Mo14  1  0.33358826  0.50449279  0.68769710  1
  Mo  Mo15  1  0.66641174  0.00449279  0.31230290  1
  O  O16  1  0.63075016  0.49449568  0.97446534  1
  O  O17  1  0.36924984  0.99449568  0.02553466  1
  O  O18  1  0.36202986  0.49951951  0.99645213  1
  O  O19  1  0.63797014  0.99951951  0.00354787  1
  O  O20  1  0.50824189  0.74902581  0.00130785  1
  O  O21  1  0.49175811  0.24902581  0.99869215  1
  O  O22  1  0.58849177  0.23142965  0.70355241  1
  O  O23  1  0.41150823  0.73142965  0.29644759  1
  O  O24  1  0.76308384  0.25316759  0.91292520  1
  O  O25  1  0.23691616  0.75316759  0.08707480  1
  O  O26  1  0.66664014  0.24050468  0.23164644  1
  O  O27  1  0.33335986  0.74050468  0.76835356  1
  O  O28  1  0.59183598  0.76391787  0.69472798  1
  O  O29  1  0.40816402  0.26391787  0.30527202  1
  O  O30  1  0.67949001  0.76308587  0.24643874  1
  O  O31  1  0.32050999  0.26308587  0.75356126  1
  O  O32  1  0.75927551  0.74147791  0.95593835  1
  O  O33  1  0.24072449  0.24147791  0.04406165  1
  O  O34  1  0.87015013  0.26164303  0.51845297  1
  O  O35  1  0.12984987  0.76164303  0.48154703  1
  O  O36  1  0.86611148  0.75477125  0.49901143  1
  O  O37  1  0.13388852  0.25477125  0.50098857  1
  O  O38  1  0.99193310  0.00929618  0.48916076  1
  O  O39  1  0.00806690  0.50929618  0.51083924  1
  O  O40  1  0.91303858  0.51411648  0.80049472  1
  O  O41  1  0.08696142  0.01411648  0.19950528  1
  O  O42  1  0.74003423  0.50534225  0.58714003  1
  O  O43  1  0.25996577  0.00534225  0.41285997  1
  O  O44  1  0.83590350  0.51447562  0.26720333  1
  O  O45  1  0.16409650  0.01447562  0.73279667  1
  O  O46  1  0.08848180  0.49440894  0.19944707  1
  O  O47  1  0.91151820  0.99440894  0.80055293  1
  O  O48  1  0.17880725  0.48913599  0.74745189  1
  O  O49  1  0.82119275  0.98913599  0.25254811  1
  O  O50  1  0.25789633  0.51375047  0.45869928  1
  O  O51  1  0.74210367  0.01375047  0.54130072  1
  O  O52  1  0.94043718  0.75928346  0.12267299  1
  O  O53  1  0.05956282  0.25928346  0.87732701  1
  O  O54  1  0.55913149  0.99507050  0.36718876  1
  O  O55  1  0.44086851  0.49507050  0.63281124  1
