# generated using pymatgen
data_Ce7Pt3
_symmetry_space_group_name_H-M   'P 1'
_cell_length_a   9.96859497
_cell_length_b   9.98538824
_cell_length_c   6.17649566
_cell_angle_alpha   90.00000000
_cell_angle_beta   90.00000000
_cell_angle_gamma   119.94438262
_symmetry_Int_Tables_number   1
_chemical_formula_structural   Ce7Pt3
_chemical_formula_sum   'Ce14 Pt6'
_cell_volume   532.73937960
_cell_formula_units_Z   2
loop_
 _symmetry_equiv_pos_site_id
 _symmetry_equiv_pos_as_xyz
  1  'x, y, z'
loop_
 _atom_site_type_symbol
 _atom_site_label
 _atom_site_symmetry_multiplicity
 _atom_site_fract_x
 _atom_site_fract_y
 _atom_site_fract_z
 _atom_site_occupancy
  Ce  Ce0  1  0.66663785  0.33327570  0.56806828  1
  Ce  Ce1  1  0.33336215  0.66672430  0.06806828  1
  Ce  Ce2  1  0.87049887  0.74099775  0.75384135  1
  Ce  Ce3  1  0.25850895  0.12931660  0.75372039  1
  Ce  Ce4  1  0.87080766  0.12931660  0.75372039  1
  Ce  Ce5  1  0.12950113  0.25900225  0.25384135  1
  Ce  Ce6  1  0.74149105  0.87068340  0.25372039  1
  Ce  Ce7  1  0.12919234  0.87068340  0.25372039  1
  Ce  Ce8  1  0.46300588  0.92601176  0.53575157  1
  Ce  Ce9  1  0.07425759  0.53703759  0.53512541  1
  Ce  Ce10  1  0.46278000  0.53703759  0.53512541  1
  Ce  Ce11  1  0.53699412  0.07398824  0.03575157  1
  Ce  Ce12  1  0.92574241  0.46296241  0.03512541  1
  Ce  Ce13  1  0.53722000  0.46296241  0.03512541  1
  Pt  Pt14  1  0.18820244  0.37640488  0.80195624  1
  Pt  Pt15  1  0.62346705  0.81183678  0.80184547  1
  Pt  Pt16  1  0.18836973  0.81183678  0.80184547  1
  Pt  Pt17  1  0.81179756  0.62359512  0.30195624  1
  Pt  Pt18  1  0.37653295  0.18816322  0.30184547  1
  Pt  Pt19  1  0.81163027  0.18816322  0.30184547  1
