# generated using pymatgen
data_Cd3Hg
_symmetry_space_group_name_H-M   'P 1'
_cell_length_a   6.40307785
_cell_length_b   6.40307963
_cell_length_c   5.19781277
_cell_angle_alpha   90.00000000
_cell_angle_beta   90.00000000
_cell_angle_gamma   119.95138294
_symmetry_Int_Tables_number   1
_chemical_formula_structural   Cd3Hg
_chemical_formula_sum   'Cd6 Hg2'
_cell_volume   184.64667833
_cell_formula_units_Z   2
loop_
 _symmetry_equiv_pos_site_id
 _symmetry_equiv_pos_as_xyz
  1  'x, y, z'
loop_
 _atom_site_type_symbol
 _atom_site_label
 _atom_site_symmetry_multiplicity
 _atom_site_fract_x
 _atom_site_fract_y
 _atom_site_fract_z
 _atom_site_occupancy
  Cd  Cd0  1  0.16672731  0.33343891  0.25000100  1
  Cd  Cd1  1  0.66656307  0.83327401  0.25000100  1
  Cd  Cd2  1  0.16671122  0.83328923  0.25000100  1
  Cd  Cd3  1  0.83327351  0.66656290  0.75000100  1
  Cd  Cd4  1  0.33343801  0.16672651  0.75000100  1
  Cd  Cd5  1  0.83328863  0.16671195  0.75000100  1
  Hg  Hg6  1  0.33334025  0.66665950  0.75000100  1
  Hg  Hg7  1  0.66666099  0.33333998  0.25000100  1
