# generated using pymatgen
data_CaRhO3
_symmetry_space_group_name_H-M   'P 1'
_cell_length_a   5.65445928
_cell_length_b   7.72661729
_cell_length_c   5.40601694
_cell_angle_alpha   90.00000000
_cell_angle_beta   90.00000000
_cell_angle_gamma   90.00000000
_symmetry_Int_Tables_number   1
_chemical_formula_structural   CaRhO3
_chemical_formula_sum   'Ca4 Rh4 O12'
_cell_volume   236.18803049
_cell_formula_units_Z   4
loop_
 _symmetry_equiv_pos_site_id
 _symmetry_equiv_pos_as_xyz
  1  'x, y, z'
loop_
 _atom_site_type_symbol
 _atom_site_label
 _atom_site_symmetry_multiplicity
 _atom_site_fract_x
 _atom_site_fract_y
 _atom_site_fract_z
 _atom_site_occupancy
  Ca  Ca0  1  0.56459422  0.25000000  0.51800996  1
  Ca  Ca1  1  0.06459422  0.25000000  0.98199004  1
  Ca  Ca2  1  0.43540578  0.75000000  0.48199004  1
  Ca  Ca3  1  0.93540578  0.75000000  0.01800996  1
  Rh  Rh4  1  0.00000000  -0.00000000  0.50000000  1
  Rh  Rh5  1  0.50000000  0.50000000  -0.00000000  1
  Rh  Rh6  1  0.00000000  0.50000000  0.50000000  1
  Rh  Rh7  1  0.50000000  -0.00000000  0.00000000  1
  O  O8  1  0.96300755  0.25000000  0.39265607  1
  O  O9  1  0.46300755  0.25000000  0.10734393  1
  O  O10  1  0.03699245  0.75000000  0.60734393  1
  O  O11  1  0.53699245  0.75000000  0.89265607  1
  O  O12  1  0.80173610  0.05485453  0.80632584  1
  O  O13  1  0.30173610  0.44514547  0.69367416  1
  O  O14  1  0.19826390  0.55485453  0.19367416  1
  O  O15  1  0.69826390  0.94514547  0.30632584  1
  O  O16  1  0.19826390  0.94514547  0.19367416  1
  O  O17  1  0.69826390  0.55485453  0.30632584  1
  O  O18  1  0.80173610  0.44514547  0.80632584  1
  O  O19  1  0.30173610  0.05485453  0.69367416  1
