# generated using pymatgen
data_Y2Mn3O9
_symmetry_space_group_name_H-M   'P 1'
_cell_length_a   5.24680814
_cell_length_b   16.08605649
_cell_length_c   7.53507248
_cell_angle_alpha   89.98999398
_cell_angle_beta   90.00295658
_cell_angle_gamma   90.01084227
_symmetry_Int_Tables_number   1
_chemical_formula_structural   Y2Mn3O9
_chemical_formula_sum   'Y8 Mn12 O36'
_cell_volume   635.96350316
_cell_formula_units_Z   4
loop_
 _symmetry_equiv_pos_site_id
 _symmetry_equiv_pos_as_xyz
  1  'x, y, z'
loop_
 _atom_site_type_symbol
 _atom_site_label
 _atom_site_symmetry_multiplicity
 _atom_site_fract_x
 _atom_site_fract_y
 _atom_site_fract_z
 _atom_site_occupancy
  Y  Y0  1  0.01659785  0.31282142  0.75010362  1
  Y  Y1  1  0.00904327  0.98575591  0.74986252  1
  Y  Y2  1  0.51685353  0.18732780  0.25007870  1
  Y  Y3  1  0.50947310  0.51413647  0.25009832  1
  Y  Y4  1  0.49057971  0.48579199  0.74993081  1
  Y  Y5  1  0.48278766  0.81257128  0.75015245  1
  Y  Y6  1  0.98988964  0.01433479  0.25012909  1
  Y  Y7  1  0.98352799  0.68711333  0.24976074  1
  Mn  Mn8  1  0.50007799  0.00007416  0.50025256  1
  Mn  Mn9  1  0.50402441  0.33298369  0.49522544  1
  Mn  Mn10  1  0.49621588  0.66707579  0.50455162  1
  Mn  Mn11  1  0.00409431  0.16714503  0.50472447  1
  Mn  Mn12  1  0.00023400  0.50000041  0.49996042  1
  Mn  Mn13  1  0.99607739  0.83294630  0.49514826  1
  Mn  Mn14  1  0.00386629  0.16691264  0.99535675  1
  Mn  Mn15  1  0.00038782  0.49994643  0.99980675  1
  Mn  Mn16  1  0.99686040  0.83294582  0.00484951  1
  Mn  Mn17  1  0.49980433  0.99990439  0.00042854  1
  Mn  Mn18  1  0.50394888  0.33295335  0.00472275  1
  Mn  Mn19  1  0.49727682  0.66691897  0.99542001  1
  O  O20  1  0.71343789  0.09536623  0.43831228  1
  O  O21  1  0.68816263  0.43706714  0.47229071  1
  O  O22  1  0.70370405  0.76387902  0.45533326  1
  O  O23  1  0.18810951  0.06299500  0.52775142  1
  O  O24  1  0.21333805  0.40468414  0.56145680  1
  O  O25  1  0.20359434  0.73609297  0.54413447  1
  O  O26  1  0.79620142  0.26393726  0.04349990  1
  O  O27  1  0.78680856  0.59518192  0.06155065  1
  O  O28  1  0.81112856  0.93681229  0.02845425  1
  O  O29  1  0.29617050  0.23602164  0.95639375  1
  O  O30  1  0.31176649  0.56303087  0.97208115  1
  O  O31  1  0.28636642  0.90486393  0.93786224  1
  O  O32  1  0.29656964  0.23604439  0.54349096  1
  O  O33  1  0.31191601  0.56293575  0.52769964  1
  O  O34  1  0.28620736  0.90477688  0.56188225  1
  O  O35  1  0.79636382  0.26404779  0.45639350  1
  O  O36  1  0.78678857  0.59533505  0.43857784  1
  O  O37  1  0.81134411  0.93693121  0.47173498  1
  O  O38  1  0.18769168  0.06288731  0.97237942  1
  O  O39  1  0.21338876  0.40474753  0.93836228  1
  O  O40  1  0.20434892  0.73606007  0.95689883  1
  O  O41  1  0.71304829  0.09521008  0.06196312  1
  O  O42  1  0.68808082  0.43709492  0.02761918  1
  O  O43  1  0.70445971  0.76383073  0.04344021  1
  O  O44  1  0.09350844  0.15680271  0.25007405  1
  O  O45  1  0.08387606  0.49643796  0.24994108  1
  O  O46  1  0.08522905  0.82776371  0.24999504  1
  O  O47  1  0.58375665  0.00416408  0.75002400  1
  O  O48  1  0.59325581  0.34331085  0.74997096  1
  O  O49  1  0.58398572  0.67209013  0.74988614  1
  O  O50  1  0.91569621  0.17225208  0.75000848  1
  O  O51  1  0.91618290  0.50365341  0.74993449  1
  O  O52  1  0.90585697  0.84336748  0.74984391  1
  O  O53  1  0.41551632  0.32795332  0.24994930  1
  O  O54  1  0.40684078  0.65659346  0.25010720  1
  O  O55  1  0.41567172  0.99611474  0.25013692  1
