# generated using pymatgen
data_BaSnS3
_symmetry_space_group_name_H-M   'P 1'
_cell_length_a   8.59626593
_cell_length_b   3.99446619
_cell_length_c   14.77112253
_cell_angle_alpha   90.00000000
_cell_angle_beta   90.00000000
_cell_angle_gamma   90.00000000
_symmetry_Int_Tables_number   1
_chemical_formula_structural   BaSnS3
_chemical_formula_sum   'Ba4 Sn4 S12'
_cell_volume   507.20332560
_cell_formula_units_Z   4
loop_
 _symmetry_equiv_pos_site_id
 _symmetry_equiv_pos_as_xyz
  1  'x, y, z'
loop_
 _atom_site_type_symbol
 _atom_site_label
 _atom_site_symmetry_multiplicity
 _atom_site_fract_x
 _atom_site_fract_y
 _atom_site_fract_z
 _atom_site_occupancy
  Ba  Ba0  1  0.57725900  0.75000100  0.17416084  1
  Ba  Ba1  1  0.92274100  0.25000200  0.67416184  1
  Ba  Ba2  1  0.42274200  0.25000200  0.82583816  1
  Ba  Ba3  1  0.07725800  0.75000100  0.32583816  1
  Sn  Sn4  1  0.66865863  0.25000200  0.44259781  1
  Sn  Sn5  1  0.33134137  0.75000100  0.55740219  1
  Sn  Sn6  1  0.16865963  0.25000200  0.05740219  1
  Sn  Sn7  1  0.83134137  0.75000100  0.94259781  1
  S  S8  1  0.65932855  0.25000200  0.00183772  1
  S  S9  1  0.84067145  0.75000100  0.50183872  1
  S  S10  1  0.02818646  0.25000200  0.89952410  1
  S  S11  1  0.47181254  0.75000100  0.39952410  1
  S  S12  1  0.52818746  0.25000200  0.60047590  1
  S  S13  1  0.28954106  0.25000200  0.20955677  1
  S  S14  1  0.21045894  0.75000100  0.70955677  1
  S  S15  1  0.78954006  0.25000200  0.29044323  1
  S  S16  1  0.71045894  0.75000100  0.79044223  1
  S  S17  1  0.34067145  0.75000100  0.99816228  1
  S  S18  1  0.15932855  0.25000200  0.49816228  1
  S  S19  1  0.97181354  0.75000100  0.10047590  1
