# generated using pymatgen
data_Ca3Fe2(SbO6)2
_symmetry_space_group_name_H-M   'P 1'
_cell_length_a   5.49749887
_cell_length_b   5.59272571
_cell_length_c   7.74873273
_cell_angle_alpha   89.70176253
_cell_angle_beta   89.78148597
_cell_angle_gamma   90.93331359
_symmetry_Int_Tables_number   1
_chemical_formula_structural   Ca3Fe2(SbO6)2
_chemical_formula_sum   'Ca3 Fe2 Sb2 O12'
_cell_volume   238.20591633
_cell_formula_units_Z   1
loop_
 _symmetry_equiv_pos_site_id
 _symmetry_equiv_pos_as_xyz
  1  'x, y, z'
loop_
 _atom_site_type_symbol
 _atom_site_label
 _atom_site_symmetry_multiplicity
 _atom_site_fract_x
 _atom_site_fract_y
 _atom_site_fract_z
 _atom_site_occupancy
  Ca  Ca0  1  0.48525598  0.44699870  0.74990520  1
  Ca  Ca1  1  0.50624314  0.54121905  0.24954832  1
  Ca  Ca2  1  0.98718338  0.05701830  0.24984540  1
  Fe  Fe3  1  0.99479344  0.51674366  0.50610303  1
  Fe  Fe4  1  0.50499208  0.99536281  0.99612328  1
  Sb  Sb5  1  0.99248525  0.51679448  0.99328269  1
  Sb  Sb6  1  0.50280126  0.99066418  0.50280370  1
  O  O7  1  0.40665203  0.98127346  0.25151737  1
  O  O8  1  0.08338650  0.47192650  0.24735605  1
  O  O9  1  0.57350389  0.02506531  0.75195526  1
  O  O10  1  0.90484515  0.52601648  0.74793695  1
  O  O11  1  0.78887757  0.78727393  0.06201253  1
  O  O12  1  0.70759119  0.28658268  0.45349264  1
  O  O13  1  0.21315033  0.23089941  0.96723003  1
  O  O14  1  0.31194712  0.68868473  0.53367485  1
  O  O15  1  0.30954758  0.69260143  0.96551404  1
  O  O16  1  0.22237605  0.21442848  0.53904668  1
  O  O17  1  0.70759173  0.29520482  0.04430526  1
  O  O18  1  0.78437833  0.78587659  0.43899972  1
