# generated using pymatgen
data_K8Li31Al8O32
_symmetry_space_group_name_H-M   'P 1'
_cell_length_a   5.63267174
_cell_length_b   15.31134054
_cell_length_c   11.21545057
_cell_angle_alpha   90.20364092
_cell_angle_beta   109.30761820
_cell_angle_gamma   89.95394445
_symmetry_Int_Tables_number   1
_chemical_formula_structural   K8Li31Al8O32
_chemical_formula_sum   'K8 Li31 Al8 O32'
_cell_volume   912.85498471
_cell_formula_units_Z   1
loop_
 _symmetry_equiv_pos_site_id
 _symmetry_equiv_pos_as_xyz
  1  'x, y, z'
loop_
 _atom_site_type_symbol
 _atom_site_label
 _atom_site_symmetry_multiplicity
 _atom_site_fract_x
 _atom_site_fract_y
 _atom_site_fract_z
 _atom_site_occupancy
  K  K0  1  0.04280109  0.06542153  0.16106033  1
  K  K1  1  0.59429184  0.20022645  0.22842895  1
  K  K2  1  0.39737752  0.70405538  0.27254312  1
  K  K3  1  0.96588051  0.58941442  0.35104919  1
  K  K4  1  0.03372012  0.43572497  0.65610368  1
  K  K5  1  0.58978798  0.29955572  0.72570354  1
  K  K6  1  0.40614962  0.79799510  0.76531018  1
  K  K7  1  0.95970449  0.93165710  0.83537698  1
  Li  Li8  1  0.51952463  0.65571201  0.00143669  1
  Li  Li9  1  0.62553043  0.93050615  0.01745908  1
  Li  Li10  1  0.89593834  0.23584691  0.02170074  1
  Li  Li11  1  0.05967787  0.57818825  0.04206450  1
  Li  Li12  1  0.69350423  0.48477371  0.08058989  1
  Li  Li13  1  0.32904343  0.88205867  0.12688709  1
  Li  Li14  1  0.21520222  0.33983280  0.12862147  1
  Li  Li15  1  0.91229713  0.37957186  0.23065318  1
  Li  Li16  1  0.08658264  0.87388433  0.27118412  1
  Li  Li17  1  0.67170047  0.38318032  0.37063715  1
  Li  Li18  1  0.80626793  0.82966234  0.38568458  1
  Li  Li19  1  0.31292915  0.97911282  0.42301309  1
  Li  Li20  1  0.93922181  0.07639889  0.45715509  1
  Li  Li21  1  0.36296067  0.43161339  0.47618578  1
  Li  Li22  1  0.47677404  0.15292072  0.49428552  1
  Li  Li23  1  0.50380177  0.83694211  0.50543126  1
  Li  Li24  1  0.89525639  0.26460982  0.52019902  1
  Li  Li25  1  0.62454299  0.57190397  0.52476807  1
  Li  Li26  1  0.06295880  0.92334763  0.54299554  1
  Li  Li27  1  0.69379379  0.01257956  0.57638069  1
  Li  Li28  1  0.32679336  0.62140705  0.62662566  1
  Li  Li29  1  0.21356686  0.16156802  0.62607361  1
  Li  Li30  1  0.90844720  0.12404148  0.72594096  1
  Li  Li31  1  0.09505191  0.62094178  0.77702812  1
  Li  Li32  1  0.78423845  0.66012885  0.86962160  1
  Li  Li33  1  0.67092169  0.11855808  0.86983360  1
  Li  Li34  1  0.30859166  0.51475859  0.92525113  1
  Li  Li35  1  0.93769910  0.42256971  0.95965054  1
  Li  Li36  1  0.10678402  0.76539508  0.97475441  1
  Li  Li37  1  0.37087449  0.07092536  0.97924217  1
  Li  Li38  1  0.47918791  0.34457739  0.99787611  1
  Al  Al39  1  0.80062861  0.77726298  0.10987561  1
  Al  Al40  1  0.38505020  0.48703291  0.20477063  1
  Al  Al41  1  0.62080565  0.97969901  0.29832982  1
  Al  Al42  1  0.18941522  0.27288030  0.37856395  1
  Al  Al43  1  0.82939839  0.72483789  0.62348736  1
  Al  Al44  1  0.38353700  0.01586635  0.70247293  1
  Al  Al45  1  0.61499007  0.51432728  0.79734638  1
  Al  Al46  1  0.18926890  0.22702811  0.87913553  1
  O  O47  1  0.46794987  0.79211234  0.03780550  1
  O  O48  1  0.89477713  0.68435772  0.04247231  1
  O  O49  1  0.96403485  0.86945691  0.07531713  1
  O  O50  1  0.43490720  0.56734291  0.10035019  1
  O  O51  1  0.50440845  0.00306746  0.13499345  1
  O  O52  1  0.05274421  0.46585645  0.14172538  1
  O  O53  1  0.55076158  0.39218293  0.17687717  1
  O  O54  1  0.06672313  0.26105694  0.21011394  1
  O  O55  1  0.90650992  0.76328800  0.27430607  1
  O  O56  1  0.45098926  0.88560386  0.32393502  1
  O  O57  1  0.95368784  0.96128435  0.36140955  1
  O  O58  1  0.50120033  0.50722212  0.36804781  1
  O  O59  1  0.56534412  0.06134420  0.40006048  1
  O  O60  1  0.03571281  0.36591362  0.41984497  1
  O  O61  1  0.52486525  0.28711041  0.44697518  1
  O  O62  1  0.10256857  0.18130481  0.45077551  1
  O  O63  1  0.50148887  0.70298504  0.55067912  1
  O  O64  1  0.88666434  0.82557238  0.56263899  1
  O  O65  1  0.96879941  0.62615384  0.59295462  1
  O  O66  1  0.43326622  0.93354411  0.60074582  1
  O  O67  1  0.50009263  0.49246224  0.63461956  1
  O  O68  1  0.05197593  0.03733626  0.63955715  1
  O  O69  1  0.55043990  0.10976054  0.67471575  1
  O  O70  1  0.06826688  0.23985385  0.71065789  1
  O  O71  1  0.94309056  0.73881282  0.79241953  1
  O  O72  1  0.45130833  0.60956423  0.82446115  1
  O  O73  1  0.94773501  0.53538465  0.86144109  1
  O  O74  1  0.49877845  0.99669631  0.86580121  1
  O  O75  1  0.56416355  0.43485596  0.90199518  1
  O  O76  1  0.03532397  0.13334364  0.91840342  1
  O  O77  1  0.52446672  0.21174946  0.94965885  1
  O  O78  1  0.10428112  0.31817051  0.95369738  1
