# generated using pymatgen
data_Y7Cu3(SiSe7)3
_symmetry_space_group_name_H-M   'P 1'
_cell_length_a   10.24461662
_cell_length_b   10.22019585
_cell_length_c   18.05160802
_cell_angle_alpha   90.23947967
_cell_angle_beta   89.98117412
_cell_angle_gamma   119.53428626
_symmetry_Int_Tables_number   1
_chemical_formula_structural   Y7Cu3(SiSe7)3
_chemical_formula_sum   'Y14 Cu6 Si6 Se42'
_cell_volume   1644.43157419
_cell_formula_units_Z   2
loop_
 _symmetry_equiv_pos_site_id
 _symmetry_equiv_pos_as_xyz
  1  'x, y, z'
loop_
 _atom_site_type_symbol
 _atom_site_label
 _atom_site_symmetry_multiplicity
 _atom_site_fract_x
 _atom_site_fract_y
 _atom_site_fract_z
 _atom_site_occupancy
  Y  Y0  1  0.22669040  0.36160896  0.30443026  1
  Y  Y1  1  0.22884263  0.35942493  0.64171577  1
  Y  Y2  1  0.22447123  0.35711838  0.97310303  1
  Y  Y3  1  0.63900099  0.86638201  0.30606786  1
  Y  Y4  1  0.64533061  0.87315435  0.97595811  1
  Y  Y5  1  0.86439725  0.22246590  0.47537531  1
  Y  Y6  1  0.86698233  0.22592648  0.80719628  1
  Y  Y7  1  0.77195442  0.63960487  0.14145419  1
  Y  Y8  1  0.77440569  0.64391193  0.47413305  1
  Y  Y9  1  0.77141957  0.63663852  0.80377078  1
  Y  Y10  1  0.13251362  0.77325853  0.64183772  1
  Y  Y11  1  0.13623815  0.77558341  0.97564237  1
  Y  Y12  1  0.35774053  0.13018551  0.14174125  1
  Y  Y13  1  0.35945599  0.12948177  0.47439178  1
  Cu  Cu14  1  0.00120648  0.99358444  0.32347689  1
  Cu  Cu15  1  0.99637496  0.99825268  0.65534837  1
  Cu  Cu16  1  0.99957276  0.00000170  0.99033505  1
  Cu  Cu17  1  0.99740087  0.00374661  0.15539304  1
  Cu  Cu18  1  0.00122853  0.00248739  0.49023535  1
  Cu  Cu19  1  0.00749693  0.00117928  0.82365856  1
  Si  Si20  1  0.66619019  0.33109522  0.27650681  1
  Si  Si21  1  0.66731499  0.33424856  0.61292579  1
  Si  Si22  1  0.66289292  0.33209662  0.94566540  1
  Si  Si23  1  0.33391848  0.66655045  0.11307927  1
  Si  Si24  1  0.32799161  0.66575403  0.44602965  1
  Si  Si25  1  0.33405928  0.66672326  0.77665469  1
  Se  Se26  1  0.84057779  0.73560179  0.31450372  1
  Se  Se27  1  0.83601159  0.74002322  0.65019011  1
  Se  Se28  1  0.83678007  0.73798356  0.98294045  1
  Se  Se29  1  0.42235693  0.90331805  0.06203925  1
  Se  Se30  1  0.42608686  0.90327206  0.39727209  1
  Se  Se31  1  0.41088023  0.89777940  0.73009592  1
  Se  Se32  1  0.26152643  0.10062759  0.31739314  1
  Se  Se33  1  0.25733586  0.09549917  0.64501649  1
  Se  Se34  1  0.26169787  0.09884693  0.98639589  1
  Se  Se35  1  0.16271943  0.25967939  0.14791423  1
  Se  Se36  1  0.16485792  0.26435171  0.48337486  1
  Se  Se37  1  0.16284375  0.26101120  0.81575307  1
  Se  Se38  1  0.48385334  0.58091024  0.05857666  1
  Se  Se39  1  0.48045685  0.58050548  0.39440598  1
  Se  Se40  1  0.47702370  0.57214647  0.73092101  1
  Se  Se41  1  0.73884903  0.90169080  0.14997226  1
  Se  Se42  1  0.74136168  0.90301256  0.47906019  1
  Se  Se43  1  0.74442293  0.90210350  0.82092222  1
  Se  Se44  1  0.57359006  0.09540112  0.23054796  1
  Se  Se45  1  0.58284750  0.09989201  0.56346891  1
  Se  Se46  1  0.58332024  0.09941597  0.89301190  1
  Se  Se47  1  0.33695875  0.66737267  0.23644977  1
  Se  Se48  1  0.32801055  0.66504739  0.57088377  1
  Se  Se49  1  0.33434380  0.66664670  0.90408860  1
  Se  Se50  1  0.89800621  0.48734450  0.23050475  1
  Se  Se51  1  0.90134825  0.48328048  0.56002029  1
  Se  Se52  1  0.90020478  0.48172442  0.89492418  1
  Se  Se53  1  0.66289026  0.33485889  0.07050589  1
  Se  Se54  1  0.66691846  0.33316564  0.40391746  1
  Se  Se55  1  0.66955159  0.33524331  0.73644939  1
  Se  Se56  1  0.90449067  0.16080697  0.32001799  1
  Se  Se57  1  0.90495181  0.16431599  0.64717333  1
  Se  Se58  1  0.90373688  0.16520269  0.97973852  1
  Se  Se59  1  0.09247172  0.83641283  0.14417092  1
  Se  Se60  1  0.09731445  0.83609224  0.48627176  1
  Se  Se61  1  0.10257735  0.83809629  0.81423909  1
  Se  Se62  1  0.10188094  0.52038461  0.06339144  1
  Se  Se63  1  0.09733827  0.51597617  0.39135053  1
  Se  Se64  1  0.09608867  0.51481301  0.72858938  1
  Se  Se65  1  0.51572134  0.41937078  0.22806225  1
  Se  Se66  1  0.51941698  0.42274519  0.56109536  1
  Se  Se67  1  0.52128180  0.42756722  0.89457341  1
