# generated using pymatgen
data_NaTl3
_symmetry_space_group_name_H-M   'P 1'
_cell_length_a   7.32272978
_cell_length_b   7.32273139
_cell_length_c   5.23565813
_cell_angle_alpha   90.00000000
_cell_angle_beta   90.00000000
_cell_angle_gamma   120.00000440
_symmetry_Int_Tables_number   1
_chemical_formula_structural   NaTl3
_chemical_formula_sum   'Na2 Tl6'
_cell_volume   243.13529351
_cell_formula_units_Z   2
loop_
 _symmetry_equiv_pos_site_id
 _symmetry_equiv_pos_as_xyz
  1  'x, y, z'
loop_
 _atom_site_type_symbol
 _atom_site_label
 _atom_site_symmetry_multiplicity
 _atom_site_fract_x
 _atom_site_fract_y
 _atom_site_fract_z
 _atom_site_occupancy
  Na  Na0  1  0.33333400  0.66666900  0.75000100  1
  Na  Na1  1  0.66666700  0.33333300  0.25000100  1
  Tl  Tl2  1  0.16416154  0.32832309  0.25000100  1
  Tl  Tl3  1  0.67167591  0.83583746  0.25000100  1
  Tl  Tl4  1  0.16416154  0.83583746  0.25000100  1
  Tl  Tl5  1  0.83583846  0.67167791  0.75000100  1
  Tl  Tl6  1  0.32832309  0.16416154  0.75000100  1
  Tl  Tl7  1  0.83583846  0.16416154  0.75000100  1
