# generated using pymatgen
data_Pm2Mg
_symmetry_space_group_name_H-M   'P 1'
_cell_length_a   3.79594802
_cell_length_b   8.96519392
_cell_length_c   5.59510988
_cell_angle_alpha   90.00000000
_cell_angle_beta   90.00000000
_cell_angle_gamma   77.77772716
_symmetry_Int_Tables_number   1
_chemical_formula_structural   Pm2Mg
_chemical_formula_sum   'Pm4 Mg2'
_cell_volume   186.09359514
_cell_formula_units_Z   2
loop_
 _symmetry_equiv_pos_site_id
 _symmetry_equiv_pos_as_xyz
  1  'x, y, z'
loop_
 _atom_site_type_symbol
 _atom_site_label
 _atom_site_symmetry_multiplicity
 _atom_site_fract_x
 _atom_site_fract_y
 _atom_site_fract_z
 _atom_site_occupancy
  Pm  Pm0  1  0.97776204  0.04447492  0.00000000  1
  Pm  Pm1  1  0.66122958  0.67753884  -0.00000000  1
  Pm  Pm2  1  0.80001396  0.39996908  0.50000100  1
  Pm  Pm3  1  0.11654642  0.76690516  0.50000100  1
  Mg  Mg4  1  0.32176454  0.35646992  -0.00000000  1
  Mg  Mg5  1  0.45601246  0.08797508  0.50000100  1
