# generated using pymatgen
data_Sr3Ca
_symmetry_space_group_name_H-M   'P 1'
_cell_length_a   5.87921596
_cell_length_b   5.87921596
_cell_length_c   5.87921596
_cell_angle_alpha   89.99997486
_cell_angle_beta   89.99997486
_cell_angle_gamma   89.99997486
_symmetry_Int_Tables_number   1
_chemical_formula_structural   Sr3Ca
_chemical_formula_sum   'Sr3 Ca1'
_cell_volume   203.21615971
_cell_formula_units_Z   1
loop_
 _symmetry_equiv_pos_site_id
 _symmetry_equiv_pos_as_xyz
  1  'x, y, z'
loop_
 _atom_site_type_symbol
 _atom_site_label
 _atom_site_symmetry_multiplicity
 _atom_site_fract_x
 _atom_site_fract_y
 _atom_site_fract_z
 _atom_site_occupancy
  Sr  Sr0  1  0.99999900  0.50000000  0.50000000  1
  Sr  Sr1  1  0.50000000  0.99999900  0.50000000  1
  Sr  Sr2  1  0.50000000  0.50000000  0.99999900  1
  Ca  Ca3  1  0.00000000  0.00000000  -0.00000000  1
