# generated using pymatgen
data_Y2Cr3O9
_symmetry_space_group_name_H-M   'P 1'
_cell_length_a   5.25416473
_cell_length_b   16.32470543
_cell_length_c   7.55172780
_cell_angle_alpha   89.88536763
_cell_angle_beta   89.89322472
_cell_angle_gamma   90.16524410
_symmetry_Int_Tables_number   1
_chemical_formula_structural   Y2Cr3O9
_chemical_formula_sum   'Y8 Cr12 O36'
_cell_volume   647.72689705
_cell_formula_units_Z   4
loop_
 _symmetry_equiv_pos_site_id
 _symmetry_equiv_pos_as_xyz
  1  'x, y, z'
loop_
 _atom_site_type_symbol
 _atom_site_label
 _atom_site_symmetry_multiplicity
 _atom_site_fract_x
 _atom_site_fract_y
 _atom_site_fract_z
 _atom_site_occupancy
  Y  Y0  1  0.01174990  0.64983811  0.75231638  1
  Y  Y1  1  0.01911855  0.97875184  0.75482791  1
  Y  Y2  1  0.51077644  0.18398915  0.25050908  1
  Y  Y3  1  0.51707499  0.85359631  0.24491966  1
  Y  Y4  1  0.48887643  0.14946589  0.74979303  1
  Y  Y5  1  0.48302811  0.47987188  0.75142416  1
  Y  Y6  1  0.97995713  0.35454799  0.24788096  1
  Y  Y7  1  0.98830023  0.68340893  0.24747934  1
  Cr  Cr8  1  0.00047708  0.16636348  0.49991490  1
  Cr  Cr9  1  0.99052151  0.50162849  0.49615892  1
  Cr  Cr10  1  0.01167352  0.83080210  0.50374649  1
  Cr  Cr11  1  0.51156853  0.00079319  0.49477882  1
  Cr  Cr12  1  0.49236178  0.33285208  0.50868885  1
  Cr  Cr13  1  0.50042142  0.66656867  0.49981532  1
  Cr  Cr14  1  0.50533018  0.00076196  0.00955317  1
  Cr  Cr15  1  0.49034788  0.33275219  0.99413330  1
  Cr  Cr16  1  0.49955265  0.66665065  0.99977537  1
  Cr  Cr17  1  0.99919894  0.16672279  0.99982240  1
  Cr  Cr18  1  0.99436189  0.50163181  0.00951692  1
  Cr  Cr19  1  0.00394308  0.83204413  0.98985928  1
  O  O20  1  0.69201146  0.10328205  0.46600795  1
  O  O21  1  0.72322478  0.42907175  0.45906080  1
  O  O22  1  0.71449406  0.76468943  0.43514612  1
  O  O23  1  0.21636956  0.06913479  0.56345560  1
  O  O24  1  0.21989460  0.40636969  0.53502051  1
  O  O25  1  0.18326400  0.73157438  0.53383306  1
  O  O26  1  0.78284254  0.26382379  0.06255166  1
  O  O27  1  0.81153812  0.60425721  0.03326311  1
  O  O28  1  0.78472576  0.93058475  0.03489343  1
  O  O29  1  0.30616660  0.22931633  0.96686884  1
  O  O30  1  0.28407419  0.56887061  0.93848978  1
  O  O31  1  0.28676668  0.90287037  0.96439942  1
  O  O32  1  0.30624603  0.22833054  0.53361955  1
  O  O33  1  0.28616082  0.56936830  0.56467774  1
  O  O34  1  0.27477433  0.90584714  0.54074673  1
  O  O35  1  0.78244845  0.26413791  0.43775564  1
  O  O36  1  0.81888166  0.60206840  0.46681032  1
  O  O37  1  0.77450539  0.92697797  0.46370081  1
  O  O38  1  0.21736490  0.06962567  0.93805343  1
  O  O39  1  0.22098915  0.40356981  0.96426028  1
  O  O40  1  0.18877606  0.72881467  0.96708476  1
  O  O41  1  0.69564149  0.10528093  0.03349161  1
  O  O42  1  0.71400175  0.42902021  0.03590523  1
  O  O43  1  0.71645411  0.76410115  0.06133599  1
  O  O44  1  0.08273891  0.15894340  0.25090936  1
  O  O45  1  0.07836530  0.49306458  0.24353096  1
  O  O46  1  0.10279203  0.82184035  0.24806132  1
  O  O47  1  0.60286666  0.01211571  0.75097487  1
  O  O48  1  0.57223993  0.33807017  0.74631514  1
  O  O49  1  0.58331921  0.67337358  0.75561988  1
  O  O50  1  0.39687062  0.32136185  0.25114873  1
  O  O51  1  0.41711602  0.65987433  0.24445405  1
  O  O52  1  0.42694430  0.99495674  0.24660700  1
  O  O53  1  0.91661838  0.17442199  0.74908536  1
  O  O54  1  0.89751894  0.51136865  0.75249007  1
  O  O55  1  0.92235297  0.83991118  0.75545659  1
