# generated using pymatgen
data_Tm3In
_symmetry_space_group_name_H-M   'P 1'
_cell_length_a   6.82963815
_cell_length_b   6.82963851
_cell_length_c   5.47671542
_cell_angle_alpha   90.00000000
_cell_angle_beta   90.00000000
_cell_angle_gamma   119.99999830
_symmetry_Int_Tables_number   1
_chemical_formula_structural   Tm3In
_chemical_formula_sum   'Tm6 In2'
_cell_volume   221.23112386
_cell_formula_units_Z   2
loop_
 _symmetry_equiv_pos_site_id
 _symmetry_equiv_pos_as_xyz
  1  'x, y, z'
loop_
 _atom_site_type_symbol
 _atom_site_label
 _atom_site_symmetry_multiplicity
 _atom_site_fract_x
 _atom_site_fract_y
 _atom_site_fract_z
 _atom_site_occupancy
  Tm  Tm0  1  0.83056287  0.16943713  0.74999900  1
  Tm  Tm1  1  0.33887525  0.16943713  0.74999900  1
  Tm  Tm2  1  0.83056187  0.66112575  0.74999900  1
  Tm  Tm3  1  0.16943813  0.83056287  0.24999900  1
  Tm  Tm4  1  0.66112475  0.83056287  0.24999900  1
  Tm  Tm5  1  0.16943713  0.33887425  0.24999900  1
  In  In6  1  0.66666500  0.33333200  0.24999900  1
  In  In7  1  0.33333300  0.66666700  0.74999900  1
