# generated using pymatgen
data_KNa7V6Cr2O20
_symmetry_space_group_name_H-M   'P 1'
_cell_length_a   10.86506280
_cell_length_b   11.16794898
_cell_length_c   16.51320266
_cell_angle_alpha   109.78590508
_cell_angle_beta   108.80238669
_cell_angle_gamma   89.99232155
_symmetry_Int_Tables_number   1
_chemical_formula_structural   KNa7V6Cr2O20
_chemical_formula_sum   'K4 Na28 V24 Cr8 O80'
_cell_volume   1771.40837641
_cell_formula_units_Z   4
loop_
 _symmetry_equiv_pos_site_id
 _symmetry_equiv_pos_as_xyz
  1  'x, y, z'
loop_
 _atom_site_type_symbol
 _atom_site_label
 _atom_site_symmetry_multiplicity
 _atom_site_fract_x
 _atom_site_fract_y
 _atom_site_fract_z
 _atom_site_occupancy
  K  K0  1  0.30517380  0.06505165  0.11169131  1
  K  K1  1  0.80560660  0.06377136  0.11206189  1
  K  K2  1  0.05587903  0.79647934  0.11237084  1
  K  K3  1  0.55587839  0.79659274  0.11220890  1
  Na  Na4  1  0.30336516  0.06734980  0.60732757  1
  Na  Na5  1  0.30328636  0.56418094  0.10426703  1
  Na  Na6  1  0.30312578  0.56729126  0.60778684  1
  Na  Na7  1  0.80496688  0.06729096  0.60837125  1
  Na  Na8  1  0.80278626  0.56552183  0.10353929  1
  Na  Na9  1  0.80244829  0.56814300  0.60820736  1
  Na  Na10  1  0.19614818  0.43351968  0.39378501  1
  Na  Na11  1  0.19901802  0.43379197  0.89420445  1
  Na  Na12  1  0.19758055  0.93390850  0.39536492  1
  Na  Na13  1  0.19785492  0.93436856  0.89355405  1
  Na  Na14  1  0.69598573  0.43482095  0.39380644  1
  Na  Na15  1  0.69879660  0.43546928  0.89387173  1
  Na  Na16  1  0.69722549  0.93103886  0.39447074  1
  Na  Na17  1  0.69837143  0.93296235  0.89351162  1
  Na  Na18  1  0.05518176  0.29018046  0.10401970  1
  Na  Na19  1  0.05478429  0.28901962  0.60807198  1
  Na  Na20  1  0.05369007  0.79095681  0.60738559  1
  Na  Na21  1  0.55045755  0.28971524  0.10431662  1
  Na  Na22  1  0.55231685  0.29075576  0.60801063  1
  Na  Na23  1  0.55397600  0.78971858  0.60821666  1
  Na  Na24  1  0.44471354  0.21291081  0.39424845  1
  Na  Na25  1  0.44658667  0.21079182  0.89368852  1
  Na  Na26  1  0.44739894  0.70947096  0.39374277  1
  Na  Na27  1  0.44825342  0.70873490  0.89345122  1
  Na  Na28  1  0.94827458  0.21095659  0.39556503  1
  Na  Na29  1  0.95114321  0.21094517  0.89424727  1
  Na  Na30  1  0.94745299  0.71003120  0.39360492  1
  Na  Na31  1  0.94795628  0.70902011  0.89357575  1
  V  V32  1  0.00384484  0.00044924  0.50019759  1
  V  V33  1  0.00272428  0.49882595  0.50086274  1
  V  V34  1  0.50262633  0.50195146  0.49906118  1
  V  V35  1  0.25557352  0.24811855  0.50072300  1
  V  V36  1  0.25320598  0.75366498  0.50046680  1
  V  V37  1  0.75380420  0.25059153  0.99717188  1
  V  V38  1  0.74590494  0.24626806  0.49975771  1
  V  V39  1  0.75445122  0.74892467  0.50021968  1
  V  V40  1  0.11094993  0.09553784  0.25432959  1
  V  V41  1  0.10413758  0.09002563  0.75035424  1
  V  V42  1  0.10391545  0.58663730  0.25031311  1
  V  V43  1  0.10347885  0.58805987  0.74873904  1
  V  V44  1  0.61165147  0.09690831  0.25531114  1
  V  V45  1  0.60370353  0.08962627  0.74893457  1
  V  V46  1  0.60434422  0.58654519  0.25027794  1
  V  V47  1  0.60291337  0.58764335  0.74874925  1
  V  V48  1  0.35417774  0.41363470  0.25065116  1
  V  V49  1  0.35449512  0.40996502  0.75070165  1
  V  V50  1  0.36174066  0.90979311  0.25559532  1
  V  V51  1  0.35340100  0.91113914  0.74914775  1
  V  V52  1  0.85423076  0.41386746  0.25097076  1
  V  V53  1  0.85437753  0.41030065  0.74985388  1
  V  V54  1  0.86073790  0.90952526  0.25472635  1
  V  V55  1  0.85350279  0.91098725  0.74920941  1
  Cr  Cr56  1  0.00296569  0.99783202  0.99457166  1
  Cr  Cr57  1  0.00655367  0.49805562  0.99740888  1
  Cr  Cr58  1  0.49978404  0.99541549  0.99358849  1
  Cr  Cr59  1  0.50457532  0.99748156  0.50068079  1
  Cr  Cr60  1  0.50299486  0.49854179  0.99742998  1
  Cr  Cr61  1  0.25516817  0.25016808  0.99677935  1
  Cr  Cr62  1  0.25140202  0.74693275  0.99337820  1
  Cr  Cr63  1  0.75143287  0.74625751  0.99333944  1
  O  O64  1  0.12160344  0.11421539  0.48957907  1
  O  O65  1  0.12244488  0.12378123  0.98305354  1
  O  O66  1  0.12960600  0.62233788  0.49017261  1
  O  O67  1  0.12319343  0.61473018  0.98308900  1
  O  O68  1  0.63065602  0.12415976  0.48907168  1
  O  O69  1  0.62807766  0.12831383  0.98734413  1
  O  O70  1  0.62334372  0.61302173  0.48929801  1
  O  O71  1  0.62570489  0.61753414  0.98376723  1
  O  O72  1  0.13648571  0.38012432  0.01165704  1
  O  O73  1  0.14508748  0.37453617  0.51134045  1
  O  O74  1  0.13231442  0.87147239  0.00252550  1
  O  O75  1  0.13311493  0.88388713  0.51224084  1
  O  O76  1  0.63954927  0.37289617  0.00755251  1
  O  O77  1  0.64036011  0.38336859  0.51159743  1
  O  O78  1  0.63129987  0.87415597  0.00231338  1
  O  O79  1  0.64238555  0.87202657  0.51160608  1
  O  O80  1  0.37164170  0.12533348  0.48962204  1
  O  O81  1  0.37345075  0.11985938  0.98325232  1
  O  O82  1  0.38163195  0.61212731  0.48922037  1
  O  O83  1  0.36820060  0.61610696  0.98338908  1
  O  O84  1  0.88138679  0.11549663  0.49002995  1
  O  O85  1  0.86962805  0.12685745  0.98656284  1
  O  O86  1  0.87386744  0.62637180  0.48937084  1
  O  O87  1  0.87054058  0.61286209  0.98395720  1
  O  O88  1  0.38496136  0.37861936  0.01167598  1
  O  O89  1  0.39699188  0.38774540  0.51187176  1
  O  O90  1  0.37925632  0.87552267  0.00292169  1
  O  O91  1  0.38137911  0.87299991  0.51140146  1
  O  O92  1  0.88077964  0.37516176  0.00766588  1
  O  O93  1  0.89568247  0.38758996  0.51150355  1
  O  O94  1  0.87798457  0.87355489  0.00240228  1
  O  O95  1  0.89147054  0.88903969  0.51147765  1
  O  O96  1  0.07490148  0.09645464  0.14165891  1
  O  O97  1  0.08143666  0.09820963  0.64013843  1
  O  O98  1  0.08145310  0.58585839  0.13982472  1
  O  O99  1  0.08140468  0.59751426  0.63865586  1
  O  O100  1  0.57631014  0.09658787  0.14280693  1
  O  O101  1  0.58213658  0.09752935  0.63888340  1
  O  O102  1  0.58364891  0.58594545  0.14002812  1
  O  O103  1  0.58169755  0.59795342  0.63917165  1
  O  O104  1  0.44343186  0.40280294  0.36077774  1
  O  O105  1  0.44179507  0.39824646  0.85754759  1
  O  O106  1  0.44719613  0.89726483  0.36420488  1
  O  O107  1  0.44166109  0.90038610  0.85600563  1
  O  O108  1  0.94406653  0.40468328  0.36090641  1
  O  O109  1  0.94022258  0.39766061  0.85653785  1
  O  O110  1  0.94602701  0.89793202  0.36385625  1
  O  O111  1  0.93993946  0.90090440  0.85627416  1
  O  O112  1  0.33320039  0.30292727  0.14113237  1
  O  O113  1  0.33191675  0.29126360  0.64113976  1
  O  O114  1  0.32646533  0.79621652  0.14375676  1
  O  O115  1  0.33128672  0.79069732  0.64002412  1
  O  O116  1  0.83218760  0.30308703  0.14019120  1
  O  O117  1  0.83265235  0.29348680  0.63829751  1
  O  O118  1  0.82612958  0.79621565  0.14297609  1
  O  O119  1  0.83191184  0.79108171  0.64020702  1
  O  O120  1  0.19719535  0.21617334  0.36201149  1
  O  O121  1  0.19139000  0.20962017  0.85678031  1
  O  O122  1  0.19052478  0.70739460  0.35972883  1
  O  O123  1  0.19016172  0.70666657  0.85513870  1
  O  O124  1  0.69838056  0.21744490  0.36500368  1
  O  O125  1  0.69040699  0.20837607  0.85680064  1
  O  O126  1  0.69297941  0.70727428  0.35890621  1
  O  O127  1  0.69058613  0.70598958  0.85507437  1
  O  O128  1  0.44961206  0.05979452  0.26369231  1
  O  O129  1  0.43276244  0.06021161  0.74885912  1
  O  O130  1  0.43309430  0.56387279  0.25230951  1
  O  O131  1  0.43232030  0.55925519  0.74922026  1
  O  O132  1  0.94887523  0.05895923  0.26350333  1
  O  O133  1  0.93245707  0.06052143  0.74921723  1
  O  O134  1  0.93243473  0.56332110  0.25143054  1
  O  O135  1  0.93277548  0.55958847  0.74965325  1
  O  O136  1  0.18328730  0.43808161  0.25251153  1
  O  O137  1  0.18242529  0.43932305  0.74942294  1
  O  O138  1  0.19919520  0.95476648  0.26358129  1
  O  O139  1  0.18243480  0.94012224  0.74946533  1
  O  O140  1  0.68330159  0.43734121  0.25222617  1
  O  O141  1  0.68282971  0.43883767  0.74886206  1
  O  O142  1  0.69893653  0.95542886  0.26362782  1
  O  O143  1  0.68201899  0.94047866  0.74938743  1
