# generated using pymatgen
data_Tm5Si3C
_symmetry_space_group_name_H-M   'P 1'
_cell_length_a   6.24417320
_cell_length_b   8.33101451
_cell_length_c   8.34353658
_cell_angle_alpha   119.95036767
_cell_angle_beta   90.00000000
_cell_angle_gamma   90.00000000
_symmetry_Int_Tables_number   1
_chemical_formula_structural   Tm5Si3C
_chemical_formula_sum   'Tm10 Si6 C2'
_cell_volume   376.07167456
_cell_formula_units_Z   2
loop_
 _symmetry_equiv_pos_site_id
 _symmetry_equiv_pos_as_xyz
  1  'x, y, z'
loop_
 _atom_site_type_symbol
 _atom_site_label
 _atom_site_symmetry_multiplicity
 _atom_site_fract_x
 _atom_site_fract_y
 _atom_site_fract_z
 _atom_site_occupancy
  Tm  Tm0  1  0.50000072  0.33314400  0.66630844  1
  Tm  Tm1  1  0.50000072  0.66683557  0.33369156  1
  Tm  Tm2  1  0.00000072  0.66685600  0.33369156  1
  Tm  Tm3  1  0.00000072  0.33316443  0.66630844  1
  Tm  Tm4  1  0.75001101  0.22360543  1.00000000  1
  Tm  Tm5  1  0.74999463  0.77578864  0.77523338  1
  Tm  Tm6  1  0.74999463  0.00055526  0.22476662  1
  Tm  Tm7  1  0.25001101  0.77639457  0.00000000  1
  Tm  Tm8  1  0.24999463  0.22421136  0.22476662  1
  Tm  Tm9  1  0.24999463  0.99944474  0.77523338  1
  Si  Si10  1  0.75000698  0.59405943  1.00000000  1
  Si  Si11  1  0.74999588  0.40561530  0.40582773  1
  Si  Si12  1  0.74999588  -0.00021243  0.59417227  1
  Si  Si13  1  0.25000698  0.40594057  0.00000000  1
  Si  Si14  1  0.24999588  0.59438470  0.59417227  1
  Si  Si15  1  0.24999588  0.00021243  0.40582773  1
  C  C16  1  0.49999957  0.99999455  -0.00000000  1
  C  C17  1  0.99999957  0.00000545  0.00000000  1
