# generated using pymatgen
data_Nb3FeSe6
_symmetry_space_group_name_H-M   'P 1'
_cell_length_a   6.05756962
_cell_length_b   6.05617726
_cell_length_c   12.64023519
_cell_angle_alpha   89.88125396
_cell_angle_beta   89.99999999
_cell_angle_gamma   120.00761455
_symmetry_Int_Tables_number   1
_chemical_formula_structural   Nb3FeSe6
_chemical_formula_sum   'Nb6 Fe2 Se12'
_cell_volume   401.55792978
_cell_formula_units_Z   2
loop_
 _symmetry_equiv_pos_site_id
 _symmetry_equiv_pos_as_xyz
  1  'x, y, z'
loop_
 _atom_site_type_symbol
 _atom_site_label
 _atom_site_symmetry_multiplicity
 _atom_site_fract_x
 _atom_site_fract_y
 _atom_site_fract_z
 _atom_site_occupancy
  Nb  Nb0  1  0.99975393  1.00000000  0.50000000  1
  Nb  Nb1  1  0.99979813  1.00000000  0.00000000  1
  Nb  Nb2  1  0.66667959  0.33351909  -0.00108134  1
  Nb  Nb3  1  0.33316050  0.66648091  0.00108134  1
  Nb  Nb4  1  0.33329932  0.66638899  0.49886773  1
  Nb  Nb5  1  0.66691033  0.33361101  0.50113227  1
  Fe  Fe6  1  0.66668504  0.33334724  0.75000264  1
  Fe  Fe7  1  0.33333779  0.66665276  0.24999736  1
  Se  Se8  1  0.66708170  0.99616520  0.63320461  1
  Se  Se9  1  0.32890580  0.33235484  0.63306102  1
  Se  Se10  1  0.00343883  0.67059850  0.63304206  1
  Se  Se11  1  0.67091651  0.00383480  0.36679539  1
  Se  Se12  1  0.99655096  0.66764516  0.36693898  1
  Se  Se13  1  0.33284033  0.32940150  0.36695794  1
  Se  Se14  1  0.33251880  0.00303873  0.13304595  1
  Se  Se15  1  0.67098713  0.66696250  0.13313957  1
  Se  Se16  1  0.99641406  0.32909752  0.13314729  1
  Se  Se17  1  0.32948007  0.99696127  0.86695405  1
  Se  Se18  1  0.00402463  0.33303750  0.86686043  1
  Se  Se19  1  0.66731654  0.67090248  0.86685271  1
