# generated using pymatgen
data_Pd5Pb3
_symmetry_space_group_name_H-M   'P 1'
_cell_length_a   7.33302354
_cell_length_b   7.33302354
_cell_length_c   7.43789143
_cell_angle_alpha   65.39833699
_cell_angle_beta   65.39833699
_cell_angle_gamma   65.79575568
_symmetry_Int_Tables_number   1
_chemical_formula_structural   Pd5Pb3
_chemical_formula_sum   'Pd10 Pb6'
_cell_volume   316.80140622
_cell_formula_units_Z   2
loop_
 _symmetry_equiv_pos_site_id
 _symmetry_equiv_pos_as_xyz
  1  'x, y, z'
loop_
 _atom_site_type_symbol
 _atom_site_label
 _atom_site_symmetry_multiplicity
 _atom_site_fract_x
 _atom_site_fract_y
 _atom_site_fract_z
 _atom_site_occupancy
  Pd  Pd0  1  0.08246352  0.75767204  0.40932276  1
  Pd  Pd1  1  0.24232796  0.91753648  0.59067724  1
  Pd  Pd2  1  0.75738405  0.40820423  0.08470110  1
  Pd  Pd3  1  0.59179577  0.24261595  0.91529890  1
  Pd  Pd4  1  0.41531662  0.07234927  0.76595870  1
  Pd  Pd5  1  0.92765073  0.58468338  0.23404130  1
  Pd  Pd6  1  0.83629481  0.82817864  0.82321791  1
  Pd  Pd7  1  0.17182136  0.16370519  0.17678209  1
  Pd  Pd8  1  0.00435031  0.34216161  0.65855980  1
  Pd  Pd9  1  0.65783839  0.99564969  0.34144020  1
  Pb  Pb10  1  0.02431009  0.97568991  0.00000000  1
  Pb  Pb11  1  0.62785841  0.66268934  0.70474063  1
  Pb  Pb12  1  0.33731066  0.37214159  0.29525937  1
  Pb  Pb13  1  0.79375319  0.20624681  0.50000000  1
  Pb  Pb14  1  0.20217067  0.49464653  0.80107179  1
  Pb  Pb15  1  0.50535347  0.79782933  0.19892821  1
