# generated using pymatgen
data_NaCO3
_symmetry_space_group_name_H-M   'P 1'
_cell_length_a   3.66379002
_cell_length_b   7.81135312
_cell_length_c   9.45658590
_cell_angle_alpha   90.00000000
_cell_angle_beta   90.00000000
_cell_angle_gamma   94.57113651
_symmetry_Int_Tables_number   1
_chemical_formula_structural   NaCO3
_chemical_formula_sum   'Na4 C4 O12'
_cell_volume   269.77865938
_cell_formula_units_Z   4
loop_
 _symmetry_equiv_pos_site_id
 _symmetry_equiv_pos_as_xyz
  1  'x, y, z'
loop_
 _atom_site_type_symbol
 _atom_site_label
 _atom_site_symmetry_multiplicity
 _atom_site_fract_x
 _atom_site_fract_y
 _atom_site_fract_z
 _atom_site_occupancy
  Na  Na0  1  0.21420595  0.78636615  0.49651140  1
  Na  Na1  1  0.28579405  0.71363385  0.99651140  1
  Na  Na2  1  0.78579405  0.21363385  0.50348860  1
  Na  Na3  1  0.71420595  0.28636615  0.00348860  1
  C  C4  1  0.78866655  0.57213661  0.26486880  1
  C  C5  1  0.71133345  0.92786339  0.76486880  1
  C  C6  1  0.21133345  0.42786339  0.73513120  1
  C  C7  1  0.28866655  0.07213661  0.23513120  1
  O  O8  1  0.76077189  0.57238888  0.13040443  1
  O  O9  1  0.73922811  0.92761112  0.63040443  1
  O  O10  1  0.23922811  0.42761112  0.86959557  1
  O  O11  1  0.26077189  0.07238888  0.36959557  1
  O  O12  1  0.70136228  0.69806722  0.34288313  1
  O  O13  1  0.79863772  0.80193278  0.84288313  1
  O  O14  1  0.29863772  0.30193278  0.65711687  1
  O  O15  1  0.20136228  0.19806722  0.15711687  1
  O  O16  1  0.91575771  0.44719774  0.33267648  1
  O  O17  1  0.58424229  0.05280226  0.83267648  1
  O  O18  1  0.08424229  0.55280226  0.66732352  1
  O  O19  1  0.41575771  0.94719774  0.16732352  1
