# generated using pymatgen
data_Mg2CoSbO6
_symmetry_space_group_name_H-M   'P 1'
_cell_length_a   5.20525365
_cell_length_b   5.37977930
_cell_length_c   7.54723250
_cell_angle_alpha   90.00000000
_cell_angle_beta   90.00000000
_cell_angle_gamma   90.75487294
_symmetry_Int_Tables_number   1
_chemical_formula_structural   Mg2CoSbO6
_chemical_formula_sum   'Mg4 Co2 Sb2 O12'
_cell_volume   211.32768347
_cell_formula_units_Z   2
loop_
 _symmetry_equiv_pos_site_id
 _symmetry_equiv_pos_as_xyz
  1  'x, y, z'
loop_
 _atom_site_type_symbol
 _atom_site_label
 _atom_site_symmetry_multiplicity
 _atom_site_fract_x
 _atom_site_fract_y
 _atom_site_fract_z
 _atom_site_occupancy
  Mg  Mg0  1  0.52141965  0.56998739  0.75000000  1
  Mg  Mg1  1  0.47858035  0.43001261  0.25000000  1
  Mg  Mg2  1  0.01423548  0.03628132  0.75000000  1
  Mg  Mg3  1  0.98576452  0.96371868  0.25000000  1
  Co  Co4  1  0.50000000  0.00000000  0.50000000  1
  Co  Co5  1  0.50000000  0.00000000  0.00000000  1
  Sb  Sb6  1  0.00000000  0.50000000  0.50000000  1
  Sb  Sb7  1  0.00000000  0.50000000  0.00000000  1
  O  O8  1  0.32017020  0.67636133  0.43278037  1
  O  O9  1  0.17102373  0.18529755  0.06866118  1
  O  O10  1  0.67982980  0.32363867  0.93278037  1
  O  O11  1  0.82897627  0.81470245  0.56866118  1
  O  O12  1  0.17102373  0.18529755  0.43133882  1
  O  O13  1  0.82897627  0.81470245  0.93133882  1
  O  O14  1  0.85937269  0.57323544  0.25000000  1
  O  O15  1  0.32017020  0.67636133  0.06721963  1
  O  O16  1  0.38586137  0.93056910  0.75000000  1
  O  O17  1  0.67982980  0.32363867  0.56721963  1
  O  O18  1  0.14062731  0.42676456  0.75000000  1
  O  O19  1  0.61413863  0.06943090  0.25000000  1
