# generated using pymatgen
data_Sm2Ga2Co5
_symmetry_space_group_name_H-M   'P 1'
_cell_length_a   5.24852388
_cell_length_b   5.24852388
_cell_length_c   12.03740418
_cell_angle_alpha   77.40788314
_cell_angle_beta   77.40788314
_cell_angle_gamma   60.00000422
_symmetry_Int_Tables_number   1
_chemical_formula_structural   Sm2Ga2Co5
_chemical_formula_sum   'Sm4 Ga4 Co10'
_cell_volume   277.92124970
_cell_formula_units_Z   2
loop_
 _symmetry_equiv_pos_site_id
 _symmetry_equiv_pos_as_xyz
  1  'x, y, z'
loop_
 _atom_site_type_symbol
 _atom_site_label
 _atom_site_symmetry_multiplicity
 _atom_site_fract_x
 _atom_site_fract_y
 _atom_site_fract_z
 _atom_site_occupancy
  Sm  Sm0  1  0.04936143  0.04936143  0.85191571  1
  Sm  Sm1  1  0.95063857  0.95063857  0.14808429  1
  Sm  Sm2  1  0.14733432  0.14733432  0.55799704  1
  Sm  Sm3  1  0.85266568  0.85266568  0.44200296  1
  Ga  Ga4  1  0.27803055  0.27803055  0.16590834  1
  Ga  Ga5  1  0.72196945  0.72196945  0.83409166  1
  Ga  Ga6  1  0.38818837  0.38818837  0.83543489  1
  Ga  Ga7  1  0.61181163  0.61181163  0.16456511  1
  Co  Co8  1  0.50000000  0.50000000  0.50000000  1
  Co  Co9  1  0.50000000  0.50000000  0.00000000  1
  Co  Co10  1  0.50000000  -0.00000000  0.00000000  1
  Co  Co11  1  -0.00000000  0.50000000  0.00000000  1
  Co  Co12  1  0.11296079  0.60973930  0.66756061  1
  Co  Co13  1  0.60973930  0.60973930  0.66756061  1
  Co  Co14  1  0.60973930  0.11296079  0.66756061  1
  Co  Co15  1  0.88703921  0.39026070  0.33243939  1
  Co  Co16  1  0.39026070  0.39026070  0.33243939  1
  Co  Co17  1  0.39026070  0.88703921  0.33243939  1
