# generated using pymatgen
data_Sn4Rh
_symmetry_space_group_name_H-M   'P 1'
_cell_length_a   6.40281887
_cell_length_b   6.40281887
_cell_length_c   12.55333535
_cell_angle_alpha   104.77504336
_cell_angle_beta   104.77504336
_cell_angle_gamma   90.00000000
_symmetry_Int_Tables_number   1
_chemical_formula_structural   Sn4Rh
_chemical_formula_sum   'Sn16 Rh4'
_cell_volume   480.00133295
_cell_formula_units_Z   4
loop_
 _symmetry_equiv_pos_site_id
 _symmetry_equiv_pos_as_xyz
  1  'x, y, z'
loop_
 _atom_site_type_symbol
 _atom_site_label
 _atom_site_symmetry_multiplicity
 _atom_site_fract_x
 _atom_site_fract_y
 _atom_site_fract_z
 _atom_site_occupancy
  Sn  Sn0  1  0.01145667  0.76272013  0.37672927  1
  Sn  Sn1  1  0.86527260  0.26272013  0.37672927  1
  Sn  Sn2  1  0.26272013  0.51145667  0.87672927  1
  Sn  Sn3  1  0.11400914  0.01145667  0.87672927  1
  Sn  Sn4  1  0.98854333  0.23727987  0.62327073  1
  Sn  Sn5  1  0.13472740  0.73727987  0.62327073  1
  Sn  Sn6  1  0.73727987  0.48854333  0.12327073  1
  Sn  Sn7  1  0.88599086  0.98854333  0.12327073  1
  Sn  Sn8  1  0.51145667  0.61400914  0.37672927  1
  Sn  Sn9  1  0.36527260  0.11400914  0.37672927  1
  Sn  Sn10  1  0.76272013  0.36527260  0.87672927  1
  Sn  Sn11  1  0.61400914  0.86527260  0.87672927  1
  Sn  Sn12  1  0.48854333  0.38599086  0.62327073  1
  Sn  Sn13  1  0.63472740  0.88599086  0.62327073  1
  Sn  Sn14  1  0.23727987  0.63472740  0.12327073  1
  Sn  Sn15  1  0.38599086  0.13472740  0.12327073  1
  Rh  Rh16  1  0.12500000  0.37500000  0.25000000  1
  Rh  Rh17  1  0.62500000  0.87500000  0.25000000  1
  Rh  Rh18  1  0.87500000  0.62500000  0.75000000  1
  Rh  Rh19  1  0.37500000  0.12500000  0.75000000  1
