# generated using pymatgen
data_FeB4O7
_symmetry_space_group_name_H-M   'P 1'
_cell_length_a   5.20165424
_cell_length_b   6.41217247
_cell_length_c   6.41217247
_cell_angle_alpha   117.14997001
_cell_angle_beta   90.00000000
_cell_angle_gamma   90.00000000
_symmetry_Int_Tables_number   1
_chemical_formula_structural   FeB4O7
_chemical_formula_sum   'Fe2 B8 O14'
_cell_volume   190.30564697
_cell_formula_units_Z   2
loop_
 _symmetry_equiv_pos_site_id
 _symmetry_equiv_pos_as_xyz
  1  'x, y, z'
loop_
 _atom_site_type_symbol
 _atom_site_label
 _atom_site_symmetry_multiplicity
 _atom_site_fract_x
 _atom_site_fract_y
 _atom_site_fract_z
 _atom_site_occupancy
  Fe  Fe0  1  0.25000000  0.22609125  0.22609125  1
  Fe  Fe1  1  0.75000000  0.77390875  0.77390875  1
  B  B2  1  0.50000000  0.29284666  0.70715334  1
  B  B3  1  -0.00000000  0.29284666  0.70715334  1
  B  B4  1  0.50000000  0.70715334  0.29284666  1
  B  B5  1  -0.00000000  0.70715334  0.29284666  1
  B  B6  1  0.75000000  0.08454156  0.32107491  1
  B  B7  1  0.25000000  0.67892509  0.91545844  1
  B  B8  1  0.25000000  0.91545844  0.67892509  1
  B  B9  1  0.75000000  0.32107491  0.08454156  1
  O  O10  1  0.25000000  0.90406387  0.90406387  1
  O  O11  1  0.75000000  0.09593613  0.09593613  1
  O  O12  1  0.25000000  0.19027591  0.75895150  1
  O  O13  1  0.75000000  0.24104850  0.80972409  1
  O  O14  1  0.75000000  0.80972409  0.24104850  1
  O  O15  1  0.25000000  0.75895150  0.19027591  1
  O  O16  1  0.52140580  0.18868175  0.45375054  1
  O  O17  1  0.47859420  0.54624946  0.81131825  1
  O  O18  1  0.97859420  0.18868175  0.45375054  1
  O  O19  1  0.02140580  0.54624946  0.81131825  1
  O  O20  1  0.47859420  0.81131825  0.54624946  1
  O  O21  1  0.52140580  0.45375054  0.18868175  1
  O  O22  1  0.02140580  0.81131825  0.54624946  1
  O  O23  1  0.97859420  0.45375054  0.18868175  1
