# generated using pymatgen
data_Rb5(FeO2)3
_symmetry_space_group_name_H-M   'P 1'
_cell_length_a   8.83119186
_cell_length_b   8.83119186
_cell_length_c   9.80638308
_cell_angle_alpha   116.76150128
_cell_angle_beta   116.76150128
_cell_angle_gamma   90.00000000
_symmetry_Int_Tables_number   1
_chemical_formula_structural   Rb5(FeO2)3
_chemical_formula_sum   'Rb10 Fe6 O12'
_cell_volume   589.68954717
_cell_formula_units_Z   2
loop_
 _symmetry_equiv_pos_site_id
 _symmetry_equiv_pos_as_xyz
  1  'x, y, z'
loop_
 _atom_site_type_symbol
 _atom_site_label
 _atom_site_symmetry_multiplicity
 _atom_site_fract_x
 _atom_site_fract_y
 _atom_site_fract_z
 _atom_site_occupancy
  Rb  Rb0  1  0.75000000  0.25000000  0.50000000  1
  Rb  Rb1  1  0.00000000  -0.00000000  0.00000000  1
  Rb  Rb2  1  0.50664376  0.00664376  0.01328751  1
  Rb  Rb3  1  0.24335624  0.24335624  0.48671249  1
  Rb  Rb4  1  0.99335624  0.49335624  0.98671249  1
  Rb  Rb5  1  0.75664376  0.75664376  0.51328751  1
  Rb  Rb6  1  0.87500000  0.40983359  0.25000000  1
  Rb  Rb7  1  0.37500000  0.84016641  0.25000000  1
  Rb  Rb8  1  0.15983359  0.12500000  0.75000000  1
  Rb  Rb9  1  0.59016641  0.62500000  0.75000000  1
  Fe  Fe10  1  0.87500000  0.88485078  0.25000000  1
  Fe  Fe11  1  0.37500000  0.36514922  0.25000000  1
  Fe  Fe12  1  0.63485078  0.12500000  0.75000000  1
  Fe  Fe13  1  0.11514922  0.62500000  0.75000000  1
  Fe  Fe14  1  0.25000000  0.75000000  0.50000000  1
  Fe  Fe15  1  0.50000000  0.50000000  0.00000000  1
  O  O16  1  0.65117270  0.73160823  0.14901113  1
  O  O17  1  0.09882730  0.83259710  0.35098887  1
  O  O18  1  0.49783843  0.41740290  0.14901113  1
  O  O19  1  0.25216157  0.51839177  0.35098887  1
  O  O20  1  0.58259710  0.34882730  0.85098887  1
  O  O21  1  0.16740290  0.74783843  0.64901113  1
  O  O22  1  0.26839177  0.50216157  0.85098887  1
  O  O23  1  0.48160823  0.90117270  0.64901113  1
  O  O24  1  0.87500000  0.09767864  0.25000000  1
  O  O25  1  0.37500000  0.15232136  0.25000000  1
  O  O26  1  0.84767864  0.12500000  0.75000000  1
  O  O27  1  0.90232136  0.62500000  0.75000000  1
