# generated using pymatgen
data_Li2In2GeS6
_symmetry_space_group_name_H-M   'P 1'
_cell_length_a   7.16995563
_cell_length_b   7.16995563
_cell_length_c   12.28793023
_cell_angle_alpha   90.63171696
_cell_angle_beta   106.56023411
_cell_angle_gamma   119.51356445
_symmetry_Int_Tables_number   1
_chemical_formula_structural   Li2In2GeS6
_chemical_formula_sum   'Li4 In4 Ge2 S12'
_cell_volume   518.17216552
_cell_formula_units_Z   2
loop_
 _symmetry_equiv_pos_site_id
 _symmetry_equiv_pos_as_xyz
  1  'x, y, z'
loop_
 _atom_site_type_symbol
 _atom_site_label
 _atom_site_symmetry_multiplicity
 _atom_site_fract_x
 _atom_site_fract_y
 _atom_site_fract_z
 _atom_site_occupancy
  Li  Li0  1  0.84460843  0.59104465  0.84053249  1
  Li  Li1  1  0.74948785  0.99592407  0.34053249  1
  Li  Li2  1  0.09681581  0.60119035  0.49615951  1
  Li  Li3  1  0.39496916  0.39934370  0.99615951  1
  In  In4  1  0.11509781  0.88535800  0.18742274  1
  In  In5  1  0.80206474  0.07232493  0.68742274  1
  In  In6  1  0.41046413  0.23065322  0.49332864  1
  In  In7  1  0.76267542  0.08286452  0.99332864  1
  Ge  Ge8  1  0.25554195  0.45984766  0.24826206  1
  Ge  Ge9  1  0.28841440  0.99272011  0.74826206  1
  S  S10  1  0.77630827  0.74004626  0.00766382  1
  S  S11  1  0.76761757  0.23135555  0.50766382  1
  S  S12  1  0.99474830  0.32594228  0.87830895  1
  S  S13  1  0.05236667  0.88356065  0.37830895  1
  S  S14  1  0.40046755  0.28111661  0.19160094  1
  S  S15  1  0.41048433  0.79113338  0.69160094  1
  S  S16  1  0.87996281  0.27742876  0.19571182  1
  S  S17  1  0.41828307  0.31574901  0.69571182  1
  S  S18  1  0.38031162  0.76077158  0.17154682  1
  S  S19  1  0.91077524  0.79123521  0.67154682  1
  S  S20  1  0.39837365  0.56214096  0.43902220  1
  S  S21  1  0.37688124  0.04064855  0.93902220  1
