# generated using pymatgen
data_Ca(BH4)2
_symmetry_space_group_name_H-M   'P 1'
_cell_length_a   5.94173179
_cell_length_b   5.94173179
_cell_length_c   7.79258568
_cell_angle_alpha   112.41067559
_cell_angle_beta   112.41067559
_cell_angle_gamma   90.00000000
_symmetry_Int_Tables_number   1
_chemical_formula_structural   Ca(BH4)2
_chemical_formula_sum   'Ca2 B4 H16'
_cell_volume   231.69952082
_cell_formula_units_Z   2
loop_
 _symmetry_equiv_pos_site_id
 _symmetry_equiv_pos_as_xyz
  1  'x, y, z'
loop_
 _atom_site_type_symbol
 _atom_site_label
 _atom_site_symmetry_multiplicity
 _atom_site_fract_x
 _atom_site_fract_y
 _atom_site_fract_z
 _atom_site_occupancy
  Ca  Ca0  1  0.25000000  0.75000000  0.50000000  1
  Ca  Ca1  1  0.00000000  -0.00000000  -0.00000000  1
  B  B2  1  0.46976467  0.96976467  0.93952935  1
  B  B3  1  0.78023533  0.78023533  0.56047065  1
  B  B4  1  0.03023533  0.53023533  0.06047065  1
  B  B5  1  0.21976467  0.21976467  0.43952935  1
  H  H6  1  0.51340737  0.05916081  0.83545396  1
  H  H7  1  0.73659263  0.97370685  0.66454604  1
  H  H8  1  0.32204659  0.77629315  0.83545396  1
  H  H9  1  0.92795341  0.69083919  0.66454604  1
  H  H10  1  0.94083919  0.67795341  0.16454604  1
  H  H11  1  0.30916081  0.26340737  0.33545396  1
  H  H12  1  0.22370685  0.48659263  0.16454604  1
  H  H13  1  0.02629315  0.07204659  0.33545396  1
  H  H14  1  0.65463939  0.92160025  0.05046746  1
  H  H15  1  0.59536061  0.62113279  0.44953254  1
  H  H16  1  0.39582807  0.12886721  0.05046746  1
  H  H17  1  0.85417193  0.82839975  0.44953254  1
  H  H18  1  0.07839975  0.60417193  0.94953254  1
  H  H19  1  0.17160025  0.40463939  0.55046746  1
  H  H20  1  0.87113279  0.34536061  0.94953254  1
  H  H21  1  0.37886721  0.14582807  0.55046746  1
