# generated using pymatgen
data_Zr2Pt
_symmetry_space_group_name_H-M   'P 1'
_cell_length_a   8.93043408
_cell_length_b   8.93043408
_cell_length_c   8.93043408
_cell_angle_alpha   60.00000000
_cell_angle_beta   60.00000000
_cell_angle_gamma   60.00000000
_symmetry_Int_Tables_number   1
_chemical_formula_structural   Zr2Pt
_chemical_formula_sum   'Zr16 Pt8'
_cell_volume   503.61970005
_cell_formula_units_Z   8
loop_
 _symmetry_equiv_pos_site_id
 _symmetry_equiv_pos_as_xyz
  1  'x, y, z'
loop_
 _atom_site_type_symbol
 _atom_site_label
 _atom_site_symmetry_multiplicity
 _atom_site_fract_x
 _atom_site_fract_y
 _atom_site_fract_z
 _atom_site_occupancy
  Zr  Zr0  1  0.00000000  0.00000000  0.50000000  1
  Zr  Zr1  1  0.00000000  0.50000000  -0.00000000  1
  Zr  Zr2  1  0.50000000  0.00000000  -0.00000000  1
  Zr  Zr3  1  0.00000000  0.00000000  -0.00000000  1
  Zr  Zr4  1  0.43707321  0.81292679  0.81292679  1
  Zr  Zr5  1  0.81292679  0.43707321  0.43707321  1
  Zr  Zr6  1  0.81292679  0.43707321  0.81292679  1
  Zr  Zr7  1  0.43707321  0.81292679  0.43707321  1
  Zr  Zr8  1  0.81292679  0.81292679  0.43707321  1
  Zr  Zr9  1  0.43707321  0.43707321  0.81292679  1
  Zr  Zr10  1  0.56292679  0.18707321  0.18707321  1
  Zr  Zr11  1  0.18707321  0.56292679  0.56292679  1
  Zr  Zr12  1  0.18707321  0.56292679  0.18707321  1
  Zr  Zr13  1  0.56292679  0.18707321  0.56292679  1
  Zr  Zr14  1  0.18707321  0.18707321  0.56292679  1
  Zr  Zr15  1  0.56292679  0.56292679  0.18707321  1
  Pt  Pt16  1  0.21993542  0.21993542  0.84019374  1
  Pt  Pt17  1  0.21993542  0.84019374  0.21993542  1
  Pt  Pt18  1  0.84019374  0.21993542  0.21993542  1
  Pt  Pt19  1  0.21993542  0.21993542  0.21993542  1
  Pt  Pt20  1  0.78006458  0.78006458  0.15980626  1
  Pt  Pt21  1  0.78006458  0.15980626  0.78006458  1
  Pt  Pt22  1  0.15980626  0.78006458  0.78006458  1
  Pt  Pt23  1  0.78006458  0.78006458  0.78006458  1
