# generated using pymatgen
data_La2Rh7
_symmetry_space_group_name_H-M   'P 1'
_cell_length_a   5.33838494
_cell_length_b   5.33838494
_cell_length_c   13.66912011
_cell_angle_alpha   78.73940252
_cell_angle_beta   78.73940252
_cell_angle_gamma   59.99999253
_symmetry_Int_Tables_number   1
_chemical_formula_structural   La2Rh7
_chemical_formula_sum   'La4 Rh14'
_cell_volume   328.67019912
_cell_formula_units_Z   2
loop_
 _symmetry_equiv_pos_site_id
 _symmetry_equiv_pos_as_xyz
  1  'x, y, z'
loop_
 _atom_site_type_symbol
 _atom_site_label
 _atom_site_symmetry_multiplicity
 _atom_site_fract_x
 _atom_site_fract_y
 _atom_site_fract_z
 _atom_site_occupancy
  La  La0  1  0.05025677  0.05025677  0.84922970  1
  La  La1  1  0.94974323  0.94974323  0.15077030  1
  La  La2  1  0.14666046  0.14666046  0.56001861  1
  La  La3  1  0.85333954  0.85333954  0.43998139  1
  Rh  Rh4  1  0.50000000  0.50000000  0.50000000  1
  Rh  Rh5  1  0.27770315  0.27770315  0.16689054  1
  Rh  Rh6  1  0.72229685  0.72229685  0.83310946  1
  Rh  Rh7  1  0.38848591  0.38848591  0.83454228  1
  Rh  Rh8  1  0.61151409  0.61151409  0.16545772  1
  Rh  Rh9  1  0.50000000  0.50000000  -0.00000000  1
  Rh  Rh10  1  0.50000000  0.00000000  -0.00000000  1
  Rh  Rh11  1  0.00000000  0.50000000  -0.00000000  1
  Rh  Rh12  1  0.10944608  0.60975640  0.67104111  1
  Rh  Rh13  1  0.60975640  0.60975640  0.67104111  1
  Rh  Rh14  1  0.60975640  0.10944608  0.67104111  1
  Rh  Rh15  1  0.89055392  0.39024360  0.32895889  1
  Rh  Rh16  1  0.39024360  0.39024360  0.32895889  1
  Rh  Rh17  1  0.39024360  0.89055392  0.32895889  1
