# generated using pymatgen
data_Li2Ti6O13
_symmetry_space_group_name_H-M   'P 1'
_cell_length_a   3.78945092
_cell_length_b   7.99525265
_cell_length_c   9.23299493
_cell_angle_alpha   99.31158250
_cell_angle_beta   90.00000000
_cell_angle_gamma   103.70844315
_symmetry_Int_Tables_number   1
_chemical_formula_structural   Li2Ti6O13
_chemical_formula_sum   'Li2 Ti6 O13'
_cell_volume   267.97351243
_cell_formula_units_Z   1
loop_
 _symmetry_equiv_pos_site_id
 _symmetry_equiv_pos_as_xyz
  1  'x, y, z'
loop_
 _atom_site_type_symbol
 _atom_site_label
 _atom_site_symmetry_multiplicity
 _atom_site_fract_x
 _atom_site_fract_y
 _atom_site_fract_z
 _atom_site_occupancy
  Li  Li0  1  0.94998615  0.89997230  0.24624710  1
  Li  Li1  1  0.05001385  0.10002770  0.75375290  1
  Ti  Ti2  1  0.11484398  0.22968797  0.09549633  1
  Ti  Ti3  1  0.88515602  0.77031203  0.90450367  1
  Ti  Ti4  1  0.16791912  0.33583823  0.43534512  1
  Ti  Ti5  1  0.83208088  0.66416177  0.56465488  1
  Ti  Ti6  1  0.23074985  0.46149970  0.77197988  1
  Ti  Ti7  1  0.76925015  0.53850030  0.22802012  1
  O  O8  1  -0.00000000  0.00000000  0.00000000  1
  O  O9  1  0.23795287  0.47590575  0.24192294  1
  O  O10  1  0.76204713  0.52409425  0.75807706  1
  O  O11  1  0.07375345  0.14750690  0.28885870  1
  O  O12  1  0.92624655  0.85249310  0.71114130  1
  O  O13  1  0.29616653  0.59233307  0.57305309  1
  O  O14  1  0.70383347  0.40766693  0.42694691  1
  O  O15  1  0.13065463  0.26130925  0.61279426  1
  O  O16  1  0.86934537  0.73869075  0.38720574  1
  O  O17  1  0.35455555  0.70911110  0.88778967  1
  O  O18  1  0.64544445  0.29088890  0.11221033  1
  O  O19  1  0.16094912  0.32189824  0.90668854  1
  O  O20  1  0.83905088  0.67810176  0.09331146  1
