# generated using pymatgen
data_SiH12(NF)4
_symmetry_space_group_name_H-M   'P 1'
_cell_length_a   5.46045963
_cell_length_b   5.46045963
_cell_length_c   13.67997255
_cell_angle_alpha   90.00000000
_cell_angle_beta   90.00000000
_cell_angle_gamma   97.01469008
_symmetry_Int_Tables_number   1
_chemical_formula_structural   SiH12(NF)4
_chemical_formula_sum   'Si2 H24 N8 F8'
_cell_volume   404.83742176
_cell_formula_units_Z   2
loop_
 _symmetry_equiv_pos_site_id
 _symmetry_equiv_pos_as_xyz
  1  'x, y, z'
loop_
 _atom_site_type_symbol
 _atom_site_label
 _atom_site_symmetry_multiplicity
 _atom_site_fract_x
 _atom_site_fract_y
 _atom_site_fract_z
 _atom_site_occupancy
  Si  Si0  1  -0.00000000  -0.00000000  -0.00000000  1
  Si  Si1  1  0.50000000  0.50000000  0.50000000  1
  H  H2  1  0.14376772  0.62737465  0.92866190  1
  H  H3  1  0.62737465  0.14376772  0.07133810  1
  H  H4  1  0.12737465  0.64376772  0.42866190  1
  H  H5  1  0.64376772  0.12737465  0.57133810  1
  H  H6  1  0.85623228  0.37262535  0.07133810  1
  H  H7  1  0.37262535  0.85623228  0.92866190  1
  H  H8  1  0.87262535  0.35623228  0.57133810  1
  H  H9  1  0.35623228  0.87262535  0.42866190  1
  H  H10  1  0.15342326  0.84657674  0.84132780  1
  H  H11  1  0.84657674  0.15342326  0.15867220  1
  H  H12  1  0.34657674  0.65342326  0.34132780  1
  H  H13  1  0.65342326  0.34657674  0.65867220  1
  H  H14  1  0.22010664  0.77989336  0.66905735  1
  H  H15  1  0.77989336  0.22010664  0.33094265  1
  H  H16  1  0.27989336  0.72010664  0.16905735  1
  H  H17  1  0.72010664  0.27989336  0.83094265  1
  H  H18  1  0.16166393  0.06335025  0.68449315  1
  H  H19  1  0.06335025  0.16166393  0.31550685  1
  H  H20  1  0.56335025  0.66166393  0.18449315  1
  H  H21  1  0.66166393  0.56335025  0.81550685  1
  H  H22  1  0.83833607  0.93664975  0.31550685  1
  H  H23  1  0.93664975  0.83833607  0.68449315  1
  H  H24  1  0.43664975  0.33833607  0.81550685  1
  H  H25  1  0.33833607  0.43664975  0.18449315  1
  N  N26  1  0.18564380  0.81435620  0.91656766  1
  N  N27  1  0.81435620  0.18564380  0.08343234  1
  N  N28  1  0.31435620  0.68564380  0.41656766  1
  N  N29  1  0.68564380  0.31435620  0.58343234  1
  N  N30  1  0.11324053  0.88675947  0.70788044  1
  N  N31  1  0.88675947  0.11324053  0.29211956  1
  N  N32  1  0.38675947  0.61324053  0.20788044  1
  N  N33  1  0.61324053  0.38675947  0.79211956  1
  F  F34  1  0.91991907  0.74368614  0.07201950  1
  F  F35  1  0.74368614  0.91991907  0.92798050  1
  F  F36  1  0.24368614  0.41991907  0.57201950  1
  F  F37  1  0.41991907  0.24368614  0.42798050  1
  F  F38  1  0.08008093  0.25631386  0.92798050  1
  F  F39  1  0.25631386  0.08008093  0.07201950  1
  F  F40  1  0.75631386  0.58008093  0.42798050  1
  F  F41  1  0.58008093  0.75631386  0.57201950  1
