# generated using pymatgen
data_SrVCuHO5
_symmetry_space_group_name_H-M   'P 1'
_cell_length_a   5.94640242
_cell_length_b   7.62538764
_cell_length_c   9.86337089
_cell_angle_alpha   90.00000000
_cell_angle_beta   90.00000000
_cell_angle_gamma   90.00000000
_symmetry_Int_Tables_number   1
_chemical_formula_structural   SrVCuHO5
_chemical_formula_sum   'Sr4 V4 Cu4 H4 O20'
_cell_volume   447.24097623
_cell_formula_units_Z   4
loop_
 _symmetry_equiv_pos_site_id
 _symmetry_equiv_pos_as_xyz
  1  'x, y, z'
loop_
 _atom_site_type_symbol
 _atom_site_label
 _atom_site_symmetry_multiplicity
 _atom_site_fract_x
 _atom_site_fract_y
 _atom_site_fract_z
 _atom_site_occupancy
  Sr  Sr0  1  0.02139597  0.36479167  0.82668351  1
  Sr  Sr1  1  0.52139597  0.13520833  0.17331649  1
  Sr  Sr2  1  0.97860403  0.86479167  0.67331649  1
  Sr  Sr3  1  0.47860403  0.63520833  0.32668351  1
  V  V4  1  0.99007804  0.39059309  0.16604593  1
  V  V5  1  0.49007804  0.10940691  0.83395407  1
  V  V6  1  0.00992196  0.89059309  0.33395407  1
  V  V7  1  0.50992196  0.60940691  0.66604593  1
  Cu  Cu8  1  0.25103358  0.75253326  0.00045315  1
  Cu  Cu9  1  0.75103358  0.74746674  0.99954685  1
  Cu  Cu10  1  0.74896642  0.25253326  0.49954685  1
  Cu  Cu11  1  0.24896642  0.24746674  0.50045315  1
  H  H12  1  0.99220126  0.00265128  0.98594134  1
  H  H13  1  0.49220126  0.49734872  0.01405866  1
  H  H14  1  0.00779874  0.50265128  0.51405866  1
  H  H15  1  0.50779874  0.99734872  0.48594134  1
  O  O16  1  0.00342162  0.57511078  0.04913604  1
  O  O17  1  0.50342162  0.92488922  0.95086396  1
  O  O18  1  0.99657838  0.07511078  0.45086396  1
  O  O19  1  0.49657838  0.42488922  0.54913604  1
  O  O20  1  0.94801336  0.21024992  0.06184345  1
  O  O21  1  0.44801336  0.28975008  0.93815655  1
  O  O22  1  0.05198664  0.71024992  0.43815655  1
  O  O23  1  0.55198664  0.78975008  0.56184345  1
  O  O24  1  0.26255221  0.62974042  0.75636992  1
  O  O25  1  0.76255221  0.87025958  0.24363008  1
  O  O26  1  0.73744779  0.12974042  0.74363008  1
  O  O27  1  0.23744779  0.37025958  0.25636992  1
  O  O28  1  0.74138682  0.60441269  0.77214148  1
  O  O29  1  0.24138682  0.89558731  0.22785852  1
  O  O30  1  0.25861318  0.10441269  0.72785852  1
  O  O31  1  0.75861318  0.39558731  0.27214148  1
  O  O32  1  0.99920339  0.88939238  0.93629324  1
  O  O33  1  0.49920339  0.61060762  0.06370676  1
  O  O34  1  0.00079661  0.38939238  0.56370676  1
  O  O35  1  0.50079661  0.11060762  0.43629324  1
