# generated using pymatgen
data_MgSiO3
_symmetry_space_group_name_H-M   'P 1'
_cell_length_a   5.26336713
_cell_length_b   8.94090783
_cell_length_c   18.62369272
_cell_angle_alpha   90.00000000
_cell_angle_beta   90.57090493
_cell_angle_gamma   90.00000000
_symmetry_Int_Tables_number   1
_chemical_formula_structural   MgSiO3
_chemical_formula_sum   'Mg16 Si16 O48'
_cell_volume   876.37407031
_cell_formula_units_Z   16
loop_
 _symmetry_equiv_pos_site_id
 _symmetry_equiv_pos_as_xyz
  1  'x, y, z'
loop_
 _atom_site_type_symbol
 _atom_site_label
 _atom_site_symmetry_multiplicity
 _atom_site_fract_x
 _atom_site_fract_y
 _atom_site_fract_z
 _atom_site_occupancy
  Mg  Mg0  1  0.25000000  0.39879343  0.00000000  1
  Mg  Mg1  1  0.75000000  0.60120657  0.00000000  1
  Mg  Mg2  1  0.75000000  0.24533018  0.00000000  1
  Mg  Mg3  1  0.25000000  0.75466982  0.00000000  1
  Mg  Mg4  1  0.31926275  0.90140495  0.74885763  1
  Mg  Mg5  1  0.18073725  0.90140495  0.25114237  1
  Mg  Mg6  1  0.68073725  0.09859505  0.25114237  1
  Mg  Mg7  1  0.81926275  0.09859505  0.74885763  1
  Mg  Mg8  1  0.32000755  0.25995666  0.75056834  1
  Mg  Mg9  1  0.17999245  0.25995666  0.24943166  1
  Mg  Mg10  1  0.67999245  0.74004334  0.24943166  1
  Mg  Mg11  1  0.82000755  0.74004334  0.75056834  1
  Mg  Mg12  1  0.75000000  0.59859543  0.50000000  1
  Mg  Mg13  1  0.25000000  0.40140457  0.50000000  1
  Mg  Mg14  1  0.75000000  0.24145567  0.50000000  1
  Mg  Mg15  1  0.25000000  0.75854433  0.50000000  1
  Si  Si16  1  0.52975706  0.91222530  0.10377690  1
  Si  Si17  1  0.97024294  0.91222530  0.89622310  1
  Si  Si18  1  0.47024294  0.08777470  0.89622310  1
  Si  Si19  1  0.02975706  0.08777470  0.10377690  1
  Si  Si20  1  0.59033724  0.41179209  0.14918515  1
  Si  Si21  1  0.90966276  0.41179209  0.85081485  1
  Si  Si22  1  0.40966276  0.58820791  0.85081485  1
  Si  Si23  1  0.09033724  0.58820791  0.14918515  1
  Si  Si24  1  0.65367396  0.91043254  0.60115268  1
  Si  Si25  1  0.84632604  0.91043254  0.39884732  1
  Si  Si26  1  0.34632604  0.08956746  0.39884732  1
  Si  Si27  1  0.15367396  0.08956746  0.60115268  1
  Si  Si28  1  0.10555660  0.58870882  0.64744953  1
  Si  Si29  1  0.39444340  0.58870882  0.35255047  1
  Si  Si30  1  0.89444340  0.41129118  0.35255047  1
  Si  Si31  1  0.60555660  0.41129118  0.64744953  1
  O  O32  1  0.52317024  0.91174745  0.19166038  1
  O  O33  1  0.97682976  0.91174745  0.80833962  1
  O  O34  1  0.47682976  0.08825255  0.80833962  1
  O  O35  1  0.02317024  0.08825255  0.19166038  1
  O  O36  1  0.56821381  0.75880407  0.06081525  1
  O  O37  1  0.93178619  0.75880407  0.93918475  1
  O  O38  1  0.43178619  0.24119593  0.93918475  1
  O  O39  1  0.06821381  0.24119593  0.06081525  1
  O  O40  1  0.73612441  0.04016501  0.07606650  1
  O  O41  1  0.76387559  0.04016501  0.92393350  1
  O  O42  1  0.26387559  0.95983499  0.92393350  1
  O  O43  1  0.23612441  0.95983499  0.07606650  1
  O  O44  1  0.58134896  0.40978910  0.06109906  1
  O  O45  1  0.91865104  0.40978910  0.93890094  1
  O  O46  1  0.41865104  0.59021090  0.93890094  1
  O  O47  1  0.08134896  0.59021090  0.06109906  1
  O  O48  1  0.49781154  0.26308856  0.19073389  1
  O  O49  1  0.00218846  0.26308856  0.80926611  1
  O  O50  1  0.50218846  0.73691144  0.80926611  1
  O  O51  1  0.99781154  0.73691144  0.19073389  1
  O  O52  1  0.38870980  0.54725936  0.17591467  1
  O  O53  1  0.11129020  0.54725936  0.82408533  1
  O  O54  1  0.61129020  0.45274064  0.82408533  1
  O  O55  1  0.88870980  0.45274064  0.17591467  1
  O  O56  1  0.65035838  0.90766659  0.68903836  1
  O  O57  1  0.84964162  0.90766659  0.31096164  1
  O  O58  1  0.34964162  0.09233341  0.31096164  1
  O  O59  1  0.15035838  0.09233341  0.68903836  1
  O  O60  1  0.56804510  0.75896676  0.56025827  1
  O  O61  1  0.93195490  0.75896676  0.43974173  1
  O  O62  1  0.43195490  0.24103324  0.43974173  1
  O  O63  1  0.06804510  0.24103324  0.56025827  1
  O  O64  1  0.44456799  0.04170548  0.57375451  1
  O  O65  1  0.05543201  0.04170548  0.42624549  1
  O  O66  1  0.55543201  0.95829452  0.42624549  1
  O  O67  1  0.94456799  0.95829452  0.57375451  1
  O  O68  1  0.09366718  0.58775433  0.55968496  1
  O  O69  1  0.40633282  0.58775433  0.44031504  1
  O  O70  1  0.90633282  0.41224567  0.44031504  1
  O  O71  1  0.59366718  0.41224567  0.55968496  1
  O  O72  1  0.13839033  0.74491761  0.68834257  1
  O  O73  1  0.36160967  0.74491761  0.31165743  1
  O  O74  1  0.86160967  0.25508239  0.31165743  1
  O  O75  1  0.63839033  0.25508239  0.68834257  1
  O  O76  1  0.81665637  0.53722150  0.67684467  1
  O  O77  1  0.68334363  0.53722150  0.32315533  1
  O  O78  1  0.18334363  0.46277850  0.32315533  1
  O  O79  1  0.31665637  0.46277850  0.67684467  1
