# generated using pymatgen
data_CaTi2MnO6
_symmetry_space_group_name_H-M   'P 1'
_cell_length_a   7.59888006
_cell_length_b   7.59888006
_cell_length_c   7.71094150
_cell_angle_alpha   90.00000000
_cell_angle_beta   90.00000000
_cell_angle_gamma   90.00000000
_symmetry_Int_Tables_number   1
_chemical_formula_structural   CaTi2MnO6
_chemical_formula_sum   'Ca4 Ti8 Mn4 O24'
_cell_volume   445.25272668
_cell_formula_units_Z   4
loop_
 _symmetry_equiv_pos_site_id
 _symmetry_equiv_pos_as_xyz
  1  'x, y, z'
loop_
 _atom_site_type_symbol
 _atom_site_label
 _atom_site_symmetry_multiplicity
 _atom_site_fract_x
 _atom_site_fract_y
 _atom_site_fract_z
 _atom_site_occupancy
  Ca  Ca0  1  0.50000000  0.50000000  0.54903944  1
  Ca  Ca1  1  0.50000000  0.50000000  0.04903944  1
  Ca  Ca2  1  0.00000000  0.00000000  0.49819331  1
  Ca  Ca3  1  0.00000000  0.00000000  0.99819331  1
  Ti  Ti4  1  0.75484217  0.74297162  0.78229913  1
  Ti  Ti5  1  0.24515783  0.25702838  0.78229913  1
  Ti  Ti6  1  0.25702838  0.75484217  0.28229913  1
  Ti  Ti7  1  0.74297162  0.24515783  0.28229913  1
  Ti  Ti8  1  0.24515783  0.74297162  0.78229913  1
  Ti  Ti9  1  0.75484217  0.25702838  0.78229913  1
  Ti  Ti10  1  0.74297162  0.75484217  0.28229913  1
  Ti  Ti11  1  0.25702838  0.24515783  0.28229913  1
  Mn  Mn12  1  0.50000000  0.00000000  0.57496195  1
  Mn  Mn13  1  0.00000000  0.50000000  0.07496195  1
  Mn  Mn14  1  0.50000000  0.00000000  0.02025039  1
  Mn  Mn15  1  0.00000000  0.50000000  0.52025039  1
  O  O16  1  0.50000000  0.69690027  0.80174585  1
  O  O17  1  0.50000000  0.30309973  0.80174585  1
  O  O18  1  0.30309973  0.50000000  0.30174585  1
  O  O19  1  0.69690027  0.50000000  0.30174585  1
  O  O20  1  0.00000000  0.70322108  0.32553908  1
  O  O21  1  0.00000000  0.29677892  0.32553908  1
  O  O22  1  0.29677892  0.00000000  0.82553908  1
  O  O23  1  0.70322108  0.00000000  0.82553908  1
  O  O24  1  0.00000000  0.80328229  0.73229688  1
  O  O25  1  0.00000000  0.19671771  0.73229688  1
  O  O26  1  0.19671771  0.00000000  0.23229688  1
  O  O27  1  0.80328229  0.00000000  0.23229688  1
  O  O28  1  0.50000000  0.78972112  0.20170691  1
  O  O29  1  0.50000000  0.21027888  0.20170691  1
  O  O30  1  0.21027888  0.50000000  0.70170691  1
  O  O31  1  0.78972112  0.50000000  0.70170691  1
  O  O32  1  0.69904695  0.80127707  0.51639523  1
  O  O33  1  0.30095305  0.19872293  0.51639523  1
  O  O34  1  0.19872293  0.69904695  0.01639523  1
  O  O35  1  0.80127707  0.30095305  0.01639523  1
  O  O36  1  0.30095305  0.80127707  0.51639523  1
  O  O37  1  0.69904695  0.19872293  0.51639523  1
  O  O38  1  0.80127707  0.69904695  0.01639523  1
  O  O39  1  0.19872293  0.30095305  0.01639523  1
