# generated using pymatgen
data_NiTe6O13
_symmetry_space_group_name_H-M   'P 1'
_cell_length_a   8.75404575
_cell_length_b   8.75404575
_cell_length_c   8.75404533
_cell_angle_alpha   72.11975486
_cell_angle_beta   72.11975486
_cell_angle_gamma   72.11975480
_symmetry_Int_Tables_number   1
_chemical_formula_structural   NiTe6O13
_chemical_formula_sum   'Ni2 Te12 O26'
_cell_volume   590.61057998
_cell_formula_units_Z   2
loop_
 _symmetry_equiv_pos_site_id
 _symmetry_equiv_pos_as_xyz
  1  'x, y, z'
loop_
 _atom_site_type_symbol
 _atom_site_label
 _atom_site_symmetry_multiplicity
 _atom_site_fract_x
 _atom_site_fract_y
 _atom_site_fract_z
 _atom_site_occupancy
  Ni  Ni0  1  0.75687447  0.75687447  0.75687447  1
  Ni  Ni1  1  0.24312553  0.24312553  0.24312553  1
  Te  Te2  1  0.51156484  0.83314583  0.44043945  1
  Te  Te3  1  0.83314583  0.44043945  0.51156484  1
  Te  Te4  1  0.44043945  0.51156484  0.83314583  1
  Te  Te5  1  0.48843516  0.16685417  0.55956055  1
  Te  Te6  1  0.16685417  0.55956055  0.48843516  1
  Te  Te7  1  0.55956055  0.48843516  0.16685417  1
  Te  Te8  1  0.07828803  0.97094762  0.67611477  1
  Te  Te9  1  0.97094762  0.67611477  0.07828803  1
  Te  Te10  1  0.67611477  0.07828803  0.97094762  1
  Te  Te11  1  0.92171197  0.02905238  0.32388523  1
  Te  Te12  1  0.02905238  0.32388523  0.92171197  1
  Te  Te13  1  0.32388523  0.92171197  0.02905238  1
  O  O14  1  0.58275849  0.89717122  0.60059936  1
  O  O15  1  0.89717122  0.60059936  0.58275849  1
  O  O16  1  0.60059936  0.58275849  0.89717122  1
  O  O17  1  0.41724151  0.10282878  0.39940064  1
  O  O18  1  0.10282878  0.39940064  0.41724151  1
  O  O19  1  0.39940064  0.41724151  0.10282878  1
  O  O20  1  0.95101289  0.86614259  0.61872756  1
  O  O21  1  0.86614259  0.61872756  0.95101289  1
  O  O22  1  0.61872756  0.95101289  0.86614259  1
  O  O23  1  0.04898711  0.13385741  0.38127244  1
  O  O24  1  0.13385741  0.38127244  0.04898711  1
  O  O25  1  0.38127244  0.04898711  0.13385741  1
  O  O26  1  0.58634486  0.58634486  0.58634486  1
  O  O27  1  0.41365514  0.41365514  0.41365514  1
  O  O28  1  0.29838391  0.80210374  0.55435227  1
  O  O29  1  0.80210374  0.55435227  0.29838391  1
  O  O30  1  0.55435227  0.29838391  0.80210374  1
  O  O31  1  0.70161609  0.19789626  0.44564773  1
  O  O32  1  0.19789626  0.44564773  0.70161609  1
  O  O33  1  0.44564773  0.70161609  0.19789626  1
  O  O34  1  0.87615456  0.11578941  0.80124147  1
  O  O35  1  0.11578941  0.80124147  0.87615456  1
  O  O36  1  0.80124147  0.87615456  0.11578941  1
  O  O37  1  0.12384544  0.88421059  0.19875853  1
  O  O38  1  0.88421059  0.19875853  0.12384544  1
  O  O39  1  0.19875853  0.12384544  0.88421059  1
