# generated using pymatgen
data_Yb(YSe2)2
_symmetry_space_group_name_H-M   'P 1'
_cell_length_a   4.06955827
_cell_length_b   13.52481180
_cell_length_c   13.80577154
_cell_angle_alpha   90.00000000
_cell_angle_beta   90.00000000
_cell_angle_gamma   90.00000000
_symmetry_Int_Tables_number   1
_chemical_formula_structural   Yb(YSe2)2
_chemical_formula_sum   'Yb4 Y8 Se16'
_cell_volume   759.86979963
_cell_formula_units_Z   4
loop_
 _symmetry_equiv_pos_site_id
 _symmetry_equiv_pos_as_xyz
  1  'x, y, z'
loop_
 _atom_site_type_symbol
 _atom_site_label
 _atom_site_symmetry_multiplicity
 _atom_site_fract_x
 _atom_site_fract_y
 _atom_site_fract_z
 _atom_site_occupancy
  Yb  Yb0  1  0.75000000  0.12869972  0.91867962  1
  Yb  Yb1  1  0.75000000  0.62869972  0.58132038  1
  Yb  Yb2  1  0.25000000  0.87130028  0.08132038  1
  Yb  Yb3  1  0.25000000  0.37130028  0.41867962  1
  Y  Y4  1  0.75000000  0.39206972  0.08239654  1
  Y  Y5  1  0.75000000  0.89206972  0.41760346  1
  Y  Y6  1  0.25000000  0.60793028  0.91760346  1
  Y  Y7  1  0.25000000  0.10793028  0.58239654  1
  Y  Y8  1  0.75000000  0.35248295  0.70288843  1
  Y  Y9  1  0.75000000  0.85248295  0.79711157  1
  Y  Y10  1  0.25000000  0.64751705  0.29711157  1
  Y  Y11  1  0.25000000  0.14751705  0.20288843  1
  Se  Se12  1  0.75000000  0.28567233  0.26478760  1
  Se  Se13  1  0.75000000  0.78567233  0.23521240  1
  Se  Se14  1  0.25000000  0.71432767  0.73521240  1
  Se  Se15  1  0.25000000  0.21432767  0.76478760  1
  Se  Se16  1  0.75000000  0.24539285  0.52368198  1
  Se  Se17  1  0.75000000  0.74539285  0.97631802  1
  Se  Se18  1  0.25000000  0.75460715  0.47631802  1
  Se  Se19  1  0.25000000  0.25460715  0.02368198  1
  Se  Se20  1  0.75000000  0.02933428  0.11549768  1
  Se  Se21  1  0.75000000  0.52933428  0.38450232  1
  Se  Se22  1  0.25000000  0.97066572  0.88450232  1
  Se  Se23  1  0.25000000  0.47066572  0.61549768  1
  Se  Se24  1  0.75000000  0.46486966  0.88173656  1
  Se  Se25  1  0.75000000  0.96486966  0.61826344  1
  Se  Se26  1  0.25000000  0.53513034  0.11826344  1
  Se  Se27  1  0.25000000  0.03513034  0.38173656  1
