# generated using pymatgen
data_YBiO3
_symmetry_space_group_name_H-M   'P 1'
_cell_length_a   6.61361375
_cell_length_b   6.61361334
_cell_length_c   13.08213532
_cell_angle_alpha   90.00000000
_cell_angle_beta   90.00000000
_cell_angle_gamma   120.00000199
_symmetry_Int_Tables_number   1
_chemical_formula_structural   YBiO3
_chemical_formula_sum   'Y6 Bi6 O18'
_cell_volume   495.54932438
_cell_formula_units_Z   6
loop_
 _symmetry_equiv_pos_site_id
 _symmetry_equiv_pos_as_xyz
  1  'x, y, z'
loop_
 _atom_site_type_symbol
 _atom_site_label
 _atom_site_symmetry_multiplicity
 _atom_site_fract_x
 _atom_site_fract_y
 _atom_site_fract_z
 _atom_site_occupancy
  Y  Y0  1  0.66666700  0.33333300  0.23577158  1
  Y  Y1  1  0.33333300  0.66666700  0.73577158  1
  Y  Y2  1  0.66666700  0.33333300  0.73577158  1
  Y  Y3  1  0.33333300  0.66666700  0.23577158  1
  Y  Y4  1  0.00000000  0.00000000  0.76391723  1
  Y  Y5  1  0.00000000  0.00000000  0.26391723  1
  Bi  Bi6  1  0.66703595  0.00000000  0.49984007  1
  Bi  Bi7  1  0.66703595  0.66703595  0.99984007  1
  Bi  Bi8  1  0.00000000  0.33296405  0.99984007  1
  Bi  Bi9  1  1.00000000  0.66703595  0.49984007  1
  Bi  Bi10  1  0.33296405  0.33296405  0.49984007  1
  Bi  Bi11  1  0.33296405  0.00000000  0.99984007  1
  O  O12  1  0.66666700  0.33333300  0.04185750  1
  O  O13  1  0.33333300  0.66666700  0.54185750  1
  O  O14  1  0.66666700  0.33333300  0.54185750  1
  O  O15  1  0.33333300  0.66666700  0.04185750  1
  O  O16  1  0.00000000  0.00000000  0.95216860  1
  O  O17  1  0.00000000  0.00000000  0.45216860  1
  O  O18  1  0.37478895  0.00000000  0.82318309  1
  O  O19  1  0.37478895  0.37478895  0.32318309  1
  O  O20  1  0.00000000  0.62521105  0.32318309  1
  O  O21  1  1.00000000  0.37478895  0.82318309  1
  O  O22  1  0.62521105  0.62521105  0.82318309  1
  O  O23  1  0.62521105  0.00000000  0.32318309  1
  O  O24  1  0.29995110  0.00000000  0.17819551  1
  O  O25  1  0.29995110  0.29995110  0.67819551  1
  O  O26  1  1.00000000  0.70004890  0.67819551  1
  O  O27  1  0.00000000  0.29995110  0.17819551  1
  O  O28  1  0.70004890  0.70004890  0.17819551  1
  O  O29  1  0.70004890  0.00000000  0.67819551  1
