# generated using pymatgen
data_V4Cu9(ClO9)2
_symmetry_space_group_name_H-M   'P 1'
_cell_length_a   6.50970326
_cell_length_b   8.38002477
_cell_length_c   9.29856208
_cell_angle_alpha   104.94121407
_cell_angle_beta   96.05738639
_cell_angle_gamma   107.78104065
_symmetry_Int_Tables_number   1
_chemical_formula_structural   V4Cu9(ClO9)2
_chemical_formula_sum   'V4 Cu9 Cl2 O18'
_cell_volume   457.23350355
_cell_formula_units_Z   1
loop_
 _symmetry_equiv_pos_site_id
 _symmetry_equiv_pos_as_xyz
  1  'x, y, z'
loop_
 _atom_site_type_symbol
 _atom_site_label
 _atom_site_symmetry_multiplicity
 _atom_site_fract_x
 _atom_site_fract_y
 _atom_site_fract_z
 _atom_site_occupancy
  V  V0  1  0.11025984  0.58348789  0.35002593  1
  V  V1  1  0.88974016  0.41651211  0.64997407  1
  V  V2  1  0.67553580  0.75022699  0.14879627  1
  V  V3  1  0.32446420  0.24977301  0.85120373  1
  Cu  Cu4  1  0.85908662  0.28228372  0.97003091  1
  Cu  Cu5  1  0.14091338  0.71771628  0.02996909  1
  Cu  Cu6  1  0.58232522  0.45436637  0.35757724  1
  Cu  Cu7  1  0.41767478  0.54563363  0.64242276  1
  Cu  Cu8  1  0.83068982  0.16849302  0.31224444  1
  Cu  Cu9  1  0.16931018  0.83150698  0.68775556  1
  Cu  Cu10  1  0.50000000  -0.00000000  -0.00000000  1
  Cu  Cu11  1  -0.00000000  -0.00000000  -0.00000000  1
  Cu  Cu12  1  -0.00000000  -0.00000000  0.50000000  1
  Cl  Cl13  1  0.34822177  0.13046981  0.27665212  1
  Cl  Cl14  1  0.65177823  0.86953019  0.72334788  1
  O  O15  1  0.60866507  0.56099501  0.19316532  1
  O  O16  1  0.39133493  0.43900499  0.80683468  1
  O  O17  1  0.86060685  0.40823762  0.34058564  1
  O  O18  1  0.13939315  0.59176238  0.65941436  1
  O  O19  1  0.65978707  0.46372042  0.58088608  1
  O  O20  1  0.34021293  0.53627958  0.41911392  1
  O  O21  1  0.90976008  0.21943601  0.53551636  1
  O  O22  1  0.09023992  0.78056399  0.46448364  1
  O  O23  1  0.89165643  0.41555804  0.83355304  1
  O  O24  1  0.10834357  0.58444196  0.16644696  1
  O  O25  1  0.12207173  0.22561763  0.96772408  1
  O  O26  1  0.87792827  0.77438237  0.03227592  1
  O  O27  1  0.80913843  0.11032806  0.09415973  1
  O  O28  1  0.19086157  0.88967194  0.90584027  1
  O  O29  1  0.54935993  0.21827667  0.95048626  1
  O  O30  1  0.45064007  0.78172333  0.04951374  1
  O  O31  1  0.78653158  0.93143742  0.31651010  1
  O  O32  1  0.21346842  0.06856258  0.68348990  1
