# generated using pymatgen
data_BaCoSiO4
_symmetry_space_group_name_H-M   'P 1'
_cell_length_a   8.78892052
_cell_length_b   9.22911476
_cell_length_c   9.22904127
_cell_angle_alpha   120.00052549
_cell_angle_beta   90.00000000
_cell_angle_gamma   90.00000000
_symmetry_Int_Tables_number   1
_chemical_formula_structural   BaCoSiO4
_chemical_formula_sum   'Ba6 Co6 Si6 O24'
_cell_volume   648.30669024
_cell_formula_units_Z   6
loop_
 _symmetry_equiv_pos_site_id
 _symmetry_equiv_pos_as_xyz
  1  'x, y, z'
loop_
 _atom_site_type_symbol
 _atom_site_label
 _atom_site_symmetry_multiplicity
 _atom_site_fract_x
 _atom_site_fract_y
 _atom_site_fract_z
 _atom_site_occupancy
  Ba  Ba0  1  0.24950475  0.00000265  0.00000057  1
  Ba  Ba1  1  0.74950475  0.99999735  0.99999943  1
  Ba  Ba2  1  0.27957679  0.33337363  0.66668689  1
  Ba  Ba3  1  0.77957679  0.66662637  0.33331311  1
  Ba  Ba4  1  0.28175256  0.66661969  0.33330819  1
  Ba  Ba5  1  0.78175256  0.33338031  0.66669181  1
  Co  Co6  1  0.96721613  0.98872990  0.67153612  1
  Co  Co7  1  0.96722033  0.32845219  0.31718740  1
  Co  Co8  1  0.96722027  0.68281666  0.01127462  1
  Co  Co9  1  0.46721613  0.01127010  0.32846388  1
  Co  Co10  1  0.46722033  0.67154781  0.68281260  1
  Co  Co11  1  0.46722027  0.31718334  0.98872538  1
  Si  Si12  1  0.06976129  0.32898834  0.98857871  1
  Si  Si13  1  0.06976340  0.01141829  0.34041374  1
  Si  Si14  1  0.06976062  0.65959519  0.67100747  1
  Si  Si15  1  0.56976129  0.67101166  0.01142129  1
  Si  Si16  1  0.56976340  0.98858171  0.65958626  1
  Si  Si17  1  0.56976062  0.34040481  0.32899253  1
  O  O18  1  0.97775205  0.14956024  0.91372170  1
  O  O19  1  0.97775125  0.08627838  0.23583757  1
  O  O20  1  0.97774870  0.76416105  0.85044152  1
  O  O21  1  0.47775205  0.85043976  0.08627830  1
  O  O22  1  0.47775125  0.91372162  0.76416243  1
  O  O23  1  0.47774870  0.23583895  0.14955848  1
  O  O24  1  0.01094503  0.44071235  0.90477290  1
  O  O25  1  0.01094088  0.09523204  0.53594062  1
  O  O26  1  0.01094521  0.46406214  0.55929008  1
  O  O27  1  0.51094503  0.55928765  0.09522710  1
  O  O28  1  0.51094088  0.90476796  0.46405938  1
  O  O29  1  0.51094521  0.53593786  0.44070992  1
  O  O30  1  0.05444986  0.43402584  0.19437919  1
  O  O31  1  0.05445433  0.80561821  0.23964650  1
  O  O32  1  0.05445305  0.76035007  0.56597112  1
  O  O33  1  0.55444986  0.56597416  0.80562081  1
  O  O34  1  0.55445433  0.19438179  0.76035350  1
  O  O35  1  0.55445305  0.23964993  0.43402888  1
  O  O36  1  0.74909385  0.93101229  0.65311097  1
  O  O37  1  0.74909429  0.34688431  0.27790319  1
  O  O38  1  0.74909536  0.72208995  0.06897995  1
  O  O39  1  0.24909385  0.06898771  0.34688903  1
  O  O40  1  0.24909429  0.65311569  0.72209681  1
  O  O41  1  0.24909536  0.27791005  0.93102005  1
