# generated using pymatgen
data_KTiPO5
_symmetry_space_group_name_H-M   'P 1'
_cell_length_a   6.51619316
_cell_length_b   10.42341431
_cell_length_c   12.92990108
_cell_angle_alpha   90.00000000
_cell_angle_beta   90.00000000
_cell_angle_gamma   90.00000000
_symmetry_Int_Tables_number   1
_chemical_formula_structural   KTiPO5
_chemical_formula_sum   'K8 Ti8 P8 O40'
_cell_volume   878.21156598
_cell_formula_units_Z   8
loop_
 _symmetry_equiv_pos_site_id
 _symmetry_equiv_pos_as_xyz
  1  'x, y, z'
loop_
 _atom_site_type_symbol
 _atom_site_label
 _atom_site_symmetry_multiplicity
 _atom_site_fract_x
 _atom_site_fract_y
 _atom_site_fract_z
 _atom_site_occupancy
  K  K0  1  0.72612362  0.62828286  0.89479255  1
  K  K1  1  0.27387638  0.12828286  0.10520745  1
  K  K2  1  0.22612362  0.12828286  0.60520745  1
  K  K3  1  0.77387638  0.62828286  0.39479255  1
  K  K4  1  0.79710041  0.86800507  0.61603483  1
  K  K5  1  0.20289959  0.36800507  0.38396517  1
  K  K6  1  0.29710041  0.36800507  0.88396517  1
  K  K7  1  0.70289959  0.86800507  0.11603483  1
  Ti  Ti8  1  0.01150775  0.99666165  0.87009002  1
  Ti  Ti9  1  0.98849225  0.49666165  0.12990998  1
  Ti  Ti10  1  0.51150775  0.49666165  0.62990998  1
  Ti  Ti11  1  0.48849225  0.99666165  0.37009002  1
  Ti  Ti12  1  0.24759675  0.72326570  0.77779359  1
  Ti  Ti13  1  0.75240325  0.22326570  0.22220641  1
  Ti  Ti14  1  0.74759675  0.22326570  0.72220641  1
  Ti  Ti15  1  0.25240325  0.72326570  0.27779359  1
  P  P16  1  0.17300764  0.75542252  0.02609959  1
  P  P17  1  0.82699236  0.25542252  0.97390041  1
  P  P18  1  0.67300764  0.25542252  0.47390041  1
  P  P19  1  0.32699236  0.75542252  0.52609959  1
  P  P20  1  0.01723720  0.47810634  0.67923252  1
  P  P21  1  0.98276280  0.97810634  0.32076748  1
  P  P22  1  0.51723720  0.97810634  0.82076748  1
  P  P23  1  0.48276280  0.47810634  0.17923252  1
  O  O24  1  0.07550804  0.88868206  0.01016079  1
  O  O25  1  0.92449196  0.38868206  0.98983921  1
  O  O26  1  0.57550804  0.38868206  0.48983921  1
  O  O27  1  0.42449196  0.88868206  0.51016079  1
  O  O28  1  0.99759090  0.65534210  0.04056898  1
  O  O29  1  0.00240910  0.15534210  0.95943102  1
  O  O30  1  0.49759090  0.15534210  0.45943102  1
  O  O31  1  0.50240910  0.65534210  0.54056898  1
  O  O32  1  0.30655096  0.71071454  0.93172193  1
  O  O33  1  0.69344904  0.21071454  0.06827807  1
  O  O34  1  0.80655096  0.21071454  0.56827807  1
  O  O35  1  0.19344904  0.71071454  0.43172193  1
  O  O36  1  0.30997134  0.75726032  0.12454381  1
  O  O37  1  0.69002866  0.25726032  0.87545619  1
  O  O38  1  0.80997134  0.25726032  0.37545619  1
  O  O39  1  0.19002866  0.75726032  0.62454381  1
  O  O40  1  0.54078396  0.33313003  0.69375821  1
  O  O41  1  0.45921604  0.83313003  0.30624179  1
  O  O42  1  0.04078396  0.83313003  0.80624179  1
  O  O43  1  0.95921604  0.33313003  0.19375821  1
  O  O44  1  0.46004612  0.58362340  0.74514386  1
  O  O45  1  0.53995388  0.08362340  0.25485614  1
  O  O46  1  0.96004612  0.08362340  0.75485614  1
  O  O47  1  0.03995388  0.58362340  0.24514386  1
  O  O48  1  0.20266675  0.46700132  0.60406000  1
  O  O49  1  0.79733325  0.96700132  0.39594000  1
  O  O50  1  0.70266675  0.96700132  0.89594000  1
  O  O51  1  0.29733325  0.46700132  0.10406000  1
  O  O52  1  0.82342428  0.52516086  0.62234612  1
  O  O53  1  0.17657572  0.02516086  0.37765388  1
  O  O54  1  0.32342428  0.02516086  0.87765388  1
  O  O55  1  0.67657572  0.52516086  0.12234612  1
  O  O56  1  0.98225582  0.34338384  0.72926393  1
  O  O57  1  0.01774418  0.84338384  0.27073607  1
  O  O58  1  0.48225582  0.84338384  0.77073607  1
  O  O59  1  0.51774418  0.34338384  0.22926393  1
  O  O60  1  0.06268065  0.57045741  0.77145778  1
  O  O61  1  0.93731935  0.07045741  0.22854222  1
  O  O62  1  0.56268065  0.07045741  0.72854222  1
  O  O63  1  0.43731935  0.57045741  0.27145778  1
