# generated using pymatgen
data_Ti9Mn2(B4Ru9)2
_symmetry_space_group_name_H-M   'P 1'
_cell_length_a   2.97921133
_cell_length_b   17.61782611
_cell_length_c   17.61782611
_cell_angle_alpha   90.00000000
_cell_angle_beta   90.00000000
_cell_angle_gamma   90.00000000
_symmetry_Int_Tables_number   1
_chemical_formula_structural   Ti9Mn2(B4Ru9)2
_chemical_formula_sum   'Ti18 Mn4 B16 Ru36'
_cell_volume   924.71084105
_cell_formula_units_Z   2
loop_
 _symmetry_equiv_pos_site_id
 _symmetry_equiv_pos_as_xyz
  1  'x, y, z'
loop_
 _atom_site_type_symbol
 _atom_site_label
 _atom_site_symmetry_multiplicity
 _atom_site_fract_x
 _atom_site_fract_y
 _atom_site_fract_z
 _atom_site_occupancy
  Ti  Ti0  1  0.50000000  0.30356824  0.80356824  1
  Ti  Ti1  1  0.50000000  0.69643176  0.19643176  1
  Ti  Ti2  1  0.50000000  0.19643176  0.30356824  1
  Ti  Ti3  1  0.50000000  0.80356824  0.69643176  1
  Ti  Ti4  1  0.50000000  0.50000000  0.50000000  1
  Ti  Ti5  1  0.50000000  -0.00000000  -0.00000000  1
  Ti  Ti6  1  0.50000000  0.53595555  0.68622489  1
  Ti  Ti7  1  0.50000000  0.46404445  0.31377511  1
  Ti  Ti8  1  0.50000000  0.96404445  0.18622489  1
  Ti  Ti9  1  0.50000000  0.03595555  0.81377511  1
  Ti  Ti10  1  0.50000000  0.68622489  0.46404445  1
  Ti  Ti11  1  0.50000000  0.31377511  0.53595555  1
  Ti  Ti12  1  0.50000000  0.18622489  0.03595555  1
  Ti  Ti13  1  0.50000000  0.81377511  0.96404445  1
  Ti  Ti14  1  0.50000000  0.67262380  0.82737620  1
  Ti  Ti15  1  0.50000000  0.32737620  0.17262380  1
  Ti  Ti16  1  0.50000000  0.82737620  0.32737620  1
  Ti  Ti17  1  0.50000000  0.17262380  0.67262380  1
  Mn  Mn18  1  0.50000000  0.54609520  0.95390480  1
  Mn  Mn19  1  0.50000000  0.45390480  0.04609520  1
  Mn  Mn20  1  0.50000000  0.95390480  0.45390480  1
  Mn  Mn21  1  0.50000000  0.04609520  0.54609520  1
  B  B22  1  0.50000000  0.37907128  0.67019061  1
  B  B23  1  0.50000000  0.62092872  0.32980939  1
  B  B24  1  0.50000000  0.12092872  0.17019061  1
  B  B25  1  0.50000000  0.87907128  0.82980939  1
  B  B26  1  0.50000000  0.67019061  0.62092872  1
  B  B27  1  0.50000000  0.32980939  0.37907128  1
  B  B28  1  0.50000000  0.17019061  0.87907128  1
  B  B29  1  0.50000000  0.82980939  0.12092872  1
  B  B30  1  0.50000000  0.46401380  0.83543573  1
  B  B31  1  0.50000000  0.53598620  0.16456427  1
  B  B32  1  0.50000000  0.03598620  0.33543573  1
  B  B33  1  0.50000000  0.96401380  0.66456427  1
  B  B34  1  0.50000000  0.83543573  0.53598620  1
  B  B35  1  0.50000000  0.16456427  0.46401380  1
  B  B36  1  0.50000000  0.33543573  0.96401380  1
  B  B37  1  0.50000000  0.66456427  0.03598620  1
  Ru  Ru38  1  -0.00000000  0.42009101  0.75482208  1
  Ru  Ru39  1  0.00000000  0.57990899  0.24517792  1
  Ru  Ru40  1  -0.00000000  0.07990899  0.25482208  1
  Ru  Ru41  1  0.00000000  0.92009101  0.74517792  1
  Ru  Ru42  1  -0.00000000  0.75482208  0.57990899  1
  Ru  Ru43  1  0.00000000  0.24517792  0.42009101  1
  Ru  Ru44  1  -0.00000000  0.25482208  0.92009101  1
  Ru  Ru45  1  0.00000000  0.74517792  0.07990899  1
  Ru  Ru46  1  0.00000000  0.41846755  0.91846755  1
  Ru  Ru47  1  -0.00000000  0.58153245  0.08153245  1
  Ru  Ru48  1  -0.00000000  0.08153245  0.41846755  1
  Ru  Ru49  1  0.00000000  0.91846755  0.58153245  1
  Ru  Ru50  1  -0.00000000  0.55199573  0.83291254  1
  Ru  Ru51  1  0.00000000  0.44800427  0.16708746  1
  Ru  Ru52  1  -0.00000000  0.94800427  0.33291254  1
  Ru  Ru53  1  0.00000000  0.05199573  0.66708746  1
  Ru  Ru54  1  -0.00000000  0.83291254  0.44800427  1
  Ru  Ru55  1  0.00000000  0.16708746  0.55199573  1
  Ru  Ru56  1  -0.00000000  0.33291254  0.05199573  1
  Ru  Ru57  1  0.00000000  0.66708746  0.94800427  1
  Ru  Ru58  1  0.00000000  0.28955287  0.66852828  1
  Ru  Ru59  1  -0.00000000  0.71044713  0.33147172  1
  Ru  Ru60  1  -0.00000000  0.21044713  0.16852828  1
  Ru  Ru61  1  0.00000000  0.78955287  0.83147172  1
  Ru  Ru62  1  0.00000000  0.66852828  0.71044713  1
  Ru  Ru63  1  -0.00000000  0.33147172  0.28955287  1
  Ru  Ru64  1  0.00000000  0.16852828  0.78955287  1
  Ru  Ru65  1  -0.00000000  0.83147172  0.21044713  1
  Ru  Ru66  1  -0.00000000  0.43089231  0.59837389  1
  Ru  Ru67  1  0.00000000  0.56910769  0.40162611  1
  Ru  Ru68  1  0.00000000  0.06910769  0.09837389  1
  Ru  Ru69  1  -0.00000000  0.93089231  0.90162611  1
  Ru  Ru70  1  0.00000000  0.59837389  0.56910769  1
  Ru  Ru71  1  -0.00000000  0.40162611  0.43089231  1
  Ru  Ru72  1  -0.00000000  0.09837389  0.93089231  1
  Ru  Ru73  1  0.00000000  0.90162611  0.06910769  1
