# generated using pymatgen
data_La5Rh4
_symmetry_space_group_name_H-M   'P 1'
_cell_length_a   7.64637156
_cell_length_b   7.72425597
_cell_length_c   15.42701349
_cell_angle_alpha   90.00000000
_cell_angle_beta   90.00000000
_cell_angle_gamma   90.00000000
_symmetry_Int_Tables_number   1
_chemical_formula_structural   La5Rh4
_chemical_formula_sum   'La20 Rh16'
_cell_volume   911.15846513
_cell_formula_units_Z   4
loop_
 _symmetry_equiv_pos_site_id
 _symmetry_equiv_pos_as_xyz
  1  'x, y, z'
loop_
 _atom_site_type_symbol
 _atom_site_label
 _atom_site_symmetry_multiplicity
 _atom_site_fract_x
 _atom_site_fract_y
 _atom_site_fract_z
 _atom_site_occupancy
  La  La0  1  0.33938707  0.83543083  0.87796070  1
  La  La1  1  0.83938707  0.66456917  0.62203930  1
  La  La2  1  0.66061293  0.16456917  0.37796070  1
  La  La3  1  0.16061293  0.33543083  0.12203930  1
  La  La4  1  0.66061293  0.16456917  0.12203930  1
  La  La5  1  0.16061293  0.33543083  0.37796070  1
  La  La6  1  0.33938707  0.83543083  0.62203930  1
  La  La7  1  0.83938707  0.66456917  0.87796070  1
  La  La8  1  0.49610284  0.31799376  0.90945391  1
  La  La9  1  0.99610284  0.18200624  0.59054609  1
  La  La10  1  0.50389716  0.68200624  0.40945391  1
  La  La11  1  0.00389716  0.81799376  0.09054609  1
  La  La12  1  0.50389716  0.68200624  0.09054609  1
  La  La13  1  0.00389716  0.81799376  0.40945391  1
  La  La14  1  0.49610284  0.31799376  0.59054609  1
  La  La15  1  0.99610284  0.18200624  0.90945391  1
  La  La16  1  0.18555985  0.47564078  0.75000000  1
  La  La17  1  0.68555985  0.02435922  0.75000000  1
  La  La18  1  0.81444015  0.52435922  0.25000000  1
  La  La19  1  0.31444015  0.97564078  0.25000000  1
  Rh  Rh20  1  0.31253461  0.02920691  0.04115926  1
  Rh  Rh21  1  0.81253461  0.47079309  0.45884074  1
  Rh  Rh22  1  0.68746539  0.97079309  0.54115926  1
  Rh  Rh23  1  0.18746539  0.52920691  0.95884074  1
  Rh  Rh24  1  0.68746539  0.97079309  0.95884074  1
  Rh  Rh25  1  0.18746539  0.52920691  0.54115926  1
  Rh  Rh26  1  0.31253461  0.02920691  0.45884074  1
  Rh  Rh27  1  0.81253461  0.47079309  0.04115926  1
  Rh  Rh28  1  0.53016801  0.61032352  0.75000000  1
  Rh  Rh29  1  0.03016801  0.88967648  0.75000000  1
  Rh  Rh30  1  0.46983199  0.38967648  0.25000000  1
  Rh  Rh31  1  0.96983199  0.11032352  0.25000000  1
  Rh  Rh32  1  0.30105228  0.13864575  0.75000000  1
  Rh  Rh33  1  0.80105228  0.36135425  0.75000000  1
  Rh  Rh34  1  0.69894772  0.86135425  0.25000000  1
  Rh  Rh35  1  0.19894772  0.63864575  0.25000000  1
