# generated using pymatgen
data_Zn3Co2O7
_symmetry_space_group_name_H-M   'P 1'
_cell_length_a   5.06108109
_cell_length_b   5.04821612
_cell_length_c   9.38369959
_cell_angle_alpha   105.60408598
_cell_angle_beta   90.00000000
_cell_angle_gamma   90.00000000
_symmetry_Int_Tables_number   1
_chemical_formula_structural   Zn3Co2O7
_chemical_formula_sum   'Zn6 Co4 O14'
_cell_volume   230.91188028
_cell_formula_units_Z   2
loop_
 _symmetry_equiv_pos_site_id
 _symmetry_equiv_pos_as_xyz
  1  'x, y, z'
loop_
 _atom_site_type_symbol
 _atom_site_label
 _atom_site_symmetry_multiplicity
 _atom_site_fract_x
 _atom_site_fract_y
 _atom_site_fract_z
 _atom_site_occupancy
  Zn  Zn0  1  0.70566811  0.75282475  1.00000000  1
  Zn  Zn1  1  0.20566811  0.24717525  0.00000000  1
  Zn  Zn2  1  0.80191970  0.57058926  0.60536323  1
  Zn  Zn3  1  0.30191970  0.42941074  0.39463677  1
  Zn  Zn4  1  0.80191970  0.96522503  0.39463677  1
  Zn  Zn5  1  0.30191970  0.03477497  0.60536323  1
  Co  Co6  1  0.75193611  0.35245767  0.20202779  1
  Co  Co7  1  0.25193611  0.64754233  0.79797221  1
  Co  Co8  1  0.25193611  0.84957012  0.20202779  1
  Co  Co9  1  0.75193611  0.15042988  0.79797221  1
  O  O10  1  0.69177016  0.94644858  0.59734655  1
  O  O11  1  0.19177016  0.05355142  0.40265345  1
  O  O12  1  0.19177016  0.65089697  0.59734655  1
  O  O13  1  0.69177016  0.34910303  0.40265345  1
  O  O14  1  0.06119725  0.30088931  0.74177021  1
  O  O15  1  0.56119725  0.69911069  0.25822979  1
  O  O16  1  0.56119725  0.44088091  0.74177021  1
  O  O17  1  0.06119725  0.55911909  0.25822979  1
  O  O18  1  0.94022870  0.85402013  0.84859566  1
  O  O19  1  0.44022870  0.14597987  0.15140434  1
  O  O20  1  0.82023006  0.36977434  0.00000000  1
  O  O21  1  0.32023006  0.63022566  1.00000000  1
  O  O22  1  0.94022870  0.00542447  0.15140434  1
  O  O23  1  0.44022870  0.99457553  0.84859566  1
