# generated using pymatgen
data_TmHSO5
_symmetry_space_group_name_H-M   'P 1'
_cell_length_a   7.95719294
_cell_length_b   8.11557094
_cell_length_c   10.89295025
_cell_angle_alpha   90.00000000
_cell_angle_beta   90.00000000
_cell_angle_gamma   94.31500949
_symmetry_Int_Tables_number   1
_chemical_formula_structural   TmHSO5
_chemical_formula_sum   'Tm8 H8 S8 O40'
_cell_volume   701.44191382
_cell_formula_units_Z   8
loop_
 _symmetry_equiv_pos_site_id
 _symmetry_equiv_pos_as_xyz
  1  'x, y, z'
loop_
 _atom_site_type_symbol
 _atom_site_label
 _atom_site_symmetry_multiplicity
 _atom_site_fract_x
 _atom_site_fract_y
 _atom_site_fract_z
 _atom_site_occupancy
  Tm  Tm0  1  0.68748084  0.40899871  0.92701296  1
  Tm  Tm1  1  0.18748084  0.90899871  0.57298704  1
  Tm  Tm2  1  0.31251916  0.59100129  0.07298704  1
  Tm  Tm3  1  0.81251916  0.09100129  0.42701296  1
  Tm  Tm4  1  0.65949110  0.87377501  0.93845637  1
  Tm  Tm5  1  0.15949110  0.37377501  0.56154363  1
  Tm  Tm6  1  0.34050890  0.12622499  0.06154363  1
  Tm  Tm7  1  0.84050890  0.62622499  0.43845637  1
  H  H8  1  0.65937651  0.63136574  0.12315329  1
  H  H9  1  0.15937651  0.13136574  0.37684671  1
  H  H10  1  0.34062349  0.36863426  0.87684671  1
  H  H11  1  0.84062349  0.86863426  0.62315329  1
  H  H12  1  0.31267192  0.85388175  0.90891761  1
  H  H13  1  0.81267192  0.35388175  0.59108239  1
  H  H14  1  0.68732808  0.14611825  0.09108239  1
  H  H15  1  0.18732808  0.64611825  0.40891761  1
  S  S16  1  0.04323443  0.63311397  0.80886687  1
  S  S17  1  0.54323443  0.13311397  0.69113313  1
  S  S18  1  0.95676557  0.36688603  0.19113313  1
  S  S19  1  0.45676557  0.86688603  0.30886687  1
  S  S20  1  0.99964021  0.13493375  0.83011379  1
  S  S21  1  0.49964021  0.63493375  0.66988621  1
  S  S22  1  0.00035979  0.86506625  0.16988621  1
  S  S23  1  0.50035979  0.36506625  0.33011379  1
  O  O24  1  0.59915800  0.63153580  0.04489277  1
  O  O25  1  0.09915800  0.13153580  0.45510723  1
  O  O26  1  0.40084200  0.36846420  0.95510723  1
  O  O27  1  0.90084200  0.86846420  0.54489277  1
  O  O28  1  0.37379941  0.85734363  0.98723989  1
  O  O29  1  0.87379941  0.35734363  0.51276011  1
  O  O30  1  0.62620059  0.14265637  0.01276011  1
  O  O31  1  0.12620059  0.64265637  0.48723989  1
  O  O32  1  0.87788513  0.64691169  0.87220980  1
  O  O33  1  0.37788513  0.14691169  0.62779020  1
  O  O34  1  0.12211487  0.35308831  0.12779020  1
  O  O35  1  0.62211487  0.85308831  0.37220980  1
  O  O36  1  0.16583706  0.57273910  0.89716447  1
  O  O37  1  0.66583706  0.07273910  0.60283553  1
  O  O38  1  0.83416294  0.42726090  0.10283553  1
  O  O39  1  0.33416294  0.92726090  0.39716447  1
  O  O40  1  0.01484412  0.51668028  0.70508939  1
  O  O41  1  0.51484412  0.01668028  0.79491061  1
  O  O42  1  0.98515588  0.48331972  0.29491061  1
  O  O43  1  0.48515588  0.98331972  0.20508939  1
  O  O44  1  0.11299990  0.79523575  0.76008836  1
  O  O45  1  0.61299990  0.29523575  0.73991164  1
  O  O46  1  0.88700010  0.20476425  0.23991164  1
  O  O47  1  0.38700010  0.70476425  0.26008836  1
  O  O48  1  0.92470679  0.28391487  0.87492549  1
  O  O49  1  0.42470679  0.78391487  0.62507451  1
  O  O50  1  0.07529321  0.71608513  0.12507451  1
  O  O51  1  0.57529321  0.21608513  0.37492549  1
  O  O52  1  0.87034076  0.99423412  0.83026385  1
  O  O53  1  0.37034076  0.49423412  0.66973615  1
  O  O54  1  0.12965924  0.00576588  0.16973615  1
  O  O55  1  0.62965924  0.50576588  0.33026385  1
  O  O56  1  0.14625444  0.10019637  0.90698547  1
  O  O57  1  0.64625444  0.60019637  0.59301453  1
  O  O58  1  0.85374556  0.89980363  0.09301453  1
  O  O59  1  0.35374556  0.39980363  0.40698547  1
  O  O60  1  0.05938740  0.15742699  0.69940651  1
  O  O61  1  0.55938740  0.65742699  0.80059349  1
  O  O62  1  0.94061260  0.84257301  0.30059349  1
  O  O63  1  0.44061260  0.34257301  0.19940651  1
