# generated using pymatgen
data_Y3Sb
_symmetry_space_group_name_H-M   'P 1'
_cell_length_a   6.20810777
_cell_length_b   12.46492481
_cell_length_c   12.46492481
_cell_angle_alpha   90.00000000
_cell_angle_beta   90.00000000
_cell_angle_gamma   90.00000000
_symmetry_Int_Tables_number   1
_chemical_formula_structural   Y3Sb
_chemical_formula_sum   'Y24 Sb8'
_cell_volume   964.58071272
_cell_formula_units_Z   8
loop_
 _symmetry_equiv_pos_site_id
 _symmetry_equiv_pos_as_xyz
  1  'x, y, z'
loop_
 _atom_site_type_symbol
 _atom_site_label
 _atom_site_symmetry_multiplicity
 _atom_site_fract_x
 _atom_site_fract_y
 _atom_site_fract_z
 _atom_site_occupancy
  Y  Y0  1  0.28445394  0.14061794  0.66628114  1
  Y  Y1  1  0.28445394  0.35938206  0.83371886  1
  Y  Y2  1  0.78445394  0.16628114  0.85938206  1
  Y  Y3  1  0.78445394  0.33371886  0.64061794  1
  Y  Y4  1  0.71554606  0.85938206  0.33371886  1
  Y  Y5  1  0.71554606  0.64061794  0.16628114  1
  Y  Y6  1  0.21554606  0.83371886  0.14061794  1
  Y  Y7  1  0.21554606  0.66628114  0.35938206  1
  Y  Y8  1  0.23451282  0.96511109  0.42540154  1
  Y  Y9  1  0.23451282  0.53488891  0.07459846  1
  Y  Y10  1  0.73451282  0.92540154  0.03488891  1
  Y  Y11  1  0.73451282  0.57459846  0.46511109  1
  Y  Y12  1  0.76548718  0.03488891  0.57459846  1
  Y  Y13  1  0.76548718  0.46511109  0.92540154  1
  Y  Y14  1  0.26548718  0.07459846  0.96511109  1
  Y  Y15  1  0.26548718  0.42540154  0.53488891  1
  Y  Y16  1  0.53392590  0.21928181  0.39283468  1
  Y  Y17  1  0.53392590  0.28071819  0.10716532  1
  Y  Y18  1  0.03392590  0.89283468  0.78071819  1
  Y  Y19  1  0.03392590  0.60716532  0.71928181  1
  Y  Y20  1  0.46607410  0.78071819  0.60716532  1
  Y  Y21  1  0.46607410  0.71928181  0.89283468  1
  Y  Y22  1  0.96607410  0.10716532  0.21928181  1
  Y  Y23  1  0.96607410  0.39283468  0.28071819  1
  Sb  Sb24  1  0.53965991  0.95114978  0.79234425  1
  Sb  Sb25  1  0.53965991  0.54885022  0.70765575  1
  Sb  Sb26  1  0.03965991  0.29234425  0.04885022  1
  Sb  Sb27  1  0.03965991  0.20765575  0.45114978  1
  Sb  Sb28  1  0.46034009  0.04885022  0.20765575  1
  Sb  Sb29  1  0.46034009  0.45114978  0.29234425  1
  Sb  Sb30  1  0.96034009  0.70765575  0.95114978  1
  Sb  Sb31  1  0.96034009  0.79234425  0.54885022  1
