# generated using pymatgen
data_NaAlSiO4
_symmetry_space_group_name_H-M   'P 1'
_cell_length_a   8.47930436
_cell_length_b   10.09029134
_cell_length_c   10.09026810
_cell_angle_alpha   120.00059901
_cell_angle_beta   90.00000000
_cell_angle_gamma   90.00000000
_symmetry_Int_Tables_number   1
_chemical_formula_structural   NaAlSiO4
_chemical_formula_sum   'Na8 Al8 Si8 O32'
_cell_volume   747.64364474
_cell_formula_units_Z   8
loop_
 _symmetry_equiv_pos_site_id
 _symmetry_equiv_pos_as_xyz
  1  'x, y, z'
loop_
 _atom_site_type_symbol
 _atom_site_label
 _atom_site_symmetry_multiplicity
 _atom_site_fract_x
 _atom_site_fract_y
 _atom_site_fract_z
 _atom_site_occupancy
  Na  Na0  1  0.50341960  0.00000056  0.00002123  1
  Na  Na1  1  0.00341960  -0.00000056  0.99997877  1
  Na  Na2  1  0.49898951  0.43781689  0.44925022  1
  Na  Na3  1  0.49899862  0.55072302  0.98856296  1
  Na  Na4  1  0.49895876  0.01141459  0.56217012  1
  Na  Na5  1  0.99898951  0.56218311  0.55074978  1
  Na  Na6  1  0.99899862  0.44927698  0.01143704  1
  Na  Na7  1  0.99895876  0.98858541  0.43782988  1
  Al  Al8  1  0.30046002  0.33333059  0.66666792  1
  Al  Al9  1  0.80046002  0.66666941  0.33333208  1
  Al  Al10  1  0.81127320  0.23725801  0.32984448  1
  Al  Al11  1  0.81128108  0.67015499  0.90742360  1
  Al  Al12  1  0.81128622  0.09258317  0.76270962  1
  Al  Al13  1  0.31127320  0.76274199  0.67015552  1
  Al  Al14  1  0.31128108  0.32984501  0.09257640  1
  Al  Al15  1  0.31128622  0.90741683  0.23729038  1
  Si  Si16  1  0.69663031  0.33332717  0.66666173  1
  Si  Si17  1  0.19663031  0.66667283  0.33333827  1
  Si  Si18  1  0.18236470  0.23648952  0.32980852  1
  Si  Si19  1  0.18236539  0.67020440  0.90670745  1
  Si  Si20  1  0.18235320  0.09329746  0.76347904  1
  Si  Si21  1  0.68236470  0.76351048  0.67019148  1
  Si  Si22  1  0.68236539  0.32979560  0.09329255  1
  Si  Si23  1  0.68235320  0.90670254  0.23652096  1
  O  O24  1  0.50511062  0.33334784  0.66669344  1
  O  O25  1  0.00511062  0.66665216  0.33330656  1
  O  O26  1  0.00481225  0.28847032  0.30919690  1
  O  O27  1  0.00480939  0.69082279  0.97929227  1
  O  O28  1  0.00481794  0.02071827  0.71152018  1
  O  O29  1  0.50481225  0.71152968  0.69080310  1
  O  O30  1  0.50480939  0.30917721  0.02070773  1
  O  O31  1  0.50481794  0.97928173  0.28847982  1
  O  O32  1  0.75840792  0.35017597  0.52259271  1
  O  O33  1  0.75845557  0.47739772  0.82755986  1
  O  O34  1  0.75844415  0.17243165  0.64981063  1
  O  O35  1  0.25840792  0.64982403  0.47740729  1
  O  O36  1  0.25845557  0.52260228  0.17244014  1
  O  O37  1  0.25844415  0.82756835  0.35018937  1
  O  O38  1  0.23762015  0.34511606  0.50750934  1
  O  O39  1  0.23759050  0.49250740  0.83760661  1
  O  O40  1  0.23760647  0.16239937  0.65489002  1
  O  O41  1  0.73762015  0.65488394  0.49249066  1
  O  O42  1  0.73759050  0.50749260  0.16239339  1
  O  O43  1  0.73760647  0.83760063  0.34510998  1
  O  O44  1  0.17555394  0.05531891  0.27947427  1
  O  O45  1  0.17554794  0.72057119  0.77590226  1
  O  O46  1  0.17555546  0.22413998  0.94468687  1
  O  O47  1  0.67555394  0.94468109  0.72052573  1
  O  O48  1  0.67554794  0.27942881  0.22409774  1
  O  O49  1  0.67555546  0.77586002  0.05531313  1
  O  O50  1  0.80909781  0.03885417  0.25876090  1
  O  O51  1  0.80909378  0.74125619  0.78011535  1
  O  O52  1  0.80909551  0.21989901  0.96112079  1
  O  O53  1  0.30909781  0.96114583  0.74123910  1
  O  O54  1  0.30909378  0.25874381  0.21988465  1
  O  O55  1  0.30909551  0.78010099  0.03887921  1
