# generated using pymatgen
data_Na2FeNi2(PO4)3
_symmetry_space_group_name_H-M   'P 1'
_cell_length_a   6.51936040
_cell_length_b   8.59361167
_cell_length_c   8.59361167
_cell_angle_alpha   94.28970893
_cell_angle_beta   106.06888936
_cell_angle_gamma   106.06888936
_symmetry_Int_Tables_number   1
_chemical_formula_structural   Na2FeNi2(PO4)3
_chemical_formula_sum   'Na4 Fe2 Ni4 P6 O24'
_cell_volume   438.55179356
_cell_formula_units_Z   2
loop_
 _symmetry_equiv_pos_site_id
 _symmetry_equiv_pos_as_xyz
  1  'x, y, z'
loop_
 _atom_site_type_symbol
 _atom_site_label
 _atom_site_symmetry_multiplicity
 _atom_site_fract_x
 _atom_site_fract_y
 _atom_site_fract_z
 _atom_site_occupancy
  Na  Na0  1  0.50000000  0.00000000  0.00000000  1
  Na  Na1  1  0.00000000  0.00000000  0.00000000  1
  Na  Na2  1  0.75000000  0.48453496  0.51546504  1
  Na  Na3  1  0.25000000  0.51546504  0.48453496  1
  Fe  Fe4  1  0.25000000  0.23407524  0.76592476  1
  Fe  Fe5  1  0.75000000  0.76592476  0.23407524  1
  Ni  Ni6  1  0.37545943  0.12362256  0.44523438  1
  Ni  Ni7  1  0.12454057  0.55476562  0.87637744  1
  Ni  Ni8  1  0.62454057  0.87637744  0.55476562  1
  Ni  Ni9  1  0.87545943  0.44523438  0.12362256  1
  P  P10  1  0.75000000  0.20410796  0.79589204  1
  P  P11  1  0.25000000  0.79589204  0.20410796  1
  P  P12  1  0.12383302  0.84508446  0.61985764  1
  P  P13  1  0.37616698  0.38014236  0.15491554  1
  P  P14  1  0.87616698  0.15491554  0.38014236  1
  P  P15  1  0.62383302  0.61985764  0.84508446  1
  O  O16  1  0.53469319  0.24211900  0.68703074  1
  O  O17  1  0.96530681  0.31296926  0.75788100  1
  O  O18  1  0.46530681  0.75788100  0.31296926  1
  O  O19  1  0.03469319  0.68703074  0.24211900  1
  O  O20  1  0.10809849  0.67511378  0.67071157  1
  O  O21  1  0.39190151  0.32928843  0.32488622  1
  O  O22  1  0.89190151  0.32488622  0.32928843  1
  O  O23  1  0.60809849  0.67071157  0.67511378  1
  O  O24  1  0.31319751  0.89992030  0.54227819  1
  O  O25  1  0.18680249  0.45772181  0.10007970  1
  O  O26  1  0.68680249  0.10007970  0.45772181  1
  O  O27  1  0.81319751  0.54227819  0.89992030  1
  O  O28  1  0.88852339  0.82276492  0.48722868  1
  O  O29  1  0.61147661  0.51277132  0.17723508  1
  O  O30  1  0.11147661  0.17723508  0.51277132  1
  O  O31  1  0.38852339  0.48722868  0.82276492  1
  O  O32  1  0.74304452  0.02477868  0.76629005  1
  O  O33  1  0.75695548  0.23370995  0.97522132  1
  O  O34  1  0.25695548  0.97522132  0.23370995  1
  O  O35  1  0.24304452  0.76629005  0.02477868  1
  O  O36  1  0.16764708  0.98448302  0.76441144  1
  O  O37  1  0.33235292  0.23558856  0.01551698  1
  O  O38  1  0.83235292  0.01551698  0.23558856  1
  O  O39  1  0.66764708  0.76441144  0.98448302  1
