# generated using pymatgen
data_Tb2(Ni5B3)3
_symmetry_space_group_name_H-M   'P 1'
_cell_length_a   9.81397521
_cell_length_b   9.81397521
_cell_length_c   11.25186086
_cell_angle_alpha   90.00000000
_cell_angle_beta   90.00000000
_cell_angle_gamma   107.79488996
_symmetry_Int_Tables_number   1
_chemical_formula_structural   Tb2(Ni5B3)3
_chemical_formula_sum   'Tb8 Ni60 B36'
_cell_volume   1031.86450382
_cell_formula_units_Z   4
loop_
 _symmetry_equiv_pos_site_id
 _symmetry_equiv_pos_as_xyz
  1  'x, y, z'
loop_
 _atom_site_type_symbol
 _atom_site_label
 _atom_site_symmetry_multiplicity
 _atom_site_fract_x
 _atom_site_fract_y
 _atom_site_fract_z
 _atom_site_occupancy
  Tb  Tb0  1  0.25954793  0.25954793  0.95854340  1
  Tb  Tb1  1  0.74045207  0.74045207  0.04145660  1
  Tb  Tb2  1  0.24045207  0.24045207  0.45854340  1
  Tb  Tb3  1  0.75954793  0.75954793  0.54145660  1
  Tb  Tb4  1  0.19228258  0.69228258  0.75000000  1
  Tb  Tb5  1  0.30771742  0.80771742  0.25000000  1
  Tb  Tb6  1  0.80771742  0.30771742  0.25000000  1
  Tb  Tb7  1  0.69228258  0.19228258  0.75000000  1
  Ni  Ni8  1  0.50000000  0.50000000  -0.00000000  1
  Ni  Ni9  1  0.00000000  -0.00000000  0.50000000  1
  Ni  Ni10  1  0.50000000  0.50000000  0.50000000  1
  Ni  Ni11  1  0.00000000  -0.00000000  -0.00000000  1
  Ni  Ni12  1  0.23374919  0.23374919  0.71170238  1
  Ni  Ni13  1  0.76625081  0.76625081  0.28829762  1
  Ni  Ni14  1  0.26625081  0.26625081  0.21170238  1
  Ni  Ni15  1  0.73374919  0.73374919  0.78829762  1
  Ni  Ni16  1  0.93141012  0.43141012  0.75000000  1
  Ni  Ni17  1  0.56858988  0.06858988  0.25000000  1
  Ni  Ni18  1  0.06858988  0.56858988  0.25000000  1
  Ni  Ni19  1  0.43141012  0.93141012  0.75000000  1
  Ni  Ni20  1  0.99030228  0.18338293  0.83956263  1
  Ni  Ni21  1  0.81661707  0.00969772  0.16043737  1
  Ni  Ni22  1  0.31661707  0.50969772  0.33956263  1
  Ni  Ni23  1  0.49030228  0.68338293  0.66043737  1
  Ni  Ni24  1  0.00969772  0.81661707  0.16043737  1
  Ni  Ni25  1  0.18338293  0.99030228  0.83956263  1
  Ni  Ni26  1  0.68338293  0.49030228  0.66043737  1
  Ni  Ni27  1  0.50969772  0.31661707  0.33956263  1
  Ni  Ni28  1  0.25691437  0.47164837  0.59748097  1
  Ni  Ni29  1  0.52835163  0.74308563  0.40251903  1
  Ni  Ni30  1  0.02835163  0.24308563  0.09748097  1
  Ni  Ni31  1  0.75691437  0.97164837  0.90251903  1
  Ni  Ni32  1  0.74308563  0.52835163  0.40251903  1
  Ni  Ni33  1  0.47164837  0.25691437  0.59748097  1
  Ni  Ni34  1  0.97164837  0.75691437  0.90251903  1
  Ni  Ni35  1  0.24308563  0.02835163  0.09748097  1
  Ni  Ni36  1  0.99448720  0.22658514  0.61839237  1
  Ni  Ni37  1  0.77341486  0.00551280  0.38160763  1
  Ni  Ni38  1  0.27341486  0.50551280  0.11839237  1
  Ni  Ni39  1  0.49448720  0.72658514  0.88160763  1
  Ni  Ni40  1  0.00551280  0.77341486  0.38160763  1
  Ni  Ni41  1  0.22658514  0.99448720  0.61839237  1
  Ni  Ni42  1  0.72658514  0.49448720  0.88160763  1
  Ni  Ni43  1  0.50551280  0.27341486  0.11839237  1
  Ni  Ni44  1  0.10625812  0.44659737  0.91488669  1
  Ni  Ni45  1  0.55340263  0.89374188  0.08511331  1
  Ni  Ni46  1  0.05340263  0.39374188  0.41488669  1
  Ni  Ni47  1  0.60625812  0.94659737  0.58511331  1
  Ni  Ni48  1  0.89374188  0.55340263  0.08511331  1
  Ni  Ni49  1  0.44659737  0.10625812  0.91488669  1
  Ni  Ni50  1  0.94659737  0.60625812  0.58511331  1
  Ni  Ni51  1  0.39374188  0.05340263  0.41488669  1
  Ni  Ni52  1  0.33080977  0.48899917  0.80614199  1
  Ni  Ni53  1  0.51100083  0.66919023  0.19385801  1
  Ni  Ni54  1  0.01100083  0.16919023  0.30614199  1
  Ni  Ni55  1  0.83080977  0.98899917  0.69385801  1
  Ni  Ni56  1  0.66919023  0.51100083  0.19385801  1
  Ni  Ni57  1  0.48899917  0.33080977  0.80614199  1
  Ni  Ni58  1  0.98899917  0.83080977  0.69385801  1
  Ni  Ni59  1  0.16919023  0.01100083  0.30614199  1
  Ni  Ni60  1  0.83798192  0.36346209  0.52959174  1
  Ni  Ni61  1  0.63653791  0.16201808  0.47040826  1
  Ni  Ni62  1  0.13653791  0.66201808  0.02959174  1
  Ni  Ni63  1  0.33798192  0.86346209  0.97040826  1
  Ni  Ni64  1  0.16201808  0.63653791  0.47040826  1
  Ni  Ni65  1  0.36346209  0.83798192  0.52959174  1
  Ni  Ni66  1  0.86346209  0.33798192  0.97040826  1
  Ni  Ni67  1  0.66201808  0.13653791  0.02959174  1
  B  B68  1  0.36468852  0.63531148  0.50000000  1
  B  B69  1  0.86468852  0.13531148  -0.00000000  1
  B  B70  1  0.63531148  0.36468852  0.50000000  1
  B  B71  1  0.13531148  0.86468852  -0.00000000  1
  B  B72  1  0.45259883  0.45259883  0.67173394  1
  B  B73  1  0.54740117  0.54740117  0.32826606  1
  B  B74  1  0.04740117  0.04740117  0.17173394  1
  B  B75  1  0.95259883  0.95259883  0.82826606  1
  B  B76  1  0.05633445  0.05633445  0.69985291  1
  B  B77  1  0.94366555  0.94366555  0.30014709  1
  B  B78  1  0.44366555  0.44366555  0.19985291  1
  B  B79  1  0.55633445  0.55633445  0.80014709  1
  B  B80  1  0.11969049  0.37774823  0.74443282  1
  B  B81  1  0.62225177  0.88030951  0.25556718  1
  B  B82  1  0.12225177  0.38030951  0.24443282  1
  B  B83  1  0.61969049  0.87774823  0.75556718  1
  B  B84  1  0.88030951  0.62225177  0.25556718  1
  B  B85  1  0.37774823  0.11969049  0.74443282  1
  B  B86  1  0.87774823  0.61969049  0.75556718  1
  B  B87  1  0.38030951  0.12225177  0.24443282  1
  B  B88  1  0.29789525  0.59188977  0.95001371  1
  B  B89  1  0.40811023  0.70210475  0.04998629  1
  B  B90  1  0.90811023  0.20210475  0.45001371  1
  B  B91  1  0.79789525  0.09188977  0.54998629  1
  B  B92  1  0.70210475  0.40811023  0.04998629  1
  B  B93  1  0.59188977  0.29789525  0.95001371  1
  B  B94  1  0.09188977  0.79789525  0.54998629  1
  B  B95  1  0.20210475  0.90811023  0.45001371  1
  B  B96  1  0.04887659  0.44913648  0.59978584  1
  B  B97  1  0.55086352  0.95112341  0.40021416  1
  B  B98  1  0.05086352  0.45112341  0.09978584  1
  B  B99  1  0.54887659  0.94913648  0.90021416  1
  B  B100  1  0.95112341  0.55086352  0.40021416  1
  B  B101  1  0.44913648  0.04887659  0.59978584  1
  B  B102  1  0.94913648  0.54887659  0.90021416  1
  B  B103  1  0.45112341  0.05086352  0.09978584  1
