# generated using pymatgen
data_K2LuSi4O11
_symmetry_space_group_name_H-M   'P 1'
_cell_length_a   8.62504602
_cell_length_b   11.68512147
_cell_length_c   11.83010742
_cell_angle_alpha   111.98925818
_cell_angle_beta   90.00000000
_cell_angle_gamma   90.00000000
_symmetry_Int_Tables_number   1
_chemical_formula_structural   K2LuSi4O11
_chemical_formula_sum   'K8 Lu4 Si16 O44'
_cell_volume   1105.55941782
_cell_formula_units_Z   4
loop_
 _symmetry_equiv_pos_site_id
 _symmetry_equiv_pos_as_xyz
  1  'x, y, z'
loop_
 _atom_site_type_symbol
 _atom_site_label
 _atom_site_symmetry_multiplicity
 _atom_site_fract_x
 _atom_site_fract_y
 _atom_site_fract_z
 _atom_site_occupancy
  K  K0  1  0.75000000  0.55587560  0.94095983  1
  K  K1  1  0.25000000  0.44412440  0.05904017  1
  K  K2  1  0.75000000  0.98945841  0.97469924  1
  K  K3  1  0.25000000  0.01054159  0.02530076  1
  K  K4  1  0.25000000  0.91225746  0.41916983  1
  K  K5  1  0.75000000  0.08774254  0.58083017  1
  K  K6  1  0.25000000  0.52895939  0.46184750  1
  K  K7  1  0.75000000  0.47104061  0.53815250  1
  Lu  Lu8  1  0.00264022  0.71138505  0.79155953  1
  Lu  Lu9  1  0.50264022  0.28861495  0.20844047  1
  Lu  Lu10  1  0.99735978  0.28861495  0.20844047  1
  Lu  Lu11  1  0.49735978  0.71138505  0.79155953  1
  Si  Si12  1  0.93690407  0.60809984  0.26774704  1
  Si  Si13  1  0.43690407  0.39190016  0.73225296  1
  Si  Si14  1  0.06309593  0.39190016  0.73225296  1
  Si  Si15  1  0.56309593  0.60809984  0.26774704  1
  Si  Si16  1  0.92854222  0.01191380  0.25714213  1
  Si  Si17  1  0.42854222  0.98808620  0.74285787  1
  Si  Si18  1  0.07145778  0.98808620  0.74285787  1
  Si  Si19  1  0.57145778  0.01191380  0.25714213  1
  Si  Si20  1  0.92885032  0.77968778  0.53357429  1
  Si  Si21  1  0.42885032  0.22031222  0.46642571  1
  Si  Si22  1  0.07114968  0.22031222  0.46642571  1
  Si  Si23  1  0.57114968  0.77968778  0.53357429  1
  Si  Si24  1  0.06841106  0.75199611  0.11611524  1
  Si  Si25  1  0.56841106  0.24800389  0.88388476  1
  Si  Si26  1  0.93158894  0.24800389  0.88388476  1
  Si  Si27  1  0.43158894  0.75199611  0.11611524  1
  O  O28  1  0.75000000  0.74291077  0.83165468  1
  O  O29  1  0.25000000  0.25708923  0.16834532  1
  O  O30  1  0.75000000  0.82978217  0.53024837  1
  O  O31  1  0.25000000  0.17021783  0.46975163  1
  O  O32  1  0.75000000  0.95899516  0.25051400  1
  O  O33  1  0.25000000  0.04100484  0.74948600  1
  O  O34  1  0.75000000  0.59136258  0.27970319  1
  O  O35  1  0.25000000  0.40863742  0.72029681  1
  O  O36  1  0.96274668  0.65182828  0.15091632  1
  O  O37  1  0.46274668  0.34817172  0.84908368  1
  O  O38  1  0.03725332  0.34817172  0.84908368  1
  O  O39  1  0.53725332  0.65182828  0.15091632  1
  O  O40  1  0.94356293  0.68471200  0.60110407  1
  O  O41  1  0.44356293  0.31528800  0.39889593  1
  O  O42  1  0.05643707  0.31528800  0.39889593  1
  O  O43  1  0.55643707  0.68471200  0.60110407  1
  O  O44  1  0.96845685  0.51460826  0.74959951  1
  O  O45  1  0.46845685  0.48539174  0.25040049  1
  O  O46  1  0.03154315  0.48539174  0.25040049  1
  O  O47  1  0.53154315  0.51460826  0.74959951  1
  O  O48  1  0.02732794  0.74637030  0.98333984  1
  O  O49  1  0.52732794  0.25362970  0.01666016  1
  O  O50  1  0.97267206  0.25362970  0.01666016  1
  O  O51  1  0.47267206  0.74637030  0.98333984  1
  O  O52  1  0.99650670  0.72345231  0.39240355  1
  O  O53  1  0.49650670  0.27654769  0.60759645  1
  O  O54  1  0.00349330  0.27654769  0.60759645  1
  O  O55  1  0.50349330  0.72345231  0.39240355  1
  O  O56  1  0.03417263  0.90719322  0.59651534  1
  O  O57  1  0.53417263  0.09280678  0.40348466  1
  O  O58  1  0.96582737  0.09280678  0.40348466  1
  O  O59  1  0.46582737  0.90719322  0.59651534  1
  O  O60  1  0.04576503  0.89159224  0.22207695  1
  O  O61  1  0.54576503  0.10840776  0.77792305  1
  O  O62  1  0.95423497  0.10840776  0.77792305  1
  O  O63  1  0.45423497  0.89159224  0.22207695  1
  O  O64  1  0.25000000  0.67478060  0.74146799  1
  O  O65  1  0.75000000  0.32521940  0.25853201  1
  O  O66  1  0.25000000  0.71400962  0.13288986  1
  O  O67  1  0.75000000  0.28599038  0.86711014  1
  O  O68  1  0.04432824  0.90950989  0.82653792  1
  O  O69  1  0.54432824  0.09049011  0.17346208  1
  O  O70  1  0.95567176  0.09049011  0.17346208  1
  O  O71  1  0.45567176  0.90950989  0.82653792  1
