# generated using pymatgen
data_BH7C2N4OF4
_symmetry_space_group_name_H-M   'P 1'
_cell_length_a   7.90652451
_cell_length_b   9.70933271
_cell_length_c   10.44172404
_cell_angle_alpha   90.00000000
_cell_angle_beta   90.00000000
_cell_angle_gamma   105.73300469
_symmetry_Int_Tables_number   1
_chemical_formula_structural   BH7C2N4OF4
_chemical_formula_sum   'B4 H28 C8 N16 O4 F16'
_cell_volume   771.54998417
_cell_formula_units_Z   4
loop_
 _symmetry_equiv_pos_site_id
 _symmetry_equiv_pos_as_xyz
  1  'x, y, z'
loop_
 _atom_site_type_symbol
 _atom_site_label
 _atom_site_symmetry_multiplicity
 _atom_site_fract_x
 _atom_site_fract_y
 _atom_site_fract_z
 _atom_site_occupancy
  B  B0  1  0.34627285  0.71603697  0.95177030  1
  B  B1  1  0.65372715  0.78396303  0.45177030  1
  B  B2  1  0.65372715  0.28396303  0.04822970  1
  B  B3  1  0.34627285  0.21603697  0.54822970  1
  H  H4  1  0.64276149  0.41208716  0.78509877  1
  H  H5  1  0.35723851  0.08791284  0.28509877  1
  H  H6  1  0.35723851  0.58791284  0.21490123  1
  H  H7  1  0.64276149  0.91208716  0.71490123  1
  H  H8  1  0.65657722  0.58232300  0.72617234  1
  H  H9  1  0.34342278  0.91767700  0.22617234  1
  H  H10  1  0.34342278  0.41767700  0.27382766  1
  H  H11  1  0.65657722  0.08232300  0.77382766  1
  H  H12  1  0.91303588  0.73214174  0.67532793  1
  H  H13  1  0.08696412  0.76785826  0.17532793  1
  H  H14  1  0.08696412  0.26785826  0.32467207  1
  H  H15  1  0.91303588  0.23214174  0.82467207  1
  H  H16  1  0.35330295  0.61841819  0.57711403  1
  H  H17  1  0.64669705  0.88158181  0.07711403  1
  H  H18  1  0.64669705  0.38158181  0.42288597  1
  H  H19  1  0.35330295  0.11841819  0.92288597  1
  H  H20  1  0.16842643  0.49339910  0.64568982  1
  H  H21  1  0.83157357  0.00660090  0.14568982  1
  H  H22  1  0.83157357  0.50660090  0.35431018  1
  H  H23  1  0.16842643  0.99339910  0.85431018  1
  H  H24  1  0.31647093  0.84817622  0.52190958  1
  H  H25  1  0.68352907  0.65182378  0.02190958  1
  H  H26  1  0.68352907  0.15182378  0.47809042  1
  H  H27  1  0.31647093  0.34817622  0.97809042  1
  H  H28  1  0.12423222  0.89061162  0.56640824  1
  H  H29  1  0.87576778  0.60938838  0.06640824  1
  H  H30  1  0.87576778  0.10938838  0.43359176  1
  H  H31  1  0.12423222  0.39061162  0.93359176  1
  C  C32  1  0.88215719  0.51550915  0.71277155  1
  C  C33  1  0.11784281  0.98449085  0.21277155  1
  C  C34  1  0.11784281  0.48449085  0.28722845  1
  C  C35  1  0.88215719  0.01550915  0.78722845  1
  C  C36  1  0.13352765  0.68589071  0.60885602  1
  C  C37  1  0.86647235  0.81410929  0.10885602  1
  C  C38  1  0.86647235  0.31410929  0.39114398  1
  C  C39  1  0.13352765  0.18589071  0.89114398  1
  N  N40  1  0.71781071  0.50733549  0.75203735  1
  N  N41  1  0.28218929  0.99266451  0.25203735  1
  N  N42  1  0.28218929  0.49266451  0.24796265  1
  N  N43  1  0.71781071  0.00733549  0.74796265  1
  N  N44  1  0.96858113  0.64941943  0.66094102  1
  N  N45  1  0.03141887  0.85058057  0.16094102  1
  N  N46  1  0.03141887  0.35058057  0.33905898  1
  N  N47  1  0.96858113  0.14941943  0.83905898  1
  N  N48  1  0.22362565  0.58923612  0.60150626  1
  N  N49  1  0.77637435  0.91076388  0.10150626  1
  N  N50  1  0.77637435  0.41076388  0.39849374  1
  N  N51  1  0.22362565  0.08923612  0.89849374  1
  N  N52  1  0.19614164  0.81835434  0.56459298  1
  N  N53  1  0.80385836  0.68164566  0.06459298  1
  N  N54  1  0.80385836  0.18164566  0.43540702  1
  N  N55  1  0.19614164  0.31835434  0.93540702  1
  O  O56  1  0.95284007  0.41552933  0.72158313  1
  O  O57  1  0.04715993  0.08447067  0.22158313  1
  O  O58  1  0.04715993  0.58447067  0.27841687  1
  O  O59  1  0.95284007  0.91552933  0.77841687  1
  F  F60  1  0.46905468  0.64072697  0.91282738  1
  F  F61  1  0.53094532  0.85927303  0.41282738  1
  F  F62  1  0.53094532  0.35927303  0.08717262  1
  F  F63  1  0.46905468  0.14072697  0.58717262  1
  F  F64  1  0.17636408  0.62204704  0.96268890  1
  F  F65  1  0.82363592  0.87795296  0.46268890  1
  F  F66  1  0.82363592  0.37795296  0.03731110  1
  F  F67  1  0.17636408  0.12204704  0.53731110  1
  F  F68  1  0.34817735  0.82742335  0.86612633  1
  F  F69  1  0.65182265  0.67257665  0.36612633  1
  F  F70  1  0.65182265  0.17257665  0.13387367  1
  F  F71  1  0.34817735  0.32742335  0.63387367  1
  F  F72  1  0.40133839  0.77539413  0.07760552  1
  F  F73  1  0.59866161  0.72460587  0.57760552  1
  F  F74  1  0.59866161  0.22460587  0.92239448  1
  F  F75  1  0.40133839  0.27539413  0.42239448  1
