# generated using pymatgen
data_ErBiW2O9
_symmetry_space_group_name_H-M   'P 1'
_cell_length_a   3.91632701
_cell_length_b   5.74883528
_cell_length_c   32.71281801
_cell_angle_alpha   90.00000000
_cell_angle_beta   90.00000000
_cell_angle_gamma   90.00000000
_symmetry_Int_Tables_number   1
_chemical_formula_structural   ErBiW2O9
_chemical_formula_sum   'Er4 Bi4 W8 O36'
_cell_volume   736.50681624
_cell_formula_units_Z   4
loop_
 _symmetry_equiv_pos_site_id
 _symmetry_equiv_pos_as_xyz
  1  'x, y, z'
loop_
 _atom_site_type_symbol
 _atom_site_label
 _atom_site_symmetry_multiplicity
 _atom_site_fract_x
 _atom_site_fract_y
 _atom_site_fract_z
 _atom_site_occupancy
  Er  Er0  1  0.23990226  0.25000000  0.33282376  1
  Er  Er1  1  0.26009774  0.25000000  0.83282376  1
  Er  Er2  1  0.76009774  0.75000000  0.66717624  1
  Er  Er3  1  0.73990226  0.75000000  0.16717624  1
  Bi  Bi4  1  0.22680459  0.75000000  0.52667322  1
  Bi  Bi5  1  0.27319541  0.75000000  0.02667322  1
  Bi  Bi6  1  0.77319541  0.25000000  0.47332678  1
  Bi  Bi7  1  0.72680459  0.25000000  0.97332678  1
  W  W8  1  0.26844909  0.25000000  0.20659536  1
  W  W9  1  0.23155091  0.25000000  0.70659536  1
  W  W10  1  0.73155091  0.75000000  0.79340464  1
  W  W11  1  0.76844909  0.75000000  0.29340464  1
  W  W12  1  0.26291189  0.75000000  0.42001865  1
  W  W13  1  0.23708811  0.75000000  0.92001865  1
  W  W14  1  0.73708811  0.25000000  0.57998135  1
  W  W15  1  0.76291189  0.25000000  0.07998135  1
  O  O16  1  0.26405223  0.25000000  0.76178560  1
  O  O17  1  0.23594777  0.25000000  0.26178560  1
  O  O18  1  0.73594777  0.75000000  0.23821440  1
  O  O19  1  0.76405223  0.75000000  0.73821440  1
  O  O20  1  0.24422760  0.98018779  0.47059477  1
  O  O21  1  0.25577240  0.51981221  0.97059477  1
  O  O22  1  0.75577240  0.48018779  0.52940523  1
  O  O23  1  0.74422760  0.01981221  0.02940523  1
  O  O24  1  0.75577240  0.01981221  0.52940523  1
  O  O25  1  0.74422760  0.48018779  0.02940523  1
  O  O26  1  0.24422760  0.51981221  0.47059477  1
  O  O27  1  0.25577240  0.98018779  0.97059477  1
  O  O28  1  0.25139399  0.25000000  0.57328082  1
  O  O29  1  0.24860601  0.25000000  0.07328082  1
  O  O30  1  0.74860601  0.75000000  0.42671918  1
  O  O31  1  0.75139399  0.75000000  0.92671918  1
  O  O32  1  0.75210238  0.25000000  0.70233489  1
  O  O33  1  0.74789762  0.25000000  0.20233489  1
  O  O34  1  0.24789762  0.75000000  0.29766511  1
  O  O35  1  0.25210238  0.75000000  0.79766511  1
  O  O36  1  0.75705476  0.00022870  0.61432865  1
  O  O37  1  0.74294524  0.49977130  0.11432865  1
  O  O38  1  0.24294524  0.50022870  0.38567135  1
  O  O39  1  0.25705476  0.99977130  0.88567135  1
  O  O40  1  0.24294524  0.99977130  0.38567135  1
  O  O41  1  0.25705476  0.50022870  0.88567135  1
  O  O42  1  0.75705476  0.49977130  0.61432865  1
  O  O43  1  0.74294524  0.00022870  0.11432865  1
  O  O44  1  0.76213575  0.03089941  0.82129667  1
  O  O45  1  0.73786425  0.46910059  0.32129667  1
  O  O46  1  0.23786425  0.53089941  0.17870333  1
  O  O47  1  0.26213575  0.96910059  0.67870333  1
  O  O48  1  0.23786425  0.96910059  0.17870333  1
  O  O49  1  0.26213575  0.53089941  0.67870333  1
  O  O50  1  0.76213575  0.46910059  0.82129667  1
  O  O51  1  0.73786425  0.03089941  0.32129667  1
