# generated using pymatgen
data_La(Ga4Fe)2
_symmetry_space_group_name_H-M   'P 1'
_cell_length_a   4.02318519
_cell_length_b   12.59480948
_cell_length_c   14.27245666
_cell_angle_alpha   90.00000000
_cell_angle_beta   90.00000000
_cell_angle_gamma   90.00000000
_symmetry_Int_Tables_number   1
_chemical_formula_structural   La(Ga4Fe)2
_chemical_formula_sum   'La4 Ga32 Fe8'
_cell_volume   723.20323339
_cell_formula_units_Z   4
loop_
 _symmetry_equiv_pos_site_id
 _symmetry_equiv_pos_as_xyz
  1  'x, y, z'
loop_
 _atom_site_type_symbol
 _atom_site_label
 _atom_site_symmetry_multiplicity
 _atom_site_fract_x
 _atom_site_fract_y
 _atom_site_fract_z
 _atom_site_occupancy
  La  La0  1  0.00000000  0.84195535  0.18125738  1
  La  La1  1  0.00000000  0.15804465  0.81874262  1
  La  La2  1  0.00000000  0.65804465  0.68125738  1
  La  La3  1  -0.00000000  0.34195535  0.31874262  1
  Ga  Ga4  1  -0.00000000  0.50000000  0.50000000  1
  Ga  Ga5  1  0.00000000  0.00000000  -0.00000000  1
  Ga  Ga6  1  0.50000000  0.00000000  0.50000000  1
  Ga  Ga7  1  0.50000000  0.50000000  -0.00000000  1
  Ga  Ga8  1  0.50000000  0.73928513  0.32581092  1
  Ga  Ga9  1  0.50000000  0.26071487  0.67418908  1
  Ga  Ga10  1  0.50000000  0.76071487  0.82581092  1
  Ga  Ga11  1  0.50000000  0.23928513  0.17418908  1
  Ga  Ga12  1  0.50000000  0.95094079  0.31815585  1
  Ga  Ga13  1  0.50000000  0.04905921  0.68184415  1
  Ga  Ga14  1  0.50000000  0.54905921  0.81815585  1
  Ga  Ga15  1  0.50000000  0.45094079  0.18184415  1
  Ga  Ga16  1  0.50000000  0.66386682  0.12097700  1
  Ga  Ga17  1  0.50000000  0.33613318  0.87902300  1
  Ga  Ga18  1  0.50000000  0.83613318  0.62097700  1
  Ga  Ga19  1  0.50000000  0.16386682  0.37902300  1
  Ga  Ga20  1  0.00000000  0.83689992  0.45406082  1
  Ga  Ga21  1  -0.00000000  0.16310008  0.54593918  1
  Ga  Ga22  1  -0.00000000  0.66310008  0.95406082  1
  Ga  Ga23  1  -0.00000000  0.33689992  0.04593918  1
  Ga  Ga24  1  -0.00000000  0.59822781  0.24557369  1
  Ga  Ga25  1  0.00000000  0.40177219  0.75442631  1
  Ga  Ga26  1  0.00000000  0.90177219  0.74557369  1
  Ga  Ga27  1  -0.00000000  0.09822781  0.25442631  1
  Ga  Ga28  1  0.50000000  0.83161571  0.01000512  1
  Ga  Ga29  1  0.50000000  0.16838429  0.98999488  1
  Ga  Ga30  1  0.50000000  0.66838429  0.51000512  1
  Ga  Ga31  1  0.50000000  0.33161571  0.48999488  1
  Ga  Ga32  1  0.50000000  0.52465135  0.36617010  1
  Ga  Ga33  1  0.50000000  0.47534865  0.63382990  1
  Ga  Ga34  1  0.50000000  0.97534865  0.86617010  1
  Ga  Ga35  1  0.50000000  0.02465135  0.13382990  1
  Fe  Fe36  1  0.00000000  0.65288639  0.40338490  1
  Fe  Fe37  1  0.00000000  0.34711361  0.59661510  1
  Fe  Fe38  1  -0.00000000  0.84711361  0.90338490  1
  Fe  Fe39  1  0.00000000  0.15288639  0.09661510  1
  Fe  Fe40  1  -0.00000000  0.53431307  0.09123826  1
  Fe  Fe41  1  0.00000000  0.46568693  0.90876174  1
  Fe  Fe42  1  0.00000000  0.96568693  0.59123826  1
  Fe  Fe43  1  0.00000000  0.03431307  0.40876174  1
