# generated using pymatgen
data_Er10In20Ni9
_symmetry_space_group_name_H-M   'P 1'
_cell_length_a   9.01267050
_cell_length_b   13.42702986
_cell_length_c   13.42702986
_cell_angle_alpha   90.00000000
_cell_angle_beta   90.00000000
_cell_angle_gamma   90.00000000
_symmetry_Int_Tables_number   1
_chemical_formula_structural   Er10In20Ni9
_chemical_formula_sum   'Er20 In40 Ni18'
_cell_volume   1624.85048050
_cell_formula_units_Z   2
loop_
 _symmetry_equiv_pos_site_id
 _symmetry_equiv_pos_as_xyz
  1  'x, y, z'
loop_
 _atom_site_type_symbol
 _atom_site_label
 _atom_site_symmetry_multiplicity
 _atom_site_fract_x
 _atom_site_fract_y
 _atom_site_fract_z
 _atom_site_occupancy
  Er  Er0  1  0.36044301  0.75000000  0.75000000  1
  Er  Er1  1  0.63955699  0.25000000  0.25000000  1
  Er  Er2  1  0.83757102  0.75000000  0.75000000  1
  Er  Er3  1  0.16242898  0.25000000  0.25000000  1
  Er  Er4  1  0.76734793  0.02650118  0.75000000  1
  Er  Er5  1  0.76734793  0.47349882  0.75000000  1
  Er  Er6  1  0.76734793  0.75000000  0.02650118  1
  Er  Er7  1  0.76734793  0.75000000  0.47349882  1
  Er  Er8  1  0.23265207  0.97349882  0.25000000  1
  Er  Er9  1  0.23265207  0.52650118  0.25000000  1
  Er  Er10  1  0.23265207  0.25000000  0.97349882  1
  Er  Er11  1  0.23265207  0.25000000  0.52650118  1
  Er  Er12  1  0.26554572  0.95280098  0.95280098  1
  Er  Er13  1  0.26554572  0.54719902  0.95280098  1
  Er  Er14  1  0.26554572  0.95280098  0.54719902  1
  Er  Er15  1  0.26554572  0.54719902  0.54719902  1
  Er  Er16  1  0.73445428  0.04719902  0.04719902  1
  Er  Er17  1  0.73445428  0.45280098  0.04719902  1
  Er  Er18  1  0.73445428  0.04719902  0.45280098  1
  Er  Er19  1  0.73445428  0.45280098  0.45280098  1
  In  In20  1  -0.00000000  0.40345670  0.59654330  1
  In  In21  1  -0.00000000  0.09654330  0.59654330  1
  In  In22  1  -0.00000000  0.40345670  0.90345670  1
  In  In23  1  -0.00000000  0.09654330  0.90345670  1
  In  In24  1  -0.00000000  0.59654330  0.40345670  1
  In  In25  1  -0.00000000  0.90345670  0.40345670  1
  In  In26  1  -0.00000000  0.59654330  0.09654330  1
  In  In27  1  -0.00000000  0.90345670  0.09654330  1
  In  In28  1  0.50000000  0.88116033  0.11883967  1
  In  In29  1  0.50000000  0.61883967  0.11883967  1
  In  In30  1  0.50000000  0.88116033  0.38116033  1
  In  In31  1  0.50000000  0.61883967  0.38116033  1
  In  In32  1  0.50000000  0.11883967  0.88116033  1
  In  In33  1  0.50000000  0.38116033  0.88116033  1
  In  In34  1  0.50000000  0.11883967  0.61883967  1
  In  In35  1  0.50000000  0.38116033  0.61883967  1
  In  In36  1  0.09359213  0.58346974  0.75000000  1
  In  In37  1  0.09359213  0.91653026  0.75000000  1
  In  In38  1  0.09359213  0.75000000  0.58346974  1
  In  In39  1  0.09359213  0.75000000  0.91653026  1
  In  In40  1  0.90640787  0.41653026  0.25000000  1
  In  In41  1  0.90640787  0.08346974  0.25000000  1
  In  In42  1  0.90640787  0.25000000  0.41653026  1
  In  In43  1  0.90640787  0.25000000  0.08346974  1
  In  In44  1  0.59021672  0.88193046  0.88193046  1
  In  In45  1  0.59021672  0.61806954  0.88193046  1
  In  In46  1  0.59021672  0.88193046  0.61806954  1
  In  In47  1  0.59021672  0.61806954  0.61806954  1
  In  In48  1  0.40978328  0.11806954  0.11806954  1
  In  In49  1  0.40978328  0.38193046  0.11806954  1
  In  In50  1  0.40978328  0.11806954  0.38193046  1
  In  In51  1  0.40978328  0.38193046  0.38193046  1
  In  In52  1  0.23565307  0.36608633  0.75000000  1
  In  In53  1  0.23565307  0.13391367  0.75000000  1
  In  In54  1  0.23565307  0.75000000  0.36608633  1
  In  In55  1  0.23565307  0.75000000  0.13391367  1
  In  In56  1  0.76434693  0.63391367  0.25000000  1
  In  In57  1  0.76434693  0.86608633  0.25000000  1
  In  In58  1  0.76434693  0.25000000  0.63391367  1
  In  In59  1  0.76434693  0.25000000  0.86608633  1
  Ni  Ni60  1  -0.00000000  0.25000000  0.75000000  1
  Ni  Ni61  1  -0.00000000  0.75000000  0.25000000  1
  Ni  Ni62  1  0.40934980  0.52691631  0.75000000  1
  Ni  Ni63  1  0.40934980  0.97308369  0.75000000  1
  Ni  Ni64  1  0.40934980  0.75000000  0.52691631  1
  Ni  Ni65  1  0.40934980  0.75000000  0.97308369  1
  Ni  Ni66  1  0.59065020  0.47308369  0.25000000  1
  Ni  Ni67  1  0.59065020  0.02691631  0.25000000  1
  Ni  Ni68  1  0.59065020  0.25000000  0.47308369  1
  Ni  Ni69  1  0.59065020  0.25000000  0.02691631  1
  Ni  Ni70  1  0.10190106  0.09405716  0.09405716  1
  Ni  Ni71  1  0.10190106  0.40594284  0.09405716  1
  Ni  Ni72  1  0.10190106  0.09405716  0.40594284  1
  Ni  Ni73  1  0.10190106  0.40594284  0.40594284  1
  Ni  Ni74  1  0.89809894  0.90594284  0.90594284  1
  Ni  Ni75  1  0.89809894  0.59405716  0.90594284  1
  Ni  Ni76  1  0.89809894  0.90594284  0.59405716  1
  Ni  Ni77  1  0.89809894  0.59405716  0.59405716  1
