# generated using pymatgen
data_RbGe
_symmetry_space_group_name_H-M   'P 1'
_cell_length_a   11.18883761
_cell_length_b   11.18883761
_cell_length_c   12.05494895
_cell_angle_alpha   117.65047013
_cell_angle_beta   117.65047013
_cell_angle_gamma   90.00000000
_symmetry_Int_Tables_number   1
_chemical_formula_structural   RbGe
_chemical_formula_sum   'Rb16 Ge16'
_cell_volume   1138.65708268
_cell_formula_units_Z   16
loop_
 _symmetry_equiv_pos_site_id
 _symmetry_equiv_pos_as_xyz
  1  'x, y, z'
loop_
 _atom_site_type_symbol
 _atom_site_label
 _atom_site_symmetry_multiplicity
 _atom_site_fract_x
 _atom_site_fract_y
 _atom_site_fract_z
 _atom_site_occupancy
  Rb  Rb0  1  0.25000000  0.39077004  1.00000000  1
  Rb  Rb1  1  0.25000000  0.89077004  1.00000000  1
  Rb  Rb2  1  0.10922996  0.75000000  0.50000000  1
  Rb  Rb3  1  0.89077004  0.25000000  0.50000000  1
  Rb  Rb4  1  0.75000000  0.60922996  0.00000000  1
  Rb  Rb5  1  0.75000000  0.10922996  0.00000000  1
  Rb  Rb6  1  0.60922996  0.75000000  0.50000000  1
  Rb  Rb7  1  0.39077004  0.25000000  0.50000000  1
  Rb  Rb8  1  0.75460337  0.24539663  0.75000000  1
  Rb  Rb9  1  0.49539663  0.74539663  0.75000000  1
  Rb  Rb10  1  0.00460337  0.99539663  0.25000000  1
  Rb  Rb11  1  0.74539663  0.49539663  0.25000000  1
  Rb  Rb12  1  0.24539663  0.75460337  0.25000000  1
  Rb  Rb13  1  0.50460337  0.25460337  0.25000000  1
  Rb  Rb14  1  0.99539663  0.00460337  0.75000000  1
  Rb  Rb15  1  0.25460337  0.50460337  0.75000000  1
  Ge  Ge16  1  0.27654542  0.48469291  0.35123482  1
  Ge  Ge17  1  0.57468940  0.98469291  0.35123482  1
  Ge  Ge18  1  0.36654191  0.07468940  0.85123482  1
  Ge  Ge19  1  0.98469291  0.57468940  0.85123482  1
  Ge  Ge20  1  0.72345458  0.51530709  0.64876518  1
  Ge  Ge21  1  0.42531060  0.01530709  0.64876518  1
  Ge  Ge22  1  0.63345809  0.92531060  0.14876518  1
  Ge  Ge23  1  0.01530709  0.42531060  0.14876518  1
  Ge  Ge24  1  0.77654542  0.86654191  0.35123482  1
  Ge  Ge25  1  0.07468940  0.36654191  0.35123482  1
  Ge  Ge26  1  0.86654191  0.77654542  0.85123482  1
  Ge  Ge27  1  0.48469291  0.27654542  0.85123482  1
  Ge  Ge28  1  0.22345458  0.13345809  0.64876518  1
  Ge  Ge29  1  0.92531060  0.63345809  0.64876518  1
  Ge  Ge30  1  0.13345809  0.22345458  0.14876518  1
  Ge  Ge31  1  0.51530709  0.72345458  0.14876518  1
