# generated using pymatgen
data_CsFeP2H3CO10
_symmetry_space_group_name_H-M   'P 1'
_cell_length_a   8.14484442
_cell_length_b   10.41540722
_cell_length_c   11.67753405
_cell_angle_alpha   90.00000000
_cell_angle_beta   100.28293342
_cell_angle_gamma   90.00000000
_symmetry_Int_Tables_number   1
_chemical_formula_structural   CsFeP2H3CO10
_chemical_formula_sum   'Cs4 Fe4 P8 H12 C4 O40'
_cell_volume   974.71586579
_cell_formula_units_Z   4
loop_
 _symmetry_equiv_pos_site_id
 _symmetry_equiv_pos_as_xyz
  1  'x, y, z'
loop_
 _atom_site_type_symbol
 _atom_site_label
 _atom_site_symmetry_multiplicity
 _atom_site_fract_x
 _atom_site_fract_y
 _atom_site_fract_z
 _atom_site_occupancy
  Cs  Cs0  1  0.05310436  0.82675741  0.66291245  1
  Cs  Cs1  1  0.55310436  0.67324259  0.16291245  1
  Cs  Cs2  1  0.94689564  0.17324259  0.33708755  1
  Cs  Cs3  1  0.44689564  0.32675741  0.83708755  1
  Fe  Fe4  1  0.04386985  0.23501178  0.99948918  1
  Fe  Fe5  1  0.54386985  0.26498822  0.49948918  1
  Fe  Fe6  1  0.95613015  0.76498822  0.00051082  1
  Fe  Fe7  1  0.45613015  0.73501178  0.50051082  1
  P  P8  1  0.85286164  0.19971738  0.72012211  1
  P  P9  1  0.35286164  0.30028262  0.22012211  1
  P  P10  1  0.14713836  0.80028262  0.27987789  1
  P  P11  1  0.64713836  0.69971738  0.77987789  1
  P  P12  1  0.25032764  0.97708558  0.95661532  1
  P  P13  1  0.75032764  0.52291442  0.45661532  1
  P  P14  1  0.74967236  0.02291442  0.04338468  1
  P  P15  1  0.24967236  0.47708558  0.54338468  1
  H  H16  1  0.77413293  0.02554613  0.79142281  1
  H  H17  1  0.27413293  0.47445387  0.29142281  1
  H  H18  1  0.22586707  0.97445387  0.20857719  1
  H  H19  1  0.72586707  0.52554613  0.70857719  1
  H  H20  1  0.04765667  0.29680279  0.63883888  1
  H  H21  1  0.54765667  0.20319721  0.13883888  1
  H  H22  1  0.95234333  0.70319721  0.36116112  1
  H  H23  1  0.45234333  0.79680279  0.86116112  1
  H  H24  1  0.45672413  0.99714602  0.10658344  1
  H  H25  1  0.95672413  0.50285398  0.60658344  1
  H  H26  1  0.54327587  0.00285398  0.89341656  1
  H  H27  1  0.04327587  0.49714602  0.39341656  1
  C  C28  1  0.92318086  0.49125420  0.02918094  1
  C  C29  1  0.42318086  0.00874580  0.52918094  1
  C  C30  1  0.07681914  0.50874580  0.97081906  1
  C  C31  1  0.57681914  0.99125420  0.47081906  1
  O  O32  1  0.90079548  0.25533569  0.84193300  1
  O  O33  1  0.40079548  0.24466431  0.34193300  1
  O  O34  1  0.09920452  0.74466431  0.15806700  1
  O  O35  1  0.59920452  0.75533569  0.65806700  1
  O  O36  1  0.69142037  0.26168042  0.65747686  1
  O  O37  1  0.19142037  0.23831958  0.15747686  1
  O  O38  1  0.30857963  0.73831958  0.34252314  1
  O  O39  1  0.80857963  0.76168042  0.84252314  1
  O  O40  1  0.83130595  0.04797925  0.72560217  1
  O  O41  1  0.33130595  0.45202075  0.22560217  1
  O  O42  1  0.16869405  0.95202075  0.27439783  1
  O  O43  1  0.66869405  0.54797925  0.77439783  1
  O  O44  1  0.99692985  0.20852905  0.64621924  1
  O  O45  1  0.49692985  0.29147095  0.14621924  1
  O  O46  1  0.00307015  0.79147095  0.35378076  1
  O  O47  1  0.50307015  0.70852905  0.85378076  1
  O  O48  1  0.09361617  0.89315828  0.93864693  1
  O  O49  1  0.59361617  0.60684172  0.43864693  1
  O  O50  1  0.90638383  0.10684172  0.06135307  1
  O  O51  1  0.40638383  0.39315828  0.56135307  1
  O  O52  1  0.20706290  0.12081992  0.93976668  1
  O  O53  1  0.70706290  0.37918008  0.43976668  1
  O  O54  1  0.79293710  0.87918008  0.06023332  1
  O  O55  1  0.29293710  0.62081992  0.56023332  1
  O  O56  1  0.37200844  0.93678641  0.87601433  1
  O  O57  1  0.87200844  0.56321359  0.37601433  1
  O  O58  1  0.62799156  0.06321359  0.12398567  1
  O  O59  1  0.12799156  0.43678641  0.62398567  1
  O  O60  1  0.34041697  0.95418132  0.08975786  1
  O  O61  1  0.84041697  0.54581868  0.58975786  1
  O  O62  1  0.65958303  0.04581868  0.91024214  1
  O  O63  1  0.15958303  0.45418132  0.41024214  1
  O  O64  1  0.88900740  0.37837441  0.05634415  1
  O  O65  1  0.38900740  0.12162559  0.55634415  1
  O  O66  1  0.11099260  0.62162559  0.94365585  1
  O  O67  1  0.61099260  0.87837441  0.44365585  1
  O  O68  1  0.15692245  0.40740355  0.95502198  1
  O  O69  1  0.65692245  0.09259645  0.45502198  1
  O  O70  1  0.84307755  0.59259645  0.04497802  1
  O  O71  1  0.34307755  0.90740355  0.54497802  1
