# generated using pymatgen
data_MgWF5
_symmetry_space_group_name_H-M   'P 1'
_cell_length_a   5.26121522
_cell_length_b   7.91131399
_cell_length_c   10.36793002
_cell_angle_alpha   90.00000000
_cell_angle_beta   90.00000000
_cell_angle_gamma   108.39990743
_symmetry_Int_Tables_number   1
_chemical_formula_structural   MgWF5
_chemical_formula_sum   'Mg4 W4 F20'
_cell_volume   409.48353792
_cell_formula_units_Z   4
loop_
 _symmetry_equiv_pos_site_id
 _symmetry_equiv_pos_as_xyz
  1  'x, y, z'
loop_
 _atom_site_type_symbol
 _atom_site_label
 _atom_site_symmetry_multiplicity
 _atom_site_fract_x
 _atom_site_fract_y
 _atom_site_fract_z
 _atom_site_occupancy
  Mg  Mg0  1  0.49342715  0.79382647  0.00078264  1
  Mg  Mg1  1  0.50657285  0.70617353  0.50078264  1
  Mg  Mg2  1  0.50657285  0.20617353  0.99921736  1
  Mg  Mg3  1  0.49342715  0.29382647  0.49921736  1
  W  W4  1  0.90830405  0.63344700  0.75818868  1
  W  W5  1  0.09169595  0.86655300  0.25818868  1
  W  W6  1  0.09169595  0.36655300  0.24181132  1
  W  W7  1  0.90830405  0.13344700  0.74181132  1
  F  F8  1  0.60078039  0.62796502  0.89048025  1
  F  F9  1  0.39921961  0.87203498  0.39048025  1
  F  F10  1  0.39921961  0.37203498  0.10951975  1
  F  F11  1  0.60078039  0.12796502  0.60951975  1
  F  F12  1  0.64788609  0.52071102  0.60079766  1
  F  F13  1  0.35211391  0.97928898  0.10079766  1
  F  F14  1  0.35211391  0.47928898  0.39920234  1
  F  F15  1  0.64788609  0.02071102  0.89920234  1
  F  F16  1  0.84509248  0.76145221  0.41331092  1
  F  F17  1  0.15490752  0.73854779  0.91331092  1
  F  F18  1  0.15490752  0.23854779  0.58668908  1
  F  F19  1  0.84509248  0.26145221  0.08668908  1
  F  F20  1  0.76314427  0.83491672  0.13445217  1
  F  F21  1  0.23685573  0.66508328  0.63445217  1
  F  F22  1  0.23685573  0.16508328  0.86554783  1
  F  F23  1  0.76314427  0.33491672  0.36554783  1
  F  F24  1  0.86944251  0.87144921  0.67386304  1
  F  F25  1  0.13055749  0.62855079  0.17386304  1
  F  F26  1  0.13055749  0.12855079  0.32613696  1
  F  F27  1  0.86944251  0.37144921  0.82613696  1
