# generated using pymatgen
data_Al2Si2H4O9
_symmetry_space_group_name_H-M   'P 1'
_cell_length_a   5.23268091
_cell_length_b   5.22679605
_cell_length_c   14.90323491
_cell_angle_alpha   97.96551943
_cell_angle_beta   89.99999993
_cell_angle_gamma   120.03724693
_symmetry_Int_Tables_number   1
_chemical_formula_structural   Al2Si2H4O9
_chemical_formula_sum   'Al4 Si4 H8 O18'
_cell_volume   348.31416361
_cell_formula_units_Z   2
loop_
 _symmetry_equiv_pos_site_id
 _symmetry_equiv_pos_as_xyz
  1  'x, y, z'
loop_
 _atom_site_type_symbol
 _atom_site_label
 _atom_site_symmetry_multiplicity
 _atom_site_fract_x
 _atom_site_fract_y
 _atom_site_fract_z
 _atom_site_occupancy
  Al  Al0  1  0.60123903  0.33437614  0.49799629  1
  Al  Al1  1  0.73313711  0.33437614  0.99799629  1
  Al  Al2  1  0.26278010  0.66326493  0.49785190  1
  Al  Al3  1  0.40048484  0.66326493  0.99785190  1
  Si  Si4  1  0.21683775  0.87126568  0.31145286  1
  Si  Si5  1  0.65442792  0.87126568  0.81145286  1
  Si  Si6  1  0.53022756  0.52796992  0.31042837  1
  Si  Si7  1  0.99774236  0.52796992  0.81042837  1
  H  H8  1  0.90238349  0.15858014  0.41143692  1
  H  H9  1  0.25619664  0.15858014  0.91143692  1
  H  H10  1  0.81318033  0.78463544  0.11616786  1
  H  H11  1  0.97145511  0.78463544  0.61616786  1
  H  H12  1  0.10771001  0.42087344  0.12692218  1
  H  H13  1  0.31316343  0.42087344  0.62692218  1
  H  H14  1  0.41881309  0.07201733  0.12173662  1
  H  H15  1  0.65320424  0.07201733  0.62173662  1
  O  O16  1  0.86587873  0.72781584  0.28010749  1
  O  O17  1  0.86193711  0.72781584  0.78010749  1
  O  O18  1  0.32449273  0.64076130  0.26487539  1
  O  O19  1  0.31626857  0.64076130  0.76487539  1
  O  O20  1  0.39226417  0.17576316  0.26387707  1
  O  O21  1  0.78349899  0.17576316  0.76387707  1
  O  O22  1  0.29560778  0.95360686  0.42061935  1
  O  O23  1  0.65799908  0.95360686  0.92061935  1
  O  O24  1  0.52010352  0.56451088  0.42020626  1
  O  O25  1  0.04440736  0.56451088  0.92020626  1
  O  O26  1  0.91059371  0.35013367  0.42343613  1
  O  O27  1  0.43953996  0.35013367  0.92343613  1
  O  O28  1  0.95072282  0.64443673  0.56318054  1
  O  O29  1  0.69371390  0.64443673  0.06318054  1
  O  O30  1  0.33833967  0.42063334  0.56222221  1
  O  O31  1  0.08229367  0.42063334  0.06222221  1
  O  O32  1  0.55922355  0.03195519  0.56118255  1
  O  O33  1  0.47273164  0.03195519  0.06118255  1
