# generated using pymatgen
data_CeRh2O5
_symmetry_space_group_name_H-M   'P 1'
_cell_length_a   5.21731537
_cell_length_b   7.28588988
_cell_length_c   9.91561004
_cell_angle_alpha   90.00000000
_cell_angle_beta   90.00000000
_cell_angle_gamma   90.00000000
_symmetry_Int_Tables_number   1
_chemical_formula_structural   CeRh2O5
_chemical_formula_sum   'Ce4 Rh8 O20'
_cell_volume   376.91995512
_cell_formula_units_Z   4
loop_
 _symmetry_equiv_pos_site_id
 _symmetry_equiv_pos_as_xyz
  1  'x, y, z'
loop_
 _atom_site_type_symbol
 _atom_site_label
 _atom_site_symmetry_multiplicity
 _atom_site_fract_x
 _atom_site_fract_y
 _atom_site_fract_z
 _atom_site_occupancy
  Ce  Ce0  1  0.29548213  0.76353351  0.25000000  1
  Ce  Ce1  1  0.20451787  0.26353351  0.25000000  1
  Ce  Ce2  1  0.70451787  0.23646649  0.75000000  1
  Ce  Ce3  1  0.79548213  0.73646649  0.75000000  1
  Rh  Rh4  1  0.24996224  0.91638473  0.55921204  1
  Rh  Rh5  1  0.25003776  0.41638473  0.94078796  1
  Rh  Rh6  1  0.75003776  0.08361527  0.05921204  1
  Rh  Rh7  1  0.74996224  0.58361527  0.44078796  1
  Rh  Rh8  1  0.75003776  0.08361527  0.44078796  1
  Rh  Rh9  1  0.74996224  0.58361527  0.05921204  1
  Rh  Rh10  1  0.24996224  0.91638473  0.94078796  1
  Rh  Rh11  1  0.25003776  0.41638473  0.55921204  1
  O  O12  1  0.56527373  0.83441220  0.44306433  1
  O  O13  1  0.93472627  0.33441220  0.05693567  1
  O  O14  1  0.43472627  0.16558780  0.94306433  1
  O  O15  1  0.06527373  0.66558780  0.55693567  1
  O  O16  1  0.43472627  0.16558780  0.55693567  1
  O  O17  1  0.06527373  0.66558780  0.94306433  1
  O  O18  1  0.56527373  0.83441220  0.05693567  1
  O  O19  1  0.93472627  0.33441220  0.44306433  1
  O  O20  1  0.40566409  0.48356078  0.37764787  1
  O  O21  1  0.09433591  0.98356078  0.12235213  1
  O  O22  1  0.59433591  0.51643922  0.87764787  1
  O  O23  1  0.90566409  0.01643922  0.62235213  1
  O  O24  1  0.59433591  0.51643922  0.62235213  1
  O  O25  1  0.90566409  0.01643922  0.87764787  1
  O  O26  1  0.40566409  0.48356078  0.12235213  1
  O  O27  1  0.09433591  0.98356078  0.37764787  1
  O  O28  1  0.58043796  0.12222581  0.25000000  1
  O  O29  1  0.91956204  0.62222581  0.25000000  1
  O  O30  1  0.41956204  0.87777419  0.75000000  1
  O  O31  1  0.08043796  0.37777419  0.75000000  1
