# generated using pymatgen
data_NaNi4(PO4)3
_symmetry_space_group_name_H-M   'P 1'
_cell_length_a   6.18798759
_cell_length_b   9.65255371
_cell_length_c   16.13100676
_cell_angle_alpha   90.00000000
_cell_angle_beta   90.00000000
_cell_angle_gamma   90.00000000
_symmetry_Int_Tables_number   1
_chemical_formula_structural   NaNi4(PO4)3
_chemical_formula_sum   'Na4 Ni16 P12 O48'
_cell_volume   963.50313950
_cell_formula_units_Z   4
loop_
 _symmetry_equiv_pos_site_id
 _symmetry_equiv_pos_as_xyz
  1  'x, y, z'
loop_
 _atom_site_type_symbol
 _atom_site_label
 _atom_site_symmetry_multiplicity
 _atom_site_fract_x
 _atom_site_fract_y
 _atom_site_fract_z
 _atom_site_occupancy
  Na  Na0  1  0.00000000  0.22242869  0.46484373  1
  Na  Na1  1  0.00000000  0.77757131  0.53515627  1
  Na  Na2  1  0.50000000  0.27757131  0.96484373  1
  Na  Na3  1  0.50000000  0.72242869  0.03515627  1
  Ni  Ni4  1  0.00000000  0.50732458  0.13939211  1
  Ni  Ni5  1  0.00000000  0.49267542  0.86060789  1
  Ni  Ni6  1  0.50000000  0.99267542  0.63939211  1
  Ni  Ni7  1  0.50000000  0.00732458  0.36060789  1
  Ni  Ni8  1  0.00000000  0.03326364  0.90583456  1
  Ni  Ni9  1  0.00000000  0.96673636  0.09416544  1
  Ni  Ni10  1  0.50000000  0.46673636  0.40583456  1
  Ni  Ni11  1  0.50000000  0.53326364  0.59416544  1
  Ni  Ni12  1  0.25084350  0.24952940  0.20408604  1
  Ni  Ni13  1  0.74915650  0.75047060  0.79591396  1
  Ni  Ni14  1  0.25084350  0.75047060  0.79591396  1
  Ni  Ni15  1  0.24915650  0.25047060  0.70408604  1
  Ni  Ni16  1  0.74915650  0.24952940  0.20408604  1
  Ni  Ni17  1  0.75084350  0.74952940  0.29591396  1
  Ni  Ni18  1  0.24915650  0.74952940  0.29591396  1
  Ni  Ni19  1  0.75084350  0.25047060  0.70408604  1
  P  P20  1  0.00000000  0.45797787  0.33644566  1
  P  P21  1  0.00000000  0.54202213  0.66355434  1
  P  P22  1  0.50000000  0.04202213  0.83644566  1
  P  P23  1  0.50000000  0.95797787  0.16355434  1
  P  P24  1  0.00000000  0.04413737  0.28438862  1
  P  P25  1  0.00000000  0.95586263  0.71561138  1
  P  P26  1  0.50000000  0.45586263  0.78438862  1
  P  P27  1  0.50000000  0.54413737  0.21561138  1
  P  P28  1  0.00000000  0.28875017  0.03427586  1
  P  P29  1  0.00000000  0.71124983  0.96572414  1
  P  P30  1  0.50000000  0.21124983  0.53427586  1
  P  P31  1  0.50000000  0.78875017  0.46572414  1
  O  O32  1  0.20176096  0.33315101  0.08772630  1
  O  O33  1  0.79823904  0.66684899  0.91227370  1
  O  O34  1  0.20176096  0.66684899  0.91227370  1
  O  O35  1  0.29823904  0.16684899  0.58772630  1
  O  O36  1  0.79823904  0.33315101  0.08772630  1
  O  O37  1  0.70176096  0.83315101  0.41227370  1
  O  O38  1  0.29823904  0.83315101  0.41227370  1
  O  O39  1  0.70176096  0.16684899  0.58772630  1
  O  O40  1  0.19972791  0.40997894  0.38361509  1
  O  O41  1  0.80027209  0.59002106  0.61638491  1
  O  O42  1  0.19972791  0.59002106  0.61638491  1
  O  O43  1  0.30027209  0.09002106  0.88361509  1
  O  O44  1  0.80027209  0.40997894  0.38361509  1
  O  O45  1  0.69972791  0.90997894  0.11638491  1
  O  O46  1  0.30027209  0.90997894  0.11638491  1
  O  O47  1  0.69972791  0.09002106  0.88361509  1
  O  O48  1  0.00000000  0.10779140  0.19257534  1
  O  O49  1  0.00000000  0.89220860  0.80742466  1
  O  O50  1  0.50000000  0.39220860  0.69257534  1
  O  O51  1  0.50000000  0.60779140  0.30742466  1
  O  O52  1  0.20722863  0.10285652  0.32389843  1
  O  O53  1  0.79277137  0.89714348  0.67610157  1
  O  O54  1  0.20722863  0.89714348  0.67610157  1
  O  O55  1  0.29277137  0.39714348  0.82389843  1
  O  O56  1  0.79277137  0.10285652  0.32389843  1
  O  O57  1  0.70722863  0.60285652  0.17610157  1
  O  O58  1  0.29277137  0.60285652  0.17610157  1
  O  O59  1  0.70722863  0.39714348  0.82389843  1
  O  O60  1  0.00000000  0.38488802  0.24604415  1
  O  O61  1  0.00000000  0.61511198  0.75395585  1
  O  O62  1  0.50000000  0.11511198  0.74604415  1
  O  O63  1  0.50000000  0.88488802  0.25395585  1
  O  O64  1  0.00000000  0.63944971  0.04860793  1
  O  O65  1  0.00000000  0.36055029  0.95139207  1
  O  O66  1  0.50000000  0.86055029  0.54860793  1
  O  O67  1  0.50000000  0.13944971  0.45139207  1
  O  O68  1  0.00000000  0.61826674  0.32197650  1
  O  O69  1  0.00000000  0.38173326  0.67802350  1
  O  O70  1  0.50000000  0.88173326  0.82197650  1
  O  O71  1  0.50000000  0.11826674  0.17802350  1
  O  O72  1  0.00000000  0.13072151  0.01861099  1
  O  O73  1  0.00000000  0.86927849  0.98138901  1
  O  O74  1  0.50000000  0.36927849  0.51861099  1
  O  O75  1  0.50000000  0.63072151  0.48138901  1
  O  O76  1  0.00000000  0.11611924  0.72455170  1
  O  O77  1  0.00000000  0.88388076  0.27544830  1
  O  O78  1  0.50000000  0.38388076  0.22455170  1
  O  O79  1  0.50000000  0.61611924  0.77544830  1
