# generated using pymatgen
data_Sc2VO5
_symmetry_space_group_name_H-M   'P 1'
_cell_length_a   7.86622913
_cell_length_b   7.86622913
_cell_length_c   9.24079319
_cell_angle_alpha   115.19024378
_cell_angle_beta   115.19024378
_cell_angle_gamma   90.00000000
_symmetry_Int_Tables_number   1
_chemical_formula_structural   Sc2VO5
_chemical_formula_sum   'Sc10 V5 O25'
_cell_volume   456.61060938
_cell_formula_units_Z   5
loop_
 _symmetry_equiv_pos_site_id
 _symmetry_equiv_pos_as_xyz
  1  'x, y, z'
loop_
 _atom_site_type_symbol
 _atom_site_label
 _atom_site_symmetry_multiplicity
 _atom_site_fract_x
 _atom_site_fract_y
 _atom_site_fract_z
 _atom_site_occupancy
  Sc  Sc0  1  0.06178516  0.56178516  0.12357031  1
  Sc  Sc1  1  0.43821484  0.93821484  0.87642969  1
  Sc  Sc2  1  0.53712525  0.69530732  0.48306026  1
  Sc  Sc3  1  0.94593501  0.78775294  0.48306026  1
  Sc  Sc4  1  0.30469268  0.05406499  0.51693974  1
  Sc  Sc5  1  0.21224706  0.46287475  0.51693974  1
  Sc  Sc6  1  0.25283261  0.20702689  0.15179998  1
  Sc  Sc7  1  0.89896738  0.94477310  0.15179998  1
  Sc  Sc8  1  0.79297311  0.10103262  0.84820002  1
  Sc  Sc9  1  0.05522690  0.74716739  0.84820002  1
  V  V10  1  0.20857247  0.31656605  0.83243614  1
  V  V11  1  0.62386367  0.51587009  0.83243614  1
  V  V12  1  0.68343395  0.37613633  0.16756386  1
  V  V13  1  0.48412991  0.79142753  0.16756386  1
  V  V14  1  0.75000000  0.25000000  0.50000000  1
  O  O15  1  0.24451976  0.59107449  0.99360407  1
  O  O16  1  0.74908431  0.40252957  0.99360407  1
  O  O17  1  0.40892551  0.25091569  0.00639593  1
  O  O18  1  0.59747043  0.75548024  0.00639593  1
  O  O19  1  0.26784450  0.49653166  0.31657399  1
  O  O20  1  0.04872949  0.82004233  0.31657399  1
  O  O21  1  0.50346834  0.95127051  0.68342601  1
  O  O22  1  0.17995767  0.73215550  0.68342601  1
  O  O23  1  0.05419768  0.28186115  0.94539832  1
  O  O24  1  0.89120065  0.66353717  0.94539832  1
  O  O25  1  0.71813885  0.10879935  0.05460168  1
  O  O26  1  0.33646283  0.94580232  0.05460168  1
  O  O27  1  0.36157329  0.36157329  0.72314658  1
  O  O28  1  0.63842671  0.63842671  0.27685342  1
  O  O29  1  0.82648002  0.82648002  0.65296005  1
  O  O30  1  0.17351998  0.17351998  0.34703995  1
  O  O31  1  -0.00000000  0.00000000  -0.00000000  1
  O  O32  1  0.13871392  0.06394480  0.65392444  1
  O  O33  1  0.51521052  0.58997965  0.65392444  1
  O  O34  1  0.93605520  0.48478948  0.34607556  1
  O  O35  1  0.41002035  0.86128608  0.34607556  1
  O  O36  1  0.98386266  0.39567967  0.64030807  1
  O  O37  1  0.65644541  0.24462841  0.64030807  1
  O  O38  1  0.60432033  0.34355459  0.35969193  1
  O  O39  1  0.75537159  0.01613734  0.35969193  1
