# generated using pymatgen
data_Ca9Mn(PO4)7
_symmetry_space_group_name_H-M   'P 1'
_cell_length_a   10.45557145
_cell_length_b   10.45557145
_cell_length_c   13.91632296
_cell_angle_alpha   67.93497936
_cell_angle_beta   67.93497936
_cell_angle_gamma   59.99999665
_symmetry_Int_Tables_number   1
_chemical_formula_structural   Ca9Mn(PO4)7
_chemical_formula_sum   'Ca18 Mn2 P14 O56'
_cell_volume   1187.09677224
_cell_formula_units_Z   2
loop_
 _symmetry_equiv_pos_site_id
 _symmetry_equiv_pos_as_xyz
  1  'x, y, z'
loop_
 _atom_site_type_symbol
 _atom_site_label
 _atom_site_symmetry_multiplicity
 _atom_site_fract_x
 _atom_site_fract_y
 _atom_site_fract_z
 _atom_site_occupancy
  Ca  Ca0  1  0.96715428  0.52612846  0.51560139  1
  Ca  Ca1  1  0.52612846  0.99111588  0.51560139  1
  Ca  Ca2  1  0.99111588  0.96715428  0.51560139  1
  Ca  Ca3  1  0.46715428  0.49111588  0.01560139  1
  Ca  Ca4  1  0.49111588  0.02612846  0.01560139  1
  Ca  Ca5  1  0.02612846  0.46715428  0.01560139  1
  Ca  Ca6  1  0.07042979  0.64910312  0.19777041  1
  Ca  Ca7  1  0.64910312  0.08269668  0.19777041  1
  Ca  Ca8  1  0.08269668  0.07042979  0.19777041  1
  Ca  Ca9  1  0.57042979  0.58269668  0.69777041  1
  Ca  Ca10  1  0.58269668  0.14910312  0.69777041  1
  Ca  Ca11  1  0.14910312  0.57042979  0.69777041  1
  Ca  Ca12  1  0.93711896  0.34906447  0.80487803  1
  Ca  Ca13  1  0.34906447  0.90893854  0.80487803  1
  Ca  Ca14  1  0.90893854  0.93711896  0.80487803  1
  Ca  Ca15  1  0.43711896  0.40893854  0.30487803  1
  Ca  Ca16  1  0.40893854  0.84906447  0.30487803  1
  Ca  Ca17  1  0.84906447  0.43711896  0.30487803  1
  Mn  Mn18  1  0.49947000  0.49947000  0.50158999  1
  Mn  Mn19  1  0.99947000  0.99947000  0.00158999  1
  P  P20  1  0.74410639  0.74410639  0.76768082  1
  P  P21  1  0.24410639  0.24410639  0.26768082  1
  P  P22  1  0.80948805  0.31753496  0.09433871  1
  P  P23  1  0.31753496  0.77863828  0.09433871  1
  P  P24  1  0.77863828  0.80948805  0.09433871  1
  P  P25  1  0.30948805  0.27863828  0.59433871  1
  P  P26  1  0.27863828  0.81753496  0.59433871  1
  P  P27  1  0.81753496  0.30948805  0.59433871  1
  P  P28  1  0.72540741  0.17934990  0.40338811  1
  P  P29  1  0.17934990  0.69185457  0.40338811  1
  P  P30  1  0.69185457  0.72540741  0.40338811  1
  P  P31  1  0.22540741  0.19185457  0.90338811  1
  P  P32  1  0.19185457  0.67934990  0.90338811  1
  P  P33  1  0.67934990  0.22540741  0.90338811  1
  O  O34  1  0.86299263  0.38935077  0.97730361  1
  O  O35  1  0.38935077  0.77035299  0.97730361  1
  O  O36  1  0.77035299  0.86299263  0.97730361  1
  O  O37  1  0.36299263  0.27035299  0.47730361  1
  O  O38  1  0.27035299  0.88935077  0.47730361  1
  O  O39  1  0.88935077  0.36299263  0.47730361  1
  O  O40  1  0.63538631  0.37547964  0.13410633  1
  O  O41  1  0.37547964  0.85502773  0.13410633  1
  O  O42  1  0.85502773  0.63538631  0.13410633  1
  O  O43  1  0.13538631  0.35502773  0.63410633  1
  O  O44  1  0.35502773  0.87547964  0.63410633  1
  O  O45  1  0.87547964  0.13538631  0.63410633  1
  O  O46  1  0.88420141  0.34068356  0.16094072  1
  O  O47  1  0.34068356  0.61417431  0.16094072  1
  O  O48  1  0.61417431  0.88420141  0.16094072  1
  O  O49  1  0.38420141  0.11417431  0.66094072  1
  O  O50  1  0.11417431  0.84068356  0.66094072  1
  O  O51  1  0.84068356  0.38420141  0.66094072  1
  O  O52  1  0.87552572  0.13886301  0.11251345  1
  O  O53  1  0.13886301  0.87309782  0.11251345  1
  O  O54  1  0.87309782  0.87552572  0.11251345  1
  O  O55  1  0.37552572  0.37309782  0.61251345  1
  O  O56  1  0.37309782  0.63886301  0.61251345  1
  O  O57  1  0.63886301  0.37552572  0.61251345  1
  O  O58  1  0.70006345  0.08852872  0.52142458  1
  O  O59  1  0.08852872  0.68998325  0.52142458  1
  O  O60  1  0.68998325  0.70006345  0.52142458  1
  O  O61  1  0.20006345  0.18998325  0.02142458  1
  O  O62  1  0.18998325  0.58852872  0.02142458  1
  O  O63  1  0.58852872  0.20006345  0.02142458  1
  O  O64  1  0.89673620  0.14440165  0.36231506  1
  O  O65  1  0.14440165  0.59654709  0.36231506  1
  O  O66  1  0.59654709  0.89673620  0.36231506  1
  O  O67  1  0.39673620  0.09654709  0.86231506  1
  O  O68  1  0.09654709  0.64440165  0.86231506  1
  O  O69  1  0.64440165  0.39673620  0.86231506  1
  O  O70  1  0.66318226  0.13653329  0.34136948  1
  O  O71  1  0.13653329  0.85891497  0.34136948  1
  O  O72  1  0.85891497  0.66318226  0.34136948  1
  O  O73  1  0.16318226  0.35891497  0.84136948  1
  O  O74  1  0.35891497  0.63653329  0.84136948  1
  O  O75  1  0.63653329  0.16318226  0.84136948  1
  O  O76  1  0.63670795  0.35665468  0.39107114  1
  O  O77  1  0.35665468  0.61556623  0.39107114  1
  O  O78  1  0.61556623  0.63670795  0.39107114  1
  O  O79  1  0.13670795  0.11556623  0.89107114  1
  O  O80  1  0.11556623  0.85665468  0.89107114  1
  O  O81  1  0.85665468  0.13670795  0.89107114  1
  O  O82  1  0.70353746  0.70353746  0.88938762  1
  O  O83  1  0.20353746  0.20353746  0.38938762  1
  O  O84  1  0.60912289  0.77640711  0.72526285  1
  O  O85  1  0.77640711  0.88920715  0.72526285  1
  O  O86  1  0.88920715  0.60912289  0.72526285  1
  O  O87  1  0.10912289  0.38920715  0.22526285  1
  O  O88  1  0.38920715  0.27640711  0.22526285  1
  O  O89  1  0.27640711  0.10912289  0.22526285  1
