# generated using pymatgen
data_Ni5Ge2
_symmetry_space_group_name_H-M   'P 1'
_cell_length_a   6.79892452
_cell_length_b   6.79751577
_cell_length_c   12.44988566
_cell_angle_alpha   90.00000000
_cell_angle_beta   90.00000000
_cell_angle_gamma   120.00685606
_symmetry_Int_Tables_number   1
_chemical_formula_structural   Ni5Ge2
_chemical_formula_sum   'Ni30 Ge12'
_cell_volume   498.26046662
_cell_formula_units_Z   6
loop_
 _symmetry_equiv_pos_site_id
 _symmetry_equiv_pos_as_xyz
  1  'x, y, z'
loop_
 _atom_site_type_symbol
 _atom_site_label
 _atom_site_symmetry_multiplicity
 _atom_site_fract_x
 _atom_site_fract_y
 _atom_site_fract_z
 _atom_site_occupancy
  Ni  Ni0  1  0.00002047  0.00000000  0.57163644  1
  Ni  Ni1  1  0.99997953  1.00000000  0.07163644  1
  Ni  Ni2  1  0.66667074  0.33330597  0.42726061  1
  Ni  Ni3  1  0.33336477  0.66669403  0.42726061  1
  Ni  Ni4  1  0.33332926  0.66669403  0.92726061  1
  Ni  Ni5  1  0.66663523  0.33330597  0.92726061  1
  Ni  Ni6  1  0.73520752  1.00000000  0.40333292  1
  Ni  Ni7  1  0.26496354  0.26497068  0.40330010  1
  Ni  Ni8  1  0.99999287  0.73502932  0.40330010  1
  Ni  Ni9  1  0.26479248  0.00000000  0.90333292  1
  Ni  Ni10  1  0.73503646  0.73502932  0.90330010  1
  Ni  Ni11  1  0.00000713  0.26497068  0.90330010  1
  Ni  Ni12  1  0.37376380  1.00000000  0.30753340  1
  Ni  Ni13  1  0.62623997  0.62616321  0.30752916  1
  Ni  Ni14  1  0.00007676  0.37383679  0.30752916  1
  Ni  Ni15  1  0.62623620  0.00000000  0.80753340  1
  Ni  Ni16  1  0.37376003  0.37383679  0.80752916  1
  Ni  Ni17  1  0.99992324  0.62616321  0.80752916  1
  Ni  Ni18  1  0.69173078  1.00000000  0.19574126  1
  Ni  Ni19  1  0.30825493  0.30823847  0.19575260  1
  Ni  Ni20  1  0.00001647  0.69176153  0.19575260  1
  Ni  Ni21  1  0.30826922  0.00000000  0.69574126  1
  Ni  Ni22  1  0.69174507  0.69176153  0.69575260  1
  Ni  Ni23  1  0.99998353  0.30823847  0.69575260  1
  Ni  Ni24  1  0.36713344  1.00000000  0.09830348  1
  Ni  Ni25  1  0.63288832  0.63286371  0.09831445  1
  Ni  Ni26  1  0.00002461  0.36713629  0.09831445  1
  Ni  Ni27  1  0.63286656  0.00000000  0.59830348  1
  Ni  Ni28  1  0.36711168  0.36713629  0.59831445  1
  Ni  Ni29  1  0.99997539  0.63286371  0.59831445  1
  Ge  Ge30  1  0.99995562  -0.00000000  0.27519846  1
  Ge  Ge31  1  0.00004438  0.00000000  0.77519846  1
  Ge  Ge32  1  0.66669466  0.33335319  0.22084391  1
  Ge  Ge33  1  0.33334147  0.66664681  0.22084391  1
  Ge  Ge34  1  0.33330534  0.66664681  0.72084391  1
  Ge  Ge35  1  0.66665853  0.33335319  0.72084391  1
  Ge  Ge36  1  0.33445542  1.00000000  0.50308808  1
  Ge  Ge37  1  0.66550133  0.66546414  0.50308214  1
  Ge  Ge38  1  0.00003719  0.33453586  0.50308214  1
  Ge  Ge39  1  0.66554458  0.00000000  0.00308808  1
  Ge  Ge40  1  0.33449867  0.33453586  0.00308214  1
  Ge  Ge41  1  0.99996281  0.66546414  0.00308214  1
