# generated using pymatgen
data_NaSbF6
_symmetry_space_group_name_H-M   'P 1'
_cell_length_a   8.34124292
_cell_length_b   8.34124292
_cell_length_c   8.34124292
_cell_angle_alpha   90.00000000
_cell_angle_beta   90.00000000
_cell_angle_gamma   90.00000000
_symmetry_Int_Tables_number   1
_chemical_formula_structural   NaSbF6
_chemical_formula_sum   'Na4 Sb4 F24'
_cell_volume   580.35309879
_cell_formula_units_Z   4
loop_
 _symmetry_equiv_pos_site_id
 _symmetry_equiv_pos_as_xyz
  1  'x, y, z'
loop_
 _atom_site_type_symbol
 _atom_site_label
 _atom_site_symmetry_multiplicity
 _atom_site_fract_x
 _atom_site_fract_y
 _atom_site_fract_z
 _atom_site_occupancy
  Na  Na0  1  0.00000000  0.00000000  0.50000000  1
  Na  Na1  1  0.00000000  0.50000000  0.00000000  1
  Na  Na2  1  0.50000000  0.00000000  0.00000000  1
  Na  Na3  1  0.50000000  0.50000000  0.50000000  1
  Sb  Sb4  1  0.50000000  0.50000000  0.00000000  1
  Sb  Sb5  1  0.50000000  0.00000000  0.50000000  1
  Sb  Sb6  1  0.00000000  0.50000000  0.50000000  1
  Sb  Sb7  1  0.00000000  0.00000000  0.00000000  1
  F  F8  1  0.27680936  0.46430599  0.04095716  1
  F  F9  1  0.72319064  0.96430599  0.45904284  1
  F  F10  1  0.22319064  0.53569401  0.54095716  1
  F  F11  1  0.77680936  0.03569401  0.95904284  1
  F  F12  1  0.04095716  0.27680936  0.46430599  1
  F  F13  1  0.45904284  0.72319064  0.96430599  1
  F  F14  1  0.54095716  0.22319064  0.53569401  1
  F  F15  1  0.95904284  0.77680936  0.03569401  1
  F  F16  1  0.46430599  0.04095716  0.27680936  1
  F  F17  1  0.96430599  0.45904284  0.72319064  1
  F  F18  1  0.53569401  0.54095716  0.22319064  1
  F  F19  1  0.03569401  0.95904284  0.77680936  1
  F  F20  1  0.72319064  0.53569401  0.95904284  1
  F  F21  1  0.27680936  0.03569401  0.54095716  1
  F  F22  1  0.77680936  0.46430599  0.45904284  1
  F  F23  1  0.22319064  0.96430599  0.04095716  1
  F  F24  1  0.95904284  0.72319064  0.53569401  1
  F  F25  1  0.54095716  0.27680936  0.03569401  1
  F  F26  1  0.45904284  0.77680936  0.46430599  1
  F  F27  1  0.04095716  0.22319064  0.96430599  1
  F  F28  1  0.53569401  0.95904284  0.72319064  1
  F  F29  1  0.03569401  0.54095716  0.27680936  1
  F  F30  1  0.46430599  0.45904284  0.77680936  1
  F  F31  1  0.96430599  0.04095716  0.22319064  1
