# generated using pymatgen
data_CsLi(B3O5)2
_symmetry_space_group_name_H-M   'P 1'
_cell_length_a   9.25537387
_cell_length_b   10.54246751
_cell_length_c   10.56470528
_cell_angle_alpha   90.00000000
_cell_angle_beta   90.00000000
_cell_angle_gamma   90.00000000
_symmetry_Int_Tables_number   1
_chemical_formula_structural   CsLi(B3O5)2
_chemical_formula_sum   'Cs4 Li4 B24 O40'
_cell_volume   1030.84560627
_cell_formula_units_Z   4
loop_
 _symmetry_equiv_pos_site_id
 _symmetry_equiv_pos_as_xyz
  1  'x, y, z'
loop_
 _atom_site_type_symbol
 _atom_site_label
 _atom_site_symmetry_multiplicity
 _atom_site_fract_x
 _atom_site_fract_y
 _atom_site_fract_z
 _atom_site_occupancy
  Cs  Cs0  1  0.37691798  0.24720569  0.25270536  1
  Cs  Cs1  1  0.62308202  0.24720569  0.74729464  1
  Cs  Cs2  1  0.87691798  0.75279431  0.74729464  1
  Cs  Cs3  1  0.12308202  0.75279431  0.25270536  1
  Li  Li4  1  0.88094682  0.24907951  0.25097612  1
  Li  Li5  1  0.11905318  0.24907951  0.74902388  1
  Li  Li6  1  0.38094682  0.75092049  0.74902388  1
  Li  Li7  1  0.61905318  0.75092049  0.25097612  1
  B  B8  1  0.93542459  0.01836613  0.09986425  1
  B  B9  1  0.06457541  0.01836613  0.90013575  1
  B  B10  1  0.43542459  0.98163387  0.90013575  1
  B  B11  1  0.56457541  0.98163387  0.09986425  1
  B  B12  1  0.75000000  0.50000000  0.22806508  1
  B  B13  1  0.25000000  0.50000000  0.77193492  1
  B  B14  1  -0.00000000  0.27149536  0.50000000  1
  B  B15  1  0.50000000  0.72850464  0.50000000  1
  B  B16  1  -0.00000000  0.22795564  -0.00000000  1
  B  B17  1  0.50000000  0.77204436  -0.00000000  1
  B  B18  1  0.75000000  0.00000000  0.27084075  1
  B  B19  1  0.25000000  0.00000000  0.72915925  1
  B  B20  1  0.18477183  0.09993897  0.52039580  1
  B  B21  1  0.81522817  0.09993897  0.47960420  1
  B  B22  1  0.68477183  0.90006103  0.47960420  1
  B  B23  1  0.31522817  0.90006103  0.52039580  1
  B  B24  1  0.56451421  0.51929758  0.39965268  1
  B  B25  1  0.43548579  0.51929758  0.60034732  1
  B  B26  1  0.06451421  0.48070242  0.60034732  1
  B  B27  1  0.93548579  0.48070242  0.39965268  1
  B  B28  1  0.81466811  0.39978231  0.01952090  1
  B  B29  1  0.18533189  0.39978231  0.98047910  1
  B  B30  1  0.31466811  0.60021769  0.98047910  1
  B  B31  1  0.68533189  0.60021769  0.01952090  1
  O  O32  1  0.11674503  0.18991360  0.44971414  1
  O  O33  1  0.88325497  0.18991360  0.55028586  1
  O  O34  1  0.61674503  0.81008640  0.55028586  1
  O  O35  1  0.38325497  0.81008640  0.44971414  1
  O  O36  1  0.11686742  0.30911431  0.05062958  1
  O  O37  1  0.88313258  0.30911431  0.94937042  1
  O  O38  1  0.61686742  0.69088569  0.94937042  1
  O  O39  1  0.38313258  0.69088569  0.05062958  1
  O  O40  1  0.94781443  0.35092369  0.39399425  1
  O  O41  1  0.05218557  0.35092369  0.60600575  1
  O  O42  1  0.44781443  0.64907631  0.60600575  1
  O  O43  1  0.55218557  0.64907631  0.39399425  1
  O  O44  1  0.63292716  0.44944497  0.30958104  1
  O  O45  1  0.36707284  0.44944497  0.69041896  1
  O  O46  1  0.13292716  0.55055503  0.69041896  1
  O  O47  1  0.86707284  0.55055503  0.30958104  1
  O  O48  1  0.94803092  0.14800723  0.10602970  1
  O  O49  1  0.05196908  0.14800723  0.89397030  1
  O  O50  1  0.44803092  0.85199277  0.89397030  1
  O  O51  1  0.55196908  0.85199277  0.10602970  1
  O  O52  1  0.80417274  0.10579054  0.35031217  1
  O  O53  1  0.19582726  0.10579054  0.64968783  1
  O  O54  1  0.30417274  0.89420946  0.64968783  1
  O  O55  1  0.69582726  0.89420946  0.35031217  1
  O  O56  1  0.63343702  0.05145404  0.18999939  1
  O  O57  1  0.36656298  0.05145404  0.81000061  1
  O  O58  1  0.13343702  0.94854596  0.81000061  1
  O  O59  1  0.86656298  0.94854596  0.18999939  1
  O  O60  1  0.80365096  0.39386062  0.14891562  1
  O  O61  1  0.19634904  0.39386062  0.85108438  1
  O  O62  1  0.30365096  0.60613938  0.85108438  1
  O  O63  1  0.69634904  0.60613938  0.14891562  1
  O  O64  1  0.25000000  0.00000000  0.45389201  1
  O  O65  1  0.75000000  0.00000000  0.54610799  1
  O  O66  1  0.00000000  0.95141245  -0.00000000  1
  O  O67  1  0.50000000  0.04858755  -0.00000000  1
  O  O68  1  0.50000000  0.45271240  0.50000000  1
  O  O69  1  0.00000000  0.54728760  0.50000000  1
  O  O70  1  0.75000000  0.50000000  0.95294203  1
  O  O71  1  0.25000000  0.50000000  0.04705797  1
