# generated using pymatgen
data_CoPH6NO5
_symmetry_space_group_name_H-M   'P 1'
_cell_length_a   4.83659560
_cell_length_b   5.65746209
_cell_length_c   17.82464422
_cell_angle_alpha   90.00000000
_cell_angle_beta   90.00000000
_cell_angle_gamma   90.00000000
_symmetry_Int_Tables_number   1
_chemical_formula_structural   CoPH6NO5
_chemical_formula_sum   'Co4 P4 H24 N4 O20'
_cell_volume   487.73317753
_cell_formula_units_Z   4
loop_
 _symmetry_equiv_pos_site_id
 _symmetry_equiv_pos_as_xyz
  1  'x, y, z'
loop_
 _atom_site_type_symbol
 _atom_site_label
 _atom_site_symmetry_multiplicity
 _atom_site_fract_x
 _atom_site_fract_y
 _atom_site_fract_z
 _atom_site_occupancy
  Co  Co0  1  0.61502732  0.75000000  0.26129816  1
  Co  Co1  1  0.88497268  0.75000000  0.76129816  1
  Co  Co2  1  0.38497268  0.25000000  0.73870184  1
  Co  Co3  1  0.11502732  0.25000000  0.23870184  1
  P  P4  1  0.17995162  0.75000000  0.15393347  1
  P  P5  1  0.32004838  0.75000000  0.65393347  1
  P  P6  1  0.82004838  0.25000000  0.84606653  1
  P  P7  1  0.67995162  0.25000000  0.34606653  1
  H  H8  1  0.19935175  0.88909158  0.34865840  1
  H  H9  1  0.30064825  0.61090842  0.84865840  1
  H  H10  1  0.80064825  0.38909158  0.65134160  1
  H  H11  1  0.69935175  0.11090842  0.15134160  1
  H  H12  1  0.80064825  0.11090842  0.65134160  1
  H  H13  1  0.69935175  0.38909158  0.15134160  1
  H  H14  1  0.19935175  0.61090842  0.34865840  1
  H  H15  1  0.30064825  0.88909158  0.84865840  1
  H  H16  1  0.92195284  0.75000000  0.01942306  1
  H  H17  1  0.57804716  0.75000000  0.51942306  1
  H  H18  1  0.07804716  0.25000000  0.98057694  1
  H  H19  1  0.42195284  0.25000000  0.48057694  1
  H  H20  1  0.56564110  0.75000000  0.02107563  1
  H  H21  1  0.93435890  0.75000000  0.52107563  1
  H  H22  1  0.43435890  0.25000000  0.97892437  1
  H  H23  1  0.06564110  0.25000000  0.47892437  1
  H  H24  1  0.74253149  0.90084048  0.95336730  1
  H  H25  1  0.75746851  0.59915952  0.45336730  1
  H  H26  1  0.25746851  0.40084048  0.04663270  1
  H  H27  1  0.24253149  0.09915952  0.54663270  1
  H  H28  1  0.25746851  0.09915952  0.04663270  1
  H  H29  1  0.24253149  0.40084048  0.54663270  1
  H  H30  1  0.74253149  0.59915952  0.95336730  1
  H  H31  1  0.75746851  0.90084048  0.45336730  1
  N  N32  1  0.74162429  0.75000000  0.98630150  1
  N  N33  1  0.75837571  0.75000000  0.48630150  1
  N  N34  1  0.25837571  0.25000000  0.01369850  1
  N  N35  1  0.24162429  0.25000000  0.51369850  1
  O  O36  1  0.31909299  0.75000000  0.35518149  1
  O  O37  1  0.18090701  0.75000000  0.85518149  1
  O  O38  1  0.68090701  0.25000000  0.64481851  1
  O  O39  1  0.81909299  0.25000000  0.14481851  1
  O  O40  1  0.86756224  0.75000000  0.16566323  1
  O  O41  1  0.63243776  0.75000000  0.66566323  1
  O  O42  1  0.13243776  0.25000000  0.83433677  1
  O  O43  1  0.36756224  0.25000000  0.33433677  1
  O  O44  1  0.32505070  0.96800740  0.19299117  1
  O  O45  1  0.17494930  0.53199260  0.69299117  1
  O  O46  1  0.67494930  0.46800740  0.80700883  1
  O  O47  1  0.82505070  0.03199260  0.30700883  1
  O  O48  1  0.67494930  0.03199260  0.80700883  1
  O  O49  1  0.82505070  0.46800740  0.30700883  1
  O  O50  1  0.32505070  0.53199260  0.19299117  1
  O  O51  1  0.17494930  0.96800740  0.69299117  1
  O  O52  1  0.24322380  0.75000000  0.06821970  1
  O  O53  1  0.25677620  0.75000000  0.56821970  1
  O  O54  1  0.75677620  0.25000000  0.93178030  1
  O  O55  1  0.74322380  0.25000000  0.43178030  1
