# generated using pymatgen
data_Zn2CuSbO6
_symmetry_space_group_name_H-M   'P 1'
_cell_length_a   5.45821271
_cell_length_b   5.39111276
_cell_length_c   7.52855126
_cell_angle_alpha   90.00000000
_cell_angle_beta   90.00000000
_cell_angle_gamma   98.91703642
_symmetry_Int_Tables_number   1
_chemical_formula_structural   Zn2CuSbO6
_chemical_formula_sum   'Zn4 Cu2 Sb2 O12'
_cell_volume   218.85644686
_cell_formula_units_Z   2
loop_
 _symmetry_equiv_pos_site_id
 _symmetry_equiv_pos_as_xyz
  1  'x, y, z'
loop_
 _atom_site_type_symbol
 _atom_site_label
 _atom_site_symmetry_multiplicity
 _atom_site_fract_x
 _atom_site_fract_y
 _atom_site_fract_z
 _atom_site_occupancy
  Zn  Zn0  1  0.53133575  0.56258644  0.75000000  1
  Zn  Zn1  1  0.46866425  0.43741356  0.25000000  1
  Zn  Zn2  1  0.06153580  0.01729242  0.75000000  1
  Zn  Zn3  1  0.93846420  0.98270758  0.25000000  1
  Cu  Cu4  1  0.50000000  0.00000000  0.50000000  1
  Cu  Cu5  1  0.50000000  0.00000000  0.00000000  1
  Sb  Sb6  1  0.00000000  0.50000000  0.50000000  1
  Sb  Sb7  1  0.00000000  0.50000000  0.00000000  1
  O  O8  1  0.34565692  0.67629956  0.44240686  1
  O  O9  1  0.14162279  0.20393966  0.07376235  1
  O  O10  1  0.65434308  0.32370044  0.94240686  1
  O  O11  1  0.85837721  0.79606034  0.57376235  1
  O  O12  1  0.14162279  0.20393966  0.42623765  1
  O  O13  1  0.85837721  0.79606034  0.92623765  1
  O  O14  1  0.87508547  0.59470447  0.25000000  1
  O  O15  1  0.34565692  0.67629956  0.05759314  1
  O  O16  1  0.40706264  0.91398048  0.75000000  1
  O  O17  1  0.65434308  0.32370044  0.55759314  1
  O  O18  1  0.12491453  0.40529553  0.75000000  1
  O  O19  1  0.59293736  0.08601952  0.25000000  1
