# generated using pymatgen
data_Nd2(SeO4)3
_symmetry_space_group_name_H-M   'P 1'
_cell_length_a   7.25349994
_cell_length_b   7.25349994
_cell_length_c   13.49026138
_cell_angle_alpha   76.35341724
_cell_angle_beta   76.35341724
_cell_angle_gamma   60.26617820
_symmetry_Int_Tables_number   1
_chemical_formula_structural   Nd2(SeO4)3
_chemical_formula_sum   'Nd4 Se6 O24'
_cell_volume   592.94191989
_cell_formula_units_Z   2
loop_
 _symmetry_equiv_pos_site_id
 _symmetry_equiv_pos_as_xyz
  1  'x, y, z'
loop_
 _atom_site_type_symbol
 _atom_site_label
 _atom_site_symmetry_multiplicity
 _atom_site_fract_x
 _atom_site_fract_y
 _atom_site_fract_z
 _atom_site_occupancy
  Nd  Nd0  1  0.29186044  0.29886632  0.17503291  1
  Nd  Nd1  1  0.70113368  0.70813956  0.32496709  1
  Nd  Nd2  1  0.70813956  0.70113368  0.82496709  1
  Nd  Nd3  1  0.29886632  0.29186044  0.67503291  1
  Se  Se4  1  0.22753673  0.17655375  0.43756356  1
  Se  Se5  1  0.82344625  0.77246327  0.06243644  1
  Se  Se6  1  0.77246327  0.82344625  0.56243644  1
  Se  Se7  1  0.17655375  0.22753673  0.93756356  1
  Se  Se8  1  0.17273448  0.82726552  0.25000000  1
  Se  Se9  1  0.82726552  0.17273448  0.75000000  1
  O  O10  1  0.44017552  0.08901491  0.33768596  1
  O  O11  1  0.91098509  0.55982448  0.16231404  1
  O  O12  1  0.55982448  0.91098509  0.66231404  1
  O  O13  1  0.08901491  0.44017552  0.83768596  1
  O  O14  1  0.05267237  0.38428641  0.35276155  1
  O  O15  1  0.61571359  0.94732763  0.14723845  1
  O  O16  1  0.94732763  0.61571359  0.64723845  1
  O  O17  1  0.38428641  0.05267237  0.85276155  1
  O  O18  1  0.30335049  0.30407684  0.49707291  1
  O  O19  1  0.69592316  0.69664951  0.00292709  1
  O  O20  1  0.69664951  0.69592316  0.50292709  1
  O  O21  1  0.30407684  0.30335049  0.99707291  1
  O  O22  1  0.13935481  0.06533939  0.18485580  1
  O  O23  1  0.93466061  0.86064519  0.31514420  1
  O  O24  1  0.86064519  0.93466061  0.81514420  1
  O  O25  1  0.06533939  0.13935481  0.68485580  1
  O  O26  1  0.26336578  0.65001210  0.16794741  1
  O  O27  1  0.34998790  0.73663422  0.33205259  1
  O  O28  1  0.73663422  0.34998790  0.83205259  1
  O  O29  1  0.65001210  0.26336578  0.66794741  1
  O  O30  1  0.66798958  0.23701217  0.10217563  1
  O  O31  1  0.76298783  0.33201042  0.39782437  1
  O  O32  1  0.33201042  0.76298783  0.89782437  1
  O  O33  1  0.23701217  0.66798958  0.60217563  1
