# generated using pymatgen
data_Na2Fe2F7
_symmetry_space_group_name_H-M   'P 1'
_cell_length_a   7.44605888
_cell_length_b   7.44605888
_cell_length_c   25.05289747
_cell_angle_alpha   90.21383738
_cell_angle_beta   98.46998710
_cell_angle_gamma   119.46347876
_symmetry_Int_Tables_number   1
_chemical_formula_structural   Na2Fe2F7
_chemical_formula_sum   'Na16 Fe16 F56'
_cell_volume   1191.50381531
_cell_formula_units_Z   8
loop_
 _symmetry_equiv_pos_site_id
 _symmetry_equiv_pos_as_xyz
  1  'x, y, z'
loop_
 _atom_site_type_symbol
 _atom_site_label
 _atom_site_symmetry_multiplicity
 _atom_site_fract_x
 _atom_site_fract_y
 _atom_site_fract_z
 _atom_site_occupancy
  Na  Na0  1  0.50000000  0.00000000  0.50000000  1
  Na  Na1  1  0.00000000  0.00000000  -0.00000000  1
  Na  Na2  1  0.00000000  0.50000000  0.50000000  1
  Na  Na3  1  0.50000000  0.50000000  -0.00000000  1
  Na  Na4  1  0.00000000  0.50000000  -0.00000000  1
  Na  Na5  1  0.00000000  0.00000000  0.50000000  1
  Na  Na6  1  0.53474336  0.78474336  0.75000000  1
  Na  Na7  1  0.46525664  0.21525664  0.25000000  1
  Na  Na8  1  0.54192641  0.29592843  0.75232103  1
  Na  Na9  1  0.04360740  0.78960538  0.74767897  1
  Na  Na10  1  0.45807359  0.70407157  0.24767897  1
  Na  Na11  1  0.95639260  0.21039462  0.25232103  1
  Na  Na12  1  0.75506758  0.88026260  0.62147668  1
  Na  Na13  1  0.75878592  0.13359090  0.87852332  1
  Na  Na14  1  0.24493242  0.11973740  0.37852332  1
  Na  Na15  1  0.24121408  0.86640910  0.12147668  1
  Fe  Fe16  1  0.25614662  0.38504328  0.62741592  1
  Fe  Fe17  1  0.25762735  0.62873069  0.87258408  1
  Fe  Fe18  1  0.74385338  0.61495672  0.37258408  1
  Fe  Fe19  1  0.74237265  0.37126931  0.12741592  1
  Fe  Fe20  1  0.76040353  0.38680280  0.62551845  1
  Fe  Fe21  1  0.26128435  0.13488508  0.87448155  1
  Fe  Fe22  1  0.23959647  0.61319720  0.37448155  1
  Fe  Fe23  1  0.73871565  0.86511492  0.12551845  1
  Fe  Fe24  1  0.50000000  0.50000000  0.50000000  1
  Fe  Fe25  1  0.50000000  0.00000000  -0.00000000  1
  Fe  Fe26  1  0.99525204  0.24525204  0.75000000  1
  Fe  Fe27  1  0.00474796  0.75474796  0.25000000  1
  Fe  Fe28  1  0.26139722  0.88899516  0.62579111  1
  Fe  Fe29  1  0.76320405  0.63560610  0.87420889  1
  Fe  Fe30  1  0.73860278  0.11100484  0.37420889  1
  Fe  Fe31  1  0.23679595  0.36439390  0.12579111  1
  F  F32  1  0.29305610  0.41884678  0.54708141  1
  F  F33  1  0.37176537  0.74597469  0.95291859  1
  F  F34  1  0.70694390  0.58115322  0.45291859  1
  F  F35  1  0.62823463  0.25402531  0.04708141  1
  F  F36  1  0.23183373  0.36091731  0.70914803  1
  F  F37  1  0.15176928  0.52268570  0.79085197  1
  F  F38  1  0.76816627  0.63908269  0.29085197  1
  F  F39  1  0.84823072  0.47731430  0.20914803  1
  F  F40  1  0.37028779  0.70123332  0.64199185  1
  F  F41  1  0.55924146  0.72829594  0.85800815  1
  F  F42  1  0.62971221  0.29876668  0.35800815  1
  F  F43  1  0.44075854  0.27170406  0.14199185  1
  F  F44  1  0.14345232  0.07150197  0.61044068  1
  F  F45  1  0.96106128  0.53301163  0.88955932  1
  F  F46  1  0.85654768  0.92849803  0.38955932  1
  F  F47  1  0.03893872  0.46698837  0.11044068  1
  F  F48  1  0.68256658  0.42223716  0.54459876  1
  F  F49  1  0.37763840  0.13796782  0.95540124  1
  F  F50  1  0.31743342  0.57776284  0.45540124  1
  F  F51  1  0.62236160  0.86203218  0.04459876  1
  F  F52  1  0.84254394  0.36044405  0.70702748  1
  F  F53  1  0.15341657  0.13551646  0.79297252  1
  F  F54  1  0.15745606  0.63955595  0.29297252  1
  F  F55  1  0.84658343  0.86448354  0.20702748  1
  F  F56  1  0.54140496  0.07464529  0.60897733  1
  F  F57  1  0.96566796  0.93242763  0.89102267  1
  F  F58  1  0.45859504  0.92535471  0.39102267  1
  F  F59  1  0.03433204  0.06757237  0.10897733  1
  F  F60  1  0.98099432  0.69973677  0.64187260  1
  F  F61  1  0.55786417  0.33912172  0.85812740  1
  F  F62  1  0.01900568  0.30026323  0.35812740  1
  F  F63  1  0.44213583  0.66087828  0.14187260  1
  F  F64  1  0.56660005  0.47140055  0.65656013  1
  F  F65  1  0.31484042  0.91003992  0.84343987  1
  F  F66  1  0.43339995  0.52859945  0.34343987  1
  F  F67  1  0.68515958  0.08996008  0.15656013  1
  F  F68  1  0.95111028  0.30264327  0.59304890  1
  F  F69  1  0.20959436  0.35806138  0.90695110  1
  F  F70  1  0.04888972  0.69735673  0.40695110  1
  F  F71  1  0.79040564  0.64193862  0.09304890  1
  F  F72  1  0.66173061  0.79311255  0.53203089  1
  F  F73  1  0.76108166  0.12969972  0.96796911  1
  F  F74  1  0.33826939  0.20688745  0.46796911  1
  F  F75  1  0.23891834  0.87030028  0.03203089  1
  F  F76  1  0.76803457  0.13803927  0.79146218  1
  F  F77  1  0.84657710  0.97657240  0.70853782  1
  F  F78  1  0.23196543  0.86196073  0.20853782  1
  F  F79  1  0.15342290  0.02342760  0.29146218  1
  F  F80  1  0.34499389  0.97458446  0.70408141  1
  F  F81  1  0.77050305  0.64091248  0.79591859  1
  F  F82  1  0.65500611  0.02541554  0.29591859  1
  F  F83  1  0.22949695  0.35908752  0.20408141  1
  F  F84  1  0.18138157  0.81028543  0.54698717  1
  F  F85  1  0.76329826  0.63439439  0.95301283  1
  F  F86  1  0.81861843  0.18971457  0.45301283  1
  F  F87  1  0.23670174  0.36560561  0.04698717  1
