# generated using pymatgen
data_Rb9Al(HO2)4
_symmetry_space_group_name_H-M   'P 1'
_cell_length_a   7.09500313
_cell_length_b   13.22176846
_cell_length_c   19.80013068
_cell_angle_alpha   89.95951935
_cell_angle_beta   90.00000000
_cell_angle_gamma   90.00000000
_symmetry_Int_Tables_number   1
_chemical_formula_structural   Rb9Al(HO2)4
_chemical_formula_sum   'Rb36 Al4 H16 O32'
_cell_volume   1857.41987039
_cell_formula_units_Z   4
loop_
 _symmetry_equiv_pos_site_id
 _symmetry_equiv_pos_as_xyz
  1  'x, y, z'
loop_
 _atom_site_type_symbol
 _atom_site_label
 _atom_site_symmetry_multiplicity
 _atom_site_fract_x
 _atom_site_fract_y
 _atom_site_fract_z
 _atom_site_occupancy
  Rb  Rb0  1  0.75086389  0.96094552  0.00101151  1
  Rb  Rb1  1  0.25086389  0.03905448  0.49898849  1
  Rb  Rb2  1  0.24913611  0.03905448  0.99898849  1
  Rb  Rb3  1  0.74913611  0.96094552  0.50101151  1
  Rb  Rb4  1  0.86827438  0.96051365  0.16576265  1
  Rb  Rb5  1  0.36827438  0.03948635  0.33423735  1
  Rb  Rb6  1  0.13172562  0.03948635  0.83423735  1
  Rb  Rb7  1  0.63172562  0.96051365  0.66576265  1
  Rb  Rb8  1  0.17156041  0.74456738  0.30458785  1
  Rb  Rb9  1  0.67156041  0.25543262  0.19541215  1
  Rb  Rb10  1  0.82843959  0.25543262  0.69541215  1
  Rb  Rb11  1  0.32843959  0.74456738  0.80458785  1
  Rb  Rb12  1  0.11510132  0.76669926  0.49829122  1
  Rb  Rb13  1  0.61510132  0.23330074  0.00170878  1
  Rb  Rb14  1  0.88489868  0.23330074  0.50170878  1
  Rb  Rb15  1  0.38489868  0.76669926  0.99829122  1
  Rb  Rb16  1  0.59274761  0.71992802  0.40987401  1
  Rb  Rb17  1  0.09274761  0.28007198  0.09012599  1
  Rb  Rb18  1  0.40725239  0.28007198  0.59012599  1
  Rb  Rb19  1  0.90725239  0.71992802  0.90987401  1
  Rb  Rb20  1  0.70368583  0.67041752  0.21219765  1
  Rb  Rb21  1  0.20368583  0.32958248  0.28780235  1
  Rb  Rb22  1  0.29631417  0.32958248  0.78780235  1
  Rb  Rb23  1  0.79631417  0.67041752  0.71219765  1
  Rb  Rb24  1  0.78064193  0.51929433  0.04785843  1
  Rb  Rb25  1  0.28064193  0.48070567  0.45214157  1
  Rb  Rb26  1  0.21935807  0.48070567  0.95214157  1
  Rb  Rb27  1  0.71935807  0.51929433  0.54785843  1
  Rb  Rb28  1  0.73235214  0.43549481  0.34742377  1
  Rb  Rb29  1  0.23235214  0.56450519  0.15257623  1
  Rb  Rb30  1  0.26764786  0.56450519  0.65257623  1
  Rb  Rb31  1  0.76764786  0.43549481  0.84742377  1
  Rb  Rb32  1  0.86575137  0.12463845  0.34717385  1
  Rb  Rb33  1  0.36575137  0.87536155  0.15282615  1
  Rb  Rb34  1  0.13424863  0.87536155  0.65282615  1
  Rb  Rb35  1  0.63424863  0.12463845  0.84717385  1
  Al  Al36  1  0.97316674  0.75631363  0.08492043  1
  Al  Al37  1  0.47316674  0.24368637  0.41507957  1
  Al  Al38  1  0.02683326  0.24368637  0.91507957  1
  Al  Al39  1  0.52683326  0.75631363  0.58492043  1
  H  H40  1  0.94022374  0.89946355  0.36653718  1
  H  H41  1  0.44022374  0.10053645  0.13346282  1
  H  H42  1  0.05977626  0.10053645  0.63346282  1
  H  H43  1  0.55977626  0.89946355  0.86653718  1
  H  H44  1  0.66691808  0.86093860  0.27195228  1
  H  H45  1  0.16691808  0.13906140  0.22804772  1
  H  H46  1  0.33308192  0.13906140  0.72804772  1
  H  H47  1  0.83308192  0.86093860  0.77195228  1
  H  H48  1  0.96390589  0.61394540  0.43686473  1
  H  H49  1  0.46390589  0.38605460  0.06313527  1
  H  H50  1  0.03609411  0.38605460  0.56313527  1
  H  H51  1  0.53609411  0.61394540  0.93686473  1
  H  H52  1  0.82866240  0.45912071  0.20063976  1
  H  H53  1  0.32866240  0.54087929  0.29936024  1
  H  H54  1  0.17133760  0.54087929  0.79936024  1
  H  H55  1  0.67133760  0.45912071  0.70063976  1
  O  O56  1  0.07090130  0.87391480  0.05319838  1
  O  O57  1  0.57090130  0.12608520  0.44680162  1
  O  O58  1  0.92909870  0.12608520  0.94680162  1
  O  O59  1  0.42909870  0.87391480  0.55319838  1
  O  O60  1  0.71637727  0.75692329  0.08072041  1
  O  O61  1  0.21637727  0.24307671  0.41927959  1
  O  O62  1  0.28362273  0.24307671  0.91927959  1
  O  O63  1  0.78362273  0.75692329  0.58072041  1
  O  O64  1  0.04343335  0.74960120  0.17397010  1
  O  O65  1  0.54343335  0.25039880  0.32602990  1
  O  O66  1  0.95656665  0.25039880  0.82602990  1
  O  O67  1  0.45656665  0.74960120  0.67397010  1
  O  O68  1  0.57268411  0.34881620  0.46322927  1
  O  O69  1  0.07268411  0.65118380  0.03677073  1
  O  O70  1  0.42731589  0.65118380  0.53677073  1
  O  O71  1  0.92731589  0.34881620  0.96322927  1
  O  O72  1  0.04526050  0.92571159  0.39295896  1
  O  O73  1  0.54526050  0.07428841  0.10704104  1
  O  O74  1  0.95473950  0.07428841  0.60704104  1
  O  O75  1  0.45473950  0.92571159  0.89295896  1
  O  O76  1  0.53529081  0.85871890  0.28580645  1
  O  O77  1  0.03529081  0.14128110  0.21419355  1
  O  O78  1  0.46470919  0.14128110  0.71419355  1
  O  O79  1  0.96470919  0.85871890  0.78580645  1
  O  O80  1  0.94197392  0.61168547  0.38843669  1
  O  O81  1  0.44197392  0.38831453  0.11156331  1
  O  O82  1  0.05802608  0.38831453  0.61156331  1
  O  O83  1  0.55802608  0.61168547  0.88843669  1
  O  O84  1  0.94457099  0.42565088  0.18777135  1
  O  O85  1  0.44457099  0.57434912  0.31222865  1
  O  O86  1  0.05542901  0.57434912  0.81222865  1
  O  O87  1  0.55542901  0.42565088  0.68777135  1
