# generated using pymatgen
data_KYb2Cd2Sb3
_symmetry_space_group_name_H-M   'P 1'
_cell_length_a   4.86102622
_cell_length_b   12.34525843
_cell_length_c   15.90888245
_cell_angle_alpha   90.00000000
_cell_angle_beta   90.00000000
_cell_angle_gamma   90.00000000
_symmetry_Int_Tables_number   1
_chemical_formula_structural   KYb2Cd2Sb3
_chemical_formula_sum   'K4 Yb8 Cd8 Sb12'
_cell_volume   954.70197762
_cell_formula_units_Z   4
loop_
 _symmetry_equiv_pos_site_id
 _symmetry_equiv_pos_as_xyz
  1  'x, y, z'
loop_
 _atom_site_type_symbol
 _atom_site_label
 _atom_site_symmetry_multiplicity
 _atom_site_fract_x
 _atom_site_fract_y
 _atom_site_fract_z
 _atom_site_occupancy
  K  K0  1  0.75000000  0.09151307  0.03713409  1
  K  K1  1  0.75000000  0.59151307  0.46286591  1
  K  K2  1  0.25000000  0.90848693  0.96286591  1
  K  K3  1  0.25000000  0.40848693  0.53713409  1
  Yb  Yb4  1  0.75000000  0.40057125  0.92013303  1
  Yb  Yb5  1  0.75000000  0.90057125  0.57986697  1
  Yb  Yb6  1  0.25000000  0.59942875  0.07986697  1
  Yb  Yb7  1  0.25000000  0.09942875  0.42013303  1
  Yb  Yb8  1  0.75000000  0.14630394  0.77460622  1
  Yb  Yb9  1  0.75000000  0.64630394  0.72539378  1
  Yb  Yb10  1  0.25000000  0.85369606  0.22539378  1
  Yb  Yb11  1  0.25000000  0.35369606  0.27460622  1
  Cd  Cd12  1  0.75000000  0.19877673  0.57153987  1
  Cd  Cd13  1  0.75000000  0.69877673  0.92846013  1
  Cd  Cd14  1  0.25000000  0.80122327  0.42846013  1
  Cd  Cd15  1  0.25000000  0.30122327  0.07153987  1
  Cd  Cd16  1  0.75000000  0.12254184  0.27792249  1
  Cd  Cd17  1  0.75000000  0.62254184  0.22207751  1
  Cd  Cd18  1  0.25000000  0.87745816  0.72207751  1
  Cd  Cd19  1  0.25000000  0.37745816  0.77792249  1
  Sb  Sb20  1  0.75000000  0.41703977  0.12409675  1
  Sb  Sb21  1  0.75000000  0.91703977  0.37590325  1
  Sb  Sb22  1  0.25000000  0.58296023  0.87590325  1
  Sb  Sb23  1  0.25000000  0.08296023  0.62409675  1
  Sb  Sb24  1  0.75000000  0.39181613  0.68819202  1
  Sb  Sb25  1  0.75000000  0.89181613  0.81180798  1
  Sb  Sb26  1  0.25000000  0.60818387  0.31180798  1
  Sb  Sb27  1  0.25000000  0.10818387  0.18819202  1
  Sb  Sb28  1  0.75000000  0.79038086  0.09516873  1
  Sb  Sb29  1  0.75000000  0.29038086  0.40483127  1
  Sb  Sb30  1  0.25000000  0.20961914  0.90483127  1
  Sb  Sb31  1  0.25000000  0.70961914  0.59516873  1
