# generated using pymatgen
data_Ba2FeBiS5
_symmetry_space_group_name_H-M   'P 1'
_cell_length_a   8.95240768
_cell_length_b   8.98037981
_cell_length_c   12.26451120
_cell_angle_alpha   90.00000000
_cell_angle_beta   90.00000000
_cell_angle_gamma   90.00000000
_symmetry_Int_Tables_number   1
_chemical_formula_structural   Ba2FeBiS5
_chemical_formula_sum   'Ba8 Fe4 Bi4 S20'
_cell_volume   986.01790220
_cell_formula_units_Z   4
loop_
 _symmetry_equiv_pos_site_id
 _symmetry_equiv_pos_as_xyz
  1  'x, y, z'
loop_
 _atom_site_type_symbol
 _atom_site_label
 _atom_site_symmetry_multiplicity
 _atom_site_fract_x
 _atom_site_fract_y
 _atom_site_fract_z
 _atom_site_occupancy
  Ba  Ba0  1  0.88321283  0.99104497  0.17727953  1
  Ba  Ba1  1  0.61678717  0.50895503  0.67727953  1
  Ba  Ba2  1  0.11678717  0.49104497  0.82272047  1
  Ba  Ba3  1  0.38321283  0.00895503  0.32272047  1
  Ba  Ba4  1  0.11678717  0.00895503  0.82272047  1
  Ba  Ba5  1  0.38321283  0.49104497  0.32272047  1
  Ba  Ba6  1  0.88321283  0.50895503  0.17727953  1
  Ba  Ba7  1  0.61678717  0.99104497  0.67727953  1
  Fe  Fe8  1  0.67198974  0.75000000  0.40521193  1
  Fe  Fe9  1  0.82801026  0.75000000  0.90521193  1
  Fe  Fe10  1  0.32801026  0.25000000  0.59478807  1
  Fe  Fe11  1  0.17198974  0.25000000  0.09478807  1
  Bi  Bi12  1  0.03172582  0.75000000  0.48303903  1
  Bi  Bi13  1  0.46827418  0.75000000  0.98303903  1
  Bi  Bi14  1  0.96827418  0.25000000  0.51696097  1
  Bi  Bi15  1  0.53172582  0.25000000  0.01696097  1
  S  S16  1  0.81767628  0.95264462  0.44467572  1
  S  S17  1  0.68232372  0.54735538  0.94467572  1
  S  S18  1  0.18232372  0.45264462  0.55532428  1
  S  S19  1  0.31767628  0.04735538  0.05532428  1
  S  S20  1  0.18232372  0.04735538  0.55532428  1
  S  S21  1  0.31767628  0.45264462  0.05532428  1
  S  S22  1  0.81767628  0.54735538  0.44467572  1
  S  S23  1  0.68232372  0.95264462  0.94467572  1
  S  S24  1  0.12655205  0.75000000  0.28548638  1
  S  S25  1  0.37344795  0.75000000  0.78548638  1
  S  S26  1  0.87344795  0.25000000  0.71451362  1
  S  S27  1  0.62655205  0.25000000  0.21451362  1
  S  S28  1  0.61698528  0.75000000  0.22652035  1
  S  S29  1  0.88301472  0.75000000  0.72652035  1
  S  S30  1  0.38301472  0.25000000  0.77347965  1
  S  S31  1  0.11698528  0.25000000  0.27347965  1
  S  S32  1  0.03395952  0.75000000  0.00419841  1
  S  S33  1  0.46604048  0.75000000  0.50419841  1
  S  S34  1  0.96604048  0.25000000  0.99580159  1
  S  S35  1  0.53395952  0.25000000  0.49580159  1
