# generated using pymatgen
data_K3BP3(HO4)3
_symmetry_space_group_name_H-M   'P 1'
_cell_length_a   7.62228249
_cell_length_b   13.30377697
_cell_length_c   14.33287263
_cell_angle_alpha   117.83736943
_cell_angle_beta   90.00000000
_cell_angle_gamma   106.64677474
_symmetry_Int_Tables_number   1
_chemical_formula_structural   K3BP3(HO4)3
_chemical_formula_sum   'K12 B4 P12 H12 O48'
_cell_volume   1215.91980528
_cell_formula_units_Z   4
loop_
 _symmetry_equiv_pos_site_id
 _symmetry_equiv_pos_as_xyz
  1  'x, y, z'
loop_
 _atom_site_type_symbol
 _atom_site_label
 _atom_site_symmetry_multiplicity
 _atom_site_fract_x
 _atom_site_fract_y
 _atom_site_fract_z
 _atom_site_occupancy
  K  K0  1  0.72301795  0.46278784  0.41087655  1
  K  K1  1  0.26023011  0.53721216  0.08912345  1
  K  K2  1  0.27698205  0.53721216  0.58912345  1
  K  K3  1  0.73976989  0.46278784  0.91087655  1
  K  K4  1  0.00203815  0.90178300  0.84372139  1
  K  K5  1  0.10025515  0.09821700  0.65627861  1
  K  K6  1  0.99796185  0.09821700  0.15627861  1
  K  K7  1  0.89974485  0.90178300  0.34372139  1
  K  K8  1  0.79896271  0.21191833  0.96118733  1
  K  K9  1  0.58704438  0.78808167  0.53881267  1
  K  K10  1  0.20103729  0.78808167  0.03881267  1
  K  K11  1  0.41295562  0.21191833  0.46118733  1
  B  B12  1  0.10126209  0.66052405  0.33909646  1
  B  B13  1  0.44073805  0.33947595  0.16090354  1
  B  B14  1  0.89873791  0.33947595  0.66090354  1
  B  B15  1  0.55926195  0.66052405  0.83909646  1
  P  P16  1  0.73388598  0.51360387  0.68775448  1
  P  P17  1  0.22028211  0.48639613  0.81224552  1
  P  P18  1  0.26611402  0.48639613  0.31224552  1
  P  P19  1  0.77971789  0.51360387  0.18775448  1
  P  P20  1  0.02695436  0.78674950  0.54228753  1
  P  P21  1  0.24020486  0.21325050  0.95771247  1
  P  P22  1  0.97304564  0.21325050  0.45771247  1
  P  P23  1  0.75979514  0.78674950  0.04228753  1
  P  P24  1  0.67434503  0.15192326  0.69322861  1
  P  P25  1  0.52242177  0.84807674  0.80677139  1
  P  P26  1  0.32565497  0.84807674  0.30677139  1
  P  P27  1  0.47757823  0.15192326  0.19322861  1
  H  H28  1  0.52135937  0.08598426  0.02960428  1
  H  H29  1  0.43537510  0.91401574  0.47039572  1
  H  H30  1  0.47864063  0.91401574  0.97039572  1
  H  H31  1  0.56462490  0.08598426  0.52960428  1
  H  H32  1  0.90783287  0.63881677  0.63389123  1
  H  H33  1  0.26901610  0.36118323  0.86610877  1
  H  H34  1  0.09216713  0.36118323  0.36610877  1
  H  H35  1  0.73098390  0.63881677  0.13389123  1
  H  H36  1  0.26762981  0.85002064  0.66927414  1
  H  H37  1  0.41760918  0.14997936  0.83072586  1
  H  H38  1  0.73237019  0.14997936  0.33072586  1
  H  H39  1  0.58239082  0.85002064  0.16927414  1
  O  O40  1  0.60617581  0.12734434  0.09726376  1
  O  O41  1  0.47883147  0.87265566  0.40273624  1
  O  O42  1  0.39382419  0.87265566  0.90273624  1
  O  O43  1  0.52116853  0.12734434  0.59726376  1
  O  O44  1  0.91454471  0.85572793  0.00781869  1
  O  O45  1  0.05881678  0.14427207  0.49218131  1
  O  O46  1  0.08545529  0.14427207  0.99218131  1
  O  O47  1  0.94118322  0.85572793  0.50781869  1
  O  O48  1  0.92189055  0.59148425  0.67322576  1
  O  O49  1  0.33040630  0.40851575  0.82677424  1
  O  O50  1  0.07810945  0.40851575  0.32677424  1
  O  O51  1  0.66959370  0.59148425  0.17322576  1
  O  O52  1  0.88202232  0.46335524  0.09605045  1
  O  O53  1  0.41866708  0.53664476  0.40394955  1
  O  O54  1  0.11797768  0.53664476  0.90394955  1
  O  O55  1  0.58133292  0.46335524  0.59605045  1
  O  O56  1  0.18570762  0.88340377  0.64214268  1
  O  O57  1  0.30230384  0.11659623  0.85785732  1
  O  O58  1  0.81429238  0.11659623  0.35785732  1
  O  O59  1  0.69769616  0.88340377  0.14214268  1
  O  O60  1  0.71962642  0.03873491  0.66147736  1
  O  O61  1  0.68089150  0.96126509  0.83852264  1
  O  O62  1  0.28037358  0.96126509  0.33852264  1
  O  O63  1  0.31910850  0.03873491  0.16147736  1
  O  O64  1  0.90176328  0.59052595  0.30171454  1
  O  O65  1  0.31123733  0.40947405  0.19828546  1
  O  O66  1  0.09823672  0.40947405  0.69828546  1
  O  O67  1  0.68876267  0.59052595  0.80171454  1
  O  O68  1  0.78215438  0.41718111  0.70663033  1
  O  O69  1  0.36497328  0.58281889  0.79336967  1
  O  O70  1  0.21784562  0.58281889  0.29336967  1
  O  O71  1  0.63502672  0.41718111  0.20663033  1
  O  O72  1  0.13930848  0.71467300  0.45602173  1
  O  O73  1  0.42463548  0.28532700  0.04397827  1
  O  O74  1  0.86069152  0.28532700  0.54397827  1
  O  O75  1  0.57536452  0.71467300  0.95602173  1
  O  O76  1  0.85654244  0.25084587  0.69867918  1
  O  O77  1  0.60569657  0.74915413  0.80132082  1
  O  O78  1  0.14345756  0.74915413  0.30132082  1
  O  O79  1  0.39430343  0.25084587  0.19867918  1
  O  O80  1  0.61400533  0.20734495  0.29522086  1
  O  O81  1  0.40666039  0.79265505  0.20477914  1
  O  O82  1  0.38599467  0.79265505  0.70477914  1
  O  O83  1  0.59333961  0.20734495  0.79522086  1
  O  O84  1  0.81216522  0.70127143  0.07242664  1
  O  O85  1  0.11089379  0.29872857  0.42757336  1
  O  O86  1  0.18783478  0.29872857  0.92757336  1
  O  O87  1  0.88910621  0.70127143  0.57242664  1
