# generated using pymatgen
data_TaZn2AgO6
_symmetry_space_group_name_H-M   'P 1'
_cell_length_a   5.62109410
_cell_length_b   5.69465334
_cell_length_c   7.51989355
_cell_angle_alpha   90.00000000
_cell_angle_beta   90.00000000
_cell_angle_gamma   76.99243158
_symmetry_Int_Tables_number   1
_chemical_formula_structural   TaZn2AgO6
_chemical_formula_sum   'Ta2 Zn4 Ag2 O12'
_cell_volume   234.53654582
_cell_formula_units_Z   2
loop_
 _symmetry_equiv_pos_site_id
 _symmetry_equiv_pos_as_xyz
  1  'x, y, z'
loop_
 _atom_site_type_symbol
 _atom_site_label
 _atom_site_symmetry_multiplicity
 _atom_site_fract_x
 _atom_site_fract_y
 _atom_site_fract_z
 _atom_site_occupancy
  Ta  Ta0  1  0.00000000  0.50000000  0.00000000  1
  Ta  Ta1  1  0.00000000  0.50000000  0.50000000  1
  Zn  Zn2  1  0.03407863  0.94500366  0.25000000  1
  Zn  Zn3  1  0.52283509  0.45892115  0.25000000  1
  Zn  Zn4  1  0.47716491  0.54107885  0.75000000  1
  Zn  Zn5  1  0.96592137  0.05499634  0.75000000  1
  Ag  Ag6  1  0.50000000  0.00000000  0.00000000  1
  Ag  Ag7  1  0.50000000  0.00000000  0.50000000  1
  O  O8  1  0.84590066  0.84318991  0.56204585  1
  O  O9  1  0.27659700  0.62971304  0.42362666  1
  O  O10  1  0.15409934  0.15681009  0.43795415  1
  O  O11  1  0.72340300  0.37028696  0.92362666  1
  O  O12  1  0.14624612  0.45067281  0.75000000  1
  O  O13  1  0.72340300  0.37028696  0.57637334  1
  O  O14  1  0.27659700  0.62971304  0.07637334  1
  O  O15  1  0.84590066  0.84318991  0.93795415  1
  O  O16  1  0.64110400  0.09218588  0.25000000  1
  O  O17  1  0.15409934  0.15681009  0.06204585  1
  O  O18  1  0.35889600  0.90781412  0.75000000  1
  O  O19  1  0.85375388  0.54932719  0.25000000  1
