# generated using pymatgen
data_NaH3CN2O
_symmetry_space_group_name_H-M   'P 1'
_cell_length_a   6.79454164
_cell_length_b   11.15261491
_cell_length_c   17.96169494
_cell_angle_alpha   97.26976360
_cell_angle_beta   90.00000000
_cell_angle_gamma   90.00000000
_symmetry_Int_Tables_number   1
_chemical_formula_structural   NaH3CN2O
_chemical_formula_sum   'Na16 H48 C16 N32 O16'
_cell_volume   1350.14042972
_cell_formula_units_Z   16
loop_
 _symmetry_equiv_pos_site_id
 _symmetry_equiv_pos_as_xyz
  1  'x, y, z'
loop_
 _atom_site_type_symbol
 _atom_site_label
 _atom_site_symmetry_multiplicity
 _atom_site_fract_x
 _atom_site_fract_y
 _atom_site_fract_z
 _atom_site_occupancy
  Na  Na0  1  0.45899498  0.74023235  0.99752308  1
  Na  Na1  1  0.95899498  0.75976765  0.00247692  1
  Na  Na2  1  0.54100502  0.25976765  0.00247692  1
  Na  Na3  1  0.04100502  0.24023235  0.99752308  1
  Na  Na4  1  0.82758809  0.97673059  0.91930125  1
  Na  Na5  1  0.32758809  0.52326941  0.08069875  1
  Na  Na6  1  0.17241191  0.02326941  0.08069875  1
  Na  Na7  1  0.67241191  0.47673059  0.91930125  1
  Na  Na8  1  0.95093316  0.74422592  0.50248976  1
  Na  Na9  1  0.45093316  0.75577408  0.49751024  1
  Na  Na10  1  0.04906684  0.25577408  0.49751024  1
  Na  Na11  1  0.54906684  0.24422592  0.50248976  1
  Na  Na12  1  0.31200041  0.52001286  0.57679959  1
  Na  Na13  1  0.81200041  0.97998714  0.42320041  1
  Na  Na14  1  0.68799959  0.47998714  0.42320041  1
  Na  Na15  1  0.18799959  0.02001286  0.57679959  1
  H  H16  1  0.32314972  0.35087281  0.38902719  1
  H  H17  1  0.82314972  0.14912719  0.61097281  1
  H  H18  1  0.67685028  0.64912719  0.61097281  1
  H  H19  1  0.17685028  0.85087281  0.38902719  1
  H  H20  1  0.77664492  0.15254212  0.10130662  1
  H  H21  1  0.27664492  0.34745788  0.89869338  1
  H  H22  1  0.22335508  0.84745788  0.89869338  1
  H  H23  1  0.72335508  0.65254212  0.10130662  1
  H  H24  1  0.02753607  0.78229215  0.26554721  1
  H  H25  1  0.52753607  0.71770785  0.73445279  1
  H  H26  1  0.97246393  0.21770785  0.73445279  1
  H  H27  1  0.47246393  0.28229215  0.26554721  1
  H  H28  1  0.23348918  0.69449443  0.26491446  1
  H  H29  1  0.73348918  0.80550557  0.73508554  1
  H  H30  1  0.76651082  0.30550557  0.73508554  1
  H  H31  1  0.26651082  0.19449443  0.26491446  1
  H  H32  1  0.60175745  0.04919818  0.17519169  1
  H  H33  1  0.10175745  0.45080182  0.82480831  1
  H  H34  1  0.39824255  0.95080182  0.82480831  1
  H  H35  1  0.89824255  0.54919818  0.17519169  1
  H  H36  1  0.15032991  0.44222182  0.31480176  1
  H  H37  1  0.65032991  0.05777818  0.68519824  1
  H  H38  1  0.84967009  0.55777818  0.68519824  1
  H  H39  1  0.34967009  0.94222182  0.31480176  1
  H  H40  1  0.04347837  0.57740619  0.34815438  1
  H  H41  1  0.54347837  0.92259381  0.65184562  1
  H  H42  1  0.95652163  0.42259381  0.65184562  1
  H  H43  1  0.45652163  0.07740619  0.34815438  1
  H  H44  1  0.51929287  0.90799889  0.14002927  1
  H  H45  1  0.01929287  0.59200111  0.85997073  1
  H  H46  1  0.48070713  0.09200111  0.85997073  1
  H  H47  1  0.98070713  0.40799889  0.14002927  1
  H  H48  1  0.19248548  0.65473032  0.73335068  1
  H  H49  1  0.69248548  0.84526968  0.26664932  1
  H  H50  1  0.80751452  0.34526968  0.26664932  1
  H  H51  1  0.30751452  0.15473032  0.73335068  1
  H  H52  1  0.95855866  0.86659247  0.16583249  1
  H  H53  1  0.45855866  0.63340753  0.83416751  1
  H  H54  1  0.04144134  0.13340753  0.83416751  1
  H  H55  1  0.54144134  0.36659247  0.16583249  1
  H  H56  1  0.06926402  0.94090118  0.71547921  1
  H  H57  1  0.56926402  0.55909882  0.28452079  1
  H  H58  1  0.93073598  0.05909882  0.28452079  1
  H  H59  1  0.43073598  0.44090118  0.71547921  1
  H  H60  1  0.05804263  0.83032552  0.77234168  1
  H  H61  1  0.55804263  0.66967448  0.22765832  1
  H  H62  1  0.94195737  0.16967448  0.22765832  1
  H  H63  1  0.44195737  0.33032552  0.77234168  1
  C  C64  1  0.68753746  0.99047191  0.06755201  1
  C  C65  1  0.18753746  0.50952809  0.93244799  1
  C  C66  1  0.31246254  0.00952809  0.93244799  1
  C  C67  1  0.81246254  0.49047191  0.06755201  1
  C  C68  1  0.20159902  0.77868599  0.17032405  1
  C  C69  1  0.70159902  0.72131401  0.82967595  1
  C  C70  1  0.79840098  0.22131401  0.82967595  1
  C  C71  1  0.29840098  0.27868599  0.17032405  1
  C  C72  1  0.22901185  0.51134138  0.42144431  1
  C  C73  1  0.72901185  0.98865862  0.57855569  1
  C  C74  1  0.77098815  0.48865862  0.57855569  1
  C  C75  1  0.27098815  0.01134138  0.42144431  1
  C  C76  1  0.19515775  0.78178172  0.66994122  1
  C  C77  1  0.69515775  0.71821828  0.33005878  1
  C  C78  1  0.80484225  0.21821828  0.33005878  1
  C  C79  1  0.30484225  0.28178172  0.66994122  1
  N  N80  1  0.16881570  0.76758983  0.24651884  1
  N  N81  1  0.66881570  0.73241017  0.75348116  1
  N  N82  1  0.83118430  0.23241017  0.75348116  1
  N  N83  1  0.33118430  0.26758983  0.24651884  1
  N  N84  1  0.79685440  0.08568176  0.05728505  1
  N  N85  1  0.29685440  0.41431824  0.94271495  1
  N  N86  1  0.20314560  0.91431824  0.94271495  1
  N  N87  1  0.70314560  0.58568176  0.05728505  1
  N  N88  1  0.55864147  0.99241122  0.12891187  1
  N  N89  1  0.05864147  0.50758878  0.87108813  1
  N  N90  1  0.44135853  0.00758878  0.87108813  1
  N  N91  1  0.94135853  0.49241122  0.12891187  1
  N  N92  1  0.13407817  0.86554644  0.73072148  1
  N  N93  1  0.63407817  0.63445356  0.26927852  1
  N  N94  1  0.86592183  0.13445356  0.26927852  1
  N  N95  1  0.36592183  0.36554644  0.73072148  1
  N  N96  1  0.32157637  0.41177450  0.43680474  1
  N  N97  1  0.82157637  0.08822550  0.56319526  1
  N  N98  1  0.67842363  0.58822550  0.56319526  1
  N  N99  1  0.17842363  0.91177450  0.43680474  1
  N  N100  1  0.23188628  0.66816784  0.67994641  1
  N  N101  1  0.73188628  0.83183216  0.32005359  1
  N  N102  1  0.76811372  0.33183216  0.32005359  1
  N  N103  1  0.26811372  0.16816784  0.67994641  1
  N  N104  1  0.07657537  0.83923304  0.13231630  1
  N  N105  1  0.57657537  0.66076696  0.86768370  1
  N  N106  1  0.92342463  0.16076696  0.86768370  1
  N  N107  1  0.42342463  0.33923304  0.13231630  1
  N  N108  1  0.16260647  0.52220824  0.34909211  1
  N  N109  1  0.66260647  0.97779176  0.65090789  1
  N  N110  1  0.83739353  0.47779176  0.65090789  1
  N  N111  1  0.33739353  0.02220824  0.34909211  1
  O  O112  1  0.68843536  0.89258950  0.02078256  1
  O  O113  1  0.18843536  0.60741050  0.97921744  1
  O  O114  1  0.31156464  0.10741050  0.97921744  1
  O  O115  1  0.81156464  0.39258950  0.02078256  1
  O  O116  1  0.36269368  0.73165046  0.14154975  1
  O  O117  1  0.86269368  0.76834954  0.85845025  1
  O  O118  1  0.63730632  0.26834954  0.85845025  1
  O  O119  1  0.13730632  0.23165046  0.14154975  1
  O  O120  1  0.22256876  0.82283498  0.60637381  1
  O  O121  1  0.72256876  0.67716502  0.39362619  1
  O  O122  1  0.77743124  0.17716502  0.39362619  1
  O  O123  1  0.27743124  0.32283498  0.60637381  1
  O  O124  1  0.20304387  0.60390311  0.47153015  1
  O  O125  1  0.70304387  0.89609689  0.52846985  1
  O  O126  1  0.79695613  0.39609689  0.52846985  1
  O  O127  1  0.29695613  0.10390311  0.47153015  1
