# generated using pymatgen
data_Nd26Ga7Co10
_symmetry_space_group_name_H-M   'P 1'
_cell_length_a   11.95075046
_cell_length_b   11.95075046
_cell_length_c   15.43004393
_cell_angle_alpha   90.00000000
_cell_angle_beta   90.00000000
_cell_angle_gamma   90.00000000
_symmetry_Int_Tables_number   1
_chemical_formula_structural   Nd26Ga7Co10
_chemical_formula_sum   'Nd52 Ga14 Co20'
_cell_volume   2203.72561018
_cell_formula_units_Z   2
loop_
 _symmetry_equiv_pos_site_id
 _symmetry_equiv_pos_as_xyz
  1  'x, y, z'
loop_
 _atom_site_type_symbol
 _atom_site_label
 _atom_site_symmetry_multiplicity
 _atom_site_fract_x
 _atom_site_fract_y
 _atom_site_fract_z
 _atom_site_occupancy
  Nd  Nd0  1  0.57441306  0.70638832  0.88165919  1
  Nd  Nd1  1  0.42558694  0.29361168  0.88165919  1
  Nd  Nd2  1  0.92558694  0.20638832  0.88165919  1
  Nd  Nd3  1  0.07441306  0.79361168  0.88165919  1
  Nd  Nd4  1  0.70638832  0.42558694  0.88165919  1
  Nd  Nd5  1  0.29361168  0.57441306  0.88165919  1
  Nd  Nd6  1  0.20638832  0.07441306  0.88165919  1
  Nd  Nd7  1  0.79361168  0.92558694  0.88165919  1
  Nd  Nd8  1  0.42558694  0.29361168  0.11834081  1
  Nd  Nd9  1  0.57441306  0.70638832  0.11834081  1
  Nd  Nd10  1  0.07441306  0.79361168  0.11834081  1
  Nd  Nd11  1  0.92558694  0.20638832  0.11834081  1
  Nd  Nd12  1  0.29361168  0.57441306  0.11834081  1
  Nd  Nd13  1  0.70638832  0.42558694  0.11834081  1
  Nd  Nd14  1  0.79361168  0.92558694  0.11834081  1
  Nd  Nd15  1  0.20638832  0.07441306  0.11834081  1
  Nd  Nd16  1  0.70620716  0.58062226  0.68743370  1
  Nd  Nd17  1  0.29379284  0.41937774  0.68743370  1
  Nd  Nd18  1  0.79379284  0.08062226  0.68743370  1
  Nd  Nd19  1  0.20620716  0.91937774  0.68743370  1
  Nd  Nd20  1  0.58062226  0.29379284  0.68743370  1
  Nd  Nd21  1  0.41937774  0.70620716  0.68743370  1
  Nd  Nd22  1  0.08062226  0.20620716  0.68743370  1
  Nd  Nd23  1  0.91937774  0.79379284  0.68743370  1
  Nd  Nd24  1  0.29379284  0.41937774  0.31256630  1
  Nd  Nd25  1  0.70620716  0.58062226  0.31256630  1
  Nd  Nd26  1  0.20620716  0.91937774  0.31256630  1
  Nd  Nd27  1  0.79379284  0.08062226  0.31256630  1
  Nd  Nd28  1  0.41937774  0.70620716  0.31256630  1
  Nd  Nd29  1  0.58062226  0.29379284  0.31256630  1
  Nd  Nd30  1  0.91937774  0.79379284  0.31256630  1
  Nd  Nd31  1  0.08062226  0.20620716  0.31256630  1
  Nd  Nd32  1  0.58578435  0.70444106  0.50000000  1
  Nd  Nd33  1  0.41421565  0.29555894  0.50000000  1
  Nd  Nd34  1  0.91421565  0.20444106  0.50000000  1
  Nd  Nd35  1  0.08578435  0.79555894  0.50000000  1
  Nd  Nd36  1  0.70444106  0.41421565  0.50000000  1
  Nd  Nd37  1  0.29555894  0.58578435  0.50000000  1
  Nd  Nd38  1  0.20444106  0.08578435  0.50000000  1
  Nd  Nd39  1  0.79555894  0.91421565  0.50000000  1
  Nd  Nd40  1  0.34103102  0.84103102  -0.00000000  1
  Nd  Nd41  1  0.65896898  0.15896898  -0.00000000  1
  Nd  Nd42  1  0.15896898  0.34103102  -0.00000000  1
  Nd  Nd43  1  0.84103102  0.65896898  -0.00000000  1
  Nd  Nd44  1  0.00000000  0.50000000  0.61529197  1
  Nd  Nd45  1  0.50000000  -0.00000000  0.61529197  1
  Nd  Nd46  1  -0.00000000  0.50000000  0.38470803  1
  Nd  Nd47  1  0.50000000  -0.00000000  0.38470803  1
  Nd  Nd48  1  -0.00000000  0.50000000  0.84270399  1
  Nd  Nd49  1  0.50000000  -0.00000000  0.84270399  1
  Nd  Nd50  1  0.00000000  0.50000000  0.15729601  1
  Nd  Nd51  1  0.50000000  -0.00000000  0.15729601  1
  Ga  Ga52  1  0.16224606  0.66224606  0.70705507  1
  Ga  Ga53  1  0.83775394  0.33775394  0.70705507  1
  Ga  Ga54  1  0.33775394  0.16224606  0.70705507  1
  Ga  Ga55  1  0.66224606  0.83775394  0.70705507  1
  Ga  Ga56  1  0.83775394  0.33775394  0.29294493  1
  Ga  Ga57  1  0.16224606  0.66224606  0.29294493  1
  Ga  Ga58  1  0.66224606  0.83775394  0.29294493  1
  Ga  Ga59  1  0.33775394  0.16224606  0.29294493  1
  Ga  Ga60  1  0.34752029  0.84752029  0.50000000  1
  Ga  Ga61  1  0.65247971  0.15247971  0.50000000  1
  Ga  Ga62  1  0.15247971  0.34752029  0.50000000  1
  Ga  Ga63  1  0.84752029  0.65247971  0.50000000  1
  Ga  Ga64  1  0.50000000  0.50000000  -0.00000000  1
  Ga  Ga65  1  -0.00000000  -0.00000000  -0.00000000  1
  Co  Co66  1  0.30502996  0.80502996  0.82030618  1
  Co  Co67  1  0.69497004  0.19497004  0.82030618  1
  Co  Co68  1  0.19497004  0.30502996  0.82030618  1
  Co  Co69  1  0.80502996  0.69497004  0.82030618  1
  Co  Co70  1  0.69497004  0.19497004  0.17969382  1
  Co  Co71  1  0.30502996  0.80502996  0.17969382  1
  Co  Co72  1  0.80502996  0.69497004  0.17969382  1
  Co  Co73  1  0.19497004  0.30502996  0.17969382  1
  Co  Co74  1  0.09239827  0.59239827  -0.00000000  1
  Co  Co75  1  0.90760173  0.40760173  -0.00000000  1
  Co  Co76  1  0.40760173  0.09239827  -0.00000000  1
  Co  Co77  1  0.59239827  0.90760173  -0.00000000  1
  Co  Co78  1  0.50000000  0.50000000  0.59167974  1
  Co  Co79  1  0.00000000  -0.00000000  0.59167974  1
  Co  Co80  1  0.50000000  0.50000000  0.40832026  1
  Co  Co81  1  0.00000000  -0.00000000  0.40832026  1
  Co  Co82  1  0.50000000  0.50000000  0.77182145  1
  Co  Co83  1  0.00000000  -0.00000000  0.77182145  1
  Co  Co84  1  0.50000000  0.50000000  0.22817855  1
  Co  Co85  1  0.00000000  -0.00000000  0.22817855  1
