# generated using pymatgen
data_Na2CoP4(H2O3)6
_symmetry_space_group_name_H-M   'P 1'
_cell_length_a   8.24029014
_cell_length_b   9.14069237
_cell_length_c   11.57056727
_cell_angle_alpha   90.00000000
_cell_angle_beta   90.00000000
_cell_angle_gamma   111.93280941
_symmetry_Int_Tables_number   1
_chemical_formula_structural   Na2CoP4(H2O3)6
_chemical_formula_sum   'Na4 Co2 P8 H24 O36'
_cell_volume   808.43950972
_cell_formula_units_Z   2
loop_
 _symmetry_equiv_pos_site_id
 _symmetry_equiv_pos_as_xyz
  1  'x, y, z'
loop_
 _atom_site_type_symbol
 _atom_site_label
 _atom_site_symmetry_multiplicity
 _atom_site_fract_x
 _atom_site_fract_y
 _atom_site_fract_z
 _atom_site_occupancy
  Na  Na0  1  0.98514743  0.44853729  0.75000000  1
  Na  Na1  1  0.01485257  0.55146271  0.25000000  1
  Na  Na2  1  0.24524313  0.90763179  0.75000000  1
  Na  Na3  1  0.75475687  0.09236821  0.25000000  1
  Co  Co4  1  0.52950200  0.26316952  0.75000000  1
  Co  Co5  1  0.47049800  0.73683048  0.25000000  1
  P  P6  1  0.31336289  0.16880284  0.50332994  1
  P  P7  1  0.68663711  0.83119716  0.00332994  1
  P  P8  1  0.68663711  0.83119716  0.49667006  1
  P  P9  1  0.31336289  0.16880284  0.99667006  1
  P  P10  1  0.69850619  0.35107709  0.00906562  1
  P  P11  1  0.30149381  0.64892291  0.50906562  1
  P  P12  1  0.30149381  0.64892291  0.99093438  1
  P  P13  1  0.69850619  0.35107709  0.49093438  1
  H  H14  1  0.18266876  0.33908030  0.51793832  1
  H  H15  1  0.81733124  0.66091970  0.01793832  1
  H  H16  1  0.81733124  0.66091970  0.48206168  1
  H  H17  1  0.18266876  0.33908030  0.98206168  1
  H  H18  1  0.74015146  0.12332290  0.00561419  1
  H  H19  1  0.25984854  0.87667710  0.50561419  1
  H  H20  1  0.25984854  0.87667710  0.99438581  1
  H  H21  1  0.74015146  0.12332290  0.49438581  1
  H  H22  1  0.62085799  0.01814343  0.68019286  1
  H  H23  1  0.37914201  0.98185657  0.18019286  1
  H  H24  1  0.37914201  0.98185657  0.31980714  1
  H  H25  1  0.62085799  0.01814343  0.81980714  1
  H  H26  1  0.40933923  0.48892454  0.68266695  1
  H  H27  1  0.59066077  0.51107546  0.18266695  1
  H  H28  1  0.59066077  0.51107546  0.31733305  1
  H  H29  1  0.40933923  0.48892454  0.81733305  1
  H  H30  1  0.10214516  0.17257905  0.75000000  1
  H  H31  1  0.89785484  0.82742095  0.25000000  1
  H  H32  1  0.88848431  0.70669331  0.68170753  1
  H  H33  1  0.11151569  0.29330669  0.18170753  1
  H  H34  1  0.11151569  0.29330669  0.31829247  1
  H  H35  1  0.88848431  0.70669331  0.81829247  1
  H  H36  1  0.89933221  0.11222108  0.75000000  1
  H  H37  1  0.10066779  0.88777892  0.25000000  1
  O  O38  1  0.17196004  0.23978640  0.47095908  1
  O  O39  1  0.82803996  0.76021360  0.97095908  1
  O  O40  1  0.82803996  0.76021360  0.52904092  1
  O  O41  1  0.17196004  0.23978640  0.02904092  1
  O  O42  1  0.28062494  0.02055845  0.43297786  1
  O  O43  1  0.71937506  0.97944155  0.93297786  1
  O  O44  1  0.71937506  0.97944155  0.56702214  1
  O  O45  1  0.28062494  0.02055845  0.06702214  1
  O  O46  1  0.32460595  0.14924325  0.63285659  1
  O  O47  1  0.67539405  0.85075675  0.13285659  1
  O  O48  1  0.67539405  0.85075675  0.36714341  1
  O  O49  1  0.32460595  0.14924325  0.86714341  1
  O  O50  1  0.78946736  0.49988698  0.07845279  1
  O  O51  1  0.21053264  0.50011302  0.57845279  1
  O  O52  1  0.21053264  0.50011302  0.92154721  1
  O  O53  1  0.78946736  0.49988698  0.42154721  1
  O  O54  1  0.74707669  0.21356577  0.06231374  1
  O  O55  1  0.25292331  0.78643423  0.56231374  1
  O  O56  1  0.25292331  0.78643423  0.93768626  1
  O  O57  1  0.74707669  0.21356577  0.43768626  1
  O  O58  1  0.71944807  0.35870440  0.87878104  1
  O  O59  1  0.28055193  0.64129560  0.37878104  1
  O  O60  1  0.28055193  0.64129560  0.12121896  1
  O  O61  1  0.71944807  0.35870440  0.62121896  1
  O  O62  1  0.49233699  0.30582477  0.04142311  1
  O  O63  1  0.50766301  0.69417523  0.54142311  1
  O  O64  1  0.50766301  0.69417523  0.95857689  1
  O  O65  1  0.49233699  0.30582477  0.45857689  1
  O  O66  1  0.56593312  0.04537394  0.75000000  1
  O  O67  1  0.43406688  0.95462606  0.25000000  1
  O  O68  1  0.47233747  0.47088273  0.75000000  1
  O  O69  1  0.52766253  0.52911727  0.25000000  1
  O  O70  1  0.00390169  0.20757758  0.75000000  1
  O  O71  1  0.99609831  0.79242242  0.25000000  1
  O  O72  1  0.04220808  0.29722090  0.25000000  1
  O  O73  1  0.95779192  0.70277910  0.75000000  1
