# generated using pymatgen
data_YbH4I3O11
_symmetry_space_group_name_H-M   'P 1'
_cell_length_a   7.18686966
_cell_length_b   7.54698889
_cell_length_c   10.77988236
_cell_angle_alpha   94.58665790
_cell_angle_beta   106.02583371
_cell_angle_gamma   108.62888040
_symmetry_Int_Tables_number   1
_chemical_formula_structural   YbH4I3O11
_chemical_formula_sum   'Yb2 H8 I6 O22'
_cell_volume   523.37199572
_cell_formula_units_Z   2
loop_
 _symmetry_equiv_pos_site_id
 _symmetry_equiv_pos_as_xyz
  1  'x, y, z'
loop_
 _atom_site_type_symbol
 _atom_site_label
 _atom_site_symmetry_multiplicity
 _atom_site_fract_x
 _atom_site_fract_y
 _atom_site_fract_z
 _atom_site_occupancy
  Yb  Yb0  1  0.60142978  0.91677060  0.78421740  1
  Yb  Yb1  1  0.39857022  0.08322940  0.21578260  1
  H  H2  1  0.77943080  0.59977206  0.71375113  1
  H  H3  1  0.22056920  0.40022794  0.28624887  1
  H  H4  1  0.73932831  0.60627589  0.85200055  1
  H  H5  1  0.26067169  0.39372411  0.14799945  1
  H  H6  1  0.30018500  0.42855327  0.62159488  1
  H  H7  1  0.69981500  0.57144673  0.37840512  1
  H  H8  1  0.35993873  0.24512861  0.60327123  1
  H  H9  1  0.64006127  0.75487139  0.39672877  1
  I  I10  1  0.19856007  0.65315344  0.93212034  1
  I  I11  1  0.80143993  0.34684656  0.06787966  1
  I  I12  1  0.20946297  0.13308783  0.83243750  1
  I  I13  1  0.79053703  0.86691217  0.16756250  1
  I  I14  1  0.76804179  0.23163893  0.55316094  1
  I  I15  1  0.23195821  0.76836107  0.44683906  1
  O  O16  1  0.36658200  0.78142600  0.09841532  1
  O  O17  1  0.63341800  0.21857400  0.90158468  1
  O  O18  1  0.14173213  0.41024911  0.97118748  1
  O  O19  1  0.85826787  0.58975089  0.02881252  1
  O  O20  1  0.40308252  0.65649368  0.86311361  1
  O  O21  1  0.59691748  0.34350632  0.13688639  1
  O  O22  1  0.20408886  0.03074415  0.98178872  1
  O  O23  1  0.79591114  0.96925585  0.01821128  1
  O  O24  1  0.93074003  0.06497445  0.74642396  1
  O  O25  1  0.06925997  0.93502555  0.25357604  1
  O  O26  1  0.25771222  0.94062228  0.74750308  1
  O  O27  1  0.74228778  0.05937772  0.25249692  1
  O  O28  1  0.91422554  0.46281824  0.65987197  1
  O  O29  1  0.08577446  0.53718176  0.34012803  1
  O  O30  1  0.61265633  0.30445944  0.41528405  1
  O  O31  1  0.38734367  0.69554056  0.58471595  1
  O  O32  1  0.56174612  0.12921490  0.62556947  1
  O  O33  1  0.43825388  0.87078510  0.37443053  1
  O  O34  1  0.73440477  0.66886885  0.77482210  1
  O  O35  1  0.26559523  0.33113115  0.22517790  1
  O  O36  1  0.24989858  0.28961072  0.61733151  1
  O  O37  1  0.75010142  0.71038928  0.38266849  1
