# generated using pymatgen
data_Zn3Si4(NiO7)2
_symmetry_space_group_name_H-M   'P 1'
_cell_length_a   7.55202297
_cell_length_b   9.45479141
_cell_length_c   9.13958808
_cell_angle_alpha   62.80863557
_cell_angle_beta   65.59719649
_cell_angle_gamma   66.46085824
_symmetry_Int_Tables_number   1
_chemical_formula_structural   Zn3Si4(NiO7)2
_chemical_formula_sum   'Zn6 Si8 Ni4 O28'
_cell_volume   510.43836158
_cell_formula_units_Z   2
loop_
 _symmetry_equiv_pos_site_id
 _symmetry_equiv_pos_as_xyz
  1  'x, y, z'
loop_
 _atom_site_type_symbol
 _atom_site_label
 _atom_site_symmetry_multiplicity
 _atom_site_fract_x
 _atom_site_fract_y
 _atom_site_fract_z
 _atom_site_occupancy
  Zn  Zn0  1  0.92787696  0.89471395  0.44092359  1
  Zn  Zn1  1  0.26351450  0.60528605  0.05907641  1
  Zn  Zn2  1  0.73648550  0.39471395  0.94092359  1
  Zn  Zn3  1  0.61851872  0.25000000  0.75000000  1
  Zn  Zn4  1  0.07212304  0.10528605  0.55907641  1
  Zn  Zn5  1  0.38148128  0.75000000  0.25000000  1
  Si  Si6  1  0.46343760  0.29367867  0.34176876  1
  Si  Si7  1  0.90111397  0.79367867  0.84176876  1
  Si  Si8  1  0.47244890  0.90027933  0.85961965  1
  Si  Si9  1  0.76765312  0.40027933  0.35961965  1
  Si  Si10  1  0.09888603  0.20632133  0.15823124  1
  Si  Si11  1  0.52755110  0.09972067  0.14038035  1
  Si  Si12  1  0.23234688  0.59972067  0.64038035  1
  Si  Si13  1  0.53656240  0.70632133  0.65823124  1
  Ni  Ni14  1  0.21498990  0.25000000  0.75000000  1
  Ni  Ni15  1  0.78501010  0.75000000  0.25000000  1
  Ni  Ni16  1  0.00000000  0.00000000  0.00000000  1
  Ni  Ni17  1  0.00000000  0.50000000  0.50000000  1
  O  O18  1  0.15866201  0.66759370  0.46557931  1
  O  O19  1  0.02464097  0.58289940  0.26794041  1
  O  O20  1  0.54099150  0.90820295  0.18993935  1
  O  O21  1  0.12451923  0.08289940  0.76794041  1
  O  O22  1  0.75931608  0.68542468  0.52021680  1
  O  O23  1  0.94711636  0.37818883  0.18698606  1
  O  O24  1  0.36086520  0.40820295  0.68993935  1
  O  O25  1  0.96495756  0.81457532  0.97978320  1
  O  O26  1  0.05288364  0.62181117  0.81301394  1
  O  O27  1  0.36606281  0.72916526  0.57735456  1
  O  O28  1  0.97535903  0.41710060  0.73205959  1
  O  O29  1  0.24068392  0.31457532  0.47978320  1
  O  O30  1  0.51229225  0.12181117  0.31301394  1
  O  O31  1  0.70816398  0.16759370  0.96557931  1
  O  O32  1  0.32741736  0.22916526  0.07735456  1
  O  O33  1  0.03504244  0.18542468  0.02021680  1
  O  O34  1  0.09238704  0.05852225  0.34336337  1
  O  O35  1  0.63393719  0.27083474  0.42264544  1
  O  O36  1  0.49427165  0.44147775  0.15663663  1
  O  O37  1  0.67258264  0.77083474  0.92264544  1
  O  O38  1  0.48770775  0.87818883  0.68698606  1
  O  O39  1  0.87548077  0.91710060  0.23205959  1
  O  O40  1  0.50572835  0.55852225  0.84336337  1
  O  O41  1  0.45900850  0.09179705  0.81006065  1
  O  O42  1  0.90761296  0.94147775  0.65663663  1
  O  O43  1  0.63913480  0.59179705  0.31006065  1
  O  O44  1  0.29183602  0.83240630  0.03442069  1
  O  O45  1  0.84133799  0.33240630  0.53442069  1
