# generated using pymatgen
data_Zn10Ni(B4Rh9)2
_symmetry_space_group_name_H-M   'P 1'
_cell_length_a   2.87947004
_cell_length_b   17.91138382
_cell_length_c   17.91138382
_cell_angle_alpha   90.00000000
_cell_angle_beta   90.00000000
_cell_angle_gamma   90.00000000
_symmetry_Int_Tables_number   1
_chemical_formula_structural   Zn10Ni(B4Rh9)2
_chemical_formula_sum   'Zn20 Ni2 B16 Rh36'
_cell_volume   923.78487007
_cell_formula_units_Z   2
loop_
 _symmetry_equiv_pos_site_id
 _symmetry_equiv_pos_as_xyz
  1  'x, y, z'
loop_
 _atom_site_type_symbol
 _atom_site_label
 _atom_site_symmetry_multiplicity
 _atom_site_fract_x
 _atom_site_fract_y
 _atom_site_fract_z
 _atom_site_occupancy
  Zn  Zn0  1  0.50000000  0.05025462  0.55025462  1
  Zn  Zn1  1  0.50000000  0.94974538  0.44974538  1
  Zn  Zn2  1  0.50000000  0.44974538  0.05025462  1
  Zn  Zn3  1  0.50000000  0.55025462  0.94974538  1
  Zn  Zn4  1  0.50000000  0.70907479  0.20907479  1
  Zn  Zn5  1  0.50000000  0.29092521  0.79092521  1
  Zn  Zn6  1  0.50000000  0.79092521  0.70907479  1
  Zn  Zn7  1  0.50000000  0.20907479  0.29092521  1
  Zn  Zn8  1  0.50000000  0.03208847  0.81239798  1
  Zn  Zn9  1  0.50000000  0.96791153  0.18760202  1
  Zn  Zn10  1  0.50000000  0.46791153  0.31239798  1
  Zn  Zn11  1  0.50000000  0.53208847  0.68760202  1
  Zn  Zn12  1  0.50000000  0.81239798  0.96791153  1
  Zn  Zn13  1  0.50000000  0.18760202  0.03208847  1
  Zn  Zn14  1  0.50000000  0.31239798  0.53208847  1
  Zn  Zn15  1  0.50000000  0.68760202  0.46791153  1
  Zn  Zn16  1  0.50000000  0.16898629  0.66898629  1
  Zn  Zn17  1  0.50000000  0.83101371  0.33101371  1
  Zn  Zn18  1  0.50000000  0.33101371  0.16898629  1
  Zn  Zn19  1  0.50000000  0.66898629  0.83101371  1
  Ni  Ni20  1  0.50000000  0.50000000  0.50000000  1
  Ni  Ni21  1  0.50000000  -0.00000000  -0.00000000  1
  B  B22  1  0.50000000  0.53840104  0.16551026  1
  B  B23  1  0.50000000  0.46159896  0.83448974  1
  B  B24  1  0.50000000  0.96159896  0.66551026  1
  B  B25  1  0.50000000  0.03840104  0.33448974  1
  B  B26  1  0.50000000  0.16551026  0.46159896  1
  B  B27  1  0.50000000  0.83448974  0.53840104  1
  B  B28  1  0.50000000  0.66551026  0.03840104  1
  B  B29  1  0.50000000  0.33448974  0.96159896  1
  B  B30  1  0.50000000  0.62376899  0.33355086  1
  B  B31  1  0.50000000  0.37623101  0.66644914  1
  B  B32  1  0.50000000  0.87623101  0.83355086  1
  B  B33  1  0.50000000  0.12376899  0.16644914  1
  B  B34  1  0.50000000  0.33355086  0.37623101  1
  B  B35  1  0.50000000  0.66644914  0.62376899  1
  B  B36  1  0.50000000  0.83355086  0.12376899  1
  B  B37  1  0.50000000  0.16644914  0.87623101  1
  Rh  Rh38  1  -0.00000000  0.58763723  0.24388542  1
  Rh  Rh39  1  -0.00000000  0.41236277  0.75611458  1
  Rh  Rh40  1  0.00000000  0.91236277  0.74388542  1
  Rh  Rh41  1  0.00000000  0.08763723  0.25611458  1
  Rh  Rh42  1  0.00000000  0.24388542  0.41236277  1
  Rh  Rh43  1  -0.00000000  0.75611458  0.58763723  1
  Rh  Rh44  1  0.00000000  0.74388542  0.08763723  1
  Rh  Rh45  1  0.00000000  0.25611458  0.91236277  1
  Rh  Rh46  1  0.00000000  0.58180660  0.08180660  1
  Rh  Rh47  1  -0.00000000  0.41819340  0.91819340  1
  Rh  Rh48  1  0.00000000  0.91819340  0.58180660  1
  Rh  Rh49  1  0.00000000  0.08180660  0.41819340  1
  Rh  Rh50  1  0.00000000  0.04817822  0.67396914  1
  Rh  Rh51  1  -0.00000000  0.95182178  0.32603086  1
  Rh  Rh52  1  0.00000000  0.45182178  0.17396914  1
  Rh  Rh53  1  -0.00000000  0.54817822  0.82603086  1
  Rh  Rh54  1  0.00000000  0.67396914  0.95182178  1
  Rh  Rh55  1  -0.00000000  0.32603086  0.04817822  1
  Rh  Rh56  1  0.00000000  0.17396914  0.54817822  1
  Rh  Rh57  1  0.00000000  0.82603086  0.45182178  1
  Rh  Rh58  1  -0.00000000  0.56668467  0.40086569  1
  Rh  Rh59  1  -0.00000000  0.43331533  0.59913431  1
  Rh  Rh60  1  -0.00000000  0.93331533  0.90086569  1
  Rh  Rh61  1  0.00000000  0.06668467  0.09913431  1
  Rh  Rh62  1  -0.00000000  0.40086569  0.43331533  1
  Rh  Rh63  1  0.00000000  0.59913431  0.56668467  1
  Rh  Rh64  1  -0.00000000  0.90086569  0.06668467  1
  Rh  Rh65  1  0.00000000  0.09913431  0.93331533  1
  Rh  Rh66  1  0.00000000  0.71106164  0.33919837  1
  Rh  Rh67  1  0.00000000  0.28893836  0.66080163  1
  Rh  Rh68  1  -0.00000000  0.78893836  0.83919837  1
  Rh  Rh69  1  0.00000000  0.21106164  0.16080163  1
  Rh  Rh70  1  0.00000000  0.33919837  0.28893836  1
  Rh  Rh71  1  -0.00000000  0.66080163  0.71106164  1
  Rh  Rh72  1  0.00000000  0.83919837  0.21106164  1
  Rh  Rh73  1  -0.00000000  0.16080163  0.78893836  1
