# generated using pymatgen
data_Dy2FeSi2
_symmetry_space_group_name_H-M   'P 1'
_cell_length_a   4.13922460
_cell_length_b   5.64348896
_cell_length_c   8.95815201
_cell_angle_alpha   82.92985728
_cell_angle_beta   76.64221163
_cell_angle_gamma   68.48617765
_symmetry_Int_Tables_number   1
_chemical_formula_structural   Dy2FeSi2
_chemical_formula_sum   'Dy4 Fe2 Si4'
_cell_volume   189.24319758
_cell_formula_units_Z   2
loop_
 _symmetry_equiv_pos_site_id
 _symmetry_equiv_pos_as_xyz
  1  'x, y, z'
loop_
 _atom_site_type_symbol
 _atom_site_label
 _atom_site_symmetry_multiplicity
 _atom_site_fract_x
 _atom_site_fract_y
 _atom_site_fract_z
 _atom_site_occupancy
  Dy  Dy0  1  0.99915032  0.67318741  0.32851194  1
  Dy  Dy1  1  0.00084968  0.32681259  0.67148806  1
  Dy  Dy2  1  0.81154820  0.26754980  0.10935380  1
  Dy  Dy3  1  0.18845180  0.73245020  0.89064620  1
  Fe  Fe4  1  0.72797990  0.92095405  0.62308615  1
  Fe  Fe5  1  0.27202010  0.07904595  0.37691385  1
  Si  Si6  1  0.65520060  0.25390864  0.43569016  1
  Si  Si7  1  0.34479940  0.74609136  0.56430984  1
  Si  Si8  1  0.50079694  0.87236550  0.12604062  1
  Si  Si9  1  0.49920306  0.12763450  0.87395938  1
