# generated using pymatgen
data_Ca4NbGaO8
_symmetry_space_group_name_H-M   'P 1'
_cell_length_a   5.64834872
_cell_length_b   11.29031920
_cell_length_c   12.70897274
_cell_angle_alpha   107.54934230
_cell_angle_beta   90.00000000
_cell_angle_gamma   90.00000000
_symmetry_Int_Tables_number   1
_chemical_formula_structural   Ca4NbGaO8
_chemical_formula_sum   'Ca16 Nb4 Ga4 O32'
_cell_volume   772.75099024
_cell_formula_units_Z   4
loop_
 _symmetry_equiv_pos_site_id
 _symmetry_equiv_pos_as_xyz
  1  'x, y, z'
loop_
 _atom_site_type_symbol
 _atom_site_label
 _atom_site_symmetry_multiplicity
 _atom_site_fract_x
 _atom_site_fract_y
 _atom_site_fract_z
 _atom_site_occupancy
  Ca  Ca0  1  0.25510389  0.46955089  0.40065923  1
  Ca  Ca1  1  0.75510389  0.03044911  0.09934077  1
  Ca  Ca2  1  0.74489611  0.53044911  0.59934077  1
  Ca  Ca3  1  0.24489611  0.96955089  0.90065923  1
  Ca  Ca4  1  0.72423287  0.67581507  0.06929933  1
  Ca  Ca5  1  0.22423287  0.82418493  0.43070067  1
  Ca  Ca6  1  0.27576713  0.32418493  0.93070067  1
  Ca  Ca7  1  0.77576713  0.17581507  0.56929933  1
  Ca  Ca8  1  0.22930905  0.13409391  0.37780026  1
  Ca  Ca9  1  0.72930905  0.36590609  0.12219974  1
  Ca  Ca10  1  0.77069095  0.86590609  0.62219974  1
  Ca  Ca11  1  0.27069095  0.63409391  0.87780026  1
  Ca  Ca12  1  0.27150357  0.35007031  0.64020344  1
  Ca  Ca13  1  0.77150357  0.14992969  0.85979656  1
  Ca  Ca14  1  0.72849643  0.64992969  0.35979656  1
  Ca  Ca15  1  0.22849643  0.85007031  0.14020344  1
  Nb  Nb16  1  0.74918094  0.79284502  0.86876449  1
  Nb  Nb17  1  0.24918094  0.70715498  0.63123551  1
  Nb  Nb18  1  0.25081906  0.20715498  0.13123551  1
  Nb  Nb19  1  0.75081906  0.29284502  0.36876449  1
  Ga  Ga20  1  0.78941727  0.43807623  0.82846285  1
  Ga  Ga21  1  0.28941727  0.06192377  0.67153715  1
  Ga  Ga22  1  0.21058273  0.56192377  0.17153715  1
  Ga  Ga23  1  0.71058273  0.93807623  0.32846285  1
  O  O24  1  0.31845647  0.63822898  0.06960737  1
  O  O25  1  0.81845647  0.86177102  0.43039263  1
  O  O26  1  0.68154353  0.36177102  0.93039263  1
  O  O27  1  0.18154353  0.13822898  0.56960737  1
  O  O28  1  0.67116364  0.45411308  0.36132897  1
  O  O29  1  0.17116364  0.04588692  0.13867103  1
  O  O30  1  0.32883636  0.54588692  0.63867103  1
  O  O31  1  0.82883636  0.95411308  0.86132897  1
  O  O32  1  0.68331819  0.60741037  0.87353410  1
  O  O33  1  0.18331819  0.89258963  0.62646590  1
  O  O34  1  0.31668181  0.39258963  0.12646590  1
  O  O35  1  0.81668181  0.10741037  0.37353410  1
  O  O36  1  0.32335467  0.63322756  0.31232812  1
  O  O37  1  0.82335467  0.86677244  0.18767188  1
  O  O38  1  0.67664533  0.36677244  0.68767188  1
  O  O39  1  0.17664533  0.13322756  0.81232812  1
  O  O40  1  0.87771559  0.56314895  0.17617647  1
  O  O41  1  0.37771559  0.93685105  0.32382353  1
  O  O42  1  0.12228441  0.43685105  0.82382353  1
  O  O43  1  0.62228441  0.06314895  0.67617647  1
  O  O44  1  0.42814594  0.78776550  0.77619173  1
  O  O45  1  0.92814594  0.71223450  0.72380827  1
  O  O46  1  0.57185406  0.21223450  0.22380827  1
  O  O47  1  0.07185406  0.28776550  0.27619173  1
  O  O48  1  0.51809110  0.70267672  0.53542284  1
  O  O49  1  0.01809110  0.79732328  0.96457716  1
  O  O50  1  0.48190890  0.29732328  0.46457716  1
  O  O51  1  0.98190890  0.20267672  0.03542284  1
  O  O52  1  0.52771802  0.85149500  0.99427022  1
  O  O53  1  0.02771802  0.64850500  0.50572978  1
  O  O54  1  0.47228198  0.14850500  0.00572978  1
  O  O55  1  0.97228198  0.35149500  0.49427022  1
