# generated using pymatgen
data_Y3H
_symmetry_space_group_name_H-M   'P 1'
_cell_length_a   3.67462961
_cell_length_b   6.36587331
_cell_length_c   17.37780409
_cell_angle_alpha   90.00000000
_cell_angle_beta   90.00000000
_cell_angle_gamma   90.00000000
_symmetry_Int_Tables_number   1
_chemical_formula_structural   Y3H
_chemical_formula_sum   'Y12 H4'
_cell_volume   406.50553036
_cell_formula_units_Z   4
loop_
 _symmetry_equiv_pos_site_id
 _symmetry_equiv_pos_as_xyz
  1  'x, y, z'
loop_
 _atom_site_type_symbol
 _atom_site_label
 _atom_site_symmetry_multiplicity
 _atom_site_fract_x
 _atom_site_fract_y
 _atom_site_fract_z
 _atom_site_occupancy
  Y  Y0  1  0.00000000  0.66596569  0.41103466  1
  Y  Y1  1  0.00000000  0.33403431  0.58896534  1
  Y  Y2  1  -0.00000000  0.66596569  0.08896534  1
  Y  Y3  1  -0.00000000  0.33403431  0.91103466  1
  Y  Y4  1  0.00000000  0.32875270  0.25000000  1
  Y  Y5  1  -0.00000000  0.67124730  0.75000000  1
  Y  Y6  1  0.50000000  0.17055761  0.41705701  1
  Y  Y7  1  0.50000000  0.82944239  0.58294299  1
  Y  Y8  1  0.50000000  0.17055761  0.08294299  1
  Y  Y9  1  0.50000000  0.82944239  0.91705701  1
  Y  Y10  1  0.50000000  0.83354089  0.25000000  1
  Y  Y11  1  0.50000000  0.16645911  0.75000000  1
  H  H12  1  -0.00000000  0.33220097  0.37996388  1
  H  H13  1  -0.00000000  0.66779903  0.62003612  1
  H  H14  1  -0.00000000  0.33220097  0.12003612  1
  H  H15  1  -0.00000000  0.66779903  0.87996388  1
