# generated using pymatgen
data_Mg(AgO2)2
_symmetry_space_group_name_H-M   'P 1'
_cell_length_a   6.27368113
_cell_length_b   6.51433559
_cell_length_c   25.59420114
_cell_angle_alpha   59.39957440
_cell_angle_beta   59.17330377
_cell_angle_gamma   58.72275756
_symmetry_Int_Tables_number   1
_chemical_formula_structural   Mg(AgO2)2
_chemical_formula_sum   'Mg8 Ag16 O32'
_cell_volume   724.38404875
_cell_formula_units_Z   8
loop_
 _symmetry_equiv_pos_site_id
 _symmetry_equiv_pos_as_xyz
  1  'x, y, z'
loop_
 _atom_site_type_symbol
 _atom_site_label
 _atom_site_symmetry_multiplicity
 _atom_site_fract_x
 _atom_site_fract_y
 _atom_site_fract_z
 _atom_site_occupancy
  Mg  Mg0  1  0.15642757  0.11168669  0.03005026  1
  Mg  Mg1  1  0.00378177  0.49889389  0.12460711  1
  Mg  Mg2  1  0.15457239  0.11202264  0.28034533  1
  Mg  Mg3  1  0.00288260  0.49871428  0.37492221  1
  Mg  Mg4  1  0.00083354  0.49984784  0.62486744  1
  Mg  Mg5  1  0.49869163  0.49872204  0.50096632  1
  Mg  Mg6  1  0.00184930  0.49876536  0.87515499  1
  Mg  Mg7  1  0.50028371  0.50132233  0.74926741  1
  Ag  Ag8  1  0.50021547  0.49826810  0.12461692  1
  Ag  Ag9  1  0.50158996  0.49605406  0.25157523  1
  Ag  Ag10  1  0.50021547  0.00304874  0.12461692  1
  Ag  Ag11  1  0.14761866  0.10906705  0.53356156  1
  Ag  Ag12  1  0.50191690  0.49939891  0.37640688  1
  Ag  Ag13  1  0.85872801  0.88306072  0.21878764  1
  Ag  Ag14  1  0.15237941  0.10981960  0.78199535  1
  Ag  Ag15  1  0.50191690  0.99305768  0.37640688  1
  Ag  Ag16  1  0.50014948  0.50053002  0.62471785  1
  Ag  Ag17  1  0.84967977  0.88886566  0.46814698  1
  Ag  Ag18  1  0.50014948  0.00044909  0.62471785  1
  Ag  Ag19  1  0.49768123  0.00933658  0.87361627  1
  Ag  Ag20  1  0.49768123  0.49851710  0.87361627  1
  Ag  Ag21  1  0.85189166  0.89105602  0.71649857  1
  Ag  Ag22  1  0.49991445  0.50041146  -0.00018409  1
  Ag  Ag23  1  0.86109242  0.88389257  0.96778036  1
  O  O24  1  0.25318549  0.26407789  0.06604400  1
  O  O25  1  0.25639927  0.26058513  0.18060762  1
  O  O26  1  0.25318549  0.71856260  0.06604400  1
  O  O27  1  0.75492991  0.24726694  0.06263430  1
  O  O28  1  0.27411527  0.73892130  0.18701003  1
  O  O29  1  0.26245975  0.25818145  0.31590135  1
  O  O30  1  0.72786073  0.30023011  0.18481091  1
  O  O31  1  0.27531477  0.26117993  0.42558084  1
  O  O32  1  0.26245975  0.71575340  0.31590135  1
  O  O33  1  0.72616790  0.73836636  0.07427459  1
  O  O34  1  0.74599441  0.24801562  0.31449409  1
  O  O35  1  0.72786073  0.73266550  0.18481091  1
  O  O36  1  0.26858646  0.26980246  0.56679526  1
  O  O37  1  0.27207414  0.74167446  0.43614399  1
  O  O38  1  0.73426808  0.30219985  0.43341279  1
  O  O39  1  0.26864021  0.26085408  0.67741316  1
  O  O40  1  0.26858646  0.69442906  0.56679526  1
  O  O41  1  0.72858766  0.73628695  0.32470936  1
  O  O42  1  0.71607980  0.25871925  0.56662042  1
  O  O43  1  0.73426808  0.72988189  0.43341279  1
  O  O44  1  0.28382086  0.74245484  0.68281712  1
  O  O45  1  0.26471772  0.27254761  0.81707824  1
  O  O46  1  0.73175320  0.30560328  0.68263962  1
  O  O47  1  0.24793159  0.26016790  0.93293265  1
  O  O48  1  0.26471772  0.69441973  0.81707824  1
  O  O49  1  0.73097455  0.74005983  0.57222670  1
  O  O50  1  0.72122709  0.26099934  0.81419356  1
  O  O51  1  0.73175320  0.73208703  0.68263962  1
  O  O52  1  0.28200491  0.74636154  0.93131825  1
  O  O53  1  0.72773622  0.30307924  0.93262822  1
  O  O54  1  0.73246033  0.74108735  0.82134099  1
  O  O55  1  0.72773622  0.73867065  0.93262822  1
