# generated using pymatgen
data_V2Fe4Mo3O20
_symmetry_space_group_name_H-M   'P 1'
_cell_length_a   9.68804027
_cell_length_b   9.68804027
_cell_length_c   17.44894354
_cell_angle_alpha   90.00000000
_cell_angle_beta   90.00000000
_cell_angle_gamma   90.00000000
_symmetry_Int_Tables_number   1
_chemical_formula_structural   V2Fe4Mo3O20
_chemical_formula_sum   'V8 Fe16 Mo12 O80'
_cell_volume   1637.72511121
_cell_formula_units_Z   4
loop_
 _symmetry_equiv_pos_site_id
 _symmetry_equiv_pos_as_xyz
  1  'x, y, z'
loop_
 _atom_site_type_symbol
 _atom_site_label
 _atom_site_symmetry_multiplicity
 _atom_site_fract_x
 _atom_site_fract_y
 _atom_site_fract_z
 _atom_site_occupancy
  V  V0  1  0.50000000  0.16376816  -0.00000000  1
  V  V1  1  0.50000000  0.83623184  0.50000000  1
  V  V2  1  0.83623184  0.50000000  0.25000000  1
  V  V3  1  0.16376816  0.50000000  0.75000000  1
  V  V4  1  -0.00000000  0.66276078  -0.00000000  1
  V  V5  1  -0.00000000  0.33723922  0.50000000  1
  V  V6  1  0.33723922  0.00000000  0.25000000  1
  V  V7  1  0.66276078  0.00000000  0.75000000  1
  Fe  Fe8  1  0.09537030  0.25642767  0.31126017  1
  Fe  Fe9  1  0.90462970  0.74357233  0.81126017  1
  Fe  Fe10  1  0.74357233  0.09537030  0.56126017  1
  Fe  Fe11  1  0.90462970  0.25642767  0.68873983  1
  Fe  Fe12  1  0.25642767  0.90462970  0.06126017  1
  Fe  Fe13  1  0.09537030  0.74357233  0.18873983  1
  Fe  Fe14  1  0.25642767  0.09537030  0.43873983  1
  Fe  Fe15  1  0.74357233  0.90462970  0.93873983  1
  Fe  Fe16  1  0.59516004  0.24772818  0.18895081  1
  Fe  Fe17  1  0.40483996  0.75227182  0.68895081  1
  Fe  Fe18  1  0.75227182  0.59516004  0.43895081  1
  Fe  Fe19  1  0.40483996  0.24772818  0.81104919  1
  Fe  Fe20  1  0.24772818  0.40483996  0.93895081  1
  Fe  Fe21  1  0.59516004  0.75227182  0.31104919  1
  Fe  Fe22  1  0.24772818  0.59516004  0.56104919  1
  Fe  Fe23  1  0.75227182  0.40483996  0.06104919  1
  Mo  Mo24  1  -0.00000000  0.15914390  -0.00000000  1
  Mo  Mo25  1  -0.00000000  0.84085610  0.50000000  1
  Mo  Mo26  1  0.84085610  0.00000000  0.25000000  1
  Mo  Mo27  1  0.15914390  0.00000000  0.75000000  1
  Mo  Mo28  1  0.26680219  0.40113517  0.15432871  1
  Mo  Mo29  1  0.73319781  0.59886483  0.65432871  1
  Mo  Mo30  1  0.59886483  0.26680219  0.40432871  1
  Mo  Mo31  1  0.73319781  0.40113517  0.84567129  1
  Mo  Mo32  1  0.40113517  0.73319781  0.90432871  1
  Mo  Mo33  1  0.26680219  0.59886483  0.34567129  1
  Mo  Mo34  1  0.40113517  0.26680219  0.59567129  1
  Mo  Mo35  1  0.59886483  0.73319781  0.09567129  1
  O  O36  1  0.24036273  0.09725389  0.32121485  1
  O  O37  1  0.75963727  0.90274611  0.82121485  1
  O  O38  1  0.90274611  0.24036273  0.57121485  1
  O  O39  1  0.75963727  0.09725389  0.67878515  1
  O  O40  1  0.09725389  0.75963727  0.07121485  1
  O  O41  1  0.24036273  0.90274611  0.17878515  1
  O  O42  1  0.09725389  0.24036273  0.42878515  1
  O  O43  1  0.90274611  0.75963727  0.92878515  1
  O  O44  1  0.59455020  0.26121966  0.07162357  1
  O  O45  1  0.40544980  0.73878034  0.57162357  1
  O  O46  1  0.73878034  0.59455020  0.32162357  1
  O  O47  1  0.40544980  0.26121966  0.92837643  1
  O  O48  1  0.26121966  0.40544980  0.82162357  1
  O  O49  1  0.59455020  0.73878034  0.42837643  1
  O  O50  1  0.26121966  0.59455020  0.67837643  1
  O  O51  1  0.73878034  0.40544980  0.17837643  1
  O  O52  1  0.25935665  0.37117659  0.05309242  1
  O  O53  1  0.74064335  0.62882341  0.55309242  1
  O  O54  1  0.62882341  0.25935665  0.30309242  1
  O  O55  1  0.74064335  0.37117659  0.94690758  1
  O  O56  1  0.37117659  0.74064335  0.80309242  1
  O  O57  1  0.25935665  0.62882341  0.44690758  1
  O  O58  1  0.37117659  0.25935665  0.69690758  1
  O  O59  1  0.62882341  0.74064335  0.19690758  1
  O  O60  1  0.44296439  0.10982686  0.20228048  1
  O  O61  1  0.55703561  0.89017314  0.70228048  1
  O  O62  1  0.89017314  0.44296439  0.45228048  1
  O  O63  1  0.55703561  0.10982686  0.79771952  1
  O  O64  1  0.10982686  0.55703561  0.95228048  1
  O  O65  1  0.44296439  0.89017314  0.29771952  1
  O  O66  1  0.10982686  0.44296439  0.54771952  1
  O  O67  1  0.89017314  0.55703561  0.04771952  1
  O  O68  1  0.21960298  0.42351894  0.32674206  1
  O  O69  1  0.78039702  0.57648106  0.82674206  1
  O  O70  1  0.57648106  0.21960298  0.57674206  1
  O  O71  1  0.78039702  0.42351894  0.67325794  1
  O  O72  1  0.42351894  0.78039702  0.07674206  1
  O  O73  1  0.21960298  0.57648106  0.17325794  1
  O  O74  1  0.42351894  0.21960298  0.42325794  1
  O  O75  1  0.57648106  0.78039702  0.92325794  1
  O  O76  1  0.11265264  0.04979680  0.05342627  1
  O  O77  1  0.88734736  0.95020320  0.55342627  1
  O  O78  1  0.95020320  0.11265264  0.30342627  1
  O  O79  1  0.88734736  0.04979680  0.94657373  1
  O  O80  1  0.04979680  0.88734736  0.80342627  1
  O  O81  1  0.11265264  0.95020320  0.44657373  1
  O  O82  1  0.04979680  0.11265264  0.69657373  1
  O  O83  1  0.95020320  0.88734736  0.19657373  1
  O  O84  1  0.44107207  0.38560568  0.18680958  1
  O  O85  1  0.55892793  0.61439432  0.68680958  1
  O  O86  1  0.61439432  0.44107207  0.43680958  1
  O  O87  1  0.55892793  0.38560568  0.81319042  1
  O  O88  1  0.38560568  0.55892793  0.93680958  1
  O  O89  1  0.44107207  0.61439432  0.31319042  1
  O  O90  1  0.38560568  0.44107207  0.56319042  1
  O  O91  1  0.61439432  0.55892793  0.06319042  1
  O  O92  1  0.73472712  0.09549184  0.18429178  1
  O  O93  1  0.26527288  0.90450816  0.68429178  1
  O  O94  1  0.90450816  0.73472712  0.43429178  1
  O  O95  1  0.26527288  0.09549184  0.81570822  1
  O  O96  1  0.09549184  0.26527288  0.93429178  1
  O  O97  1  0.73472712  0.90450816  0.31570822  1
  O  O98  1  0.09549184  0.73472712  0.56570822  1
  O  O99  1  0.90450816  0.26527288  0.06570822  1
  O  O100  1  0.15458949  0.27742383  0.20062519  1
  O  O101  1  0.84541051  0.72257617  0.70062519  1
  O  O102  1  0.72257617  0.15458949  0.45062519  1
  O  O103  1  0.84541051  0.27742383  0.79937481  1
  O  O104  1  0.27742383  0.84541051  0.95062519  1
  O  O105  1  0.15458949  0.72257617  0.29937481  1
  O  O106  1  0.27742383  0.15458949  0.54937481  1
  O  O107  1  0.72257617  0.84541051  0.04937481  1
  O  O108  1  0.38716200  0.06041376  0.04722655  1
  O  O109  1  0.61283800  0.93958624  0.54722655  1
  O  O110  1  0.93958624  0.38716200  0.29722655  1
  O  O111  1  0.61283800  0.06041376  0.95277345  1
  O  O112  1  0.06041376  0.61283800  0.79722655  1
  O  O113  1  0.38716200  0.93958624  0.45277345  1
  O  O114  1  0.06041376  0.38716200  0.70277345  1
  O  O115  1  0.93958624  0.61283800  0.20277345  1
