# generated using pymatgen
data_U2(Si2Ni)3
_symmetry_space_group_name_H-M   'P 1'
_cell_length_a   3.97764188
_cell_length_b   3.97411665
_cell_length_c   10.72020436
_cell_angle_alpha   90.00000000
_cell_angle_beta   100.69150057
_cell_angle_gamma   90.00000000
_symmetry_Int_Tables_number   1
_chemical_formula_structural   U2(Si2Ni)3
_chemical_formula_sum   'U2 Si6 Ni3'
_cell_volume   166.51905533
_cell_formula_units_Z   1
loop_
 _symmetry_equiv_pos_site_id
 _symmetry_equiv_pos_as_xyz
  1  'x, y, z'
loop_
 _atom_site_type_symbol
 _atom_site_label
 _atom_site_symmetry_multiplicity
 _atom_site_fract_x
 _atom_site_fract_y
 _atom_site_fract_z
 _atom_site_occupancy
  U  U0  1  0.82827535  -0.00000000  0.65655071  1
  U  U1  1  0.17172465  -0.00000000  0.34344929  1
  Si  Si2  1  0.93974869  0.50000000  0.87949738  1
  Si  Si3  1  0.06025131  0.50000000  0.12050262  1
  Si  Si4  1  0.56047044  -0.00000000  0.12094087  1
  Si  Si5  1  0.43952956  -0.00000000  0.87905913  1
  Si  Si6  1  0.72113326  0.50000000  0.44226652  1
  Si  Si7  1  0.27886674  0.50000000  0.55773348  1
  Ni  Ni8  1  0.61439411  0.50000000  0.22878821  1
  Ni  Ni9  1  0.38560589  0.50000000  0.77121179  1
  Ni  Ni10  1  0.00000000  -0.00000000  0.00000000  1
