# generated using pymatgen
data_Se(OF)2
_symmetry_space_group_name_H-M   'P 1'
_cell_length_a   5.83168525
_cell_length_b   5.83168525
_cell_length_c   11.81126803
_cell_angle_alpha   90.00000000
_cell_angle_beta   90.00000000
_cell_angle_gamma   90.00000000
_symmetry_Int_Tables_number   1
_chemical_formula_structural   Se(OF)2
_chemical_formula_sum   'Se4 O8 F8'
_cell_volume   401.68413308
_cell_formula_units_Z   4
loop_
 _symmetry_equiv_pos_site_id
 _symmetry_equiv_pos_as_xyz
  1  'x, y, z'
loop_
 _atom_site_type_symbol
 _atom_site_label
 _atom_site_symmetry_multiplicity
 _atom_site_fract_x
 _atom_site_fract_y
 _atom_site_fract_z
 _atom_site_occupancy
  Se  Se0  1  0.09349547  0.09349547  0.00000000  1
  Se  Se1  1  0.90650453  0.90650453  0.50000000  1
  Se  Se2  1  0.40650453  0.59349547  0.25000000  1
  Se  Se3  1  0.59349547  0.40650453  0.75000000  1
  O  O4  1  0.33047511  0.03048138  0.06188233  1
  O  O5  1  0.66952489  0.96951862  0.56188233  1
  O  O6  1  0.46951862  0.83047511  0.31188233  1
  O  O7  1  0.16952489  0.53048138  0.18811767  1
  O  O8  1  0.53048138  0.16952489  0.81188233  1
  O  O9  1  0.83047511  0.46951862  0.68811767  1
  O  O10  1  0.03048138  0.33047511  0.93811767  1
  O  O11  1  0.96951862  0.66952489  0.43811767  1
  F  F12  1  0.97023503  0.12814323  0.40535226  1
  F  F13  1  0.02976497  0.87185677  0.90535226  1
  F  F14  1  0.37185677  0.47023503  0.65535226  1
  F  F15  1  0.52976497  0.62814323  0.84464774  1
  F  F16  1  0.62814323  0.52976497  0.15535226  1
  F  F17  1  0.47023503  0.37185677  0.34464774  1
  F  F18  1  0.12814323  0.97023503  0.59464774  1
  F  F19  1  0.87185677  0.02976497  0.09464774  1
