# generated using pymatgen
data_Ti2CrSe4
_symmetry_space_group_name_H-M   'P 1'
_cell_length_a   3.56891925
_cell_length_b   6.31812105
_cell_length_c   6.99979426
_cell_angle_alpha   115.65647409
_cell_angle_beta   104.76945042
_cell_angle_gamma   90.00000000
_symmetry_Int_Tables_number   1
_chemical_formula_structural   Ti2CrSe4
_chemical_formula_sum   'Ti2 Cr1 Se4'
_cell_volume   136.46718639
_cell_formula_units_Z   1
loop_
 _symmetry_equiv_pos_site_id
 _symmetry_equiv_pos_as_xyz
  1  'x, y, z'
loop_
 _atom_site_type_symbol
 _atom_site_label
 _atom_site_symmetry_multiplicity
 _atom_site_fract_x
 _atom_site_fract_y
 _atom_site_fract_z
 _atom_site_occupancy
  Ti  Ti0  1  0.25316494  0.28479962  0.50632988  1
  Ti  Ti1  1  0.74683506  0.71520038  0.49367012  1
  Cr  Cr2  1  0.00000000  0.00000000  0.00000000  1
  Se  Se3  1  0.11373842  0.45059102  0.22747683  1
  Se  Se4  1  0.88626158  0.54940898  0.77252317  1
  Se  Se5  1  0.37058282  0.03410673  0.74116564  1
  Se  Se6  1  0.62941718  0.96589327  0.25883436  1
