# generated using pymatgen
data_UCo2Sn
_symmetry_space_group_name_H-M   'P 1'
_cell_length_a   4.30211728
_cell_length_b   9.31547266
_cell_length_c   6.62670510
_cell_angle_alpha   90.00000000
_cell_angle_beta   90.00000000
_cell_angle_gamma   90.00000000
_symmetry_Int_Tables_number   1
_chemical_formula_structural   UCo2Sn
_chemical_formula_sum   'U4 Co8 Sn4'
_cell_volume   265.57352937
_cell_formula_units_Z   4
loop_
 _symmetry_equiv_pos_site_id
 _symmetry_equiv_pos_as_xyz
  1  'x, y, z'
loop_
 _atom_site_type_symbol
 _atom_site_label
 _atom_site_symmetry_multiplicity
 _atom_site_fract_x
 _atom_site_fract_y
 _atom_site_fract_z
 _atom_site_occupancy
  U  U0  1  0.75000000  0.89945501  0.68919677  1
  U  U1  1  0.25000000  0.10054499  0.31080323  1
  U  U2  1  0.25000000  0.60054499  0.18919677  1
  U  U3  1  0.75000000  0.39945501  0.81080323  1
  Co  Co4  1  0.75000000  0.67486662  0.91408408  1
  Co  Co5  1  0.25000000  0.32513338  0.08591592  1
  Co  Co6  1  0.25000000  0.82513338  0.41408408  1
  Co  Co7  1  0.75000000  0.17486662  0.58591592  1
  Co  Co8  1  0.75000000  0.62037715  0.46803482  1
  Co  Co9  1  0.25000000  0.37962285  0.53196518  1
  Co  Co10  1  0.25000000  0.87962285  0.96803482  1
  Co  Co11  1  0.75000000  0.12037715  0.03196518  1
  Sn  Sn12  1  0.75000000  0.86091009  0.20218047  1
  Sn  Sn13  1  0.25000000  0.13908991  0.79781953  1
  Sn  Sn14  1  0.25000000  0.63908991  0.70218047  1
  Sn  Sn15  1  0.75000000  0.36091009  0.29781953  1
