# generated using pymatgen
data_Sr2EuBeO5
_symmetry_space_group_name_H-M   'P 1'
_cell_length_a   6.71200822
_cell_length_b   7.38254489
_cell_length_c   9.72852127
_cell_angle_alpha   90.00000000
_cell_angle_beta   90.00000000
_cell_angle_gamma   90.00000000
_symmetry_Int_Tables_number   1
_chemical_formula_structural   Sr2EuBeO5
_chemical_formula_sum   'Sr8 Eu4 Be4 O20'
_cell_volume   482.06478674
_cell_formula_units_Z   4
loop_
 _symmetry_equiv_pos_site_id
 _symmetry_equiv_pos_as_xyz
  1  'x, y, z'
loop_
 _atom_site_type_symbol
 _atom_site_label
 _atom_site_symmetry_multiplicity
 _atom_site_fract_x
 _atom_site_fract_y
 _atom_site_fract_z
 _atom_site_occupancy
  Sr  Sr0  1  0.91120098  0.97751946  0.67294324  1
  Sr  Sr1  1  0.08879902  0.02248054  0.32705676  1
  Sr  Sr2  1  0.41120098  0.02248054  0.82705676  1
  Sr  Sr3  1  0.08879902  0.47751946  0.32705676  1
  Sr  Sr4  1  0.58879902  0.97751946  0.17294324  1
  Sr  Sr5  1  0.91120098  0.52248054  0.67294324  1
  Sr  Sr6  1  0.58879902  0.52248054  0.17294324  1
  Sr  Sr7  1  0.41120098  0.47751946  0.82705676  1
  Eu  Eu8  1  0.41738783  0.75000000  0.52225424  1
  Eu  Eu9  1  0.58261217  0.25000000  0.47774576  1
  Eu  Eu10  1  0.91738783  0.25000000  0.97774576  1
  Eu  Eu11  1  0.08261217  0.75000000  0.02225424  1
  Be  Be12  1  0.68576734  0.75000000  0.89798694  1
  Be  Be13  1  0.31423266  0.25000000  0.10201306  1
  Be  Be14  1  0.18576734  0.25000000  0.60201306  1
  Be  Be15  1  0.81423266  0.75000000  0.39798694  1
  O  O16  1  0.81326642  0.93674429  0.93460079  1
  O  O17  1  0.18673358  0.06325571  0.06539921  1
  O  O18  1  0.31326642  0.06325571  0.56539921  1
  O  O19  1  0.18673358  0.43674429  0.06539921  1
  O  O20  1  0.68673358  0.93674429  0.43460079  1
  O  O21  1  0.81326642  0.56325571  0.93460079  1
  O  O22  1  0.68673358  0.56325571  0.43460079  1
  O  O23  1  0.31326642  0.43674429  0.56539921  1
  O  O24  1  0.16214975  0.75000000  0.79231283  1
  O  O25  1  0.83785025  0.25000000  0.20768717  1
  O  O26  1  0.66214975  0.25000000  0.70768717  1
  O  O27  1  0.33785025  0.75000000  0.29231283  1
  O  O28  1  0.47728840  0.75000000  0.98974350  1
  O  O29  1  0.52271160  0.25000000  0.01025650  1
  O  O30  1  0.97728840  0.25000000  0.51025650  1
  O  O31  1  0.02271160  0.75000000  0.48974350  1
  O  O32  1  0.62367767  0.75000000  0.72829627  1
  O  O33  1  0.37632233  0.25000000  0.27170373  1
  O  O34  1  0.12367767  0.25000000  0.77170373  1
  O  O35  1  0.87632233  0.75000000  0.22829627  1
