# generated using pymatgen
data_Tb5Ni2Sb
_symmetry_space_group_name_H-M   'P 1'
_cell_length_a   7.65639068
_cell_length_b   7.65639068
_cell_length_c   8.59308271
_cell_angle_alpha   116.45515771
_cell_angle_beta   116.45515771
_cell_angle_gamma   90.00000000
_symmetry_Int_Tables_number   1
_chemical_formula_structural   Tb5Ni2Sb
_chemical_formula_sum   'Tb10 Ni4 Sb2'
_cell_volume   391.18212687
_cell_formula_units_Z   2
loop_
 _symmetry_equiv_pos_site_id
 _symmetry_equiv_pos_as_xyz
  1  'x, y, z'
loop_
 _atom_site_type_symbol
 _atom_site_label
 _atom_site_symmetry_multiplicity
 _atom_site_fract_x
 _atom_site_fract_y
 _atom_site_fract_z
 _atom_site_occupancy
  Tb  Tb0  1  0.00000000  0.00000000  0.00000000  1
  Tb  Tb1  1  0.50000000  0.50000000  0.00000000  1
  Tb  Tb2  1  0.29926961  0.79926961  0.27590313  1
  Tb  Tb3  1  0.70073039  0.20073039  0.72409687  1
  Tb  Tb4  1  0.97663352  0.47663352  0.27590313  1
  Tb  Tb5  1  0.47663352  0.29926961  0.27590313  1
  Tb  Tb6  1  0.20073039  0.02336648  0.72409687  1
  Tb  Tb7  1  0.02336648  0.52336648  0.72409687  1
  Tb  Tb8  1  0.52336648  0.70073039  0.72409687  1
  Tb  Tb9  1  0.79926961  0.97663352  0.27590313  1
  Ni  Ni10  1  0.62380863  0.12380863  0.00000000  1
  Ni  Ni11  1  0.37619137  0.87619137  1.00000000  1
  Ni  Ni12  1  0.87619137  0.62380863  0.00000000  1
  Ni  Ni13  1  0.12380863  0.37619137  0.00000000  1
  Sb  Sb14  1  0.25000000  0.25000000  0.50000000  1
  Sb  Sb15  1  0.75000000  0.75000000  0.50000000  1
