# generated using pymatgen
data_V3BO5
_symmetry_space_group_name_H-M   'P 1'
_cell_length_a   3.11685036
_cell_length_b   9.58604222
_cell_length_c   12.71299214
_cell_angle_alpha   90.00000000
_cell_angle_beta   90.00000000
_cell_angle_gamma   90.00000000
_symmetry_Int_Tables_number   1
_chemical_formula_structural   V3BO5
_chemical_formula_sum   'V12 B4 O20'
_cell_volume   379.84207366
_cell_formula_units_Z   4
loop_
 _symmetry_equiv_pos_site_id
 _symmetry_equiv_pos_as_xyz
  1  'x, y, z'
loop_
 _atom_site_type_symbol
 _atom_site_label
 _atom_site_symmetry_multiplicity
 _atom_site_fract_x
 _atom_site_fract_y
 _atom_site_fract_z
 _atom_site_occupancy
  V  V0  1  0.50000000  0.00409781  0.22083756  1
  V  V1  1  0.50000000  0.99590219  0.77916244  1
  V  V2  1  0.50000000  0.49590219  0.72083756  1
  V  V3  1  0.50000000  0.50409781  0.27916244  1
  V  V4  1  0.50000000  0.00000000  0.50000000  1
  V  V5  1  0.50000000  0.50000000  -0.00000000  1
  V  V6  1  -0.00000000  0.24370661  0.38763423  1
  V  V7  1  0.00000000  0.75629339  0.61236577  1
  V  V8  1  0.00000000  0.25629339  0.88763423  1
  V  V9  1  0.00000000  0.74370661  0.11236577  1
  V  V10  1  0.00000000  -0.00000000  -0.00000000  1
  V  V11  1  -0.00000000  0.50000000  0.50000000  1
  B  B12  1  -0.00000000  0.27497728  0.14027211  1
  B  B13  1  -0.00000000  0.72502272  0.85972789  1
  B  B14  1  0.00000000  0.22502272  0.64027211  1
  B  B15  1  0.00000000  0.77497728  0.35972789  1
  O  O16  1  0.00000000  0.34709331  0.04489745  1
  O  O17  1  0.00000000  0.65290669  0.95510255  1
  O  O18  1  -0.00000000  0.15290669  0.54489745  1
  O  O19  1  -0.00000000  0.84709331  0.45510255  1
  O  O20  1  -0.00000000  0.12966789  0.14139930  1
  O  O21  1  0.00000000  0.87033211  0.85860070  1
  O  O22  1  -0.00000000  0.37033211  0.64139930  1
  O  O23  1  -0.00000000  0.62966789  0.35860070  1
  O  O24  1  0.50000000  0.11556472  0.36070053  1
  O  O25  1  0.50000000  0.88443528  0.63929947  1
  O  O26  1  0.50000000  0.38443528  0.86070053  1
  O  O27  1  0.50000000  0.61556472  0.13929947  1
  O  O28  1  -0.00000000  0.34798593  0.23540577  1
  O  O29  1  -0.00000000  0.65201407  0.76459423  1
  O  O30  1  -0.00000000  0.15201407  0.73540577  1
  O  O31  1  0.00000000  0.84798593  0.26459423  1
  O  O32  1  0.50000000  0.38682671  0.42205278  1
  O  O33  1  0.50000000  0.61317329  0.57794722  1
  O  O34  1  0.50000000  0.11317329  0.92205278  1
  O  O35  1  0.50000000  0.88682671  0.07794722  1
