# generated using pymatgen
data_Sm5CuPb3
_symmetry_space_group_name_H-M   'P 1'
_cell_length_a   6.92072234
_cell_length_b   9.55570963
_cell_length_c   9.55570963
_cell_angle_alpha   120.00000725
_cell_angle_beta   90.00000000
_cell_angle_gamma   90.00000000
_symmetry_Int_Tables_number   1
_chemical_formula_structural   Sm5CuPb3
_chemical_formula_sum   'Sm10 Cu2 Pb6'
_cell_volume   547.27790386
_cell_formula_units_Z   2
loop_
 _symmetry_equiv_pos_site_id
 _symmetry_equiv_pos_as_xyz
  1  'x, y, z'
loop_
 _atom_site_type_symbol
 _atom_site_label
 _atom_site_symmetry_multiplicity
 _atom_site_fract_x
 _atom_site_fract_y
 _atom_site_fract_z
 _atom_site_occupancy
  Sm  Sm0  1  -0.00000000  0.66666700  0.33333300  1
  Sm  Sm1  1  0.00000000  0.33333300  0.66666700  1
  Sm  Sm2  1  0.50000000  0.33333300  0.66666700  1
  Sm  Sm3  1  0.50000000  0.66666700  0.33333300  1
  Sm  Sm4  1  0.75000000  0.74699621  0.74699621  1
  Sm  Sm5  1  0.25000000  0.25300379  0.25300379  1
  Sm  Sm6  1  0.75000000  0.00000000  0.25300379  1
  Sm  Sm7  1  0.25000000  -0.00000000  0.74699621  1
  Sm  Sm8  1  0.75000000  0.25300379  0.00000000  1
  Sm  Sm9  1  0.25000000  0.74699621  -0.00000000  1
  Cu  Cu10  1  -0.00000000  -0.00000000  -0.00000000  1
  Cu  Cu11  1  0.50000000  -0.00000000  -0.00000000  1
  Pb  Pb12  1  0.75000000  0.38818064  0.38818064  1
  Pb  Pb13  1  0.25000000  0.61181936  0.61181936  1
  Pb  Pb14  1  0.75000000  -0.00000000  0.61181936  1
  Pb  Pb15  1  0.25000000  0.00000000  0.38818064  1
  Pb  Pb16  1  0.75000000  0.61181936  -0.00000000  1
  Pb  Pb17  1  0.25000000  0.38818064  0.00000000  1
