# generated using pymatgen
data_Si2WO6
_symmetry_space_group_name_H-M   'P 1'
_cell_length_a   5.43317949
_cell_length_b   6.64966756
_cell_length_c   6.64966727
_cell_angle_alpha   84.97194946
_cell_angle_beta   76.16021193
_cell_angle_gamma   76.16021198
_symmetry_Int_Tables_number   1
_chemical_formula_structural   Si2WO6
_chemical_formula_sum   'Si4 W2 O12'
_cell_volume   226.37989596
_cell_formula_units_Z   2
loop_
 _symmetry_equiv_pos_site_id
 _symmetry_equiv_pos_as_xyz
  1  'x, y, z'
loop_
 _atom_site_type_symbol
 _atom_site_label
 _atom_site_symmetry_multiplicity
 _atom_site_fract_x
 _atom_site_fract_y
 _atom_site_fract_z
 _atom_site_occupancy
  Si  Si0  1  0.23141935  0.22023525  0.38950678  1
  Si  Si1  1  0.26858458  0.61049082  0.77975861  1
  Si  Si2  1  0.73141935  0.38950678  0.22023525  1
  Si  Si3  1  0.76858558  0.77975861  0.61049082  1
  W  W4  1  0.25000245  0.09808728  0.90191375  1
  W  W5  1  0.75000245  0.90191475  0.09808628  1
  O  O6  1  0.46025518  0.34782125  0.36597411  1
  O  O7  1  0.03975505  0.63402143  0.65216532  1
  O  O8  1  0.53975605  0.65216532  0.63402243  1
  O  O9  1  0.96025418  0.36597511  0.34782025  1
  O  O10  1  0.18341031  0.11411095  0.61828087  1
  O  O11  1  0.31657768  0.38173214  0.88591067  1
  O  O12  1  0.81657768  0.88591167  0.38173314  1
  O  O13  1  0.68340931  0.61828087  0.11411195  1
  O  O14  1  0.84362568  0.19682823  0.05108600  1
  O  O15  1  0.65636773  0.94889628  0.80317927  1
  O  O16  1  0.34362468  0.05108600  0.19682923  1
  O  O17  1  0.15636873  0.80318027  0.94889628  1
