# generated using pymatgen
data_LiP4(RuO7)2
_symmetry_space_group_name_H-M   'P 1'
_cell_length_a   4.86055251
_cell_length_b   7.01108568
_cell_length_c   7.97374057
_cell_angle_alpha   91.63030294
_cell_angle_beta   92.53770925
_cell_angle_gamma   106.39455589
_symmetry_Int_Tables_number   1
_chemical_formula_structural   LiP4(RuO7)2
_chemical_formula_sum   'Li1 P4 Ru2 O14'
_cell_volume   260.18548293
_cell_formula_units_Z   1
loop_
 _symmetry_equiv_pos_site_id
 _symmetry_equiv_pos_as_xyz
  1  'x, y, z'
loop_
 _atom_site_type_symbol
 _atom_site_label
 _atom_site_symmetry_multiplicity
 _atom_site_fract_x
 _atom_site_fract_y
 _atom_site_fract_z
 _atom_site_occupancy
  Li  Li0  1  0.00000000  -0.00000000  0.50000000  1
  P  P1  1  0.37867039  0.77238709  0.79594005  1
  P  P2  1  0.62132961  0.22761291  0.20405995  1
  P  P3  1  0.02737605  0.62788623  0.26045898  1
  P  P4  1  0.97262395  0.37211377  0.73954102  1
  Ru  Ru5  1  0.50000000  0.50000000  0.50000000  1
  Ru  Ru6  1  0.00000000  -0.00000000  -0.00000000  1
  O  O7  1  0.10600378  0.80101510  0.14729969  1
  O  O8  1  0.89399622  0.19898490  0.85270031  1
  O  O9  1  0.48313854  0.76183576  0.61667724  1
  O  O10  1  0.51686146  0.23816424  0.38332276  1
  O  O11  1  0.19694602  0.55225000  0.84385481  1
  O  O12  1  0.80305398  0.44775000  0.15614519  1
  O  O13  1  0.17802220  0.90909902  0.79215542  1
  O  O14  1  0.82197780  0.09090098  0.20784458  1
  O  O15  1  0.29746947  0.56037452  0.29658819  1
  O  O16  1  0.70253053  0.43962548  0.70341181  1
  O  O17  1  0.61422023  0.81813513  0.93675348  1
  O  O18  1  0.38577977  0.18186487  0.06324652  1
  O  O19  1  0.11589034  0.32213334  0.57949404  1
  O  O20  1  0.88410966  0.67786666  0.42050596  1
