# generated using pymatgen
data_NaCr(PS3)2
_symmetry_space_group_name_H-M   'P 1'
_cell_length_a   5.96576364
_cell_length_b   7.24192088
_cell_length_c   21.41558168
_cell_angle_alpha   91.51861204
_cell_angle_beta   90.00000000
_cell_angle_gamma   90.00000000
_symmetry_Int_Tables_number   1
_chemical_formula_structural   NaCr(PS3)2
_chemical_formula_sum   'Na4 Cr4 P8 S24'
_cell_volume   924.90500449
_cell_formula_units_Z   4
loop_
 _symmetry_equiv_pos_site_id
 _symmetry_equiv_pos_as_xyz
  1  'x, y, z'
loop_
 _atom_site_type_symbol
 _atom_site_label
 _atom_site_symmetry_multiplicity
 _atom_site_fract_x
 _atom_site_fract_y
 _atom_site_fract_z
 _atom_site_occupancy
  Na  Na0  1  0.07764245  0.04338821  0.71910670  1
  Na  Na1  1  0.92235755  0.95661179  0.28089330  1
  Na  Na2  1  0.57764245  0.45661179  0.78089330  1
  Na  Na3  1  0.42235755  0.54338821  0.21910670  1
  Cr  Cr4  1  0.75159686  0.02015152  0.95954267  1
  Cr  Cr5  1  0.24840314  0.97984848  0.04045733  1
  Cr  Cr6  1  0.25159686  0.47984848  0.54045733  1
  Cr  Cr7  1  0.74840314  0.52015152  0.45954267  1
  P  P8  1  0.24545845  0.90805798  0.87099117  1
  P  P9  1  0.75454155  0.09194202  0.12900883  1
  P  P10  1  0.74545845  0.59194202  0.62900883  1
  P  P11  1  0.25454155  0.40805798  0.37099117  1
  P  P12  1  0.25806186  0.21019003  0.89015163  1
  P  P13  1  0.74193814  0.78980997  0.10984837  1
  P  P14  1  0.75806186  0.28980997  0.60984837  1
  P  P15  1  0.24193814  0.71019003  0.39015163  1
  S  S16  1  0.12168244  0.35266910  0.82201250  1
  S  S17  1  0.87831756  0.64733090  0.17798750  1
  S  S18  1  0.62168244  0.14733090  0.67798750  1
  S  S19  1  0.37831756  0.85266910  0.32201250  1
  S  S20  1  0.41117949  0.65102497  0.62758658  1
  S  S21  1  0.58882051  0.34897503  0.37241342  1
  S  S22  1  0.91117949  0.84897503  0.87241342  1
  S  S23  1  0.08882051  0.15102497  0.12758658  1
  S  S24  1  0.07769235  0.21768750  0.97679176  1
  S  S25  1  0.92230765  0.78231250  0.02320824  1
  S  S26  1  0.57769235  0.28231250  0.52320824  1
  S  S27  1  0.42230765  0.71768750  0.47679176  1
  S  S28  1  0.40081895  0.84290687  0.79196120  1
  S  S29  1  0.59918105  0.15709313  0.20803880  1
  S  S30  1  0.90081895  0.65709313  0.70803880  1
  S  S31  1  0.09918105  0.34290687  0.29196120  1
  S  S32  1  0.42254800  0.81936802  0.95120780  1
  S  S33  1  0.57745200  0.18063198  0.04879220  1
  S  S34  1  0.92254800  0.68063198  0.54879220  1
  S  S35  1  0.07745200  0.31936802  0.45120780  1
  S  S36  1  0.58879170  0.27341877  0.90334890  1
  S  S37  1  0.41120830  0.72658123  0.09665110  1
  S  S38  1  0.08879170  0.22658123  0.59665110  1
  S  S39  1  0.91120830  0.77341877  0.40334890  1
