# generated using pymatgen
data_NaP3PbO9
_symmetry_space_group_name_H-M   'P 1'
_cell_length_a   5.78847555
_cell_length_b   11.12052897
_cell_length_c   12.92814248
_cell_angle_alpha   90.00000000
_cell_angle_beta   90.00000000
_cell_angle_gamma   90.00000000
_symmetry_Int_Tables_number   1
_chemical_formula_structural   NaP3PbO9
_chemical_formula_sum   'Na4 P12 Pb4 O36'
_cell_volume   832.19629664
_cell_formula_units_Z   4
loop_
 _symmetry_equiv_pos_site_id
 _symmetry_equiv_pos_as_xyz
  1  'x, y, z'
loop_
 _atom_site_type_symbol
 _atom_site_label
 _atom_site_symmetry_multiplicity
 _atom_site_fract_x
 _atom_site_fract_y
 _atom_site_fract_z
 _atom_site_occupancy
  Na  Na0  1  0.39039887  0.39358589  0.41199896  1
  Na  Na1  1  0.10960113  0.60641411  0.91199896  1
  Na  Na2  1  0.60960113  0.89358589  0.08800104  1
  Na  Na3  1  0.89039887  0.10641411  0.58800104  1
  P  P4  1  0.08664821  0.70797893  0.18569334  1
  P  P5  1  0.41335179  0.29202107  0.68569334  1
  P  P6  1  0.91335179  0.20797893  0.31430666  1
  P  P7  1  0.58664821  0.79202107  0.81430666  1
  P  P8  1  0.10186327  0.34578752  0.14460477  1
  P  P9  1  0.39813673  0.65421248  0.64460477  1
  P  P10  1  0.89813673  0.84578752  0.35539523  1
  P  P11  1  0.60186327  0.15421248  0.85539523  1
  P  P12  1  0.10435418  0.08248535  0.13192191  1
  P  P13  1  0.39564582  0.91751465  0.63192191  1
  P  P14  1  0.89564582  0.58248535  0.36807809  1
  P  P15  1  0.60435418  0.41751465  0.86807809  1
  Pb  Pb16  1  0.40310328  0.02839999  0.36518382  1
  Pb  Pb17  1  0.09689672  0.97160001  0.86518382  1
  Pb  Pb18  1  0.59689672  0.52839999  0.13481618  1
  Pb  Pb19  1  0.90310328  0.47160001  0.63481618  1
  O  O20  1  0.08967848  0.82138852  0.26438370  1
  O  O21  1  0.41032152  0.17861148  0.76438370  1
  O  O22  1  0.91032152  0.32138852  0.23561630  1
  O  O23  1  0.58967848  0.67861148  0.73561630  1
  O  O24  1  0.17892244  0.29848257  0.63632330  1
  O  O25  1  0.32107756  0.70151743  0.13632330  1
  O  O26  1  0.82107756  0.79848257  0.86367670  1
  O  O27  1  0.67892244  0.20151743  0.36367670  1
  O  O28  1  0.50072287  0.56110302  0.57488123  1
  O  O29  1  0.99927713  0.43889698  0.07488123  1
  O  O30  1  0.49927713  0.06110302  0.92511877  1
  O  O31  1  0.00072287  0.93889698  0.42511877  1
  O  O32  1  0.12519870  0.21209592  0.38217679  1
  O  O33  1  0.37480130  0.78790408  0.88217679  1
  O  O34  1  0.87480130  0.71209592  0.11782321  1
  O  O35  1  0.62519870  0.28790408  0.61782321  1
  O  O36  1  0.10017608  0.21745066  0.08429992  1
  O  O37  1  0.39982392  0.78254934  0.58429992  1
  O  O38  1  0.89982392  0.71745066  0.41570008  1
  O  O39  1  0.60017608  0.28254934  0.91570008  1
  O  O40  1  0.98033069  0.00128934  0.05750045  1
  O  O41  1  0.51966931  0.99871066  0.55750045  1
  O  O42  1  0.01966931  0.50128934  0.44249955  1
  O  O43  1  0.48033069  0.49871066  0.94249955  1
  O  O44  1  0.34332726  0.04807999  0.16770149  1
  O  O45  1  0.15667274  0.95192001  0.66770149  1
  O  O46  1  0.65667274  0.54807999  0.33229851  1
  O  O47  1  0.84332726  0.45192001  0.83229851  1
  O  O48  1  0.06429360  0.59648990  0.26717634  1
  O  O49  1  0.43570640  0.40351010  0.76717634  1
  O  O50  1  0.93570640  0.09648990  0.23282366  1
  O  O51  1  0.56429360  0.90351010  0.73282366  1
  O  O52  1  0.33287264  0.36615203  0.19543701  1
  O  O53  1  0.16712736  0.63384797  0.69543701  1
  O  O54  1  0.66712736  0.86615203  0.30456299  1
  O  O55  1  0.83287264  0.13384797  0.80456299  1
