# generated using pymatgen
data_Na2SnH14S3O7
_symmetry_space_group_name_H-M   'P 1'
_cell_length_a   7.23099666
_cell_length_b   9.72810114
_cell_length_c   10.32219688
_cell_angle_alpha   92.44862450
_cell_angle_beta   92.07389569
_cell_angle_gamma   107.49242869
_symmetry_Int_Tables_number   1
_chemical_formula_structural   Na2SnH14S3O7
_chemical_formula_sum   'Na4 Sn2 H28 S6 O14'
_cell_volume   690.97697185
_cell_formula_units_Z   2
loop_
 _symmetry_equiv_pos_site_id
 _symmetry_equiv_pos_as_xyz
  1  'x, y, z'
loop_
 _atom_site_type_symbol
 _atom_site_label
 _atom_site_symmetry_multiplicity
 _atom_site_fract_x
 _atom_site_fract_y
 _atom_site_fract_z
 _atom_site_occupancy
  Na  Na0  1  0.19510283  0.14190046  0.55282190  1
  Na  Na1  1  0.80489717  0.85809954  0.44717810  1
  Na  Na2  1  0.40466422  0.02937771  0.84662860  1
  Na  Na3  1  0.59533578  0.97062229  0.15337140  1
  Sn  Sn4  1  0.07339579  0.41180372  0.11993194  1
  Sn  Sn5  1  0.92660421  0.58819628  0.88006806  1
  H  H6  1  0.06039769  0.07264100  0.28548582  1
  H  H7  1  0.93960231  0.92735900  0.71451418  1
  H  H8  1  0.24001748  0.74865525  0.22987324  1
  H  H9  1  0.75998252  0.25134475  0.77012676  1
  H  H10  1  0.07815011  0.66660382  0.43312587  1
  H  H11  1  0.92184989  0.33339618  0.56687413  1
  H  H12  1  0.45293273  0.31574830  0.74824497  1
  H  H13  1  0.54706727  0.68425170  0.25175503  1
  H  H14  1  0.56499908  0.35298962  0.49989235  1
  H  H15  1  0.43500092  0.64701038  0.50010765  1
  H  H16  1  0.32985880  0.15858835  0.07988566  1
  H  H17  1  0.67014120  0.84141165  0.92011434  1
  H  H18  1  0.44782235  0.33610038  0.36762935  1
  H  H19  1  0.55217765  0.66389962  0.63237065  1
  H  H20  1  0.55406761  0.09805724  0.39278178  1
  H  H21  1  0.44593239  0.90194276  0.60721822  1
  H  H22  1  0.04174810  0.35762166  0.44201567  1
  H  H23  1  0.95825190  0.64237834  0.55798433  1
  H  H24  1  0.25837113  0.29928079  0.81323022  1
  H  H25  1  0.74162887  0.70071921  0.18676978  1
  H  H26  1  0.77473733  0.13743419  0.40840114  1
  H  H27  1  0.22526267  0.86256581  0.59159886  1
  H  H28  1  0.55130616  0.24013081  0.06377528  1
  H  H29  1  0.44869384  0.75986919  0.93622472  1
  H  H30  1  0.14592064  0.94650825  0.30895118  1
  H  H31  1  0.85407936  0.05349175  0.69104882  1
  H  H32  1  0.16883242  0.83383937  0.12023637  1
  H  H33  1  0.83116758  0.16616063  0.87976363  1
  S  S34  1  0.01013549  0.16133636  0.08932358  1
  S  S35  1  0.98986451  0.83866364  0.91067642  1
  S  S36  1  0.24221407  0.53798113  0.31357051  1
  S  S37  1  0.75778593  0.46201887  0.68642949  1
  S  S38  1  0.77158428  0.47768256  0.07792792  1
  S  S39  1  0.22841572  0.52231744  0.92207208  1
  O  O40  1  0.66039314  0.05830884  0.37387769  1
  O  O41  1  0.33960686  0.94169116  0.62612231  1
  O  O42  1  0.02752256  0.71854641  0.50129678  1
  O  O43  1  0.97247744  0.28145359  0.49870322  1
  O  O44  1  0.47205279  0.28172936  0.44042710  1
  O  O45  1  0.52794721  0.71827064  0.55957290  1
  O  O46  1  0.08318731  0.01145602  0.35469331  1
  O  O47  1  0.91681269  0.98854398  0.64530669  1
  O  O48  1  0.25098921  0.84701281  0.20120959  1
  O  O49  1  0.74901079  0.15298719  0.79879041  1
  O  O50  1  0.32576914  0.24451381  0.76071524  1
  O  O51  1  0.67423086  0.75548619  0.23928476  1
  O  O52  1  0.45697894  0.14320818  0.06329485  1
  O  O53  1  0.54302106  0.85679182  0.93670515  1
