# generated using pymatgen
data_RbGdS2O9
_symmetry_space_group_name_H-M   'P 1'
_cell_length_a   8.61091237
_cell_length_b   10.93135691
_cell_length_c   10.30113409
_cell_angle_alpha   120.93573362
_cell_angle_beta   90.00000000
_cell_angle_gamma   90.00000000
_symmetry_Int_Tables_number   1
_chemical_formula_structural   RbGdS2O9
_chemical_formula_sum   'Rb4 Gd4 S8 O36'
_cell_volume   831.69905003
_cell_formula_units_Z   4
loop_
 _symmetry_equiv_pos_site_id
 _symmetry_equiv_pos_as_xyz
  1  'x, y, z'
loop_
 _atom_site_type_symbol
 _atom_site_label
 _atom_site_symmetry_multiplicity
 _atom_site_fract_x
 _atom_site_fract_y
 _atom_site_fract_z
 _atom_site_occupancy
  Rb  Rb0  1  0.33107360  0.68168420  0.96080661  1
  Rb  Rb1  1  0.66892640  0.31831580  0.03919339  1
  Rb  Rb2  1  0.83107360  0.81831580  0.53919339  1
  Rb  Rb3  1  0.16892640  0.18168420  0.46080661  1
  Gd  Gd4  1  0.36515901  0.97344270  0.71936643  1
  Gd  Gd5  1  0.63484099  0.02655730  0.28063357  1
  Gd  Gd6  1  0.86515901  0.52655730  0.78063357  1
  Gd  Gd7  1  0.13484099  0.47344270  0.21936643  1
  S  S8  1  0.13279551  0.31482732  0.87332995  1
  S  S9  1  0.86720449  0.68517268  0.12667005  1
  S  S10  1  0.63279551  0.18517268  0.62667005  1
  S  S11  1  0.36720449  0.81482732  0.37332995  1
  S  S12  1  0.19314091  0.61525732  0.60044280  1
  S  S13  1  0.80685909  0.38474268  0.39955720  1
  S  S14  1  0.69314091  0.88474268  0.89955720  1
  S  S15  1  0.30685909  0.11525732  0.10044280  1
  O  O16  1  0.78870580  0.01757080  0.97779830  1
  O  O17  1  0.21129420  0.98242920  0.02220170  1
  O  O18  1  0.28870580  0.48242920  0.52220170  1
  O  O19  1  0.71129420  0.51757080  0.47779830  1
  O  O20  1  0.20574912  0.17656149  0.76478121  1
  O  O21  1  0.79425088  0.82343851  0.23521879  1
  O  O22  1  0.70574912  0.32343851  0.73521879  1
  O  O23  1  0.29425088  0.67656149  0.26478121  1
  O  O24  1  0.29776125  0.74260763  0.68351526  1
  O  O25  1  0.70223875  0.25739237  0.31648474  1
  O  O26  1  0.79776125  0.75739237  0.81648474  1
  O  O27  1  0.20223875  0.24260763  0.18351526  1
  O  O28  1  0.40151820  0.12906220  0.98825970  1
  O  O29  1  0.59848180  0.87093780  0.01174030  1
  O  O30  1  0.90151820  0.37093780  0.51174030  1
  O  O31  1  0.09848180  0.62906220  0.48825970  1
  O  O32  1  0.12311450  0.93387718  0.78169150  1
  O  O33  1  0.87688550  0.06612282  0.21830850  1
  O  O34  1  0.62311450  0.56612282  0.71830850  1
  O  O35  1  0.37688550  0.43387718  0.28169150  1
  O  O36  1  0.25201873  0.41866587  0.98061098  1
  O  O37  1  0.74798127  0.58133413  0.01938902  1
  O  O38  1  0.75201873  0.08133413  0.51938902  1
  O  O39  1  0.24798127  0.91866587  0.48061098  1
  O  O40  1  0.01491911  0.30226900  0.97204824  1
  O  O41  1  0.98508089  0.69773100  0.02795176  1
  O  O42  1  0.51491911  0.19773100  0.52795176  1
  O  O43  1  0.48508089  0.80226900  0.47204824  1
  O  O44  1  0.06095087  0.37260039  0.78397551  1
  O  O45  1  0.93904913  0.62739961  0.21602449  1
  O  O46  1  0.56095087  0.12739961  0.71602449  1
  O  O47  1  0.43904913  0.87260039  0.28397551  1
  O  O48  1  0.59543859  0.89152713  0.78497778  1
  O  O49  1  0.40456141  0.10847287  0.21502222  1
  O  O50  1  0.09543859  0.60847287  0.71502222  1
  O  O51  1  0.90456141  0.39152713  0.28497778  1
