# generated using pymatgen
data_Pr7(S2Cl3)3
_symmetry_space_group_name_H-M   'P 1'
_cell_length_a   6.77542971
_cell_length_b   24.68605485
_cell_length_c   7.06876801
_cell_angle_alpha   97.77097698
_cell_angle_beta   90.00000000
_cell_angle_gamma   90.00000000
_symmetry_Int_Tables_number   1
_chemical_formula_structural   Pr7(S2Cl3)3
_chemical_formula_sum   'Pr14 S12 Cl18'
_cell_volume   1171.45463519
_cell_formula_units_Z   2
loop_
 _symmetry_equiv_pos_site_id
 _symmetry_equiv_pos_as_xyz
  1  'x, y, z'
loop_
 _atom_site_type_symbol
 _atom_site_label
 _atom_site_symmetry_multiplicity
 _atom_site_fract_x
 _atom_site_fract_y
 _atom_site_fract_z
 _atom_site_occupancy
  Pr  Pr0  1  0.69502461  0.64332442  0.37609517  1
  Pr  Pr1  1  0.30497539  0.35667558  0.62390483  1
  Pr  Pr2  1  0.69502461  0.35667558  0.12390483  1
  Pr  Pr3  1  0.30497539  0.64332442  0.87609517  1
  Pr  Pr4  1  0.71650190  0.92152092  0.50764550  1
  Pr  Pr5  1  0.28349810  0.07847908  0.49235450  1
  Pr  Pr6  1  0.71650190  0.07847908  0.99235450  1
  Pr  Pr7  1  0.28349810  0.92152092  0.00764550  1
  Pr  Pr8  1  0.69615681  0.78461429  0.86352487  1
  Pr  Pr9  1  0.30384319  0.21538571  0.13647513  1
  Pr  Pr10  1  0.69615681  0.21538571  0.63647513  1
  Pr  Pr11  1  0.30384319  0.78461429  0.36352487  1
  Pr  Pr12  1  0.71184779  0.50000000  0.75000000  1
  Pr  Pr13  1  0.28815221  0.50000000  0.25000000  1
  S  S14  1  0.46437830  0.42799580  0.92616209  1
  S  S15  1  0.53562170  0.57200420  0.07383791  1
  S  S16  1  0.46437830  0.57200420  0.57383791  1
  S  S17  1  0.53562170  0.42799580  0.42616209  1
  S  S18  1  0.44804657  0.71799691  0.61784710  1
  S  S19  1  0.55195343  0.28200309  0.38215290  1
  S  S20  1  0.44804657  0.28200309  0.88215290  1
  S  S21  1  0.55195343  0.71799691  0.11784710  1
  S  S22  1  0.44640382  0.86063191  0.68857112  1
  S  S23  1  0.55359618  0.13936809  0.31142888  1
  S  S24  1  0.44640382  0.13936809  0.81142888  1
  S  S25  1  0.55359618  0.86063191  0.18857112  1
  Cl  Cl26  1  0.92904877  0.68811119  0.73381993  1
  Cl  Cl27  1  0.07095123  0.31188881  0.26618007  1
  Cl  Cl28  1  0.92904877  0.31188881  0.76618007  1
  Cl  Cl29  1  0.07095123  0.68811119  0.23381993  1
  Cl  Cl30  1  0.95200581  0.55896601  0.43950104  1
  Cl  Cl31  1  0.04799419  0.44103399  0.56049896  1
  Cl  Cl32  1  0.95200581  0.44103399  0.06049896  1
  Cl  Cl33  1  0.04799419  0.55896601  0.93950104  1
  Cl  Cl34  1  0.44439648  0.00000000  0.75000000  1
  Cl  Cl35  1  0.55560352  0.00000000  0.25000000  1
  Cl  Cl36  1  0.89470314  0.94151281  0.87676605  1
  Cl  Cl37  1  0.10529686  0.05848719  0.12323395  1
  Cl  Cl38  1  0.89470314  0.05848719  0.62323395  1
  Cl  Cl39  1  0.10529686  0.94151281  0.37676605  1
  Cl  Cl40  1  0.91200596  0.81867197  0.52901322  1
  Cl  Cl41  1  0.08799404  0.18132803  0.47098678  1
  Cl  Cl42  1  0.91200596  0.18132803  0.97098678  1
  Cl  Cl43  1  0.08799404  0.81867197  0.02901322  1
