# generated using pymatgen
data_LiHo6B3O14
_symmetry_space_group_name_H-M   'P 1'
_cell_length_a   8.39371358
_cell_length_b   8.85792125
_cell_length_c   15.55300172
_cell_angle_alpha   90.00000000
_cell_angle_beta   90.00000000
_cell_angle_gamma   91.86405984
_symmetry_Int_Tables_number   1
_chemical_formula_structural   LiHo6B3O14
_chemical_formula_sum   'Li4 Ho24 B12 O56'
_cell_volume   1155.76702231
_cell_formula_units_Z   4
loop_
 _symmetry_equiv_pos_site_id
 _symmetry_equiv_pos_as_xyz
  1  'x, y, z'
loop_
 _atom_site_type_symbol
 _atom_site_label
 _atom_site_symmetry_multiplicity
 _atom_site_fract_x
 _atom_site_fract_y
 _atom_site_fract_z
 _atom_site_occupancy
  Li  Li0  1  0.68047093  0.56064509  0.39603570  1
  Li  Li1  1  0.31952907  0.43935491  0.60396430  1
  Li  Li2  1  0.81952907  0.93935491  0.89603570  1
  Li  Li3  1  0.18047093  0.06064509  0.10396430  1
  Ho  Ho4  1  0.14253087  0.69276819  0.17788087  1
  Ho  Ho5  1  0.85746913  0.30723181  0.82211913  1
  Ho  Ho6  1  0.35746913  0.80723181  0.67788087  1
  Ho  Ho7  1  0.64253087  0.19276819  0.32211913  1
  Ho  Ho8  1  0.96023084  0.94443933  0.67401664  1
  Ho  Ho9  1  0.03976916  0.05556067  0.32598336  1
  Ho  Ho10  1  0.53976916  0.55556067  0.17401664  1
  Ho  Ho11  1  0.46023084  0.44443933  0.82598336  1
  Ho  Ho12  1  0.72696521  0.57537569  0.64390483  1
  Ho  Ho13  1  0.27303479  0.42462431  0.35609517  1
  Ho  Ho14  1  0.77303479  0.92462431  0.14390483  1
  Ho  Ho15  1  0.22696521  0.07537569  0.85609517  1
  Ho  Ho16  1  0.05178184  0.71757157  0.48670823  1
  Ho  Ho17  1  0.94821816  0.28242843  0.51329177  1
  Ho  Ho18  1  0.44821816  0.78242843  0.98670823  1
  Ho  Ho19  1  0.55178184  0.21757157  0.01329177  1
  Ho  Ho20  1  0.69972597  0.93879703  0.49611173  1
  Ho  Ho21  1  0.30027403  0.06120297  0.50388827  1
  Ho  Ho22  1  0.80027403  0.56120297  0.99611173  1
  Ho  Ho23  1  0.19972597  0.43879703  0.00388827  1
  Ho  Ho24  1  0.42171724  0.83447311  0.33407914  1
  Ho  Ho25  1  0.57828276  0.16552689  0.66592086  1
  Ho  Ho26  1  0.07828276  0.66552689  0.83407914  1
  Ho  Ho27  1  0.92171724  0.33447311  0.16592086  1
  B  B28  1  0.42882436  0.97270876  0.17300725  1
  B  B29  1  0.57117564  0.02729124  0.82699275  1
  B  B30  1  0.07117564  0.52729124  0.67300725  1
  B  B31  1  0.92882436  0.47270876  0.32699275  1
  B  B32  1  0.06394579  0.85469458  0.00050092  1
  B  B33  1  0.93605421  0.14530542  0.99949908  1
  B  B34  1  0.43605421  0.64530542  0.50050092  1
  B  B35  1  0.56394579  0.35469458  0.49949908  1
  B  B36  1  0.82038390  0.77850187  0.30705533  1
  B  B37  1  0.17961610  0.22149813  0.69294467  1
  B  B38  1  0.67961610  0.72149813  0.80705533  1
  B  B39  1  0.32038390  0.27850187  0.19294467  1
  O  O40  1  0.94004157  0.82263068  0.24856534  1
  O  O41  1  0.05995843  0.17736932  0.75143466  1
  O  O42  1  0.55995843  0.67736932  0.74856534  1
  O  O43  1  0.44004157  0.32263068  0.25143466  1
  O  O44  1  0.71033144  0.40666344  0.53349302  1
  O  O45  1  0.28966856  0.59333656  0.46650698  1
  O  O46  1  0.78966856  0.09333656  0.03349302  1
  O  O47  1  0.21033144  0.90666344  0.96650698  1
  O  O48  1  0.84403005  0.77898575  0.57933755  1
  O  O49  1  0.15596995  0.22101425  0.42066245  1
  O  O50  1  0.65596995  0.72101425  0.07933755  1
  O  O51  1  0.34403005  0.27898575  0.92066245  1
  O  O52  1  0.02824924  0.88167050  0.08576994  1
  O  O53  1  0.97175076  0.11832950  0.91423006  1
  O  O54  1  0.47175076  0.61832950  0.58576994  1
  O  O55  1  0.52824924  0.38167050  0.41423006  1
  O  O56  1  0.46609946  0.99093203  0.08724973  1
  O  O57  1  0.53390054  0.00906797  0.91275027  1
  O  O58  1  0.03390054  0.50906797  0.58724973  1
  O  O59  1  0.96609946  0.49093203  0.41275027  1
  O  O60  1  0.28233019  0.92307529  0.20472666  1
  O  O61  1  0.71766981  0.07692471  0.79527334  1
  O  O62  1  0.21766981  0.57692471  0.70472666  1
  O  O63  1  0.78233019  0.42307529  0.29527334  1
  O  O64  1  0.45675138  0.27778456  0.55164579  1
  O  O65  1  0.54324862  0.72221544  0.44835421  1
  O  O66  1  0.04324862  0.22221544  0.05164579  1
  O  O67  1  0.95675138  0.77778456  0.94835421  1
  O  O68  1  0.19254341  0.89467767  0.40180251  1
  O  O69  1  0.80745659  0.10532233  0.59819749  1
  O  O70  1  0.30745659  0.60532233  0.90180251  1
  O  O71  1  0.69254341  0.39467767  0.09819749  1
  O  O72  1  0.00889193  0.53604089  0.08953258  1
  O  O73  1  0.99110807  0.46395911  0.91046742  1
  O  O74  1  0.49110807  0.96395911  0.58953258  1
  O  O75  1  0.50889193  0.03604089  0.41046742  1
  O  O76  1  0.16223331  0.87592913  0.58545369  1
  O  O77  1  0.83776669  0.12407087  0.41454631  1
  O  O78  1  0.33776669  0.62407087  0.08545369  1
  O  O79  1  0.66223331  0.37592913  0.91454631  1
  O  O80  1  0.15403698  0.87775742  0.76821541  1
  O  O81  1  0.84596302  0.12224258  0.23178459  1
  O  O82  1  0.34596302  0.62224258  0.26821541  1
  O  O83  1  0.65403698  0.37775742  0.73178459  1
  O  O84  1  0.82579702  0.77216283  0.77478297  1
  O  O85  1  0.17420298  0.22783717  0.22521703  1
  O  O86  1  0.67420298  0.72783717  0.27478297  1
  O  O87  1  0.32579702  0.27216283  0.72521703  1
  O  O88  1  0.85150806  0.79938929  0.39367922  1
  O  O89  1  0.14849194  0.20061071  0.60632078  1
  O  O90  1  0.64849194  0.70061071  0.89367922  1
  O  O91  1  0.35150806  0.29938929  0.10632078  1
  O  O92  1  0.54995526  0.99676853  0.23266349  1
  O  O93  1  0.45004474  0.00323147  0.76733651  1
  O  O94  1  0.95004474  0.50323147  0.73266349  1
  O  O95  1  0.04995526  0.49676853  0.26733651  1
