# generated using pymatgen
data_CaSnS3
_symmetry_space_group_name_H-M   'P 1'
_cell_length_a   8.80190528
_cell_length_b   8.83525185
_cell_length_c   25.19747867
_cell_angle_alpha   89.61985236
_cell_angle_beta   89.35122470
_cell_angle_gamma   60.21495051
_symmetry_Int_Tables_number   1
_chemical_formula_structural   CaSnS3
_chemical_formula_sum   'Ca12 Sn12 S36'
_cell_volume   1700.55941891
_cell_formula_units_Z   12
loop_
 _symmetry_equiv_pos_site_id
 _symmetry_equiv_pos_as_xyz
  1  'x, y, z'
loop_
 _atom_site_type_symbol
 _atom_site_label
 _atom_site_symmetry_multiplicity
 _atom_site_fract_x
 _atom_site_fract_y
 _atom_site_fract_z
 _atom_site_occupancy
  Ca  Ca0  1  -0.00000000  -0.00000000  0.00000000  1
  Ca  Ca1  1  0.33309958  0.34516948  0.00106525  1
  Ca  Ca2  1  0.66690042  0.65483052  0.99893475  1
  Ca  Ca3  1  0.00858003  0.98406144  0.25001160  1
  Ca  Ca4  1  0.99141997  0.01593856  0.74998840  1
  Ca  Ca5  1  0.33041521  0.33858105  0.25015679  1
  Ca  Ca6  1  0.66958479  0.66141895  0.74984321  1
  Ca  Ca7  1  0.67957918  0.64083617  0.25041431  1
  Ca  Ca8  1  0.32042082  0.35916383  0.74958569  1
  Ca  Ca9  1  -0.00000000  -0.00000000  0.50000000  1
  Ca  Ca10  1  0.32309987  0.34312743  0.49870568  1
  Ca  Ca11  1  0.67690013  0.65687257  0.50129432  1
  Sn  Sn12  1  0.32779722  0.94724683  0.12474698  1
  Sn  Sn13  1  0.67220278  0.05275317  0.87525302  1
  Sn  Sn14  1  0.61415582  0.39070557  0.12198901  1
  Sn  Sn15  1  0.38584418  0.60929443  0.87801099  1
  Sn  Sn16  1  0.05867214  0.65877744  0.12883598  1
  Sn  Sn17  1  0.94132786  0.34122256  0.87116402  1
  Sn  Sn18  1  0.28247208  0.65811127  0.37118622  1
  Sn  Sn19  1  0.71752792  0.34188873  0.62881378  1
  Sn  Sn20  1  0.72497438  0.94541723  0.37514154  1
  Sn  Sn21  1  0.27502562  0.05458277  0.62485846  1
  Sn  Sn22  1  0.99590502  0.38889627  0.37868843  1
  Sn  Sn23  1  0.00409498  0.61110373  0.62131157  1
  S  S24  1  0.31571917  0.03810472  0.03616651  1
  S  S25  1  0.68428083  0.96189528  0.96383349  1
  S  S26  1  0.68941341  0.31339456  0.03147079  1
  S  S27  1  0.31058659  0.68660544  0.96852921  1
  S  S28  1  0.97435359  0.65193231  0.04112600  1
  S  S29  1  0.02564641  0.34806769  0.95887400  1
  S  S30  1  0.32599821  0.02979184  0.21314915  1
  S  S31  1  0.67400179  0.97020816  0.78685085  1
  S  S32  1  0.71072248  0.30263449  0.20952281  1
  S  S33  1  0.28927752  0.69736551  0.79047719  1
  S  S34  1  0.98543413  0.65370659  0.21974376  1
  S  S35  1  0.01456587  0.34629341  0.78025624  1
  S  S36  1  0.35865492  0.65540008  0.28022321  1
  S  S37  1  0.64134508  0.34459992  0.71977679  1
  S  S38  1  0.64399160  0.02800517  0.28679855  1
  S  S39  1  0.35600840  0.97199483  0.71320145  1
  S  S40  1  0.98883066  0.29969162  0.29152298  1
  S  S41  1  0.01116934  0.70030838  0.70847702  1
  S  S42  1  0.37593273  0.65041891  0.45868439  1
  S  S43  1  0.62406727  0.34958109  0.54131561  1
  S  S44  1  0.64535656  0.03643142  0.46367573  1
  S  S45  1  0.35464344  0.96356858  0.53632427  1
  S  S46  1  0.99703059  0.31383443  0.46957233  1
  S  S47  1  0.00296941  0.68616557  0.53042767  1
  S  S48  1  0.61289271  0.67031918  0.12308498  1
  S  S49  1  0.38710729  0.32968082  0.87691502  1
  S  S50  1  0.04729796  0.94262327  0.12646815  1
  S  S51  1  0.95270204  0.05737673  0.87353185  1
  S  S52  1  0.33964649  0.37953369  0.12620478  1
  S  S53  1  0.66035351  0.62046631  0.87379522  1
  S  S54  1  0.00980280  0.94097865  0.37441030  1
  S  S55  1  0.99019720  0.05902135  0.62558970  1
  S  S56  1  0.28132348  0.37844606  0.37429695  1
  S  S57  1  0.71867652  0.62155394  0.62570305  1
  S  S58  1  0.71767249  0.66786749  0.37653983  1
  S  S59  1  0.28232751  0.33213251  0.62346017  1
