# generated using pymatgen
data_KLiTm2(MoO4)4
_symmetry_space_group_name_H-M   'P 1'
_cell_length_a   5.22324278
_cell_length_b   6.84324126
_cell_length_c   19.68718412
_cell_angle_alpha   88.57794972
_cell_angle_beta   86.27155744
_cell_angle_gamma   67.56499156
_symmetry_Int_Tables_number   1
_chemical_formula_structural   KLiTm2(MoO4)4
_chemical_formula_sum   'K2 Li2 Tm4 Mo8 O32'
_cell_volume   649.05957791
_cell_formula_units_Z   2
loop_
 _symmetry_equiv_pos_site_id
 _symmetry_equiv_pos_as_xyz
  1  'x, y, z'
loop_
 _atom_site_type_symbol
 _atom_site_label
 _atom_site_symmetry_multiplicity
 _atom_site_fract_x
 _atom_site_fract_y
 _atom_site_fract_z
 _atom_site_occupancy
  K  K0  1  0.46985060  0.06029879  0.75000000  1
  K  K1  1  0.53014940  0.93970121  0.25000000  1
  Li  Li2  1  0.18708865  0.62582270  0.75000000  1
  Li  Li3  1  0.81291135  0.37417730  0.25000000  1
  Tm  Tm4  1  0.35074013  0.29428262  0.96856130  1
  Tm  Tm5  1  0.64925987  0.70571738  0.03143870  1
  Tm  Tm6  1  0.35497726  0.29428262  0.53143870  1
  Tm  Tm7  1  0.64502274  0.70571738  0.46856130  1
  Mo  Mo8  1  0.08157846  0.87522864  0.90853859  1
  Mo  Mo9  1  0.91842154  0.12477136  0.09146141  1
  Mo  Mo10  1  0.04319290  0.87522864  0.59146141  1
  Mo  Mo11  1  0.95680710  0.12477136  0.40853859  1
  Mo  Mo12  1  0.76938727  0.48456827  0.85417875  1
  Mo  Mo13  1  0.23061273  0.51543173  0.14582125  1
  Mo  Mo14  1  0.74604446  0.48456827  0.64582125  1
  Mo  Mo15  1  0.25395554  0.51543173  0.35417875  1
  O  O16  1  0.33696003  0.66133230  0.95902589  1
  O  O17  1  0.66303997  0.33866770  0.04097411  1
  O  O18  1  0.00170767  0.66133230  0.54097411  1
  O  O19  1  0.99829233  0.33866770  0.45902589  1
  O  O20  1  0.50674166  0.72248170  0.82852734  1
  O  O21  1  0.49325834  0.27751830  0.17147266  1
  O  O22  1  0.77077663  0.72248170  0.67147266  1
  O  O23  1  0.22922337  0.27751830  0.32852734  1
  O  O24  1  0.28360981  0.95979110  0.53632789  1
  O  O25  1  0.71639019  0.04020890  0.46367211  1
  O  O26  1  0.75659909  0.95979110  0.96367211  1
  O  O27  1  0.24340091  0.04020890  0.03632789  1
  O  O28  1  0.55372134  0.52251676  0.56577014  1
  O  O29  1  0.44627866  0.47748324  0.43422986  1
  O  O30  1  0.92376190  0.52251676  0.93422986  1
  O  O31  1  0.07623810  0.47748324  0.06577014  1
  O  O32  1  0.20075705  0.81902129  0.67020318  1
  O  O33  1  0.79924295  0.18097871  0.32979682  1
  O  O34  1  0.98022165  0.81902129  0.82979682  1
  O  O35  1  0.01977835  0.18097871  0.17020318  1
  O  O36  1  0.27910912  0.90187615  0.39946554  1
  O  O37  1  0.72089088  0.09812385  0.60053446  1
  O  O38  1  0.81901473  0.90187615  0.10053446  1
  O  O39  1  0.18098527  0.09812385  0.89946554  1
  O  O40  1  0.59628569  0.30174143  0.87144723  1
  O  O41  1  0.40371431  0.69825857  0.12855277  1
  O  O42  1  0.10197288  0.30174143  0.62855277  1
  O  O43  1  0.89802712  0.69825857  0.37144723  1
  O  O44  1  0.56748316  0.40554692  0.71329110  1
  O  O45  1  0.43251684  0.59445308  0.28670890  1
  O  O46  1  0.02696992  0.40554692  0.78670890  1
  O  O47  1  0.97303008  0.59445308  0.21329110  1
