# generated using pymatgen
data_KU6F25
_symmetry_space_group_name_H-M   'P 1'
_cell_length_a   8.18707550
_cell_length_b   8.18707550
_cell_length_c   16.61149756
_cell_angle_alpha   90.00000000
_cell_angle_beta   90.00000000
_cell_angle_gamma   119.99999708
_symmetry_Int_Tables_number   1
_chemical_formula_structural   KU6F25
_chemical_formula_sum   'K2 U12 F50'
_cell_volume   964.26637314
_cell_formula_units_Z   2
loop_
 _symmetry_equiv_pos_site_id
 _symmetry_equiv_pos_as_xyz
  1  'x, y, z'
loop_
 _atom_site_type_symbol
 _atom_site_label
 _atom_site_symmetry_multiplicity
 _atom_site_fract_x
 _atom_site_fract_y
 _atom_site_fract_z
 _atom_site_occupancy
  K  K0  1  0.66666700  0.33333300  0.25000000  1
  K  K1  1  0.33333300  0.66666700  0.75000000  1
  U  U2  1  0.83327726  0.16672274  0.88695066  1
  U  U3  1  0.16672274  0.83327726  0.11304934  1
  U  U4  1  0.33344549  0.16672274  0.88695066  1
  U  U5  1  0.16672274  0.83327726  0.38695066  1
  U  U6  1  0.66655451  0.83327726  0.11304934  1
  U  U7  1  0.83327726  0.16672274  0.61304934  1
  U  U8  1  0.83327726  0.66655451  0.88695066  1
  U  U9  1  0.66655451  0.83327726  0.38695066  1
  U  U10  1  0.16672274  0.33344549  0.11304934  1
  U  U11  1  0.33344549  0.16672274  0.61304934  1
  U  U12  1  0.16672274  0.33344549  0.38695066  1
  U  U13  1  0.83327726  0.66655451  0.61304934  1
  F  F14  1  0.00000000  -0.00000000  0.92652740  1
  F  F15  1  0.00000000  -0.00000000  0.07347260  1
  F  F16  1  0.00000000  -0.00000000  0.42652740  1
  F  F17  1  0.00000000  -0.00000000  0.57347260  1
  F  F18  1  0.81117155  0.18882845  0.75000000  1
  F  F19  1  0.18882845  0.81117155  0.25000000  1
  F  F20  1  0.37765690  0.18882845  0.75000000  1
  F  F21  1  0.62234310  0.81117155  0.25000000  1
  F  F22  1  0.81117155  0.62234310  0.75000000  1
  F  F23  1  0.18882845  0.37765690  0.25000000  1
  F  F24  1  0.86297932  0.13702068  0.33882115  1
  F  F25  1  0.13702068  0.86297932  0.66117885  1
  F  F26  1  0.27404137  0.13702068  0.33882115  1
  F  F27  1  0.13702068  0.86297932  0.83882115  1
  F  F28  1  0.72595863  0.86297932  0.66117885  1
  F  F29  1  0.86297932  0.13702068  0.16117885  1
  F  F30  1  0.86297932  0.72595863  0.33882115  1
  F  F31  1  0.72595863  0.86297932  0.83882115  1
  F  F32  1  0.13702068  0.27404137  0.66117885  1
  F  F33  1  0.27404137  0.13702068  0.16117885  1
  F  F34  1  0.13702068  0.27404137  0.83882115  1
  F  F35  1  0.86297932  0.72595863  0.16117885  1
  F  F36  1  0.67892946  0.67892946  0.00000000  1
  F  F37  1  0.32107054  0.32107054  0.00000000  1
  F  F38  1  0.00000000  0.32107054  0.00000000  1
  F  F39  1  0.32107054  0.32107054  0.50000000  1
  F  F40  1  1.00000000  0.67892946  0.00000000  1
  F  F41  1  0.67892946  0.67892946  0.50000000  1
  F  F42  1  0.32107054  0.00000000  0.00000000  1
  F  F43  1  1.00000000  0.67892946  0.50000000  1
  F  F44  1  0.67892946  1.00000000  0.00000000  1
  F  F45  1  0.00000000  0.32107054  0.50000000  1
  F  F46  1  0.67892946  1.00000000  0.50000000  1
  F  F47  1  0.32107054  0.00000000  0.50000000  1
  F  F48  1  0.66666700  0.33333300  0.93185360  1
  F  F49  1  0.33333300  0.66666700  0.06814640  1
  F  F50  1  0.33333300  0.66666700  0.43185360  1
  F  F51  1  0.66666700  0.33333300  0.56814640  1
  F  F52  1  0.48545577  0.51454423  0.35484088  1
  F  F53  1  0.51454423  0.48545577  0.64515912  1
  F  F54  1  0.02908847  0.51454423  0.35484088  1
  F  F55  1  0.51454423  0.48545577  0.85484088  1
  F  F56  1  0.97091153  0.48545577  0.64515912  1
  F  F57  1  0.48545577  0.51454423  0.14515912  1
  F  F58  1  0.48545577  0.97091153  0.35484088  1
  F  F59  1  0.97091153  0.48545577  0.85484088  1
  F  F60  1  0.51454423  0.02908847  0.64515912  1
  F  F61  1  0.02908847  0.51454423  0.14515912  1
  F  F62  1  0.51454423  0.02908847  0.85484088  1
  F  F63  1  0.48545577  0.97091153  0.14515912  1
