# generated using pymatgen
data_La3TaTi2O11
_symmetry_space_group_name_H-M   'P 1'
_cell_length_a   3.95841282
_cell_length_b   5.62510863
_cell_length_c   20.41340690
_cell_angle_alpha   90.00000000
_cell_angle_beta   90.00000000
_cell_angle_gamma   90.00000000
_symmetry_Int_Tables_number   1
_chemical_formula_structural   La3TaTi2O11
_chemical_formula_sum   'La6 Ta2 Ti4 O22'
_cell_volume   454.53516791
_cell_formula_units_Z   2
loop_
 _symmetry_equiv_pos_site_id
 _symmetry_equiv_pos_as_xyz
  1  'x, y, z'
loop_
 _atom_site_type_symbol
 _atom_site_label
 _atom_site_symmetry_multiplicity
 _atom_site_fract_x
 _atom_site_fract_y
 _atom_site_fract_z
 _atom_site_occupancy
  La  La0  1  0.50000000  0.18593574  0.87270437  1
  La  La1  1  0.50000000  0.68593574  0.12729563  1
  La  La2  1  0.00000000  0.69186923  0.75953574  1
  La  La3  1  0.00000000  0.19186923  0.24046426  1
  La  La4  1  -0.00000000  0.72190354  0.43396420  1
  La  La5  1  -0.00000000  0.22190354  0.56603580  1
  Ta  Ta6  1  -0.00000000  0.73184243  0.93703120  1
  Ta  Ta7  1  -0.00000000  0.23184243  0.06296880  1
  Ti  Ti8  1  0.50000000  0.72908923  0.29490079  1
  Ti  Ti9  1  0.50000000  0.22908923  0.70509921  1
  Ti  Ti10  1  0.50000000  0.73100632  0.57655414  1
  Ti  Ti11  1  0.50000000  0.23100632  0.42344586  1
  O  O12  1  -0.00000000  0.94325899  0.85455704  1
  O  O13  1  0.00000000  0.44325899  0.14544296  1
  O  O14  1  0.50000000  0.56001762  0.64986586  1
  O  O15  1  0.50000000  0.06001762  0.35013414  1
  O  O16  1  -0.00000000  0.07051152  0.97937726  1
  O  O17  1  -0.00000000  0.57051152  0.02062274  1
  O  O18  1  0.50000000  0.96631049  0.75784295  1
  O  O19  1  0.50000000  0.46631049  0.24215705  1
  O  O20  1  0.50000000  0.96191396  0.48328917  1
  O  O21  1  0.50000000  0.46191396  0.51671083  1
  O  O22  1  0.50000000  0.76526604  0.93422357  1
  O  O23  1  0.50000000  0.26526604  0.06577643  1
  O  O24  1  0.00000000  0.46265437  0.87881719  1
  O  O25  1  0.00000000  0.96265437  0.12118281  1
  O  O26  1  0.50000000  0.44570212  0.77789415  1
  O  O27  1  0.50000000  0.94570212  0.22210585  1
  O  O28  1  0.00000000  0.26269104  0.69373369  1
  O  O29  1  0.00000000  0.76269104  0.30626631  1
  O  O30  1  0.00000000  0.76417100  0.56179574  1
  O  O31  1  0.00000000  0.26417100  0.43820426  1
  O  O32  1  0.50000000  0.55685637  0.38244291  1
  O  O33  1  0.50000000  0.05685637  0.61755709  1
