# generated using pymatgen
data_KTb(MoO4)2
_symmetry_space_group_name_H-M   'P 1'
_cell_length_a   7.52470874
_cell_length_b   7.52470874
_cell_length_c   7.85231039
_cell_angle_alpha   116.02936900
_cell_angle_beta   119.19294342
_cell_angle_gamma   91.89543611
_symmetry_Int_Tables_number   1
_chemical_formula_structural   KTb(MoO4)2
_chemical_formula_sum   'K2 Tb2 Mo4 O16'
_cell_volume   331.00769992
_cell_formula_units_Z   2
loop_
 _symmetry_equiv_pos_site_id
 _symmetry_equiv_pos_as_xyz
  1  'x, y, z'
loop_
 _atom_site_type_symbol
 _atom_site_label
 _atom_site_symmetry_multiplicity
 _atom_site_fract_x
 _atom_site_fract_y
 _atom_site_fract_z
 _atom_site_occupancy
  K  K0  1  0.45005711  0.20005711  0.25000000  1
  K  K1  1  0.54994289  0.79994289  0.75000000  1
  Tb  Tb2  1  0.02078829  0.77078829  0.25000000  1
  Tb  Tb3  1  0.97921171  0.22921171  0.75000000  1
  Mo  Mo4  1  0.95565941  0.30240089  0.26085122  1
  Mo  Mo5  1  0.04434059  0.69759911  0.73914878  1
  Mo  Mo6  1  0.54154967  0.69480819  0.23914878  1
  Mo  Mo7  1  0.45845033  0.30519181  0.76085122  1
  O  O8  1  0.67408349  0.23096164  0.06104181  1
  O  O9  1  0.32591651  0.76903836  0.93895819  1
  O  O10  1  0.66991983  0.61304168  0.43895819  1
  O  O11  1  0.33008017  0.38695832  0.56104181  1
  O  O12  1  0.75875227  0.93194684  0.37528767  1
  O  O13  1  0.24124773  0.06805316  0.62471233  1
  O  O14  1  0.05665918  0.38346460  0.12471233  1
  O  O15  1  0.94334082  0.61653540  0.87528767  1
  O  O16  1  0.05598453  0.63256326  0.47074426  1
  O  O17  1  0.94401547  0.36743674  0.52925574  1
  O  O18  1  0.66181900  0.58524027  0.02925574  1
  O  O19  1  0.33818100  0.41475973  0.97074426  1
  O  O20  1  0.98459337  0.04744941  0.19123002  1
  O  O21  1  0.01540663  0.95255059  0.80876998  1
  O  O22  1  0.35621939  0.79336335  0.30876998  1
  O  O23  1  0.64378061  0.20663665  0.69123002  1
