# generated using pymatgen
data_LiNiBP2H6O11
_symmetry_space_group_name_H-M   'P 1'
_cell_length_a   9.48823898
_cell_length_b   9.48823898
_cell_length_c   15.87896092
_cell_angle_alpha   90.00000000
_cell_angle_beta   90.00000000
_cell_angle_gamma   119.99999917
_symmetry_Int_Tables_number   1
_chemical_formula_structural   LiNiBP2H6O11
_chemical_formula_sum   'Li6 Ni6 B6 P12 H36 O66'
_cell_volume   1238.00940707
_cell_formula_units_Z   6
loop_
 _symmetry_equiv_pos_site_id
 _symmetry_equiv_pos_as_xyz
  1  'x, y, z'
loop_
 _atom_site_type_symbol
 _atom_site_label
 _atom_site_symmetry_multiplicity
 _atom_site_fract_x
 _atom_site_fract_y
 _atom_site_fract_z
 _atom_site_occupancy
  Li  Li0  1  0.77130994  0.22869006  0.75000000  1
  Li  Li1  1  0.45738013  0.22869006  0.41666700  1
  Li  Li2  1  0.22869006  0.77130994  0.25000000  1
  Li  Li3  1  0.54261987  0.77130994  0.91666700  1
  Li  Li4  1  0.77130994  0.54261987  0.08333300  1
  Li  Li5  1  0.22869006  0.45738013  0.58333300  1
  Ni  Ni6  1  0.45019321  0.54980679  0.75000000  1
  Ni  Ni7  1  0.09961357  0.54980679  0.41666700  1
  Ni  Ni8  1  0.54980679  0.45019321  0.25000000  1
  Ni  Ni9  1  0.90038643  0.45019321  0.91666700  1
  Ni  Ni10  1  0.45019321  0.90038643  0.08333300  1
  Ni  Ni11  1  0.54980679  0.09961357  0.58333300  1
  B  B12  1  0.15319152  0.84680848  0.75000000  1
  B  B13  1  0.69361697  0.84680848  0.41666700  1
  B  B14  1  0.84680848  0.15319152  0.25000000  1
  B  B15  1  0.30638303  0.15319152  0.91666700  1
  B  B16  1  0.15319152  0.30638303  0.08333300  1
  B  B17  1  0.84680848  0.69361697  0.58333300  1
  P  P18  1  0.60820866  0.77624729  0.58627608  1
  P  P19  1  0.16803862  0.39179134  0.25294308  1
  P  P20  1  0.39179134  0.22375271  0.08627608  1
  P  P21  1  0.83196138  0.22375271  0.08039092  1
  P  P22  1  0.22375271  0.83196138  0.91960908  1
  P  P23  1  0.83196138  0.60820866  0.75294308  1
  P  P24  1  0.77624729  0.60820866  0.41372392  1
  P  P25  1  0.16803862  0.77624729  0.58039092  1
  P  P26  1  0.77624729  0.16803862  0.41960908  1
  P  P27  1  0.22375271  0.39179134  0.91372392  1
  P  P28  1  0.39179134  0.16803862  0.74705692  1
  P  P29  1  0.60820866  0.83196138  0.24705692  1
  H  H30  1  0.69653105  0.13510461  0.93120887  1
  H  H31  1  0.43857356  0.30346895  0.59787587  1
  H  H32  1  0.30346895  0.86489539  0.43120887  1
  H  H33  1  0.56142644  0.86489539  0.73545813  1
  H  H34  1  0.86489539  0.56142644  0.26454187  1
  H  H35  1  0.56142644  0.69653105  0.09787587  1
  H  H36  1  0.13510461  0.69653105  0.06879113  1
  H  H37  1  0.43857356  0.13510461  0.23545813  1
  H  H38  1  0.13510461  0.43857356  0.76454187  1
  H  H39  1  0.86489539  0.30346895  0.56879113  1
  H  H40  1  0.30346895  0.43857356  0.40212413  1
  H  H41  1  0.69653105  0.56142644  0.90212413  1
  H  H42  1  0.85044944  0.96822894  0.95886137  1
  H  H43  1  0.11777950  0.14955056  0.62552837  1
  H  H44  1  0.14955056  0.03177106  0.45886137  1
  H  H45  1  0.88222050  0.03177106  0.70780563  1
  H  H46  1  0.03177106  0.88222050  0.29219437  1
  H  H47  1  0.88222050  0.85044944  0.12552837  1
  H  H48  1  0.96822894  0.85044944  0.04113863  1
  H  H49  1  0.11777950  0.96822894  0.20780563  1
  H  H50  1  0.96822894  0.11777950  0.79219437  1
  H  H51  1  0.03177106  0.14955056  0.54113863  1
  H  H52  1  0.14955056  0.11777950  0.37447163  1
  H  H53  1  0.85044944  0.88222050  0.87447163  1
  H  H54  1  0.60902692  0.20379313  0.87515864  1
  H  H55  1  0.59476621  0.39097308  0.54182564  1
  H  H56  1  0.39097308  0.79620687  0.37515864  1
  H  H57  1  0.40523379  0.79620687  0.79150836  1
  H  H58  1  0.79620687  0.40523379  0.20849164  1
  H  H59  1  0.40523379  0.60902692  0.04182564  1
  H  H60  1  0.20379313  0.60902692  0.12484136  1
  H  H61  1  0.59476621  0.20379313  0.29150836  1
  H  H62  1  0.20379313  0.59476621  0.70849164  1
  H  H63  1  0.79620687  0.39097308  0.62484136  1
  H  H64  1  0.39097308  0.59476621  0.45817436  1
  H  H65  1  0.60902692  0.40523379  0.95817436  1
  O  O66  1  0.57993955  0.76204650  0.48741549  1
  O  O67  1  0.18210695  0.42006045  0.15408249  1
  O  O68  1  0.42006045  0.23795350  0.98741549  1
  O  O69  1  0.81789305  0.23795350  0.17925151  1
  O  O70  1  0.23795350  0.81789305  0.82074849  1
  O  O71  1  0.81789305  0.57993955  0.65408249  1
  O  O72  1  0.76204650  0.57993955  0.51258451  1
  O  O73  1  0.18210695  0.76204650  0.67925151  1
  O  O74  1  0.76204650  0.18210695  0.32074849  1
  O  O75  1  0.23795350  0.42006045  0.01258451  1
  O  O76  1  0.42006045  0.18210695  0.84591751  1
  O  O77  1  0.57993955  0.81789305  0.34591751  1
  O  O78  1  0.71559200  0.20997650  0.88329415  1
  O  O79  1  0.49438450  0.28440800  0.54996115  1
  O  O80  1  0.28440800  0.79002350  0.38329415  1
  O  O81  1  0.50561550  0.79002350  0.78337285  1
  O  O82  1  0.79002350  0.50561550  0.21662715  1
  O  O83  1  0.50561550  0.71559200  0.04996115  1
  O  O84  1  0.20997650  0.71559200  0.11670585  1
  O  O85  1  0.49438450  0.20997650  0.28337285  1
  O  O86  1  0.20997650  0.49438450  0.71662715  1
  O  O87  1  0.79002350  0.28440800  0.61670585  1
  O  O88  1  0.28440800  0.49438450  0.45003885  1
  O  O89  1  0.71559200  0.50561550  0.95003885  1
  O  O90  1  0.78415014  0.80386846  0.60211663  1
  O  O91  1  0.01971832  0.21584986  0.26878363  1
  O  O92  1  0.21584986  0.19613154  0.10211663  1
  O  O93  1  0.98028168  0.19613154  0.06455037  1
  O  O94  1  0.19613154  0.98028168  0.93544963  1
  O  O95  1  0.98028168  0.78415014  0.76878363  1
  O  O96  1  0.80386846  0.78415014  0.39788337  1
  O  O97  1  0.01971832  0.80386846  0.56455037  1
  O  O98  1  0.80386846  0.01971832  0.43544963  1
  O  O99  1  0.19613154  0.21584986  0.89788337  1
  O  O100  1  0.21584986  0.01971832  0.73121637  1
  O  O101  1  0.78415014  0.98028168  0.23121637  1
  O  O102  1  0.38780909  0.52207136  0.87843641  1
  O  O103  1  0.13426226  0.61219091  0.54510341  1
  O  O104  1  0.61219091  0.47792864  0.37843641  1
  O  O105  1  0.86573774  0.47792864  0.78823059  1
  O  O106  1  0.47792864  0.86573774  0.21176941  1
  O  O107  1  0.86573774  0.38780909  0.04510341  1
  O  O108  1  0.52207136  0.38780909  0.12156359  1
  O  O109  1  0.13426226  0.52207136  0.28823059  1
  O  O110  1  0.52207136  0.13426226  0.71176941  1
  O  O111  1  0.47792864  0.61219091  0.62156359  1
  O  O112  1  0.61219091  0.13426226  0.45489659  1
  O  O113  1  0.38780909  0.86573774  0.95489659  1
  O  O114  1  0.60853924  0.92507330  0.62231323  1
  O  O115  1  0.31653406  0.39146076  0.28898023  1
  O  O116  1  0.39146076  0.07492670  0.12231323  1
  O  O117  1  0.68346594  0.07492670  0.04435377  1
  O  O118  1  0.07492670  0.68346594  0.95564623  1
  O  O119  1  0.68346594  0.60853924  0.78898023  1
  O  O120  1  0.92507330  0.60853924  0.37768677  1
  O  O121  1  0.31653406  0.92507330  0.54435377  1
  O  O122  1  0.92507330  0.31653406  0.45564623  1
  O  O123  1  0.07492670  0.39146076  0.87768677  1
  O  O124  1  0.39146076  0.31653406  0.71101977  1
  O  O125  1  0.60853924  0.68346594  0.21101977  1
  O  O126  1  0.89029089  0.10970911  0.75000000  1
  O  O127  1  0.21941823  0.10970911  0.41666700  1
  O  O128  1  0.10970911  0.89029089  0.25000000  1
  O  O129  1  0.78058177  0.89029089  0.91666700  1
  O  O130  1  0.89029089  0.78058177  0.08333300  1
  O  O131  1  0.10970911  0.21941823  0.58333300  1
