# generated using pymatgen
data_KPbI3
_symmetry_space_group_name_H-M   'P 1'
_cell_length_a   4.78211746
_cell_length_b   10.56747950
_cell_length_c   17.45812312
_cell_angle_alpha   90.00000000
_cell_angle_beta   90.00000000
_cell_angle_gamma   90.00000000
_symmetry_Int_Tables_number   1
_chemical_formula_structural   KPbI3
_chemical_formula_sum   'K4 Pb4 I12'
_cell_volume   882.24499881
_cell_formula_units_Z   4
loop_
 _symmetry_equiv_pos_site_id
 _symmetry_equiv_pos_as_xyz
  1  'x, y, z'
loop_
 _atom_site_type_symbol
 _atom_site_label
 _atom_site_symmetry_multiplicity
 _atom_site_fract_x
 _atom_site_fract_y
 _atom_site_fract_z
 _atom_site_occupancy
  K  K0  1  0.75000000  0.56686395  0.32354034  1
  K  K1  1  0.25000000  0.43313605  0.67645966  1
  K  K2  1  0.25000000  0.93313605  0.82354034  1
  K  K3  1  0.75000000  0.06686395  0.17645966  1
  Pb  Pb4  1  0.75000000  0.83321547  0.55853617  1
  Pb  Pb5  1  0.25000000  0.16678453  0.44146383  1
  Pb  Pb6  1  0.25000000  0.66678453  0.05853617  1
  Pb  Pb7  1  0.75000000  0.33321547  0.94146383  1
  I  I8  1  0.75000000  0.97518245  0.38674697  1
  I  I9  1  0.25000000  0.02481755  0.61325303  1
  I  I10  1  0.25000000  0.52481755  0.88674697  1
  I  I11  1  0.75000000  0.47518245  0.11325303  1
  I  I12  1  0.75000000  0.84372138  0.99061563  1
  I  I13  1  0.25000000  0.15627862  0.00938437  1
  I  I14  1  0.25000000  0.65627862  0.49061563  1
  I  I15  1  0.75000000  0.34372138  0.50938437  1
  I  I16  1  0.75000000  0.70492495  0.71934000  1
  I  I17  1  0.25000000  0.29507505  0.28066000  1
  I  I18  1  0.25000000  0.79507505  0.21934000  1
  I  I19  1  0.75000000  0.20492495  0.78066000  1
