# generated using pymatgen
data_Mg(CuO2)2
_symmetry_space_group_name_H-M   'P 1'
_cell_length_a   2.91695375
_cell_length_b   8.73283694
_cell_length_c   10.29312527
_cell_angle_alpha   90.00637561
_cell_angle_beta   89.96672630
_cell_angle_gamma   89.95145704
_symmetry_Int_Tables_number   1
_chemical_formula_structural   Mg(CuO2)2
_chemical_formula_sum   'Mg4 Cu8 O16'
_cell_volume   262.19953689
_cell_formula_units_Z   4
loop_
 _symmetry_equiv_pos_site_id
 _symmetry_equiv_pos_as_xyz
  1  'x, y, z'
loop_
 _atom_site_type_symbol
 _atom_site_label
 _atom_site_symmetry_multiplicity
 _atom_site_fract_x
 _atom_site_fract_y
 _atom_site_fract_z
 _atom_site_occupancy
  Mg  Mg0  1  0.74976715  0.23977525  0.33832547  1
  Mg  Mg1  1  0.25009521  0.75987148  0.66092665  1
  Mg  Mg2  1  0.74384233  0.74190746  0.15907088  1
  Mg  Mg3  1  0.25465308  0.25852515  0.83611154  1
  Cu  Cu4  1  0.24757186  0.41326300  0.10061372  1
  Cu  Cu5  1  0.75444627  0.08672833  0.59983541  1
  Cu  Cu6  1  0.25509296  0.91349438  0.39810269  1
  Cu  Cu7  1  0.74764115  0.58656776  0.89830984  1
  Cu  Cu8  1  0.74936342  0.55981726  0.38395855  1
  Cu  Cu9  1  0.24718919  0.44157714  0.61468161  1
  Cu  Cu10  1  0.75547172  0.06056868  0.11403055  1
  Cu  Cu11  1  0.25687858  0.94037572  0.88359295  1
  O  O12  1  0.25491281  0.90364950  0.07233653  1
  O  O13  1  0.75698557  0.09853610  0.92575622  1
  O  O14  1  0.24745803  0.40326250  0.42628002  1
  O  O15  1  0.74218029  0.59851872  0.57325434  1
  O  O16  1  0.25398199  0.02962883  0.71528033  1
  O  O17  1  0.75600504  0.97500810  0.28309911  1
  O  O18  1  0.24995089  0.52592909  0.78412158  1
  O  O19  1  0.74837453  0.47195869  0.21648015  1
  O  O20  1  0.24423543  0.62412266  0.03568157  1
  O  O21  1  0.74412088  0.37701753  0.96421288  1
  O  O22  1  0.25380697  0.12333613  0.46390010  1
  O  O23  1  0.75584766  0.87631577  0.53573592  1
  O  O24  1  0.75753593  0.78918955  0.82137353  1
  O  O25  1  0.25383086  0.20970857  0.17602687  1
  O  O26  1  0.24928934  0.71018591  0.32133316  1
  O  O27  1  0.74986887  0.29082272  0.67458586  1
