# generated using pymatgen
data_Cr6O11
_symmetry_space_group_name_H-M   'P 1'
_cell_length_a   5.47294562
_cell_length_b   7.08460928
_cell_length_c   9.60112334
_cell_angle_alpha   89.55339123
_cell_angle_beta   81.06397227
_cell_angle_gamma   72.10182744
_symmetry_Int_Tables_number   1
_chemical_formula_structural   Cr6O11
_chemical_formula_sum   'Cr12 O22'
_cell_volume   349.63870283
_cell_formula_units_Z   2
loop_
 _symmetry_equiv_pos_site_id
 _symmetry_equiv_pos_as_xyz
  1  'x, y, z'
loop_
 _atom_site_type_symbol
 _atom_site_label
 _atom_site_symmetry_multiplicity
 _atom_site_fract_x
 _atom_site_fract_y
 _atom_site_fract_z
 _atom_site_occupancy
  Cr  Cr0  1  0.27136115  0.64049388  0.58654448  1
  Cr  Cr1  1  0.72863885  0.35950612  0.41345552  1
  Cr  Cr2  1  0.26766778  0.13903402  0.58698003  1
  Cr  Cr3  1  0.73233222  0.86096598  0.41301997  1
  Cr  Cr4  1  0.67148639  0.30799683  0.06062905  1
  Cr  Cr5  1  0.32851361  0.69200317  0.93937095  1
  Cr  Cr6  1  0.19076986  0.56886713  0.24067973  1
  Cr  Cr7  1  0.80923014  0.43113287  0.75932027  1
  Cr  Cr8  1  0.18774334  0.07560404  0.23767444  1
  Cr  Cr9  1  0.81225666  0.92439596  0.76232556  1
  Cr  Cr10  1  0.32139107  0.19186330  0.94061445  1
  Cr  Cr11  1  0.67860893  0.80813670  0.05938555  1
  O  O12  1  0.15875567  0.26381478  0.77726371  1
  O  O13  1  0.84124433  0.73618522  0.22273629  1
  O  O14  1  0.85813869  0.07937408  0.35122578  1
  O  O15  1  0.14186131  0.92062592  0.64877422  1
  O  O16  1  0.09242594  0.70001770  0.42579074  1
  O  O17  1  0.90757406  0.29998230  0.57420926  1
  O  O18  1  0.28729518  0.45482989  0.03699150  1
  O  O19  1  0.71270482  0.54517011  0.96300850  1
  O  O20  1  0.02695229  0.16562215  0.06825376  1
  O  O21  1  0.97304771  0.83437785  0.93174624  1
  O  O22  1  0.37619214  0.01660539  0.39634655  1
  O  O23  1  0.62380786  0.98339461  0.60365345  1
  O  O24  1  0.39929478  0.36008923  0.52621636  1
  O  O25  1  0.60070522  0.63991077  0.47378364  1
  O  O26  1  0.31657076  0.79276707  0.14674861  1
  O  O27  1  0.68342924  0.20723293  0.85325139  1
  O  O28  1  0.06053696  0.35695195  0.30104751  1
  O  O29  1  0.93946304  0.64304805  0.69895249  1
  O  O30  1  0.51194126  0.09262366  0.11210947  1
  O  O31  1  0.48805874  0.90737634  0.88789053  1
  O  O32  1  0.55352508  0.42570674  0.24998250  1
  O  O33  1  0.44647492  0.57429326  0.75001750  1
