# generated using pymatgen
data_Zn(NiO2)2
_symmetry_space_group_name_H-M   'P 1'
_cell_length_a   5.88516326
_cell_length_b   5.88187890
_cell_length_c   17.57691414
_cell_angle_alpha   59.90601260
_cell_angle_beta   60.52383154
_cell_angle_gamma   60.00482233
_symmetry_Int_Tables_number   1
_chemical_formula_structural   Zn(NiO2)2
_chemical_formula_sum   'Zn6 Ni12 O24'
_cell_volume   431.61459529
_cell_formula_units_Z   6
loop_
 _symmetry_equiv_pos_site_id
 _symmetry_equiv_pos_as_xyz
  1  'x, y, z'
loop_
 _atom_site_type_symbol
 _atom_site_label
 _atom_site_symmetry_multiplicity
 _atom_site_fract_x
 _atom_site_fract_y
 _atom_site_fract_z
 _atom_site_occupancy
  Zn  Zn0  1  0.13957018  0.11829640  0.04128976  1
  Zn  Zn1  1  0.50049844  0.50202623  0.33185055  1
  Zn  Zn2  1  0.99973757  0.50016367  0.16654799  1
  Zn  Zn3  1  0.49938940  0.49809059  0.66807699  1
  Zn  Zn4  1  0.99986194  0.50017712  0.49993575  1
  Zn  Zn5  1  0.99919202  0.49994339  0.83367424  1
  Ni  Ni6  1  0.50269580  0.00414711  0.16492617  1
  Ni  Ni7  1  0.12913422  0.11926383  0.37743591  1
  Ni  Ni8  1  0.49918083  0.49959409  0.00057962  1
  Ni  Ni9  1  0.50276601  0.49828758  0.16489779  1
  Ni  Ni10  1  0.49987143  -0.00013001  0.50006740  1
  Ni  Ni11  1  0.13101901  0.12042142  0.70926414  1
  Ni  Ni12  1  0.49989165  0.50004847  0.50005865  1
  Ni  Ni13  1  0.49788562  0.99609506  0.83481144  1
  Ni  Ni14  1  0.86994644  0.88045377  0.28971234  1
  Ni  Ni15  1  0.49781623  0.50175491  0.83484650  1
  Ni  Ni16  1  0.86992302  0.87978859  0.62350932  1
  Ni  Ni17  1  0.86231193  0.88143860  0.95815348  1
  O  O18  1  0.28193337  0.25665404  0.08497868  1
  O  O19  1  0.28189634  0.24738955  0.24106041  1
  O  O20  1  0.28215437  0.70603447  0.08478657  1
  O  O21  1  0.73003112  0.25432408  0.08713373  1
  O  O22  1  0.26778967  0.24653901  0.42313288  1
  O  O23  1  0.26362151  0.75847610  0.23964233  1
  O  O24  1  0.27083115  0.24502615  0.57971761  1
  O  O25  1  0.73081421  0.27990126  0.24325076  1
  O  O26  1  0.26764341  0.71632239  0.42307066  1
  O  O27  1  0.71799242  0.75062729  0.09363550  1
  O  O28  1  0.72382580  0.24771211  0.42688980  1
  O  O29  1  0.73093356  0.75961453  0.24316945  1
  O  O30  1  0.26814322  0.24096299  0.75531361  1
  O  O31  1  0.27616520  0.75245928  0.57295728  1
  O  O32  1  0.73216129  0.28315955  0.57704005  1
  O  O33  1  0.26808113  0.72487521  0.75523181  1
  O  O34  1  0.28059945  0.25376706  0.90397434  1
  O  O35  1  0.72741988  0.75491439  0.42091333  1
  O  O36  1  0.74673600  0.24164368  0.75662863  1
  O  O37  1  0.73202861  0.75373592  0.57700576  1
  O  O38  1  0.26967351  0.74214437  0.91577909  1
  O  O39  1  0.71556354  0.28891123  0.91726454  1
  O  O40  1  0.71798193  0.75009924  0.76069662  1
  O  O41  1  0.71528658  0.74484331  0.91708952  1
