# generated using pymatgen
data_DyGa3(BO3)4
_symmetry_space_group_name_H-M   'P 1'
_cell_length_a   6.05903076
_cell_length_b   6.05903076
_cell_length_c   6.05903127
_cell_angle_alpha   104.04828824
_cell_angle_beta   104.04828824
_cell_angle_gamma   104.04827926
_symmetry_Int_Tables_number   1
_chemical_formula_structural   DyGa3(BO3)4
_chemical_formula_sum   'Dy1 Ga3 B4 O12'
_cell_volume   198.28559133
_cell_formula_units_Z   1
loop_
 _symmetry_equiv_pos_site_id
 _symmetry_equiv_pos_as_xyz
  1  'x, y, z'
loop_
 _atom_site_type_symbol
 _atom_site_label
 _atom_site_symmetry_multiplicity
 _atom_site_fract_x
 _atom_site_fract_y
 _atom_site_fract_z
 _atom_site_occupancy
  Dy  Dy0  1  0.50000000  0.50000000  0.50000000  1
  Ga  Ga1  1  0.95221277  0.04778723  0.50000000  1
  Ga  Ga2  1  0.50000000  0.95221277  0.04778723  1
  Ga  Ga3  1  0.04778723  0.50000000  0.95221277  1
  B  B4  1  0.54962581  0.45037419  -0.00000000  1
  B  B5  1  0.00000000  0.54962581  0.45037419  1
  B  B6  1  0.45037419  1.00000000  0.54962581  1
  B  B7  1  -0.00000000  0.00000000  -0.00000000  1
  O  O8  1  0.52456848  0.29346605  0.13071867  1
  O  O9  1  0.13071867  0.52456848  0.29346605  1
  O  O10  1  0.86928133  0.70653395  0.47543152  1
  O  O11  1  0.29346605  0.13071867  0.52456848  1
  O  O12  1  0.70653395  0.47543152  0.86928133  1
  O  O13  1  0.47543152  0.86928133  0.70653395  1
  O  O14  1  0.14499324  0.85500676  -0.00000000  1
  O  O15  1  1.00000000  0.14499324  0.85500676  1
  O  O16  1  0.85500676  0.00000000  0.14499324  1
  O  O17  1  0.40506925  0.59493075  -0.00000000  1
  O  O18  1  0.00000000  0.40506925  0.59493075  1
  O  O19  1  0.59493075  1.00000000  0.40506925  1
