# generated using pymatgen
data_Hf3GeO8
_symmetry_space_group_name_H-M   'P 1'
_cell_length_a   5.00390027
_cell_length_b   5.00390027
_cell_length_c   6.32077278
_cell_angle_alpha   113.31773054
_cell_angle_beta   113.31773054
_cell_angle_gamma   90.00000000
_symmetry_Int_Tables_number   1
_chemical_formula_structural   Hf3GeO8
_chemical_formula_sum   'Hf3 Ge1 O8'
_cell_volume   131.14486475
_cell_formula_units_Z   1
loop_
 _symmetry_equiv_pos_site_id
 _symmetry_equiv_pos_as_xyz
  1  'x, y, z'
loop_
 _atom_site_type_symbol
 _atom_site_label
 _atom_site_symmetry_multiplicity
 _atom_site_fract_x
 _atom_site_fract_y
 _atom_site_fract_z
 _atom_site_occupancy
  Hf  Hf0  1  0.25000000  0.75000000  0.50000000  1
  Hf  Hf1  1  0.75000000  0.25000000  0.50000000  1
  Hf  Hf2  1  0.50000000  0.50000000  0.00000000  1
  Ge  Ge3  1  0.00000000  0.00000000  0.00000000  1
  O  O4  1  0.53974042  0.53974042  0.68196456  1
  O  O5  1  0.14222415  0.14222415  0.68196456  1
  O  O6  1  0.85777585  0.46025958  0.31803544  1
  O  O7  1  0.46025958  0.85777585  0.31803544  1
  O  O8  1  0.30498479  0.30498479  0.17901007  1
  O  O9  1  0.87402528  0.87402528  0.17901007  1
  O  O10  1  0.12597472  0.69501521  0.82098993  1
  O  O11  1  0.69501521  0.12597472  0.82098993  1
