# generated using pymatgen
data_ErMg(BO2)5
_symmetry_space_group_name_H-M   'P 1'
_cell_length_a   7.64218339
_cell_length_b   8.61007752
_cell_length_c   9.34034746
_cell_angle_alpha   93.75633965
_cell_angle_beta   90.00000000
_cell_angle_gamma   90.00000000
_symmetry_Int_Tables_number   1
_chemical_formula_structural   ErMg(BO2)5
_chemical_formula_sum   'Er4 Mg4 B20 O40'
_cell_volume   613.27257280
_cell_formula_units_Z   4
loop_
 _symmetry_equiv_pos_site_id
 _symmetry_equiv_pos_as_xyz
  1  'x, y, z'
loop_
 _atom_site_type_symbol
 _atom_site_label
 _atom_site_symmetry_multiplicity
 _atom_site_fract_x
 _atom_site_fract_y
 _atom_site_fract_z
 _atom_site_occupancy
  Er  Er0  1  0.80668113  0.81187485  0.75825060  1
  Er  Er1  1  0.19331887  0.18812515  0.24174940  1
  Er  Er2  1  0.30668113  0.68812515  0.74174940  1
  Er  Er3  1  0.69331887  0.31187485  0.25825060  1
  Mg  Mg4  1  0.09136431  0.09975496  0.62856066  1
  Mg  Mg5  1  0.90863569  0.90024504  0.37143934  1
  Mg  Mg6  1  0.59136431  0.40024504  0.87143934  1
  Mg  Mg7  1  0.40863569  0.59975496  0.12856066  1
  B  B8  1  0.17369661  0.98353400  0.89609567  1
  B  B9  1  0.82630339  0.01646600  0.10390433  1
  B  B10  1  0.67369661  0.51646600  0.60390433  1
  B  B11  1  0.32630339  0.48353400  0.39609567  1
  B  B12  1  0.42471666  0.08140959  0.74125302  1
  B  B13  1  0.57528334  0.91859041  0.25874698  1
  B  B14  1  0.92471666  0.41859041  0.75874698  1
  B  B15  1  0.07528334  0.58140959  0.24125302  1
  B  B16  1  0.18864271  0.43486240  0.91131801  1
  B  B17  1  0.81135729  0.56513760  0.08868199  1
  B  B18  1  0.68864271  0.06513760  0.58868199  1
  B  B19  1  0.31135729  0.93486240  0.41131801  1
  B  B20  1  0.53205462  0.72238008  0.44416848  1
  B  B21  1  0.46794538  0.27761992  0.55583152  1
  B  B22  1  0.03205462  0.77761992  0.05583152  1
  B  B23  1  0.96794538  0.22238008  0.94416848  1
  B  B24  1  0.40253624  0.16081506  0.00560806  1
  B  B25  1  0.59746376  0.83918494  0.99439194  1
  B  B26  1  0.90253624  0.33918494  0.49439194  1
  B  B27  1  0.09746376  0.66081506  0.50560806  1
  O  O28  1  0.08682497  0.49642388  0.80652807  1
  O  O29  1  0.91317503  0.50357612  0.19347193  1
  O  O30  1  0.58682497  0.00357612  0.69347193  1
  O  O31  1  0.41317503  0.99642388  0.30652807  1
  O  O32  1  0.12766123  0.31666900  0.98921974  1
  O  O33  1  0.87233877  0.68333100  0.01078026  1
  O  O34  1  0.62766123  0.18333100  0.51078026  1
  O  O35  1  0.37233877  0.81666900  0.48921974  1
  O  O36  1  0.61055689  0.67548041  0.58109929  1
  O  O37  1  0.38944311  0.32451959  0.41890071  1
  O  O38  1  0.11055689  0.82451959  0.91890071  1
  O  O39  1  0.88944311  0.17548041  0.08109929  1
  O  O40  1  0.29067111  0.96337889  0.76897796  1
  O  O41  1  0.70932889  0.03662111  0.23102204  1
  O  O42  1  0.79067111  0.53662111  0.73102204  1
  O  O43  1  0.20932889  0.46337889  0.26897796  1
  O  O44  1  0.35028029  0.50368393  0.92493013  1
  O  O45  1  0.64971971  0.49631607  0.07506987  1
  O  O46  1  0.85028029  0.99631607  0.57506987  1
  O  O47  1  0.14971971  0.00368393  0.42493013  1
  O  O48  1  0.22873839  0.54945775  0.52162935  1
  O  O49  1  0.77126161  0.45054225  0.47837065  1
  O  O50  1  0.72873839  0.95054225  0.97837065  1
  O  O51  1  0.27126161  0.04945775  0.02162935  1
  O  O52  1  0.34997093  0.18071512  0.63480407  1
  O  O53  1  0.65002907  0.81928488  0.36519593  1
  O  O54  1  0.84997093  0.31928488  0.86519593  1
  O  O55  1  0.15002907  0.68071512  0.13480407  1
  O  O56  1  0.47153089  0.18305614  0.87291625  1
  O  O57  1  0.52846911  0.81694386  0.12708375  1
  O  O58  1  0.97153089  0.31694386  0.62708375  1
  O  O59  1  0.02846911  0.68305614  0.37291625  1
  O  O60  1  0.04815647  0.74395465  0.62680038  1
  O  O61  1  0.95184353  0.25604535  0.37319962  1
  O  O62  1  0.54815647  0.75604535  0.87319962  1
  O  O63  1  0.45184353  0.24395465  0.12680038  1
  O  O64  1  0.02806179  0.08455112  0.85121215  1
  O  O65  1  0.97193821  0.91544888  0.14878785  1
  O  O66  1  0.52806179  0.41544888  0.64878785  1
  O  O67  1  0.47193821  0.58455112  0.35121215  1
