# generated using pymatgen
data_GaP2H11O12
_symmetry_space_group_name_H-M   'P 1'
_cell_length_a   7.61984645
_cell_length_b   7.57449424
_cell_length_c   8.58164259
_cell_angle_alpha   90.00000000
_cell_angle_beta   105.95219335
_cell_angle_gamma   90.00000000
_symmetry_Int_Tables_number   1
_chemical_formula_structural   GaP2H11O12
_chemical_formula_sum   'Ga2 P4 H22 O24'
_cell_volume   476.22880796
_cell_formula_units_Z   2
loop_
 _symmetry_equiv_pos_site_id
 _symmetry_equiv_pos_as_xyz
  1  'x, y, z'
loop_
 _atom_site_type_symbol
 _atom_site_label
 _atom_site_symmetry_multiplicity
 _atom_site_fract_x
 _atom_site_fract_y
 _atom_site_fract_z
 _atom_site_occupancy
  Ga  Ga0  1  -0.00000000  -0.00000000  -0.00000000  1
  Ga  Ga1  1  -0.00000000  0.50000000  0.50000000  1
  P  P2  1  0.18353747  0.15619171  0.36527761  1
  P  P3  1  0.81646253  0.84380829  0.63472239  1
  P  P4  1  0.81646253  0.65619171  0.13472239  1
  P  P5  1  0.18353747  0.34380829  0.86527761  1
  H  H6  1  0.72376970  0.10631251  0.10908646  1
  H  H7  1  0.27623030  0.89368749  0.89091354  1
  H  H8  1  0.27623030  0.60631251  0.39091354  1
  H  H9  1  0.72376970  0.39368749  0.60908646  1
  H  H10  1  0.81627197  0.27774791  0.04964546  1
  H  H11  1  0.18372803  0.72225209  0.95035454  1
  H  H12  1  0.18372803  0.77774791  0.45035454  1
  H  H13  1  0.81627197  0.22225209  0.54964546  1
  H  H14  1  0.44857845  0.04962311  0.19075534  1
  H  H15  1  0.55142155  0.95037689  0.80924466  1
  H  H16  1  0.55142155  0.54962311  0.30924466  1
  H  H17  1  0.44857845  0.45037689  0.69075534  1
  H  H18  1  0.43101917  0.30727178  0.40069875  1
  H  H19  1  0.56898083  0.69272822  0.59930125  1
  H  H20  1  0.56898083  0.80727178  0.09930125  1
  H  H21  1  0.43101917  0.19272822  0.90069875  1
  H  H22  1  0.37255146  0.48410144  0.18244555  1
  H  H23  1  0.62744854  0.51589856  0.81755445  1
  H  H24  1  0.62744854  0.98410144  0.31755445  1
  H  H25  1  0.37255146  0.01589856  0.68244555  1
  H  H26  1  -0.00000000  -0.00000000  0.50000000  1
  H  H27  1  -0.00000000  0.50000000  -0.00000000  1
  O  O28  1  0.18038411  0.09933405  0.19304935  1
  O  O29  1  0.81961589  0.90066595  0.80695065  1
  O  O30  1  0.81961589  0.59933405  0.30695065  1
  O  O31  1  0.18038411  0.40066595  0.69304935  1
  O  O32  1  0.79212826  0.14898477  0.03305497  1
  O  O33  1  0.20787174  0.85101523  0.96694503  1
  O  O34  1  0.20787174  0.64898477  0.46694503  1
  O  O35  1  0.79212826  0.35101523  0.53305497  1
  O  O36  1  0.39158643  0.20204444  0.45348333  1
  O  O37  1  0.60841357  0.79795556  0.54651667  1
  O  O38  1  0.60841357  0.70204444  0.04651667  1
  O  O39  1  0.39158643  0.29795556  0.95348333  1
  O  O40  1  0.14589639  0.00124678  0.47095497  1
  O  O41  1  0.85410361  0.99875322  0.52904503  1
  O  O42  1  0.85410361  0.50124678  0.02904503  1
  O  O43  1  0.14589639  0.49875322  0.97095497  1
  O  O44  1  0.57143369  0.00148406  0.20113043  1
  O  O45  1  0.42856631  0.99851594  0.79886957  1
  O  O46  1  0.42856631  0.50148406  0.29886957  1
  O  O47  1  0.57143369  0.49851594  0.70113043  1
  O  O48  1  0.05771762  0.31318103  0.36396661  1
  O  O49  1  0.94228238  0.68681897  0.63603339  1
  O  O50  1  0.94228238  0.81318103  0.13603339  1
  O  O51  1  0.05771762  0.18681897  0.86396661  1
