# generated using pymatgen
data_K15P16Pd9O56
_symmetry_space_group_name_H-M   'P 1'
_cell_length_a   12.00067098
_cell_length_b   12.00067098
_cell_length_c   12.42590518
_cell_angle_alpha   66.38722565
_cell_angle_beta   66.38722565
_cell_angle_gamma   72.36315028
_symmetry_Int_Tables_number   1
_chemical_formula_structural   K15P16Pd9O56
_chemical_formula_sum   'K15 P16 Pd9 O56'
_cell_volume   1480.60085347
_cell_formula_units_Z   1
loop_
 _symmetry_equiv_pos_site_id
 _symmetry_equiv_pos_as_xyz
  1  'x, y, z'
loop_
 _atom_site_type_symbol
 _atom_site_label
 _atom_site_symmetry_multiplicity
 _atom_site_fract_x
 _atom_site_fract_y
 _atom_site_fract_z
 _atom_site_occupancy
  K  K0  1  0.84136401  0.84136401  0.90682597  1
  K  K1  1  0.15863599  0.15863599  0.09317403  1
  K  K2  1  0.25948585  0.74051415  0.00000000  1
  K  K3  1  0.74051415  0.25948585  -0.00000000  1
  K  K4  1  0.58471162  0.12228526  0.91684482  1
  K  K5  1  0.41528838  0.87771474  0.08315518  1
  K  K6  1  0.87771474  0.41528838  0.08315518  1
  K  K7  1  0.12228526  0.58471162  0.91684482  1
  K  K8  1  0.64607887  0.11605018  0.59880668  1
  K  K9  1  0.35392113  0.88394982  0.40119332  1
  K  K10  1  0.88394982  0.35392113  0.40119332  1
  K  K11  1  0.11605018  0.64607887  0.59880668  1
  K  K12  1  0.25291102  0.25291102  0.49982031  1
  K  K13  1  0.74708898  0.74708898  0.50017969  1
  K  K14  1  0.00000000  0.00000000  -0.00000000  1
  P  P15  1  0.32066035  0.10868213  0.80194337  1
  P  P16  1  0.67933965  0.89131787  0.19805663  1
  P  P17  1  0.89131787  0.67933965  0.19805663  1
  P  P18  1  0.10868213  0.32066035  0.80194337  1
  P  P19  1  0.13929751  0.92412008  0.69646345  1
  P  P20  1  0.86070249  0.07587992  0.30353655  1
  P  P21  1  0.07587992  0.86070249  0.30353655  1
  P  P22  1  0.92412008  0.13929751  0.69646345  1
  P  P23  1  0.60432641  0.81937815  0.81162676  1
  P  P24  1  0.39567359  0.18062185  0.18837324  1
  P  P25  1  0.18062185  0.39567359  0.18837324  1
  P  P26  1  0.81937815  0.60432641  0.81162676  1
  P  P27  1  0.42400344  0.62854948  0.69284568  1
  P  P28  1  0.57599656  0.37145052  0.30715432  1
  P  P29  1  0.37145052  0.57599656  0.30715432  1
  P  P30  1  0.62854948  0.42400344  0.69284568  1
  Pd  Pd31  1  0.37352630  0.37352630  0.74330036  1
  Pd  Pd32  1  0.62647370  0.62647370  0.25669964  1
  Pd  Pd33  1  0.43448538  0.43448538  0.95259435  1
  Pd  Pd34  1  0.56551462  0.56551462  0.04740565  1
  Pd  Pd35  1  0.41289837  0.91623818  0.65635082  1
  Pd  Pd36  1  0.58710163  0.08376182  0.34364918  1
  Pd  Pd37  1  0.08376182  0.58710163  0.34364918  1
  Pd  Pd38  1  0.91623818  0.41289837  0.65635082  1
  Pd  Pd39  1  0.00000000  0.00000000  0.50000000  1
  O  O40  1  0.58100113  0.84607028  0.68892342  1
  O  O41  1  0.41899887  0.15392972  0.31107658  1
  O  O42  1  0.15392972  0.41899887  0.31107658  1
  O  O43  1  0.84607028  0.58100113  0.68892342  1
  O  O44  1  0.40496293  0.07662024  0.68202387  1
  O  O45  1  0.59503707  0.92337976  0.31797613  1
  O  O46  1  0.92337976  0.59503707  0.31797613  1
  O  O47  1  0.07662024  0.40496293  0.68202387  1
  O  O48  1  0.56929837  0.56929837  0.64246211  1
  O  O49  1  0.43070163  0.43070163  0.35753789  1
  O  O50  1  0.56656541  0.34775696  0.66518172  1
  O  O51  1  0.43343459  0.65224304  0.33481828  1
  O  O52  1  0.65224304  0.43343459  0.33481828  1
  O  O53  1  0.34775696  0.56656541  0.66518172  1
  O  O54  1  0.11809013  0.90947857  0.37766818  1
  O  O55  1  0.88190987  0.09052143  0.62233182  1
  O  O56  1  0.09052143  0.88190987  0.62233182  1
  O  O57  1  0.90947857  0.11809013  0.37766818  1
  O  O58  1  0.60711474  0.39116717  0.83223820  1
  O  O59  1  0.39288526  0.60883283  0.16776180  1
  O  O60  1  0.60883283  0.39288526  0.16776180  1
  O  O61  1  0.39116717  0.60711474  0.83223820  1
  O  O62  1  0.60684846  0.93191513  0.83711107  1
  O  O63  1  0.39315154  0.06808487  0.16288893  1
  O  O64  1  0.06808487  0.39315154  0.16288893  1
  O  O65  1  0.93191513  0.60684846  0.83711107  1
  O  O66  1  0.38552112  0.18435791  0.82864616  1
  O  O67  1  0.61447888  0.81564209  0.17135384  1
  O  O68  1  0.81564209  0.61447888  0.17135384  1
  O  O69  1  0.18435791  0.38552112  0.82864616  1
  O  O70  1  0.41724451  0.76474187  0.61393252  1
  O  O71  1  0.58275549  0.23525813  0.38606748  1
  O  O72  1  0.23525813  0.58275549  0.38606748  1
  O  O73  1  0.76474187  0.41724451  0.61393252  1
  O  O74  1  0.74709386  0.74709386  0.78710888  1
  O  O75  1  0.25290614  0.25290614  0.21289112  1
  O  O76  1  0.02948291  0.02948291  0.74684523  1
  O  O77  1  0.97051709  0.97051709  0.25315477  1
  O  O78  1  0.82260346  0.15291951  0.81242878  1
  O  O79  1  0.17739654  0.84708049  0.18757122  1
  O  O80  1  0.84708049  0.17739654  0.18757122  1
  O  O81  1  0.15291951  0.82260346  0.81242878  1
  O  O82  1  0.20377950  0.20377950  0.75881488  1
  O  O83  1  0.79622050  0.79622050  0.24118512  1
  O  O84  1  0.25189256  0.98993199  0.60946961  1
  O  O85  1  0.74810744  0.01006801  0.39053039  1
  O  O86  1  0.01006801  0.74810744  0.39053039  1
  O  O87  1  0.98993199  0.25189256  0.60946961  1
  O  O88  1  0.51959584  0.73314960  0.92375744  1
  O  O89  1  0.48040416  0.26685040  0.07624256  1
  O  O90  1  0.26685040  0.48040416  0.07624256  1
  O  O91  1  0.73314960  0.51959584  0.92375744  1
  O  O92  1  0.27160293  0.00480708  0.91608525  1
  O  O93  1  0.72839707  0.99519292  0.08391475  1
  O  O94  1  0.99519292  0.72839707  0.08391475  1
  O  O95  1  0.00480708  0.27160293  0.91608525  1
