# generated using pymatgen
data_CsRbSO4
_symmetry_space_group_name_H-M   'P 1'
_cell_length_a   6.30100793
_cell_length_b   6.30100793
_cell_length_c   8.27195799
_cell_angle_alpha   90.00000000
_cell_angle_beta   90.00000000
_cell_angle_gamma   120.00000435
_symmetry_Int_Tables_number   1
_chemical_formula_structural   CsRbSO4
_chemical_formula_sum   'Cs2 Rb2 S2 O8'
_cell_volume   284.41924927
_cell_formula_units_Z   2
loop_
 _symmetry_equiv_pos_site_id
 _symmetry_equiv_pos_as_xyz
  1  'x, y, z'
loop_
 _atom_site_type_symbol
 _atom_site_label
 _atom_site_symmetry_multiplicity
 _atom_site_fract_x
 _atom_site_fract_y
 _atom_site_fract_z
 _atom_site_occupancy
  Cs  Cs0  1  0.66666700  0.33333300  0.68702563  1
  Cs  Cs1  1  0.33333300  0.66666700  0.37824291  1
  Rb  Rb2  1  -0.00000000  -0.00000000  0.99630004  1
  Rb  Rb3  1  0.66666700  0.33333300  0.18518192  1
  S  S4  1  0.33333300  0.66666700  0.91503220  1
  S  S5  1  -0.00000000  -0.00000000  0.45437962  1
  O  O6  1  0.87085650  0.74171300  0.39059419  1
  O  O7  1  0.87085650  0.12914350  0.39059419  1
  O  O8  1  0.25828700  0.12914350  0.39059419  1
  O  O9  1  0.33333300  0.66666700  0.73674184  1
  O  O10  1  0.46272540  0.92545079  0.97837648  1
  O  O11  1  0.46272540  0.53727460  0.97837648  1
  O  O12  1  0.07454921  0.53727460  0.97837648  1
  O  O13  1  -0.00000000  -0.00000000  0.63318382  1
