# generated using pymatgen
data_Ba6NaNd(SiO4)4
_symmetry_space_group_name_H-M   'P 1'
_cell_length_a   5.78340577
_cell_length_b   7.45388859
_cell_length_c   20.33386516
_cell_angle_alpha   90.00000000
_cell_angle_beta   90.00000000
_cell_angle_gamma   90.00000000
_symmetry_Int_Tables_number   1
_chemical_formula_structural   Ba6NaNd(SiO4)4
_chemical_formula_sum   'Ba12 Na2 Nd2 Si8 O32'
_cell_volume   876.56979281
_cell_formula_units_Z   2
loop_
 _symmetry_equiv_pos_site_id
 _symmetry_equiv_pos_as_xyz
  1  'x, y, z'
loop_
 _atom_site_type_symbol
 _atom_site_label
 _atom_site_symmetry_multiplicity
 _atom_site_fract_x
 _atom_site_fract_y
 _atom_site_fract_z
 _atom_site_occupancy
  Ba  Ba0  1  0.50000000  0.67130059  0.97121387  1
  Ba  Ba1  1  0.50000000  0.17130059  0.02878613  1
  Ba  Ba2  1  0.50000000  0.00495818  0.83016009  1
  Ba  Ba3  1  0.50000000  0.50495818  0.16983991  1
  Ba  Ba4  1  0.00000000  0.66181623  0.75689770  1
  Ba  Ba5  1  0.00000000  0.16181623  0.24310230  1
  Ba  Ba6  1  0.00000000  0.32388802  0.91350162  1
  Ba  Ba7  1  0.00000000  0.82388802  0.08649838  1
  Ba  Ba8  1  0.00000000  0.99839903  0.58766722  1
  Ba  Ba9  1  0.00000000  0.49839903  0.41233278  1
  Ba  Ba10  1  0.50000000  0.82096402  0.32971839  1
  Ba  Ba11  1  0.50000000  0.32096402  0.67028161  1
  Na  Na12  1  0.00000000  0.65678557  0.25281614  1
  Na  Na13  1  0.00000000  0.15678557  0.74718386  1
  Nd  Nd14  1  0.50000000  0.66772307  0.52492540  1
  Nd  Nd15  1  0.50000000  0.16772307  0.47507460  1
  Si  Si16  1  0.00000000  0.94230109  0.42320901  1
  Si  Si17  1  0.00000000  0.44230109  0.57679099  1
  Si  Si18  1  0.00000000  0.88583404  0.91229592  1
  Si  Si19  1  0.00000000  0.38583404  0.08770408  1
  Si  Si20  1  0.50000000  0.44081297  0.82843426  1
  Si  Si21  1  0.50000000  0.94081297  0.17156574  1
  Si  Si22  1  0.50000000  0.87948599  0.65904316  1
  Si  Si23  1  0.50000000  0.37948599  0.34095684  1
  O  O24  1  0.75680791  0.87424604  0.46213370  1
  O  O25  1  0.24319209  0.37424604  0.53786630  1
  O  O26  1  0.75680791  0.37424604  0.53786630  1
  O  O27  1  0.24319209  0.87424604  0.46213370  1
  O  O28  1  0.50000000  0.66364192  0.64201388  1
  O  O29  1  0.50000000  0.16364192  0.35798612  1
  O  O30  1  0.00000000  0.65984577  0.57100302  1
  O  O31  1  0.00000000  0.15984577  0.42899698  1
  O  O32  1  0.50000000  0.66021620  0.82644750  1
  O  O33  1  0.50000000  0.16021620  0.17355250  1
  O  O34  1  0.50000000  0.97334065  0.58226055  1
  O  O35  1  0.50000000  0.47334065  0.41773945  1
  O  O36  1  0.76788522  0.97159164  0.94775351  1
  O  O37  1  0.23211478  0.47159164  0.05224649  1
  O  O38  1  0.76788522  0.47159164  0.05224649  1
  O  O39  1  0.23211478  0.97159164  0.94775351  1
  O  O40  1  0.73071106  0.95208818  0.69706682  1
  O  O41  1  0.26928894  0.45208818  0.30293318  1
  O  O42  1  0.73071106  0.45208818  0.30293318  1
  O  O43  1  0.26928894  0.95208818  0.69706682  1
  O  O44  1  0.72984305  0.35825370  0.79049984  1
  O  O45  1  0.27015695  0.85825370  0.20950016  1
  O  O46  1  0.72984305  0.85825370  0.20950016  1
  O  O47  1  0.27015695  0.35825370  0.79049984  1
  O  O48  1  0.50000000  0.35982919  0.90456918  1
  O  O49  1  0.50000000  0.85982919  0.09543082  1
  O  O50  1  0.00000000  0.85104144  0.35022424  1
  O  O51  1  0.00000000  0.35104144  0.64977576  1
  O  O52  1  0.00000000  0.66685733  0.91832814  1
  O  O53  1  0.00000000  0.16685733  0.08167186  1
  O  O54  1  0.00000000  0.95499955  0.83481746  1
  O  O55  1  0.00000000  0.45499955  0.16518254  1
