# generated using pymatgen
data_Ba2NdV3O11
_symmetry_space_group_name_H-M   'P 1'
_cell_length_a   7.85824909
_cell_length_b   12.55076441
_cell_length_c   11.44512206
_cell_angle_alpha   103.14948372
_cell_angle_beta   90.00000000
_cell_angle_gamma   90.00000000
_symmetry_Int_Tables_number   1
_chemical_formula_structural   Ba2NdV3O11
_chemical_formula_sum   'Ba8 Nd4 V12 O44'
_cell_volume   1099.20117372
_cell_formula_units_Z   4
loop_
 _symmetry_equiv_pos_site_id
 _symmetry_equiv_pos_as_xyz
  1  'x, y, z'
loop_
 _atom_site_type_symbol
 _atom_site_label
 _atom_site_symmetry_multiplicity
 _atom_site_fract_x
 _atom_site_fract_y
 _atom_site_fract_z
 _atom_site_occupancy
  Ba  Ba0  1  0.27399625  0.76518311  0.94132237  1
  Ba  Ba1  1  0.72600375  0.23481689  0.05867763  1
  Ba  Ba2  1  0.77399625  0.23481689  0.55867763  1
  Ba  Ba3  1  0.22600375  0.76518311  0.44132237  1
  Ba  Ba4  1  0.74741386  0.55395967  0.88928994  1
  Ba  Ba5  1  0.25258614  0.44604033  0.11071006  1
  Ba  Ba6  1  0.24741386  0.44604033  0.61071006  1
  Ba  Ba7  1  0.75258614  0.55395967  0.38928994  1
  Nd  Nd8  1  0.50070234  0.99765734  0.71132049  1
  Nd  Nd9  1  0.49929766  0.00234266  0.28867951  1
  Nd  Nd10  1  0.00070234  0.00234266  0.78867951  1
  Nd  Nd11  1  0.99929766  0.99765734  0.21132049  1
  V  V12  1  0.75115201  0.90384221  0.97554172  1
  V  V13  1  0.24884799  0.09615779  0.02445828  1
  V  V14  1  0.25115201  0.09615779  0.52445828  1
  V  V15  1  0.74884799  0.90384221  0.47554172  1
  V  V16  1  0.51978696  0.68264899  0.67354254  1
  V  V17  1  0.48021304  0.31735101  0.32645746  1
  V  V18  1  0.01978696  0.31735101  0.82645746  1
  V  V19  1  0.98021304  0.68264899  0.17354254  1
  V  V20  1  0.98069877  0.68606748  0.67022498  1
  V  V21  1  0.01930123  0.31393252  0.32977502  1
  V  V22  1  0.48069877  0.31393252  0.82977502  1
  V  V23  1  0.51930123  0.68606748  0.17022498  1
  O  O24  1  0.44241422  0.81496412  0.71941161  1
  O  O25  1  0.55758578  0.18503588  0.28058839  1
  O  O26  1  0.94241422  0.18503588  0.78058839  1
  O  O27  1  0.05758578  0.81496412  0.21941161  1
  O  O28  1  0.55203569  0.18057080  0.80968840  1
  O  O29  1  0.44796431  0.81942920  0.19031160  1
  O  O30  1  0.05203569  0.81942920  0.69031160  1
  O  O31  1  0.94796431  0.18057080  0.30968840  1
  O  O32  1  0.75030936  0.66680763  0.66740556  1
  O  O33  1  0.24969064  0.33319237  0.33259444  1
  O  O34  1  0.25030936  0.33319237  0.83259444  1
  O  O35  1  0.74969064  0.66680763  0.16740556  1
  O  O36  1  0.94523098  0.37568436  0.96597523  1
  O  O37  1  0.05476902  0.62431564  0.03402477  1
  O  O38  1  0.44523098  0.62431564  0.53402477  1
  O  O39  1  0.55476902  0.37568436  0.46597523  1
  O  O40  1  0.94220164  0.39349433  0.73190381  1
  O  O41  1  0.05779836  0.60650567  0.26809619  1
  O  O42  1  0.44220164  0.60650567  0.76809619  1
  O  O43  1  0.55779836  0.39349433  0.23190381  1
  O  O44  1  0.78529171  0.98589234  0.62178138  1
  O  O45  1  0.21470829  0.01410766  0.37821862  1
  O  O46  1  0.28529171  0.01410766  0.87821862  1
  O  O47  1  0.71470829  0.98589234  0.12178138  1
  O  O48  1  0.96954795  0.88209053  0.97312291  1
  O  O49  1  0.03045205  0.11790947  0.02687709  1
  O  O50  1  0.46954795  0.11790947  0.52687709  1
  O  O51  1  0.53045205  0.88209053  0.47312291  1
  O  O52  1  0.63773320  0.78541564  0.94646463  1
  O  O53  1  0.36226680  0.21458436  0.05353537  1
  O  O54  1  0.13773320  0.21458436  0.55353537  1
  O  O55  1  0.86226680  0.78541564  0.44646463  1
  O  O56  1  0.71722532  0.98259423  0.86650960  1
  O  O57  1  0.28277468  0.01740577  0.13349040  1
  O  O58  1  0.21722532  0.01740577  0.63349040  1
  O  O59  1  0.78277468  0.98259423  0.36650960  1
  O  O60  1  0.55847399  0.37059234  0.71935845  1
  O  O61  1  0.44152601  0.62940766  0.28064155  1
  O  O62  1  0.05847399  0.62940766  0.78064155  1
  O  O63  1  0.94152601  0.37059234  0.21935845  1
  O  O64  1  0.56209821  0.38868423  0.96185858  1
  O  O65  1  0.43790179  0.61131577  0.03814142  1
  O  O66  1  0.06209821  0.61131577  0.53814142  1
  O  O67  1  0.93790179  0.38868423  0.46185858  1
