# generated using pymatgen
data_Ba2Ho2CuPtO8
_symmetry_space_group_name_H-M   'P 1'
_cell_length_a   5.73133411
_cell_length_b   13.36863502
_cell_length_c   10.42841542
_cell_angle_alpha   90.00000000
_cell_angle_beta   90.00000000
_cell_angle_gamma   90.00000000
_symmetry_Int_Tables_number   1
_chemical_formula_structural   Ba2Ho2CuPtO8
_chemical_formula_sum   'Ba8 Ho8 Cu4 Pt4 O32'
_cell_volume   799.02637722
_cell_formula_units_Z   4
loop_
 _symmetry_equiv_pos_site_id
 _symmetry_equiv_pos_as_xyz
  1  'x, y, z'
loop_
 _atom_site_type_symbol
 _atom_site_label
 _atom_site_symmetry_multiplicity
 _atom_site_fract_x
 _atom_site_fract_y
 _atom_site_fract_z
 _atom_site_occupancy
  Ba  Ba0  1  0.75000000  0.57713465  0.59182179  1
  Ba  Ba1  1  0.25000000  0.42286535  0.40817821  1
  Ba  Ba2  1  0.25000000  0.92286535  0.09182179  1
  Ba  Ba3  1  0.75000000  0.07713465  0.90817821  1
  Ba  Ba4  1  0.75000000  0.79251954  0.31454376  1
  Ba  Ba5  1  0.25000000  0.20748046  0.68545624  1
  Ba  Ba6  1  0.25000000  0.70748046  0.81454376  1
  Ba  Ba7  1  0.75000000  0.29251954  0.18545624  1
  Ho  Ho8  1  0.75000000  0.58282756  0.98657204  1
  Ho  Ho9  1  0.25000000  0.41717244  0.01342796  1
  Ho  Ho10  1  0.25000000  0.91717244  0.48657204  1
  Ho  Ho11  1  0.75000000  0.08282756  0.51342796  1
  Ho  Ho12  1  0.75000000  0.85832580  0.68803160  1
  Ho  Ho13  1  0.25000000  0.14167420  0.31196840  1
  Ho  Ho14  1  0.25000000  0.64167420  0.18803160  1
  Ho  Ho15  1  0.75000000  0.35832580  0.81196840  1
  Cu  Cu16  1  0.75000000  0.53917248  0.26679450  1
  Cu  Cu17  1  0.25000000  0.46082752  0.73320550  1
  Cu  Cu18  1  0.25000000  0.96082752  0.76679450  1
  Cu  Cu19  1  0.75000000  0.03917248  0.23320550  1
  Pt  Pt20  1  0.75000000  0.80613432  0.96801833  1
  Pt  Pt21  1  0.25000000  0.19386568  0.03198167  1
  Pt  Pt22  1  0.25000000  0.69386568  0.46801833  1
  Pt  Pt23  1  0.75000000  0.30613432  0.53198167  1
  O  O24  1  0.75000000  0.70366966  0.81434840  1
  O  O25  1  0.25000000  0.29633034  0.18565160  1
  O  O26  1  0.25000000  0.79633034  0.31434840  1
  O  O27  1  0.75000000  0.20366966  0.68565160  1
  O  O28  1  0.49085831  0.78425942  0.55677598  1
  O  O29  1  0.50914169  0.21574058  0.44322402  1
  O  O30  1  0.50914169  0.71574058  0.05677598  1
  O  O31  1  0.99085831  0.21574058  0.44322402  1
  O  O32  1  0.49085831  0.28425942  0.94322402  1
  O  O33  1  0.00914169  0.78425942  0.55677598  1
  O  O34  1  0.00914169  0.28425942  0.94322402  1
  O  O35  1  0.99085831  0.71574058  0.05677598  1
  O  O36  1  0.99187822  0.88615385  0.86121474  1
  O  O37  1  0.00812178  0.11384615  0.13878526  1
  O  O38  1  0.00812178  0.61384615  0.36121474  1
  O  O39  1  0.49187822  0.11384615  0.13878526  1
  O  O40  1  0.99187822  0.38615385  0.63878526  1
  O  O41  1  0.50812178  0.88615385  0.86121474  1
  O  O42  1  0.50812178  0.38615385  0.63878526  1
  O  O43  1  0.49187822  0.61384615  0.36121474  1
  O  O44  1  0.49459119  0.99178624  0.63566511  1
  O  O45  1  0.50540881  0.00821376  0.36433489  1
  O  O46  1  0.50540881  0.50821376  0.13566511  1
  O  O47  1  0.99459119  0.00821376  0.36433489  1
  O  O48  1  0.49459119  0.49178624  0.86433489  1
  O  O49  1  0.00540881  0.99178624  0.63566511  1
  O  O50  1  0.00540881  0.49178624  0.86433489  1
  O  O51  1  0.99459119  0.50821376  0.13566511  1
  O  O52  1  0.75000000  0.41085685  0.39029948  1
  O  O53  1  0.25000000  0.58914315  0.60970052  1
  O  O54  1  0.25000000  0.08914315  0.89029948  1
  O  O55  1  0.75000000  0.91085685  0.10970052  1
