# generated using pymatgen
data_Cr5Cu(GeO6)2
_symmetry_space_group_name_H-M   'P 1'
_cell_length_a   6.05028770
_cell_length_b   8.45816684
_cell_length_c   9.61180665
_cell_angle_alpha   116.10314095
_cell_angle_beta   90.00000000
_cell_angle_gamma   90.00000000
_symmetry_Int_Tables_number   1
_chemical_formula_structural   Cr5Cu(GeO6)2
_chemical_formula_sum   'Cr10 Cu2 Ge4 O24'
_cell_volume   441.70804422
_cell_formula_units_Z   2
loop_
 _symmetry_equiv_pos_site_id
 _symmetry_equiv_pos_as_xyz
  1  'x, y, z'
loop_
 _atom_site_type_symbol
 _atom_site_label
 _atom_site_symmetry_multiplicity
 _atom_site_fract_x
 _atom_site_fract_y
 _atom_site_fract_z
 _atom_site_occupancy
  Cr  Cr0  1  0.00000000  0.67224414  0.34448828  1
  Cr  Cr1  1  0.00000000  0.32775586  0.65551172  1
  Cr  Cr2  1  0.50000000  0.32775586  0.65551172  1
  Cr  Cr3  1  0.50000000  0.67224414  0.34448828  1
  Cr  Cr4  1  0.75000000  0.66504168  0.82642237  1
  Cr  Cr5  1  0.25000000  0.33495832  0.17357763  1
  Cr  Cr6  1  0.75000000  0.83861931  0.17357763  1
  Cr  Cr7  1  0.25000000  0.16138069  0.82642237  1
  Cr  Cr8  1  0.00000000  0.00000000  0.00000000  1
  Cr  Cr9  1  0.50000000  0.00000000  0.00000000  1
  Cu  Cu10  1  0.75000000  0.37720202  0.00000000  1
  Cu  Cu11  1  0.25000000  0.62279798  0.00000000  1
  Ge  Ge12  1  0.75000000  0.31073210  0.33469736  1
  Ge  Ge13  1  0.25000000  0.68926790  0.66530264  1
  Ge  Ge14  1  0.75000000  0.97603474  0.66530264  1
  Ge  Ge15  1  0.25000000  0.02396526  0.33469736  1
  O  O16  1  0.99236513  0.42195249  0.32662341  1
  O  O17  1  0.00763487  0.57804751  0.67337659  1
  O  O18  1  0.49236513  0.57804751  0.67337659  1
  O  O19  1  0.50763487  0.09532908  0.67337659  1
  O  O20  1  0.50763487  0.42195249  0.32662341  1
  O  O21  1  0.49236513  0.90467092  0.32662341  1
  O  O22  1  0.00763487  0.90467092  0.32662341  1
  O  O23  1  0.99236513  0.09532908  0.67337659  1
  O  O24  1  0.75000000  0.42377556  0.80704218  1
  O  O25  1  0.25000000  0.57622444  0.19295782  1
  O  O26  1  0.75000000  0.61673337  0.19295782  1
  O  O27  1  0.25000000  0.38326663  0.80704218  1
  O  O28  1  0.75000000  0.26416250  0.49692249  1
  O  O29  1  0.25000000  0.73583750  0.50307751  1
  O  O30  1  0.75000000  0.76724001  0.50307751  1
  O  O31  1  0.25000000  0.23275999  0.49692249  1
  O  O32  1  0.75000000  0.92181121  0.83611825  1
  O  O33  1  0.25000000  0.07818879  0.16388175  1
  O  O34  1  0.75000000  0.08569296  0.16388175  1
  O  O35  1  0.25000000  0.91430704  0.83611825  1
  O  O36  1  0.96868380  0.76816901  0.00000000  1
  O  O37  1  0.03131620  0.23183099  0.00000000  1
  O  O38  1  0.46868380  0.23183099  0.00000000  1
  O  O39  1  0.53131620  0.76816901  0.00000000  1
