# generated using pymatgen
data_Ba2PrV3O11
_symmetry_space_group_name_H-M   'P 1'
_cell_length_a   7.87696024
_cell_length_b   12.58219770
_cell_length_c   11.47360334
_cell_angle_alpha   103.12684375
_cell_angle_beta   90.00000000
_cell_angle_gamma   90.00000000
_symmetry_Int_Tables_number   1
_chemical_formula_structural   Ba2PrV3O11
_chemical_formula_sum   'Ba8 Pr4 V12 O44'
_cell_volume   1107.42884419
_cell_formula_units_Z   4
loop_
 _symmetry_equiv_pos_site_id
 _symmetry_equiv_pos_as_xyz
  1  'x, y, z'
loop_
 _atom_site_type_symbol
 _atom_site_label
 _atom_site_symmetry_multiplicity
 _atom_site_fract_x
 _atom_site_fract_y
 _atom_site_fract_z
 _atom_site_occupancy
  Ba  Ba0  1  0.27411189  0.76442065  0.94111656  1
  Ba  Ba1  1  0.72588811  0.23557935  0.05888344  1
  Ba  Ba2  1  0.77411189  0.23557935  0.55888344  1
  Ba  Ba3  1  0.22588811  0.76442065  0.44111656  1
  Ba  Ba4  1  0.74729330  0.55375402  0.88926251  1
  Ba  Ba5  1  0.25270670  0.44624598  0.11073749  1
  Ba  Ba6  1  0.24729330  0.44624598  0.61073749  1
  Ba  Ba7  1  0.75270670  0.55375402  0.38926251  1
  Pr  Pr8  1  0.50077703  0.99770581  0.71071893  1
  Pr  Pr9  1  0.49922297  0.00229419  0.28928107  1
  Pr  Pr10  1  0.00077703  0.00229419  0.78928107  1
  Pr  Pr11  1  0.99922297  0.99770581  0.21071893  1
  V  V12  1  0.75046260  0.90345953  0.97546664  1
  V  V13  1  0.24953740  0.09654047  0.02453336  1
  V  V14  1  0.25046260  0.09654047  0.52453336  1
  V  V15  1  0.74953740  0.90345953  0.47546664  1
  V  V16  1  0.51997721  0.68238203  0.67360817  1
  V  V17  1  0.48002279  0.31761797  0.32639183  1
  V  V18  1  0.01997721  0.31761797  0.82639183  1
  V  V19  1  0.98002279  0.68238203  0.17360817  1
  V  V20  1  0.98044395  0.68574911  0.67003752  1
  V  V21  1  0.01955605  0.31425089  0.32996248  1
  V  V22  1  0.48044395  0.31425089  0.82996248  1
  V  V23  1  0.51955605  0.68574911  0.17003752  1
  O  O24  1  0.44192067  0.81399895  0.71961116  1
  O  O25  1  0.55807933  0.18600105  0.28038884  1
  O  O26  1  0.94192067  0.18600105  0.78038884  1
  O  O27  1  0.05807933  0.81399895  0.21961116  1
  O  O28  1  0.55236995  0.18155895  0.81039905  1
  O  O29  1  0.44763005  0.81844105  0.18960095  1
  O  O30  1  0.05236995  0.81844105  0.68960095  1
  O  O31  1  0.94763005  0.18155895  0.31039905  1
  O  O32  1  0.75024889  0.66708256  0.66752020  1
  O  O33  1  0.24975111  0.33291744  0.33247980  1
  O  O34  1  0.25024889  0.33291744  0.83247980  1
  O  O35  1  0.74975111  0.66708256  0.16752020  1
  O  O36  1  0.94553755  0.37557691  0.96569015  1
  O  O37  1  0.05446245  0.62442309  0.03430985  1
  O  O38  1  0.44553755  0.62442309  0.53430985  1
  O  O39  1  0.55446245  0.37557691  0.46569015  1
  O  O40  1  0.94271007  0.39374617  0.73209833  1
  O  O41  1  0.05728993  0.60625383  0.26790167  1
  O  O42  1  0.44271007  0.60625383  0.76790167  1
  O  O43  1  0.55728993  0.39374617  0.23209833  1
  O  O44  1  0.78610488  0.98562927  0.62097259  1
  O  O45  1  0.21389512  0.01437073  0.37902741  1
  O  O46  1  0.28610488  0.01437073  0.87902741  1
  O  O47  1  0.71389512  0.98562927  0.12097259  1
  O  O48  1  0.96869939  0.88190430  0.97284947  1
  O  O49  1  0.03130061  0.11809570  0.02715053  1
  O  O50  1  0.46869939  0.11809570  0.52715053  1
  O  O51  1  0.53130061  0.88190430  0.47284947  1
  O  O52  1  0.63742553  0.78528635  0.94651927  1
  O  O53  1  0.36257447  0.21471365  0.05348073  1
  O  O54  1  0.13742553  0.21471365  0.55348073  1
  O  O55  1  0.86257447  0.78528635  0.44651927  1
  O  O56  1  0.71615557  0.98225979  0.86717429  1
  O  O57  1  0.28384443  0.01774021  0.13282571  1
  O  O58  1  0.21615557  0.01774021  0.63282571  1
  O  O59  1  0.78384443  0.98225979  0.36717429  1
  O  O60  1  0.55812365  0.37060110  0.71954391  1
  O  O61  1  0.44187635  0.62939890  0.28045609  1
  O  O62  1  0.05812365  0.62939890  0.78045609  1
  O  O63  1  0.94187635  0.37060110  0.21954391  1
  O  O64  1  0.56159371  0.38891600  0.96169384  1
  O  O65  1  0.43840629  0.61108400  0.03830616  1
  O  O66  1  0.06159371  0.61108400  0.53830616  1
  O  O67  1  0.93840629  0.38891600  0.46169384  1
