# generated using pymatgen
data_Ca(TmS2)2
_symmetry_space_group_name_H-M   'P 1'
_cell_length_a   3.85571100
_cell_length_b   6.66068324
_cell_length_c   13.18539602
_cell_angle_alpha   90.00000000
_cell_angle_beta   90.00000000
_cell_angle_gamma   106.82432336
_symmetry_Int_Tables_number   1
_chemical_formula_structural   Ca(TmS2)2
_chemical_formula_sum   'Ca2 Tm4 S8'
_cell_volume   324.12880712
_cell_formula_units_Z   2
loop_
 _symmetry_equiv_pos_site_id
 _symmetry_equiv_pos_as_xyz
  1  'x, y, z'
loop_
 _atom_site_type_symbol
 _atom_site_label
 _atom_site_symmetry_multiplicity
 _atom_site_fract_x
 _atom_site_fract_y
 _atom_site_fract_z
 _atom_site_occupancy
  Ca  Ca0  1  0.11384697  0.22769394  0.01525938  1
  Ca  Ca1  1  0.88615303  0.77230606  0.51525938  1
  Tm  Tm2  1  0.64222121  0.28444243  0.32450580  1
  Tm  Tm3  1  0.35777879  0.71555757  0.82450580  1
  Tm  Tm4  1  0.37407434  0.74814868  0.18118083  1
  Tm  Tm5  1  0.62592566  0.25185132  0.68118083  1
  S  S6  1  0.45905024  0.91810048  0.99859635  1
  S  S7  1  0.54094976  0.08189952  0.49859635  1
  S  S8  1  0.26358793  0.52717585  0.63754319  1
  S  S9  1  0.73641207  0.47282415  0.13754319  1
  S  S10  1  0.27992585  0.55985170  0.37029068  1
  S  S11  1  0.72007415  0.44014830  0.87029068  1
  S  S12  1  0.01396099  0.02792199  0.23992377  1
  S  S13  1  0.98603901  0.97207801  0.73992377  1
