# generated using pymatgen
data_CaMn2O4
_symmetry_space_group_name_H-M   'P 1'
_cell_length_a   6.36047081
_cell_length_b   6.25345602
_cell_length_c   24.95412767
_cell_angle_alpha   59.92083147
_cell_angle_beta   60.83329853
_cell_angle_gamma   60.55502261
_symmetry_Int_Tables_number   1
_chemical_formula_structural   CaMn2O4
_chemical_formula_sum   'Ca8 Mn16 O32'
_cell_volume   708.66946581
_cell_formula_units_Z   8
loop_
 _symmetry_equiv_pos_site_id
 _symmetry_equiv_pos_as_xyz
  1  'x, y, z'
loop_
 _atom_site_type_symbol
 _atom_site_label
 _atom_site_symmetry_multiplicity
 _atom_site_fract_x
 _atom_site_fract_y
 _atom_site_fract_z
 _atom_site_occupancy
  Ca  Ca0  1  0.15790681  0.12046448  0.02529156  1
  Ca  Ca1  1  0.99713126  0.50151099  0.12496119  1
  Ca  Ca2  1  0.14266487  0.11435841  0.28215433  1
  Ca  Ca3  1  0.00204343  0.49945885  0.37475972  1
  Ca  Ca4  1  -0.00008718  0.49867878  0.62568215  1
  Ca  Ca5  1  0.49387008  0.50773833  0.49766357  1
  Ca  Ca6  1  0.99644878  0.49876781  0.87650390  1
  Ca  Ca7  1  0.50560399  0.49310268  0.75204716  1
  Mn  Mn8  1  0.49935742  0.49860988  0.12453241  1
  Mn  Mn9  1  0.49299613  0.50429716  0.24960214  1
  Mn  Mn10  1  0.49935742  0.00390304  0.12453241  1
  Mn  Mn11  1  0.13294965  0.10987078  0.53682695  1
  Mn  Mn12  1  0.50189863  0.49704717  0.37309181  1
  Mn  Mn13  1  0.84604125  0.88469357  0.22114290  1
  Mn  Mn14  1  0.14916303  0.10962266  0.78289791  1
  Mn  Mn15  1  0.50189863  0.00868794  0.37309181  1
  Mn  Mn16  1  0.50083197  0.49995257  0.62490160  1
  Mn  Mn17  1  0.85349457  0.88855195  0.46735013  1
  Mn  Mn18  1  0.50083197  -0.00039094  0.62490160  1
  Mn  Mn19  1  0.50408013  0.99268907  0.87540178  1
  Mn  Mn20  1  0.50408013  0.50162367  0.87540178  1
  Mn  Mn21  1  0.86543678  0.88941671  0.71393195  1
  Mn  Mn22  1  0.49905284  0.49523892  0.00261758  1
  Mn  Mn23  1  0.85082434  0.88293805  0.97082464  1
  O  O24  1  0.30706099  0.25255678  0.06293774  1
  O  O25  1  0.31234424  0.24765242  0.17308773  1
  O  O26  1  0.30706099  0.68863326  0.06293774  1
  O  O27  1  0.72761776  0.27610141  0.05504510  1
  O  O28  1  0.24889612  0.73743670  0.19405712  1
  O  O29  1  0.31232901  0.25657717  0.31086811  1
  O  O30  1  0.69405968  0.29697098  0.18914004  1
  O  O31  1  0.29256278  0.24275941  0.43047910  1
  O  O32  1  0.31232901  0.68762137  0.31086811  1
  O  O33  1  0.68707671  0.75694075  0.07476020  1
  O  O34  1  0.70125934  0.27235976  0.31350579  1
  O  O35  1  0.69405968  0.75240918  0.18914004  1
  O  O36  1  0.28390547  0.21923776  0.56988956  1
  O  O37  1  0.26710699  0.77298755  0.42172923  1
  O  O38  1  0.72380261  0.28298164  0.42542681  1
  O  O39  1  0.29734966  0.24136495  0.67998036  1
  O  O40  1  0.28390547  0.71729752  0.56988956  1
  O  O41  1  0.69874700  0.75862562  0.32100019  1
  O  O42  1  0.71991656  0.24783795  0.57110188  1
  O  O43  1  0.72380261  0.79150949  0.42542682  1
  O  O44  1  0.28054475  0.75322741  0.67824986  1
  O  O45  1  0.27700240  0.20830088  0.82292514  1
  O  O46  1  0.71589274  0.28273189  0.67971913  1
  O  O47  1  0.32303756  0.25010083  0.91918970  1
  O  O48  1  0.27700240  0.72299415  0.82292514  1
  O  O49  1  0.70730334  0.75689608  0.56972638  1
  O  O50  1  0.76568354  0.22906486  0.81904668  1
  O  O51  1  0.71589274  0.78250083  0.67971913  1
  O  O52  1  0.26228930  0.71977004  0.94954291  1
  O  O53  1  0.69104057  0.29491438  0.94213188  1
  O  O54  1  0.70020149  0.75328892  0.82330492  1
  O  O55  1  0.69104057  0.74551652  0.94213188  1
