# generated using pymatgen
data_AlH10C3N6OF5
_symmetry_space_group_name_H-M   'P 1'
_cell_length_a   7.94983357
_cell_length_b   8.78117247
_cell_length_c   13.75632308
_cell_angle_alpha   90.00000000
_cell_angle_beta   102.23306486
_cell_angle_gamma   90.00000000
_symmetry_Int_Tables_number   1
_chemical_formula_structural   AlH10C3N6OF5
_chemical_formula_sum   'Al4 H40 C12 N24 O4 F20'
_cell_volume   938.50814238
_cell_formula_units_Z   4
loop_
 _symmetry_equiv_pos_site_id
 _symmetry_equiv_pos_as_xyz
  1  'x, y, z'
loop_
 _atom_site_type_symbol
 _atom_site_label
 _atom_site_symmetry_multiplicity
 _atom_site_fract_x
 _atom_site_fract_y
 _atom_site_fract_z
 _atom_site_occupancy
  Al  Al0  1  0.20936835  0.22125046  0.30251030  1
  Al  Al1  1  0.79063165  0.77874954  0.69748970  1
  Al  Al2  1  0.79063165  0.72125046  0.19748970  1
  Al  Al3  1  0.20936835  0.27874954  0.80251030  1
  H  H4  1  0.19672316  0.07456958  0.10275669  1
  H  H5  1  0.80327684  0.92543042  0.89724331  1
  H  H6  1  0.80327684  0.57456958  0.39724331  1
  H  H7  1  0.19672316  0.42543042  0.60275669  1
  H  H8  1  0.57180279  0.38487919  0.21017496  1
  H  H9  1  0.42819721  0.61512081  0.78982504  1
  H  H10  1  0.42819721  0.88487919  0.28982504  1
  H  H11  1  0.57180279  0.11512081  0.71017496  1
  H  H12  1  0.06184798  0.82809447  0.14624770  1
  H  H13  1  0.93815202  0.17190553  0.85375230  1
  H  H14  1  0.93815202  0.32809447  0.35375230  1
  H  H15  1  0.06184798  0.67190553  0.64624770  1
  H  H16  1  0.13287297  0.53302795  0.12798725  1
  H  H17  1  0.86712703  0.46697205  0.87201275  1
  H  H18  1  0.86712703  0.03302795  0.37201275  1
  H  H19  1  0.13287297  0.96697205  0.62798725  1
  H  H20  1  0.66064660  0.01504374  0.11945188  1
  H  H21  1  0.33935340  0.98495626  0.88054812  1
  H  H22  1  0.33935340  0.51504374  0.38054812  1
  H  H23  1  0.66064660  0.48495626  0.61945188  1
  H  H24  1  0.26178854  0.13985798  0.99775832  1
  H  H25  1  0.73821146  0.86014202  0.00224168  1
  H  H26  1  0.73821146  0.63985798  0.50224168  1
  H  H27  1  0.26178854  0.36014202  0.49775832  1
  H  H28  1  0.53243653  0.18817736  0.22177743  1
  H  H29  1  0.46756347  0.81182264  0.77822257  1
  H  H30  1  0.46756347  0.68817736  0.27822257  1
  H  H31  1  0.53243653  0.31182264  0.72177743  1
  H  H32  1  0.00367800  0.55502812  0.72659892  1
  H  H33  1  0.99632200  0.44497188  0.27340108  1
  H  H34  1  0.99632200  0.05502812  0.77340108  1
  H  H35  1  0.00367800  0.94497188  0.22659892  1
  H  H36  1  0.68047792  0.48265814  0.08143994  1
  H  H37  1  0.31952208  0.51734186  0.91856006  1
  H  H38  1  0.31952208  0.98265814  0.41856006  1
  H  H39  1  0.68047792  0.01734186  0.58143994  1
  H  H40  1  0.21265837  0.41889524  0.04221091  1
  H  H41  1  0.78734163  0.58110476  0.95778909  1
  H  H42  1  0.78734163  0.91889524  0.45778909  1
  H  H43  1  0.21265837  0.08110476  0.54221091  1
  C  C44  1  0.24079425  0.64730037  0.02766780  1
  C  C45  1  0.75920575  0.35269963  0.97233220  1
  C  C46  1  0.75920575  0.14730037  0.47233220  1
  C  C47  1  0.24079425  0.85269963  0.52766780  1
  C  C48  1  0.26061401  0.59368140  0.51124818  1
  C  C49  1  0.73938599  0.40631860  0.48875182  1
  C  C50  1  0.73938599  0.09368140  0.98875182  1
  C  C51  1  0.26061401  0.90631860  0.01124818  1
  C  C52  1  0.64775694  0.25290544  0.10708412  1
  C  C53  1  0.35224306  0.74709456  0.89291588  1
  C  C54  1  0.35224306  0.75290544  0.39291588  1
  C  C55  1  0.64775694  0.24709456  0.60708412  1
  N  N56  1  0.68859405  0.37337800  0.05485788  1
  N  N57  1  0.31140595  0.62662200  0.94514212  1
  N  N58  1  0.31140595  0.87337800  0.44514212  1
  N  N59  1  0.68859405  0.12662200  0.55485788  1
  N  N60  1  0.21755692  0.78689020  0.06188543  1
  N  N61  1  0.78244308  0.21310980  0.93811457  1
  N  N62  1  0.78244308  0.28689020  0.43811457  1
  N  N63  1  0.21755692  0.71310980  0.56188543  1
  N  N64  1  0.67443393  0.11216723  0.07372804  1
  N  N65  1  0.32556607  0.88783277  0.92627196  1
  N  N66  1  0.32556607  0.61216723  0.42627196  1
  N  N67  1  0.67443393  0.38783277  0.57372804  1
  N  N68  1  0.24304944  0.04702453  0.04064092  1
  N  N69  1  0.75695056  0.95297547  0.95935908  1
  N  N70  1  0.75695056  0.54702453  0.45935908  1
  N  N71  1  0.24304944  0.45297547  0.54064092  1
  N  N72  1  0.58434209  0.27464067  0.18696512  1
  N  N73  1  0.41565791  0.72535933  0.81303488  1
  N  N74  1  0.41565791  0.77464067  0.31303488  1
  N  N75  1  0.58434209  0.22535933  0.68696512  1
  N  N76  1  0.19860994  0.52407658  0.07170912  1
  N  N77  1  0.80139006  0.47592342  0.92829088  1
  N  N78  1  0.80139006  0.02407658  0.42829088  1
  N  N79  1  0.19860994  0.97592342  0.57170912  1
  O  O80  1  0.03620626  0.36492030  0.32612558  1
  O  O81  1  0.96379374  0.63507970  0.67387442  1
  O  O82  1  0.96379374  0.86492030  0.17387442  1
  O  O83  1  0.03620626  0.13507970  0.82612558  1
  F  F84  1  0.37976091  0.08683628  0.28986638  1
  F  F85  1  0.62023909  0.91316372  0.71013362  1
  F  F86  1  0.62023909  0.58683628  0.21013362  1
  F  F87  1  0.37976091  0.41316372  0.78986638  1
  F  F88  1  0.35476800  0.38573410  0.31411153  1
  F  F89  1  0.64523200  0.61426590  0.68588847  1
  F  F90  1  0.64523200  0.88573410  0.18588847  1
  F  F91  1  0.35476800  0.11426590  0.81411153  1
  F  F92  1  0.14362337  0.24009799  0.17094852  1
  F  F93  1  0.85637663  0.75990201  0.82905148  1
  F  F94  1  0.85637663  0.74009799  0.32905148  1
  F  F95  1  0.14362337  0.25990201  0.67094852  1
  F  F96  1  0.27682513  0.19363470  0.43987132  1
  F  F97  1  0.72317487  0.80636530  0.56012868  1
  F  F98  1  0.72317487  0.69363470  0.06012868  1
  F  F99  1  0.27682513  0.30636530  0.93987132  1
  F  F100  1  0.05170795  0.06722797  0.30531498  1
  F  F101  1  0.94829205  0.93277203  0.69468502  1
  F  F102  1  0.94829205  0.56722797  0.19468502  1
  F  F103  1  0.05170795  0.43277203  0.80531498  1
