# generated using pymatgen
data_BaFe2F7
_symmetry_space_group_name_H-M   'P 1'
_cell_length_a   5.58590014
_cell_length_b   9.22559047
_cell_length_c   11.13056689
_cell_angle_alpha   90.00000000
_cell_angle_beta   90.00000000
_cell_angle_gamma   94.42793070
_symmetry_Int_Tables_number   1
_chemical_formula_structural   BaFe2F7
_chemical_formula_sum   'Ba4 Fe8 F28'
_cell_volume   571.88198833
_cell_formula_units_Z   4
loop_
 _symmetry_equiv_pos_site_id
 _symmetry_equiv_pos_as_xyz
  1  'x, y, z'
loop_
 _atom_site_type_symbol
 _atom_site_label
 _atom_site_symmetry_multiplicity
 _atom_site_fract_x
 _atom_site_fract_y
 _atom_site_fract_z
 _atom_site_occupancy
  Ba  Ba0  1  0.77191685  0.95771524  0.16908228  1
  Ba  Ba1  1  0.22808315  0.04228476  0.83091772  1
  Ba  Ba2  1  0.22808315  0.54228476  0.66908228  1
  Ba  Ba3  1  0.77191685  0.45771524  0.33091772  1
  Fe  Fe4  1  0.81676349  0.88353336  0.56363375  1
  Fe  Fe5  1  0.18323651  0.11646664  0.43636625  1
  Fe  Fe6  1  0.18323651  0.61646664  0.06363375  1
  Fe  Fe7  1  0.81676349  0.38353336  0.93636625  1
  Fe  Fe8  1  0.69333368  0.76449513  0.87923890  1
  Fe  Fe9  1  0.30666632  0.23550487  0.12076110  1
  Fe  Fe10  1  0.30666632  0.73550487  0.37923890  1
  Fe  Fe11  1  0.69333368  0.26449513  0.62076110  1
  F  F12  1  0.85980403  0.99089472  0.39973991  1
  F  F13  1  0.14019597  0.00910528  0.60026009  1
  F  F14  1  0.14019597  0.50910528  0.89973991  1
  F  F15  1  0.85980403  0.49089472  0.10026009  1
  F  F16  1  0.40769993  0.78429475  0.78475452  1
  F  F17  1  0.59230007  0.21570525  0.21524548  1
  F  F18  1  0.59230007  0.71570525  0.28475452  1
  F  F19  1  0.40769993  0.28429475  0.71524548  1
  F  F20  1  0.98679129  0.77843736  0.98407588  1
  F  F21  1  0.01320871  0.22156264  0.01592412  1
  F  F22  1  0.01320871  0.72156264  0.48407588  1
  F  F23  1  0.98679129  0.27843736  0.51592412  1
  F  F24  1  0.49615177  0.75247937  0.52881020  1
  F  F25  1  0.50384823  0.24752063  0.47118980  1
  F  F26  1  0.50384823  0.74752063  0.02881020  1
  F  F27  1  0.49615177  0.25247937  0.97118980  1
  F  F28  1  0.89903861  0.78575195  0.73560295  1
  F  F29  1  0.10096139  0.21424805  0.26439705  1
  F  F30  1  0.10096139  0.71424805  0.23560295  1
  F  F31  1  0.89903861  0.28575195  0.76439705  1
  F  F32  1  0.71689452  0.97566793  0.90361715  1
  F  F33  1  0.28310548  0.02433207  0.09638285  1
  F  F34  1  0.28310548  0.52433207  0.40361715  1
  F  F35  1  0.71689452  0.47566793  0.59638285  1
  F  F36  1  0.65590266  0.55374949  0.85498943  1
  F  F37  1  0.34409734  0.44625051  0.14501057  1
  F  F38  1  0.34409734  0.94625051  0.35498943  1
  F  F39  1  0.65590266  0.05374949  0.64501057  1
