# generated using pymatgen
data_Ca3MnCuO6
_symmetry_space_group_name_H-M   'P 1'
_cell_length_a   6.42370264
_cell_length_b   8.98574175
_cell_length_c   9.23199577
_cell_angle_alpha   89.98060344
_cell_angle_beta   90.05433310
_cell_angle_gamma   92.99678930
_symmetry_Int_Tables_number   1
_chemical_formula_structural   Ca3MnCuO6
_chemical_formula_sum   'Ca12 Mn4 Cu4 O24'
_cell_volume   532.15779209
_cell_formula_units_Z   4
loop_
 _symmetry_equiv_pos_site_id
 _symmetry_equiv_pos_as_xyz
  1  'x, y, z'
loop_
 _atom_site_type_symbol
 _atom_site_label
 _atom_site_symmetry_multiplicity
 _atom_site_fract_x
 _atom_site_fract_y
 _atom_site_fract_z
 _atom_site_occupancy
  Ca  Ca0  1  0.10155464  0.32878852  0.06988540  1
  Ca  Ca1  1  0.89844536  0.67121148  0.93011460  1
  Ca  Ca2  1  0.10998590  0.81851113  0.56656402  1
  Ca  Ca3  1  0.89001410  0.18148887  0.43343598  1
  Ca  Ca4  1  0.74385838  0.99759229  0.11465235  1
  Ca  Ca5  1  0.25614162  0.00240771  0.88534765  1
  Ca  Ca6  1  0.38883035  0.68175075  0.06583984  1
  Ca  Ca7  1  0.61116965  0.31824925  0.93416016  1
  Ca  Ca8  1  0.24275643  0.49759266  0.38497081  1
  Ca  Ca9  1  0.75724357  0.50240734  0.61502919  1
  Ca  Ca10  1  0.39915248  0.17103606  0.56975938  1
  Ca  Ca11  1  0.60084752  0.82896394  0.43024062  1
  Mn  Mn12  1  0.01134523  0.74689477  0.24761202  1
  Mn  Mn13  1  0.98865477  0.25310523  0.75238798  1
  Mn  Mn14  1  0.51206341  0.24648032  0.25261443  1
  Mn  Mn15  1  0.48793659  0.75351968  0.74738557  1
  Cu  Cu16  1  0.19422126  0.03045356  0.22393001  1
  Cu  Cu17  1  0.80577874  0.96954644  0.77606999  1
  Cu  Cu18  1  0.69191718  0.53185784  0.27647427  1
  Cu  Cu19  1  0.30808282  0.46814216  0.72352573  1
  O  O20  1  0.21881454  0.23147863  0.31961877  1
  O  O21  1  0.78118546  0.76852137  0.68038123  1
  O  O22  1  0.28175316  0.26859684  0.82053183  1
  O  O23  1  0.71824684  0.73140316  0.17946817  1
  O  O24  1  0.06465667  0.57153365  0.14011575  1
  O  O25  1  0.93534333  0.42846635  0.85988425  1
  O  O26  1  0.78737330  0.25135488  0.17925111  1
  O  O27  1  0.21262670  0.74864512  0.82074889  1
  O  O28  1  0.59342076  0.37359992  0.41423737  1
  O  O29  1  0.40657924  0.62640008  0.58576263  1
  O  O30  1  0.09332003  0.37177665  0.58859762  1
  O  O31  1  0.90667997  0.62822335  0.41140238  1
  O  O32  1  0.03644763  0.06383483  0.65324229  1
  O  O33  1  0.96355237  0.93616517  0.34675771  1
  O  O34  1  0.46324262  0.43610208  0.15270242  1
  O  O35  1  0.53675738  0.56389792  0.84729758  1
  O  O36  1  0.56498300  0.07219236  0.36063862  1
  O  O37  1  0.43501700  0.92780764  0.63936138  1
  O  O38  1  0.28673330  0.75138342  0.32106659  1
  O  O39  1  0.71326670  0.24861658  0.67893341  1
  O  O40  1  0.40836900  0.12718453  0.08925353  1
  O  O41  1  0.59163100  0.87281547  0.91074647  1
  O  O42  1  0.09333783  0.87272070  0.08568950  1
  O  O43  1  0.90666217  0.12727930  0.91431050  1
