# generated using pymatgen
data_Ba2GdV3O11
_symmetry_space_group_name_H-M   'P 1'
_cell_length_a   7.82149845
_cell_length_b   12.48276431
_cell_length_c   11.38799738
_cell_angle_alpha   103.14243833
_cell_angle_beta   90.00000000
_cell_angle_gamma   90.00000000
_symmetry_Int_Tables_number   1
_chemical_formula_structural   Ba2GdV3O11
_chemical_formula_sum   'Ba8 Gd4 V12 O44'
_cell_volume   1082.73294508
_cell_formula_units_Z   4
loop_
 _symmetry_equiv_pos_site_id
 _symmetry_equiv_pos_as_xyz
  1  'x, y, z'
loop_
 _atom_site_type_symbol
 _atom_site_label
 _atom_site_symmetry_multiplicity
 _atom_site_fract_x
 _atom_site_fract_y
 _atom_site_fract_z
 _atom_site_occupancy
  Ba  Ba0  1  0.27365080  0.76825609  0.94193544  1
  Ba  Ba1  1  0.72634920  0.23174391  0.05806456  1
  Ba  Ba2  1  0.77365080  0.23174391  0.55806456  1
  Ba  Ba3  1  0.22634920  0.76825609  0.44193544  1
  Ba  Ba4  1  0.74773300  0.55455886  0.88951462  1
  Ba  Ba5  1  0.25226700  0.44544114  0.11048538  1
  Ba  Ba6  1  0.24773300  0.44544114  0.61048538  1
  Ba  Ba7  1  0.75226700  0.55455886  0.38951462  1
  Gd  Gd8  1  0.49960244  0.99779746  0.71497436  1
  Gd  Gd9  1  0.50039756  0.00220254  0.28502564  1
  Gd  Gd10  1  0.99960244  0.00220254  0.78502564  1
  Gd  Gd11  1  0.00039756  0.99779746  0.21497436  1
  V  V12  1  0.75381546  0.90522423  0.97594087  1
  V  V13  1  0.24618454  0.09477577  0.02405913  1
  V  V14  1  0.25381546  0.09477577  0.52405913  1
  V  V15  1  0.74618454  0.90522423  0.47594087  1
  V  V16  1  0.51906946  0.68410660  0.67347980  1
  V  V17  1  0.48093054  0.31589340  0.32652020  1
  V  V18  1  0.01906946  0.31589340  0.82652020  1
  V  V19  1  0.98093054  0.68410660  0.17347980  1
  V  V20  1  0.98149825  0.68748570  0.67095305  1
  V  V21  1  0.01850175  0.31251430  0.32904695  1
  V  V22  1  0.48149825  0.31251430  0.82904695  1
  V  V23  1  0.51850175  0.68748570  0.17095305  1
  O  O24  1  0.44424226  0.81807160  0.71797166  1
  O  O25  1  0.55575774  0.18192840  0.28202834  1
  O  O26  1  0.94424226  0.18192840  0.78202834  1
  O  O27  1  0.05575774  0.81807160  0.21797166  1
  O  O28  1  0.55068500  0.17759079  0.80682346  1
  O  O29  1  0.44931500  0.82240921  0.19317654  1
  O  O30  1  0.05068500  0.82240921  0.69317654  1
  O  O31  1  0.94931500  0.17759079  0.30682346  1
  O  O32  1  0.75036687  0.66606270  0.66735703  1
  O  O33  1  0.24963313  0.33393730  0.33264297  1
  O  O34  1  0.25036687  0.33393730  0.83264297  1
  O  O35  1  0.74963313  0.66606270  0.16735703  1
  O  O36  1  0.94476178  0.37529862  0.96620540  1
  O  O37  1  0.05523822  0.62470138  0.03379460  1
  O  O38  1  0.44476178  0.62470138  0.53379460  1
  O  O39  1  0.55523822  0.37529862  0.46620540  1
  O  O40  1  0.94071737  0.39177546  0.73133473  1
  O  O41  1  0.05928263  0.60822454  0.26866527  1
  O  O42  1  0.44071737  0.60822454  0.76866527  1
  O  O43  1  0.55928263  0.39177546  0.23133473  1
  O  O44  1  0.78266921  0.98687031  0.62379303  1
  O  O45  1  0.21733079  0.01312969  0.37620697  1
  O  O46  1  0.28266921  0.01312969  0.87620697  1
  O  O47  1  0.71733079  0.98687031  0.12379303  1
  O  O48  1  0.97153027  0.88198085  0.97346351  1
  O  O49  1  0.02846973  0.11801915  0.02653649  1
  O  O50  1  0.47153027  0.11801915  0.52653649  1
  O  O51  1  0.52846973  0.88198085  0.47346351  1
  O  O52  1  0.63954488  0.78642274  0.94661945  1
  O  O53  1  0.36045512  0.21357726  0.05338055  1
  O  O54  1  0.13954488  0.21357726  0.55338055  1
  O  O55  1  0.86045512  0.78642274  0.44661945  1
  O  O56  1  0.72087643  0.98353960  0.86463093  1
  O  O57  1  0.27912357  0.01646040  0.13536907  1
  O  O58  1  0.22087643  0.01646040  0.63536907  1
  O  O59  1  0.77912357  0.98353960  0.36463093  1
  O  O60  1  0.55881573  0.37034200  0.71874306  1
  O  O61  1  0.44118427  0.62965800  0.28125694  1
  O  O62  1  0.05881573  0.62965800  0.78125694  1
  O  O63  1  0.94118427  0.37034200  0.21874306  1
  O  O64  1  0.56323968  0.38714587  0.96140466  1
  O  O65  1  0.43676032  0.61285413  0.03859534  1
  O  O66  1  0.06323968  0.61285413  0.53859534  1
  O  O67  1  0.93676032  0.38714587  0.46140466  1
