# generated using pymatgen
data_Zn3GaAgS5
_symmetry_space_group_name_H-M   'P 1'
_cell_length_a   6.40302716
_cell_length_b   6.74996431
_cell_length_c   10.31235415
_cell_angle_alpha   109.10675014
_cell_angle_beta   89.99561069
_cell_angle_gamma   90.05494615
_symmetry_Int_Tables_number   1
_chemical_formula_structural   Zn3GaAgS5
_chemical_formula_sum   'Zn6 Ga2 Ag2 S10'
_cell_volume   421.14828309
_cell_formula_units_Z   2
loop_
 _symmetry_equiv_pos_site_id
 _symmetry_equiv_pos_as_xyz
  1  'x, y, z'
loop_
 _atom_site_type_symbol
 _atom_site_label
 _atom_site_symmetry_multiplicity
 _atom_site_fract_x
 _atom_site_fract_y
 _atom_site_fract_z
 _atom_site_occupancy
  Zn  Zn0  1  0.49436374  0.52911737  0.40160834  1
  Zn  Zn1  1  0.50084831  0.13536081  0.59853368  1
  Zn  Zn2  1  0.50345707  0.73348760  0.79889182  1
  Zn  Zn3  1  0.99892953  0.66942623  -0.00022548  1
  Zn  Zn4  1  0.00068029  0.26457667  0.20240059  1
  Zn  Zn5  1  0.99698779  0.46557570  0.59755886  1
  Ga  Ga6  1  0.49911120  0.93695757  0.20048421  1
  Ga  Ga7  1  0.99810186  0.06905434  0.80039608  1
  Ag  Ag8  1  0.49747920  0.33223137  0.00007980  1
  Ag  Ag9  1  0.99807282  0.86538946  0.39973565  1
  S  S10  1  0.09960769  0.33227182  0.99817666  1
  S  S11  1  0.13881289  0.93319727  0.18693532  1
  S  S12  1  0.13045454  0.51080381  0.40009738  1
  S  S13  1  0.13093970  0.14842427  0.61661897  1
  S  S14  1  0.12629837  0.74118830  0.79855067  1
  S  S15  1  0.63741835  0.05222430  0.78614127  1
  S  S16  1  0.62973554  0.69082417  0.00359943  1
  S  S17  1  0.63193217  0.25976660  0.21268149  1
  S  S18  1  0.60052682  0.86327823  0.39529061  1
  S  S19  1  0.62624210  0.46684413  0.60244464  1
