# generated using pymatgen
data_ZrTiMn4
_symmetry_space_group_name_H-M   'P 1'
_cell_length_a   4.84264115
_cell_length_b   4.84264115
_cell_length_c   8.04265061
_cell_angle_alpha   90.01182777
_cell_angle_beta   89.98817223
_cell_angle_gamma   120.00909840
_symmetry_Int_Tables_number   1
_chemical_formula_structural   ZrTiMn4
_chemical_formula_sum   'Zr2 Ti2 Mn8'
_cell_volume   163.32571686
_cell_formula_units_Z   2
loop_
 _symmetry_equiv_pos_site_id
 _symmetry_equiv_pos_as_xyz
  1  'x, y, z'
loop_
 _atom_site_type_symbol
 _atom_site_label
 _atom_site_symmetry_multiplicity
 _atom_site_fract_x
 _atom_site_fract_y
 _atom_site_fract_z
 _atom_site_occupancy
  Zr  Zr0  1  0.33332211  0.66667789  0.43076258  1
  Zr  Zr1  1  0.66667789  0.33332211  0.56923742  1
  Ti  Ti2  1  0.66669701  0.33330299  0.94110607  1
  Ti  Ti3  1  0.33330299  0.66669701  0.05889393  1
  Mn  Mn4  1  0.17128715  0.34249210  0.75930876  1
  Mn  Mn5  1  0.17118076  0.82881924  0.75934267  1
  Mn  Mn6  1  0.65750790  0.82871285  0.75930876  1
  Mn  Mn7  1  0.82871285  0.65750790  0.24069124  1
  Mn  Mn8  1  0.82881924  0.17118076  0.24065733  1
  Mn  Mn9  1  0.34249210  0.17128715  0.24069124  1
  Mn  Mn10  1  -0.00000000  -0.00000000  0.50000000  1
  Mn  Mn11  1  -0.00000000  -0.00000000  -0.00000000  1
