# generated using pymatgen
data_ZnGaCuSe3
_symmetry_space_group_name_H-M   'P 1'
_cell_length_a   4.01463956
_cell_length_b   5.69257547
_cell_length_c   6.95300284
_cell_angle_alpha   114.18315236
_cell_angle_beta   106.78003257
_cell_angle_gamma   90.00000000
_symmetry_Int_Tables_number   1
_chemical_formula_structural   ZnGaCuSe3
_chemical_formula_sum   'Zn1 Ga1 Cu1 Se3'
_cell_volume   137.50586148
_cell_formula_units_Z   1
loop_
 _symmetry_equiv_pos_site_id
 _symmetry_equiv_pos_as_xyz
  1  'x, y, z'
loop_
 _atom_site_type_symbol
 _atom_site_label
 _atom_site_symmetry_multiplicity
 _atom_site_fract_x
 _atom_site_fract_y
 _atom_site_fract_z
 _atom_site_occupancy
  Zn  Zn0  1  0.66367465  0.66269625  0.32734829  1
  Ga  Ga1  1  0.33563637  0.34633534  0.67127373  1
  Cu  Cu2  1  0.00018333  0.99392208  0.00036667  1
  Se  Se3  1  0.49956016  0.75570669  0.99912033  1
  Se  Se4  1  0.16447629  0.40764344  0.32895159  1
  Se  Se5  1  0.83646919  0.08369620  0.67293939  1
