# generated using pymatgen
data_ZrNb2Pd9
_symmetry_space_group_name_H-M   'P 1'
_cell_length_a   3.97089680
_cell_length_b   3.97089680
_cell_length_c   12.51414190
_cell_angle_alpha   99.12891375
_cell_angle_beta   99.12891375
_cell_angle_gamma   90.00000000
_symmetry_Int_Tables_number   1
_chemical_formula_structural   ZrNb2Pd9
_chemical_formula_sum   'Zr1 Nb2 Pd9'
_cell_volume   192.29213021
_cell_formula_units_Z   1
loop_
 _symmetry_equiv_pos_site_id
 _symmetry_equiv_pos_as_xyz
  1  'x, y, z'
loop_
 _atom_site_type_symbol
 _atom_site_label
 _atom_site_symmetry_multiplicity
 _atom_site_fract_x
 _atom_site_fract_y
 _atom_site_fract_z
 _atom_site_occupancy
  Zr  Zr0  1  -0.00000000  -0.00000000  -0.00000000  1
  Nb  Nb1  1  0.66692214  0.66692214  0.33384329  1
  Nb  Nb2  1  0.33307786  0.33307786  0.66615671  1
  Pd  Pd3  1  0.08614022  0.58614022  0.17228144  1
  Pd  Pd4  1  0.75000000  0.25000000  0.50000000  1
  Pd  Pd5  1  0.41385978  0.91385978  0.82771856  1
  Pd  Pd6  1  0.58614022  0.08614022  0.17228144  1
  Pd  Pd7  1  0.25000000  0.75000000  0.50000000  1
  Pd  Pd8  1  0.91385978  0.41385978  0.82771856  1
  Pd  Pd9  1  0.50000000  0.50000000  -0.00000000  1
  Pd  Pd10  1  0.16821564  0.16821564  0.33643028  1
  Pd  Pd11  1  0.83178436  0.83178436  0.66356972  1
