# generated using pymatgen
data_Zn2SeS
_symmetry_space_group_name_H-M   'P 1'
_cell_length_a   3.95815131
_cell_length_b   3.95815131
_cell_length_c   6.85554311
_cell_angle_alpha   73.22090148
_cell_angle_beta   90.00000000
_cell_angle_gamma   120.00000000
_symmetry_Int_Tables_number   1
_chemical_formula_structural   Zn2SeS
_chemical_formula_sum   'Zn2 Se1 S1'
_cell_volume   87.69596803
_cell_formula_units_Z   1
loop_
 _symmetry_equiv_pos_site_id
 _symmetry_equiv_pos_as_xyz
  1  'x, y, z'
loop_
 _atom_site_type_symbol
 _atom_site_label
 _atom_site_symmetry_multiplicity
 _atom_site_fract_x
 _atom_site_fract_y
 _atom_site_fract_z
 _atom_site_occupancy
  Zn  Zn0  1  0.99626079  0.99252158  0.01121763  1
  Zn  Zn1  1  0.50365331  0.00730662  0.48904007  1
  Se  Se2  1  0.37534326  0.75068652  0.87397022  1
  S  S3  1  0.87474264  0.74948528  0.37577209  1
