# generated using pymatgen
data_ZrVCo
_symmetry_space_group_name_H-M   'P 1'
_cell_length_a   5.11037674
_cell_length_b   5.10795863
_cell_length_c   8.05905338
_cell_angle_alpha   90.00000000
_cell_angle_beta   90.00000000
_cell_angle_gamma   59.98570814
_symmetry_Int_Tables_number   1
_chemical_formula_structural   ZrVCo
_chemical_formula_sum   'Zr4 V4 Co4'
_cell_volume   182.15973713
_cell_formula_units_Z   4
loop_
 _symmetry_equiv_pos_site_id
 _symmetry_equiv_pos_as_xyz
  1  'x, y, z'
loop_
 _atom_site_type_symbol
 _atom_site_label
 _atom_site_symmetry_multiplicity
 _atom_site_fract_x
 _atom_site_fract_y
 _atom_site_fract_z
 _atom_site_occupancy
  Zr  Zr0  1  0.33587727  0.32825273  0.57195313  1
  Zr  Zr1  1  0.66689864  0.66622921  0.44666200  1
  Zr  Zr2  1  0.66689864  0.66622921  0.05333800  1
  Zr  Zr3  1  0.33587727  0.32825273  0.92804687  1
  V  V4  1  0.65924447  0.17811374  0.25000000  1
  V  V5  1  0.16271172  0.17802399  0.25000000  1
  V  V6  1  0.00345680  0.99302342  0.51218457  1
  V  V7  1  0.00345680  0.99302342  0.98781543  1
  Co  Co8  1  0.82801483  0.34389967  0.75000000  1
  Co  Co9  1  0.33945907  0.82885172  0.75000000  1
  Co  Co10  1  0.83176094  0.82871776  0.75000000  1
  Co  Co11  1  0.16634355  0.66738239  0.25000000  1
