# generated using pymatgen
data_YTiCo11
_symmetry_space_group_name_H-M   'P 1'
_cell_length_a   4.67283557
_cell_length_b   6.34413296
_cell_length_c   6.34413296
_cell_angle_alpha   97.49409139
_cell_angle_beta   111.60958428
_cell_angle_gamma   68.39041572
_symmetry_Int_Tables_number   1
_chemical_formula_structural   YTiCo11
_chemical_formula_sum   'Y1 Ti1 Co11'
_cell_volume   162.56114515
_cell_formula_units_Z   1
loop_
 _symmetry_equiv_pos_site_id
 _symmetry_equiv_pos_as_xyz
  1  'x, y, z'
loop_
 _atom_site_type_symbol
 _atom_site_label
 _atom_site_symmetry_multiplicity
 _atom_site_fract_x
 _atom_site_fract_y
 _atom_site_fract_z
 _atom_site_occupancy
  Y  Y0  1  0.00706506  0.99293494  0.00706506  1
  Ti  Ti1  1  0.63200446  0.36799554  0.63200446  1
  Co  Co2  1  0.72743257  0.77256743  0.22743257  1
  Co  Co3  1  0.27879817  0.22120183  0.77879817  1
  Co  Co4  1  0.49838087  0.77995182  0.77671355  1
  Co  Co5  1  0.49838087  0.22328645  0.22004818  1
  Co  Co6  1  0.49896455  0.99482496  0.49836797  1
  Co  Co7  1  0.00457847  0.99482496  0.49836797  1
  Co  Co8  1  0.49896455  0.50163203  0.00517504  1
  Co  Co9  1  0.00457847  0.50163203  0.00517504  1
  Co  Co10  1  0.35440520  0.64559480  0.35440520  1
  Co  Co11  1  0.99822339  0.36047890  0.35692568  1
  Co  Co12  1  0.99822339  0.64307432  0.63952110  1
