# generated using pymatgen
data_V6InS8
_symmetry_space_group_name_H-M   'P 1'
_cell_length_a   3.23650016
_cell_length_b   9.18835710
_cell_length_c   9.18678176
_cell_angle_alpha   59.98747459
_cell_angle_beta   89.99976525
_cell_angle_gamma   89.99898098
_symmetry_Int_Tables_number   1
_chemical_formula_structural   V6InS8
_chemical_formula_sum   'V6 In1 S8'
_cell_volume   236.56620414
_cell_formula_units_Z   1
loop_
 _symmetry_equiv_pos_site_id
 _symmetry_equiv_pos_as_xyz
  1  'x, y, z'
loop_
 _atom_site_type_symbol
 _atom_site_label
 _atom_site_symmetry_multiplicity
 _atom_site_fract_x
 _atom_site_fract_y
 _atom_site_fract_z
 _atom_site_occupancy
  V  V0  1  0.26050797  0.62725366  0.48990468  1
  V  V1  1  0.26052640  0.88290007  0.62716273  1
  V  V2  1  0.26051410  0.48983626  0.88302960  1
  V  V3  1  0.75943430  0.37395081  0.50876500  1
  V  V4  1  0.75945151  0.11750114  0.37360832  1
  V  V5  1  0.75942807  0.50860939  0.11747600  1
  In  In6  1  0.36875717  0.99997043  0.99998953  1
  S  S7  1  0.25859182  0.94967538  0.34690259  1
  S  S8  1  0.25857219  0.70336310  0.94978238  1
  S  S9  1  0.25858358  0.34696553  0.70349164  1
  S  S10  1  0.76161565  0.05100699  0.65393295  1
  S  S11  1  0.76161217  0.29479563  0.05116798  1
  S  S12  1  0.76161699  0.65417207  0.29487759  1
  S  S13  1  0.25945419  0.33335582  0.33325952  1
  S  S14  1  0.76033390  0.66664371  0.66664949  1
