# generated using pymatgen
data_Zn3Cu6Sn3(SeS2)4
_symmetry_space_group_name_H-M   'P 1'
_cell_length_a   5.55737808
_cell_length_b   5.55733588
_cell_length_c   17.16865113
_cell_angle_alpha   80.63852171
_cell_angle_beta   80.64022598
_cell_angle_gamma   89.55058196
_symmetry_Int_Tables_number   1
_chemical_formula_structural   Zn3Cu6Sn3(SeS2)4
_chemical_formula_sum   'Zn3 Cu6 Sn3 Se4 S8'
_cell_volume   516.11884359
_cell_formula_units_Z   1
loop_
 _symmetry_equiv_pos_site_id
 _symmetry_equiv_pos_as_xyz
  1  'x, y, z'
loop_
 _atom_site_type_symbol
 _atom_site_label
 _atom_site_symmetry_multiplicity
 _atom_site_fract_x
 _atom_site_fract_y
 _atom_site_fract_z
 _atom_site_occupancy
  Zn  Zn0  1  0.99172109  0.99172699  0.00186434  1
  Zn  Zn1  1  0.32916510  0.32916219  0.34061367  1
  Zn  Zn2  1  0.65679566  0.65679315  0.66991526  1
  Cu  Cu3  1  0.42101556  0.92188128  0.15817928  1
  Cu  Cu4  1  0.73841590  0.26401987  0.49752635  1
  Cu  Cu5  1  0.07207778  0.59932536  0.82958528  1
  Cu  Cu6  1  0.92188320  0.42101419  0.15817189  1
  Cu  Cu7  1  0.26401681  0.73841769  0.49752099  1
  Cu  Cu8  1  0.59932940  0.07209129  0.82958810  1
  Sn  Sn9  1  0.50488185  0.50488902  0.00008429  1
  Sn  Sn10  1  0.83134677  0.83134771  0.33814646  1
  Sn  Sn11  1  0.17192839  0.17192824  0.66847133  1
  Se  Se12  1  0.61796566  0.61796782  0.24512543  1
  Se  Se13  1  0.95235120  0.95236414  0.57815539  1
  Se  Se14  1  0.28636753  0.28638251  0.90959359  1
  Se  Se15  1  0.13872551  0.13871730  0.24473017  1
  S  S16  1  0.46878110  0.46874778  0.57963078  1
  S  S17  1  0.80266007  0.80262256  0.91233792  1
  S  S18  1  0.71341020  0.19993192  0.08799552  1
  S  S19  1  0.04281282  0.53091378  0.42581681  1
  S  S20  1  0.37822961  0.86518652  0.75656323  1
  S  S21  1  0.19992017  0.71344616  0.08800470  1
  S  S22  1  0.53095010  0.04284210  0.42581716  1
  S  S23  1  0.86524851  0.37828044  0.75656206  1
