# generated using pymatgen
data_Zn3Cr6(FeO6)4
_symmetry_space_group_name_H-M   'P 1'
_cell_length_a   6.79428294
_cell_length_b   8.24056023
_cell_length_c   9.96271750
_cell_angle_alpha   105.25665492
_cell_angle_beta   105.98167842
_cell_angle_gamma   100.76211489
_symmetry_Int_Tables_number   1
_chemical_formula_structural   Zn3Cr6(FeO6)4
_chemical_formula_sum   'Zn3 Cr6 Fe4 O24'
_cell_volume   496.73059091
_cell_formula_units_Z   1
loop_
 _symmetry_equiv_pos_site_id
 _symmetry_equiv_pos_as_xyz
  1  'x, y, z'
loop_
 _atom_site_type_symbol
 _atom_site_label
 _atom_site_symmetry_multiplicity
 _atom_site_fract_x
 _atom_site_fract_y
 _atom_site_fract_z
 _atom_site_occupancy
  Zn  Zn0  1  -0.00000000  0.50000000  0.50000000  1
  Zn  Zn1  1  0.27338543  0.27765398  0.78788496  1
  Zn  Zn2  1  0.72661457  0.72234602  0.21211504  1
  Cr  Cr3  1  0.77659456  0.34300648  0.73251364  1
  Cr  Cr4  1  0.22340544  0.65699352  0.26748636  1
  Cr  Cr5  1  0.90134779  0.89406696  0.66178833  1
  Cr  Cr6  1  0.40635820  0.72257197  0.87267961  1
  Cr  Cr7  1  0.09865221  0.10593304  0.33821167  1
  Cr  Cr8  1  0.59364180  0.27742803  0.12732039  1
  Fe  Fe9  1  0.38261350  0.95579041  0.60286527  1
  Fe  Fe10  1  0.61738650  0.04420959  0.39713473  1
  Fe  Fe11  1  0.04447039  0.19893082  0.01664825  1
  Fe  Fe12  1  0.95552961  0.80106918  0.98335175  1
  O  O13  1  0.89048732  0.67779546  0.57799120  1
  O  O14  1  0.10951268  0.32220454  0.42200880  1
  O  O15  1  0.29777797  0.51106724  0.76483370  1
  O  O16  1  0.70222203  0.48893276  0.23516630  1
  O  O17  1  0.77514323  0.30060076  0.55610388  1
  O  O18  1  0.22485677  0.69939924  0.44389612  1
  O  O19  1  0.66161425  0.95551165  0.57014994  1
  O  O20  1  0.33838575  0.04448835  0.42985006  1
  O  O21  1  0.64159396  0.74445985  0.00396964  1
  O  O22  1  0.35840604  0.25554015  0.99603036  1
  O  O23  1  0.45781148  0.76903694  0.26530240  1
  O  O24  1  0.54218852  0.23096306  0.73469760  1
  O  O25  1  0.14982379  0.03191361  0.65513855  1
  O  O26  1  0.06566465  0.05278868  0.14709952  1
  O  O27  1  0.93433535  0.94721132  0.85290048  1
  O  O28  1  0.56289088  0.15489815  0.23365722  1
  O  O29  1  0.43710912  0.84510185  0.76634278  1
  O  O30  1  0.18643582  0.44958091  0.18800828  1
  O  O31  1  0.81356418  0.55041909  0.81199172  1
  O  O32  1  0.98058773  0.28556259  0.83121349  1
  O  O33  1  0.01941227  0.71443741  0.16878651  1
  O  O34  1  0.24924566  0.77947989  0.96317673  1
  O  O35  1  0.75075434  0.22052011  0.03682327  1
  O  O36  1  0.85017621  0.96808639  0.34486145  1
