# generated using pymatgen
data_Zr20Sn13
_symmetry_space_group_name_H-M   'P 1'
_cell_length_a   5.91153488
_cell_length_b   8.60717955
_cell_length_c   14.93995195
_cell_angle_alpha   89.99999896
_cell_angle_beta   90.00000001
_cell_angle_gamma   90.01648646
_symmetry_Int_Tables_number   1
_chemical_formula_structural   Zr20Sn13
_chemical_formula_sum   'Zr20 Sn13'
_cell_volume   760.16925779
_cell_formula_units_Z   1
loop_
 _symmetry_equiv_pos_site_id
 _symmetry_equiv_pos_as_xyz
  1  'x, y, z'
loop_
 _atom_site_type_symbol
 _atom_site_label
 _atom_site_symmetry_multiplicity
 _atom_site_fract_x
 _atom_site_fract_y
 _atom_site_fract_z
 _atom_site_occupancy
  Zr  Zr0  1  0.50000000  -0.00000195  0.33402584  1
  Zr  Zr1  1  0.50000629  0.49999837  0.83330820  1
  Zr  Zr2  1  0.50000629  0.49999837  0.16669180  1
  Zr  Zr3  1  0.50000000  -0.00000195  0.66597416  1
  Zr  Zr4  1  0.99999735  0.49999931  0.16653541  1
  Zr  Zr5  1  0.99999799  0.99999639  0.66582754  1
  Zr  Zr6  1  0.99999799  0.99999639  0.33417246  1
  Zr  Zr7  1  0.99999735  0.49999931  0.83346459  1
  Zr  Zr8  1  0.76996624  0.26906610  1.00000000  1
  Zr  Zr9  1  0.75278058  0.74964876  0.50000000  1
  Zr  Zr10  1  0.75075532  0.37414007  0.37789273  1
  Zr  Zr11  1  0.76941985  0.86520634  0.86292153  1
  Zr  Zr12  1  0.76941985  0.86520634  0.13707847  1
  Zr  Zr13  1  0.75075532  0.37414007  0.62210727  1
  Zr  Zr14  1  0.23004581  0.73095251  0.00000000  1
  Zr  Zr15  1  0.24720133  0.25035043  0.50000000  1
  Zr  Zr16  1  0.23060983  0.13478500  0.13706810  1
  Zr  Zr17  1  0.24924732  0.62585508  0.62210808  1
  Zr  Zr18  1  0.24924732  0.62585508  0.37789192  1
  Zr  Zr19  1  0.23060983  0.13478500  0.86293190  1
  Sn  Sn20  1  0.74168405  0.61503135  0.00000000  1
  Sn  Sn21  1  0.74803638  0.10764884  0.50000000  1
  Sn  Sn22  1  0.74128106  0.19650830  0.19783629  1
  Sn  Sn23  1  0.75037215  0.69079434  0.69157930  1
  Sn  Sn24  1  0.75037215  0.69079434  0.30842070  1
  Sn  Sn25  1  0.74128106  0.19650830  0.80216371  1
  Sn  Sn26  1  0.25832935  0.38497684  1.00000000  1
  Sn  Sn27  1  0.25189050  0.89235835  0.50000000  1
  Sn  Sn28  1  0.24963446  0.30920561  0.30841736  1
  Sn  Sn29  1  0.25871693  0.80349742  0.80217123  1
  Sn  Sn30  1  0.25871693  0.80349742  0.19782877  1
  Sn  Sn31  1  0.24963446  0.30920561  0.69158264  1
  Sn  Sn32  1  0.49998866  0.99999825  1.00000000  1
