# generated using pymatgen
data_V11FeB8
_symmetry_space_group_name_H-M   'P 1'
_cell_length_a   3.02939880
_cell_length_b   5.69744931
_cell_length_c   11.37343524
_cell_angle_alpha   89.95059677
_cell_angle_beta   90.00000000
_cell_angle_gamma   90.00000000
_symmetry_Int_Tables_number   1
_chemical_formula_structural   V11FeB8
_chemical_formula_sum   'V11 Fe1 B8'
_cell_volume   196.30366886
_cell_formula_units_Z   1
loop_
 _symmetry_equiv_pos_site_id
 _symmetry_equiv_pos_as_xyz
  1  'x, y, z'
loop_
 _atom_site_type_symbol
 _atom_site_label
 _atom_site_symmetry_multiplicity
 _atom_site_fract_x
 _atom_site_fract_y
 _atom_site_fract_z
 _atom_site_occupancy
  V  V0  1  0.50000000  0.17688707  0.33814754  1
  V  V1  1  0.50000000  0.17822046  0.83953252  1
  V  V2  1  0.50000000  0.82311293  0.16185246  1
  V  V3  1  0.50000000  0.82177954  0.66046748  1
  V  V4  1  0.50000000  0.32244322  0.09074538  1
  V  V5  1  0.50000000  0.32217434  0.58772129  1
  V  V6  1  0.50000000  0.67755678  0.40925462  1
  V  V7  1  0.50000000  0.67782566  0.91227871  1
  V  V8  1  -0.00000000  0.50000000  0.75000000  1
  V  V9  1  -0.00000000  -0.00013848  0.00145387  1
  V  V10  1  0.00000000  0.00013848  0.49854613  1
  Fe  Fe11  1  -0.00000000  0.50000000  0.25000000  1
  B  B12  1  -0.00000000  0.60982885  0.05910360  1
  B  B13  1  -0.00000000  0.61130325  0.55355139  1
  B  B14  1  -0.00000000  0.39017115  0.44089640  1
  B  B15  1  -0.00000000  0.38869675  0.94644861  1
  B  B16  1  0.00000000  0.88623320  0.30487611  1
  B  B17  1  -0.00000000  0.88896011  0.80561835  1
  B  B18  1  -0.00000000  0.11376680  0.19512389  1
  B  B19  1  -0.00000000  0.11103989  0.69438165  1
