# generated using pymatgen
data_VCo5AsO10
_symmetry_space_group_name_H-M   'P 1'
_cell_length_a   6.15899258
_cell_length_b   10.15027442
_cell_length_c   13.47500717
_cell_angle_alpha   83.77807813
_cell_angle_beta   76.78922490
_cell_angle_gamma   107.66135810
_symmetry_Int_Tables_number   1
_chemical_formula_structural   VCo5AsO10
_chemical_formula_sum   'V4 Co20 As4 O40'
_cell_volume   766.97457316
_cell_formula_units_Z   4
loop_
 _symmetry_equiv_pos_site_id
 _symmetry_equiv_pos_as_xyz
  1  'x, y, z'
loop_
 _atom_site_type_symbol
 _atom_site_label
 _atom_site_symmetry_multiplicity
 _atom_site_fract_x
 _atom_site_fract_y
 _atom_site_fract_z
 _atom_site_occupancy
  V  V0  1  0.92684624  0.32699362  0.47330114  1
  V  V1  1  0.07315376  0.67300638  0.52669886  1
  V  V2  1  0.63440997  0.14316371  0.87434378  1
  V  V3  1  0.36559003  0.85683629  0.12565622  1
  Co  Co4  1  0.57586797  0.68794076  0.53620482  1
  Co  Co5  1  0.42413203  0.31205924  0.46379518  1
  Co  Co6  1  0.91146680  0.61695890  0.79402531  1
  Co  Co7  1  0.08853320  0.38304110  0.20597469  1
  Co  Co8  1  0.60706677  0.91563445  0.70150091  1
  Co  Co9  1  0.39293323  0.08436555  0.29849909  1
  Co  Co10  1  0.60250479  0.39336641  0.69142902  1
  Co  Co11  1  0.09943261  0.39336641  0.69142902  1
  Co  Co12  1  0.39749521  0.60663359  0.30857098  1
  Co  Co13  1  0.90056739  0.60663359  0.30857098  1
  Co  Co14  1  0.19625802  0.28965112  0.89713508  1
  Co  Co15  1  0.80374198  0.71034888  0.10286492  1
  Co  Co16  1  0.50000000  0.00000000  0.50000000  1
  Co  Co17  1  0.00000000  0.00000000  0.50000000  1
  Co  Co18  1  0.50000000  0.50000000  -0.00000000  1
  Co  Co19  1  0.00000000  0.50000000  -0.00000000  1
  Co  Co20  1  0.70531108  0.81611765  0.90194526  1
  Co  Co21  1  0.20886131  0.81611765  0.90194526  1
  Co  Co22  1  0.29468892  0.18388235  0.09805474  1
  Co  Co23  1  0.79113869  0.18388235  0.09805474  1
  As  As24  1  0.40344147  0.60461043  0.79772750  1
  As  As25  1  0.59655853  0.39538957  0.20227250  1
  As  As26  1  0.17025929  0.06383337  0.72331478  1
  As  As27  1  0.82974071  0.93616663  0.27668522  1
  O  O28  1  0.43811636  0.54462680  0.66839407  1
  O  O29  1  0.56188364  0.45537320  0.33160593  1
  O  O30  1  0.95026825  0.55184810  0.65131160  1
  O  O31  1  0.04973175  0.44815190  0.34868840  1
  O  O32  1  0.37918230  0.16765417  0.94496310  1
  O  O33  1  0.84350876  0.16765417  0.94496310  1
  O  O34  1  0.62081770  0.83234583  0.05503690  1
  O  O35  1  0.15649124  0.83234583  0.05503690  1
  O  O36  1  0.24772371  0.24058859  0.74514117  1
  O  O37  1  0.75227629  0.75941141  0.25485883  1
  O  O38  1  0.66811707  0.35189677  0.54355929  1
  O  O39  1  0.14022041  0.35189677  0.54355929  1
  O  O40  1  0.33188293  0.64810323  0.45644071  1
  O  O41  1  0.85977959  0.64810323  0.45644071  1
  O  O42  1  0.66264006  0.87790397  0.55262386  1
  O  O43  1  0.33735994  0.12209603  0.44737614  1
  O  O44  1  0.70016907  0.73898341  0.76421764  1
  O  O45  1  0.27459670  0.73898341  0.76421764  1
  O  O46  1  0.29983093  0.26101659  0.23578236  1
  O  O47  1  0.72540330  0.26101659  0.23578236  1
  O  O48  1  0.42694457  0.04343802  0.65607949  1
  O  O49  1  0.96041396  0.04343802  0.65607949  1
  O  O50  1  0.57305543  0.95656198  0.34392051  1
  O  O51  1  0.03958604  0.95656198  0.34392051  1
  O  O52  1  0.85600755  0.66053685  0.94852175  1
  O  O53  1  0.14399245  0.33946315  0.05147825  1
  O  O54  1  0.55488959  0.96441629  0.85463710  1
  O  O55  1  0.44511041  0.03558371  0.14536290  1
  O  O56  1  0.05405617  0.95183596  0.84372362  1
  O  O57  1  0.94594383  0.04816404  0.15627638  1
  O  O58  1  0.75387918  0.26495636  0.75719800  1
  O  O59  1  0.24612082  0.73504364  0.24280200  1
  O  O60  1  0.35124054  0.64005380  0.93757272  1
  O  O61  1  0.64875946  0.35994620  0.06242728  1
  O  O62  1  0.14929477  0.84266791  0.54407836  1
  O  O63  1  0.85070523  0.15733209  0.45592164  1
  O  O64  1  0.53059907  0.46798702  0.84114776  1
  O  O65  1  0.09624019  0.46798702  0.84114776  1
  O  O66  1  0.46940093  0.53201298  0.15885224  1
  O  O67  1  0.90375981  0.53201298  0.15885224  1
