# generated using pymatgen
data_Zr3Ni40(SnB4)3
_symmetry_space_group_name_H-M   'P 1'
_cell_length_a   7.54363137
_cell_length_b   7.54363137
_cell_length_c   13.06808523
_cell_angle_alpha   73.22416158
_cell_angle_beta   90.00000000
_cell_angle_gamma   120.00000000
_symmetry_Int_Tables_number   1
_chemical_formula_structural   Zr3Ni40(SnB4)3
_chemical_formula_sum   'Zr3 Ni40 Sn3 B12'
_cell_volume   607.20605664
_cell_formula_units_Z   1
loop_
 _symmetry_equiv_pos_site_id
 _symmetry_equiv_pos_as_xyz
  1  'x, y, z'
loop_
 _atom_site_type_symbol
 _atom_site_label
 _atom_site_symmetry_multiplicity
 _atom_site_fract_x
 _atom_site_fract_y
 _atom_site_fract_z
 _atom_site_occupancy
  Zr  Zr0  1  0.12509054  0.25018108  0.62472838  1
  Zr  Zr1  1  0.87509647  0.75019294  0.37471059  1
  Zr  Zr2  1  0.37473953  0.74947907  0.87578140  1
  Ni  Ni3  1  0.42277798  0.38458404  0.19263798  1
  Ni  Ni4  1  0.92117803  0.38595034  0.69287163  1
  Ni  Ni5  1  0.42277798  0.84555596  0.19263798  1
  Ni  Ni6  1  0.92117803  0.84235606  0.69287163  1
  Ni  Ni7  1  0.19293714  0.38587428  0.42118858  1
  Ni  Ni8  1  0.69249285  0.38498569  0.92252146  1
  Ni  Ni9  1  0.96180606  0.38458404  0.19263798  1
  Ni  Ni10  1  0.46477232  0.38595034  0.69287163  1
  Ni  Ni11  1  0.08010098  0.61320416  0.30669485  1
  Ni  Ni12  1  0.57964981  0.61365300  0.80669720  1
  Ni  Ni13  1  0.08010098  0.16020197  0.30669485  1
  Ni  Ni14  1  0.57964981  0.15929961  0.80669720  1
  Ni  Ni15  1  0.30646236  0.61292472  0.08061291  1
  Ni  Ni16  1  0.80670955  0.61341910  0.57987135  1
  Ni  Ni17  1  0.53310318  0.61320416  0.30669485  1
  Ni  Ni18  1  0.03400319  0.61365300  0.80669720  1
  Ni  Ni19  1  0.15734190  0.00001674  0.49978771  1
  Ni  Ni20  1  0.65674770  0.99829033  0.99922653  1
  Ni  Ni21  1  0.82993250  0.99828224  0.17178525  1
  Ni  Ni22  1  0.32852014  0.00010230  0.67137756  1
  Ni  Ni23  1  0.00248313  0.34402577  0.99922653  1
  Ni  Ni24  1  0.50019555  0.34287039  0.49978771  1
  Ni  Ni25  1  0.82993250  0.65986501  0.17178525  1
  Ni  Ni26  1  0.32852014  0.65704028  0.67137756  1
  Ni  Ni27  1  0.65674770  0.65923083  0.99922653  1
  Ni  Ni28  1  0.15734190  0.65753746  0.49978771  1
  Ni  Ni29  1  0.00248313  0.65923083  0.99922653  1
  Ni  Ni30  1  0.50019555  0.65753746  0.49978771  1
  Ni  Ni31  1  0.67183352  0.34366705  0.32934459  1
  Ni  Ni32  1  0.17155968  0.34311936  0.82895564  1
  Ni  Ni33  1  0.67183352  0.99882189  0.32934459  1
  Ni  Ni34  1  0.17155968  0.99948468  0.82895564  1
  Ni  Ni35  1  0.32698837  0.99882189  0.32934459  1
  Ni  Ni36  1  0.82792500  0.99948468  0.82895564  1
  Ni  Ni37  1  0.34154264  0.99829033  0.99922653  1
  Ni  Ni38  1  0.84267483  0.00001674  0.49978771  1
  Ni  Ni39  1  0.34154264  0.34402577  0.99922653  1
  Ni  Ni40  1  0.84267483  0.34287039  0.49978771  1
  Ni  Ni41  1  0.16834974  0.99828224  0.17178525  1
  Ni  Ni42  1  0.67158216  0.00010230  0.67137756  1
  Sn  Sn43  1  0.00001005  0.00002009  0.99996986  1
  Sn  Sn44  1  0.50004013  0.00008026  0.49987960  1
  Sn  Sn45  1  0.62500161  0.25000321  0.12499518  1
  B  B46  1  0.13699018  0.27398036  0.13737371  1
  B  B47  1  0.63646448  0.27292897  0.63614446  1
  B  B48  1  0.36324876  0.27346229  0.36328895  1
  B  B49  1  0.86311210  0.27350797  0.86337993  1
  B  B50  1  0.58864593  0.72563611  0.13737371  1
  B  B51  1  0.09092657  0.72739106  0.63614446  1
  B  B52  1  0.36324876  0.72649752  0.36328895  1
  B  B53  1  0.86311210  0.72622421  0.86337993  1
  B  B54  1  0.13699018  0.72563611  0.13737371  1
  B  B55  1  0.63646448  0.72739106  0.63614446  1
  B  B56  1  0.91021353  0.27346229  0.36328895  1
  B  B57  1  0.41039586  0.27350797  0.86337993  1
