# generated using pymatgen
data_Ti(Si3Mo)2
_symmetry_space_group_name_H-M   'P 1'
_cell_length_a   4.71195608
_cell_length_b   4.68105405
_cell_length_c   6.48705440
_cell_angle_alpha   90.00000000
_cell_angle_beta   90.00000000
_cell_angle_gamma   120.21861567
_symmetry_Int_Tables_number   1
_chemical_formula_structural   Ti(Si3Mo)2
_chemical_formula_sum   'Ti1 Si6 Mo2'
_cell_volume   123.64089084
_cell_formula_units_Z   1
loop_
 _symmetry_equiv_pos_site_id
 _symmetry_equiv_pos_as_xyz
  1  'x, y, z'
loop_
 _atom_site_type_symbol
 _atom_site_label
 _atom_site_symmetry_multiplicity
 _atom_site_fract_x
 _atom_site_fract_y
 _atom_site_fract_z
 _atom_site_occupancy
  Ti  Ti0  1  0.50000000  -0.00000000  0.16666700  1
  Si  Si1  1  0.84225768  0.68451536  0.16666700  1
  Si  Si2  1  0.84002749  0.16461091  0.49784099  1
  Si  Si3  1  0.32458343  0.16461091  0.83549201  1
  Si  Si4  1  0.15774232  0.31548464  0.16666700  1
  Si  Si5  1  0.15997251  0.83538909  0.49784099  1
  Si  Si6  1  0.67541657  0.83538909  0.83549201  1
  Mo  Mo7  1  0.50000000  0.50000000  0.49856209  1
  Mo  Mo8  1  -0.00000000  0.50000000  0.83477091  1
