# generated using pymatgen
data_U7V5Ag3O35
_symmetry_space_group_name_H-M   'P 1'
_cell_length_a   7.36735105
_cell_length_b   7.33567113
_cell_length_c   15.05037759
_cell_angle_alpha   90.00000000
_cell_angle_beta   90.00396002
_cell_angle_gamma   90.00000000
_symmetry_Int_Tables_number   1
_chemical_formula_structural   U7V5Ag3O35
_chemical_formula_sum   'U7 V5 Ag3 O35'
_cell_volume   813.38959439
_cell_formula_units_Z   1
loop_
 _symmetry_equiv_pos_site_id
 _symmetry_equiv_pos_as_xyz
  1  'x, y, z'
loop_
 _atom_site_type_symbol
 _atom_site_label
 _atom_site_symmetry_multiplicity
 _atom_site_fract_x
 _atom_site_fract_y
 _atom_site_fract_z
 _atom_site_occupancy
  U  U0  1  -0.00005869  0.50000000  0.27611696  1
  U  U1  1  0.50077298  0.00000000  0.72477827  1
  U  U2  1  0.99982858  0.00000000  0.85602672  1
  U  U3  1  0.99999146  0.00000000  0.14210964  1
  U  U4  1  0.50076660  0.50000000  0.99876538  1
  U  U5  1  0.99975082  0.50000000  0.56248999  1
  U  U6  1  0.50001531  0.00000000  0.43771561  1
  V  V7  1  0.00005630  0.50000000  0.05627440  1
  V  V8  1  0.50013102  -0.00000000  0.94345523  1
  V  V9  1  0.99990471  0.00000000  0.63291356  1
  V  V10  1  0.00000824  -0.00000000  0.36743989  1
  V  V11  1  0.49997129  0.50000000  0.50000888  1
  Ag  Ag12  1  0.50002229  0.76653713  0.20775129  1
  Ag  Ag13  1  0.23029823  0.50000000  0.79166362  1
  Ag  Ag14  1  0.50002229  0.23346287  0.20775129  1
  O  O15  1  0.00010163  0.67756908  0.13399399  1
  O  O16  1  0.32268241  -0.00000000  0.86687944  1
  O  O17  1  0.00010163  0.32243092  0.13399399  1
  O  O18  1  0.67750721  -0.00000000  0.86695284  1
  O  O19  1  0.00448709  0.24758271  0.85001207  1
  O  O20  1  0.74940969  -0.00000000  0.15121652  1
  O  O21  1  0.00448709  0.75241729  0.85001207  1
  O  O22  1  0.25057519  0.00000000  0.15124787  1
  O  O23  1  0.00752524  0.50000000  0.68505498  1
  O  O24  1  0.49997899  -0.00000000  0.31158297  1
  O  O25  1  0.18046158  -0.00000000  0.70735308  1
  O  O26  1  0.99998958  0.18158961  0.29282385  1
  O  O27  1  0.81932407  -0.00000000  0.70729112  1
  O  O28  1  0.99998958  0.81841039  0.29282385  1
  O  O29  1  0.24687404  0.50000000  0.27444599  1
  O  O30  1  0.49664707  0.24553525  0.72506234  1
  O  O31  1  0.75316576  0.50000000  0.27441349  1
  O  O32  1  0.49664707  0.75446475  0.72506234  1
  O  O33  1  0.49990912  0.29925174  0.43628347  1
  O  O34  1  0.69720284  0.50000000  0.56292920  1
  O  O35  1  0.49990912  0.70074826  0.43628347  1
  O  O36  1  0.30305826  0.50000000  0.56329248  1
  O  O37  1  0.00006445  0.19866687  0.56948756  1
  O  O38  1  0.80111443  0.00000000  0.42978092  1
  O  O39  1  0.00006445  0.80133313  0.56948756  1
  O  O40  1  0.19890435  0.00000000  0.42979056  1
  O  O41  1  0.50061367  0.50000000  0.12544411  1
  O  O42  1  0.49170466  0.50000000  0.87645534  1
  O  O43  1  0.19752094  0.50000000  0.99452540  1
  O  O44  1  0.49989037  0.19774575  0.00627890  1
  O  O45  1  0.80213804  0.50000000  0.99526661  1
  O  O46  1  0.49989037  0.80225425  0.00627890  1
  O  O47  1  0.99995350  0.00000000  0.00220604  1
  O  O48  1  0.99947342  0.50000000  0.43304130  1
  O  O49  1  0.50005168  0.00000000  0.56588468  1
