# generated using pymatgen
data_Ti(NbNi4)3
_symmetry_space_group_name_H-M   'P 1'
_cell_length_a   4.19884854
_cell_length_b   4.54207851
_cell_length_c   10.17866958
_cell_angle_alpha   90.00000000
_cell_angle_beta   90.00000000
_cell_angle_gamma   90.00000000
_symmetry_Int_Tables_number   1
_chemical_formula_structural   Ti(NbNi4)3
_chemical_formula_sum   'Ti1 Nb3 Ni12'
_cell_volume   194.12249405
_cell_formula_units_Z   1
loop_
 _symmetry_equiv_pos_site_id
 _symmetry_equiv_pos_as_xyz
  1  'x, y, z'
loop_
 _atom_site_type_symbol
 _atom_site_label
 _atom_site_symmetry_multiplicity
 _atom_site_fract_x
 _atom_site_fract_y
 _atom_site_fract_z
 _atom_site_occupancy
  Ti  Ti0  1  0.75000000  0.34886943  0.37500000  1
  Nb  Nb1  1  0.75000000  0.34783338  0.87500000  1
  Nb  Nb2  1  0.25000000  0.65198520  0.12588356  1
  Nb  Nb3  1  0.25000000  0.65198520  0.62411644  1
  Ni  Ni4  1  0.75000000  0.83981541  0.49733432  1
  Ni  Ni5  1  0.75000000  0.84144532  0.99953217  1
  Ni  Ni6  1  0.75000000  0.83981541  0.25266568  1
  Ni  Ni7  1  0.75000000  0.84144532  0.75046783  1
  Ni  Ni8  1  0.25000000  0.15925854  0.00083491  1
  Ni  Ni9  1  0.25000000  0.16083880  0.49917991  1
  Ni  Ni10  1  0.25000000  0.16083880  0.25082009  1
  Ni  Ni11  1  0.25000000  0.15925854  0.74916509  1
  Ni  Ni12  1  0.25000000  0.68147342  0.37500000  1
  Ni  Ni13  1  0.25000000  0.68283411  0.87500000  1
  Ni  Ni14  1  0.75000000  0.31615156  0.12667134  1
  Ni  Ni15  1  0.75000000  0.31615156  0.62332866  1
