# generated using pymatgen
data_SrYAl3O7
_symmetry_space_group_name_H-M   'P 1'
_cell_length_a   5.17775463
_cell_length_b   7.85648229
_cell_length_c   7.85648229
_cell_angle_alpha   91.24502109
_cell_angle_beta   90.00000000
_cell_angle_gamma   90.00000000
_symmetry_Int_Tables_number   1
_chemical_formula_structural   SrYAl3O7
_chemical_formula_sum   'Sr2 Y2 Al6 O14'
_cell_volume   319.51790215
_cell_formula_units_Z   2
loop_
 _symmetry_equiv_pos_site_id
 _symmetry_equiv_pos_as_xyz
  1  'x, y, z'
loop_
 _atom_site_type_symbol
 _atom_site_label
 _atom_site_symmetry_multiplicity
 _atom_site_fract_x
 _atom_site_fract_y
 _atom_site_fract_z
 _atom_site_occupancy
  Sr  Sr0  1  0.50939025  0.33770864  0.16229136  1
  Sr  Sr1  1  0.50939025  0.66229136  0.83770864  1
  Y  Y2  1  0.48087293  0.16009230  0.66009230  1
  Y  Y3  1  0.48087293  0.83990770  0.33990770  1
  Al  Al4  1  0.95784278  0.13859749  0.36140251  1
  Al  Al5  1  0.03928811  0.35084759  0.85084759  1
  Al  Al6  1  0.95784278  0.86140251  0.63859749  1
  Al  Al7  1  0.03928811  0.64915241  0.14915241  1
  Al  Al8  1  0.00749984  0.50000000  0.50000000  1
  Al  Al9  1  0.00749984  0.00000000  0.00000000  1
  O  O10  1  0.15587695  0.50000000  0.00000000  1
  O  O11  1  0.79102538  0.00000000  0.50000000  1
  O  O12  1  0.81183273  0.33462123  0.41756549  1
  O  O13  1  0.20423143  0.15754665  0.90215040  1
  O  O14  1  0.81183273  0.66537877  0.58243451  1
  O  O15  1  0.20423143  0.84245335  0.09784960  1
  O  O16  1  0.20423143  0.59784960  0.34245335  1
  O  O17  1  0.81183273  0.91756549  0.83462123  1
  O  O18  1  0.20423143  0.40215040  0.65754665  1
  O  O19  1  0.81183273  0.08243451  0.16537877  1
  O  O20  1  0.29610431  0.12457132  0.37542868  1
  O  O21  1  0.70342228  0.33862067  0.83862067  1
  O  O22  1  0.29610431  0.87542868  0.62457132  1
  O  O23  1  0.70342228  0.66137933  0.16137933  1
