# generated using pymatgen
data_Ti3Sn5S12
_symmetry_space_group_name_H-M   'P 1'
_cell_length_a   3.64459370
_cell_length_b   9.13356897
_cell_length_c   13.64580920
_cell_angle_alpha   91.00208020
_cell_angle_beta   90.00000000
_cell_angle_gamma   90.00000000
_symmetry_Int_Tables_number   1
_chemical_formula_structural   Ti3Sn5S12
_chemical_formula_sum   'Ti3 Sn5 S12'
_cell_volume   454.17424358
_cell_formula_units_Z   1
loop_
 _symmetry_equiv_pos_site_id
 _symmetry_equiv_pos_as_xyz
  1  'x, y, z'
loop_
 _atom_site_type_symbol
 _atom_site_label
 _atom_site_symmetry_multiplicity
 _atom_site_fract_x
 _atom_site_fract_y
 _atom_site_fract_z
 _atom_site_occupancy
  Ti  Ti0  1  0.75000000  0.84221557  0.95280411  1
  Ti  Ti1  1  0.25000000  0.67050135  0.44483208  1
  Ti  Ti2  1  0.25000000  0.15596445  0.04665218  1
  Sn  Sn3  1  0.25000000  0.03039262  0.67544391  1
  Sn  Sn4  1  0.25000000  0.54258297  0.83347904  1
  Sn  Sn5  1  0.75000000  0.96097760  0.32970758  1
  Sn  Sn6  1  0.75000000  0.45476857  0.17033406  1
  Sn  Sn7  1  0.75000000  0.34283245  0.54903723  1
  S  S8  1  0.25000000  0.16386832  0.49053383  1
  S  S9  1  0.25000000  0.68493759  0.00959646  1
  S  S10  1  0.75000000  0.82357795  0.50671191  1
  S  S11  1  0.75000000  0.31512216  0.99220165  1
  S  S12  1  0.75000000  0.22756011  0.71871083  1
  S  S13  1  0.75000000  0.73571434  0.79002194  1
  S  S14  1  0.25000000  0.76300969  0.28454705  1
  S  S15  1  0.25000000  0.26242287  0.21134048  1
  S  S16  1  0.25000000  0.52683792  0.60283274  1
  S  S17  1  0.25000000  0.00904916  0.89628476  1
  S  S18  1  0.75000000  0.49659043  0.39109848  1
  S  S19  1  0.75000000  0.99107388  0.10382970  1
