# generated using pymatgen
data_Tm4Fe34C3
_symmetry_space_group_name_H-M   'P 1'
_cell_length_a   6.45367586
_cell_length_b   6.41533595
_cell_length_c   12.84897550
_cell_angle_alpha   82.79750458
_cell_angle_beta   83.33878884
_cell_angle_gamma   83.64732465
_symmetry_Int_Tables_number   1
_chemical_formula_structural   Tm4Fe34C3
_chemical_formula_sum   'Tm4 Fe34 C3'
_cell_volume   521.72009423
_cell_formula_units_Z   1
loop_
 _symmetry_equiv_pos_site_id
 _symmetry_equiv_pos_as_xyz
  1  'x, y, z'
loop_
 _atom_site_type_symbol
 _atom_site_label
 _atom_site_symmetry_multiplicity
 _atom_site_fract_x
 _atom_site_fract_y
 _atom_site_fract_z
 _atom_site_occupancy
  Tm  Tm0  1  0.66356881  0.65505315  0.32793973  1
  Tm  Tm1  1  0.66123346  0.66078964  0.82660997  1
  Tm  Tm2  1  0.33643119  0.34494685  0.17206027  1
  Tm  Tm3  1  0.33876654  0.33921036  0.67339003  1
  Fe  Fe4  1  0.34196304  0.34542773  0.42627610  1
  Fe  Fe5  1  0.34391234  0.34291807  0.92391285  1
  Fe  Fe6  1  0.34257319  0.85056005  0.17226008  1
  Fe  Fe7  1  0.34428782  0.84893404  0.67313319  1
  Fe  Fe8  1  0.85227235  0.34484158  0.17276327  1
  Fe  Fe9  1  0.84807921  0.34485107  0.67300679  1
  Fe  Fe10  1  0.65803696  0.65457227  0.07372390  1
  Fe  Fe11  1  0.65608766  0.65708193  0.57608715  1
  Fe  Fe12  1  0.65742681  0.14943995  0.32773992  1
  Fe  Fe13  1  0.65571218  0.15106596  0.82686681  1
  Fe  Fe14  1  0.14772765  0.65515842  0.32723673  1
  Fe  Fe15  1  0.15192079  0.65514893  0.82699321  1
  Fe  Fe16  1  0.90169688  0.90376423  0.45252535  1
  Fe  Fe17  1  0.90531600  0.90425258  0.95040033  1
  Fe  Fe18  1  0.09830312  0.09623577  0.04747465  1
  Fe  Fe19  1  0.09468400  0.09574742  0.54959967  1
  Fe  Fe20  1  0.00000000  0.00000000  0.25000000  1
  Fe  Fe21  1  0.00000000  0.00000000  0.75000000  1
  Fe  Fe22  1  0.99879108  0.49995249  0.50046563  1
  Fe  Fe23  1  0.00120892  0.50004751  0.99953437  1
  Fe  Fe24  1  0.50058396  0.99747841  0.99892930  1
  Fe  Fe25  1  0.49941604  0.00252159  0.50107070  1
  Fe  Fe26  1  0.28438317  0.71566356  0.50022000  1
  Fe  Fe27  1  0.28420211  0.71582699  0.99988997  1
  Fe  Fe28  1  0.71587971  0.99932206  0.14185339  1
  Fe  Fe29  1  0.70748660  0.00016669  0.64739890  1
  Fe  Fe30  1  0.00133956  0.29184533  0.35436584  1
  Fe  Fe31  1  0.99923567  0.29296590  0.85298920  1
  Fe  Fe32  1  0.28412029  0.00067794  0.35814661  1
  Fe  Fe33  1  0.29251340  0.99983331  0.85260110  1
  Fe  Fe34  1  0.99866044  0.70815467  0.14563416  1
  Fe  Fe35  1  0.00076433  0.70703410  0.64701080  1
  Fe  Fe36  1  0.71561683  0.28433644  0.99978000  1
  Fe  Fe37  1  0.71579789  0.28417301  0.50011003  1
  C  C38  1  0.49896980  0.49910557  0.99948391  1
  C  C39  1  0.50103020  0.50089443  0.50051609  1
  C  C40  1  0.50000000  0.00000000  0.25000000  1
