# generated using pymatgen
data_Tb3SmFe34
_symmetry_space_group_name_H-M   'P 1'
_cell_length_a   6.42464674
_cell_length_b   6.42464674
_cell_length_c   12.85035346
_cell_angle_alpha   83.03394429
_cell_angle_beta   83.03394429
_cell_angle_gamma   83.00535332
_symmetry_Int_Tables_number   1
_chemical_formula_structural   Tb3SmFe34
_chemical_formula_sum   'Tb3 Sm1 Fe34'
_cell_volume   519.51565236
_cell_formula_units_Z   1
loop_
 _symmetry_equiv_pos_site_id
 _symmetry_equiv_pos_as_xyz
  1  'x, y, z'
loop_
 _atom_site_type_symbol
 _atom_site_label
 _atom_site_symmetry_multiplicity
 _atom_site_fract_x
 _atom_site_fract_y
 _atom_site_fract_z
 _atom_site_occupancy
  Tb  Tb0  1  0.65865636  0.65865636  0.82931239  1
  Tb  Tb1  1  0.34086369  0.34086369  0.17052014  1
  Tb  Tb2  1  0.34136243  0.34136243  0.67069034  1
  Sm  Sm3  1  0.65823759  0.65823759  0.32912255  1
  Fe  Fe4  1  0.00036342  0.00036342  0.24983649  1
  Fe  Fe5  1  0.00005020  0.00005020  0.75006134  1
  Fe  Fe6  1  0.00031599  0.49968036  0.50035513  1
  Fe  Fe7  1  0.00004612  0.50002310  0.99983172  1
  Fe  Fe8  1  0.50002310  0.00004612  0.99983172  1
  Fe  Fe9  1  0.49968036  0.00031599  0.50035513  1
  Fe  Fe10  1  0.29292495  0.70718250  0.99977052  1
  Fe  Fe11  1  0.29169539  0.70783552  0.50047049  1
  Fe  Fe12  1  0.70788114  0.00074837  0.14568768  1
  Fe  Fe13  1  0.70730812  0.99995042  0.64655036  1
  Fe  Fe14  1  0.00044742  0.29163776  0.35395882  1
  Fe  Fe15  1  0.00003130  0.29270455  0.85361240  1
  Fe  Fe16  1  0.29163776  0.00044742  0.35395882  1
  Fe  Fe17  1  0.29270455  0.00003130  0.85361240  1
  Fe  Fe18  1  0.00074837  0.70788114  0.14568768  1
  Fe  Fe19  1  0.99995042  0.70730812  0.64655036  1
  Fe  Fe20  1  0.70718250  0.29292495  0.99977052  1
  Fe  Fe21  1  0.70783552  0.29169539  0.50047049  1
  Fe  Fe22  1  0.90296332  0.90296332  0.45163066  1
  Fe  Fe23  1  0.90258118  0.90258118  0.95116508  1
  Fe  Fe24  1  0.09759658  0.09759658  0.04849249  1
  Fe  Fe25  1  0.09751256  0.09751256  0.54897334  1
  Fe  Fe26  1  0.34326162  0.34326162  0.42277968  1
  Fe  Fe27  1  0.34404631  0.34404631  0.92251915  1
  Fe  Fe28  1  0.34333463  0.84549604  0.17151658  1
  Fe  Fe29  1  0.34389498  0.84506292  0.67215910  1
  Fe  Fe30  1  0.84549604  0.34333463  0.17151658  1
  Fe  Fe31  1  0.84506292  0.34389498  0.67215910  1
  Fe  Fe32  1  0.65593282  0.65593282  0.07685604  1
  Fe  Fe33  1  0.65616082  0.65616082  0.57813394  1
  Fe  Fe34  1  0.65607509  0.15511465  0.32808286  1
  Fe  Fe35  1  0.65601155  0.15500822  0.82795750  1
  Fe  Fe36  1  0.15511465  0.65607509  0.32808286  1
  Fe  Fe37  1  0.15500822  0.65601155  0.82795750  1
