# generated using pymatgen
data_SrNdNiO4
_symmetry_space_group_name_H-M   'P 1'
_cell_length_a   5.39476853
_cell_length_b   5.40911540
_cell_length_c   6.79048713
_cell_angle_alpha   90.00000000
_cell_angle_beta   66.59488249
_cell_angle_gamma   90.00000000
_symmetry_Int_Tables_number   1
_chemical_formula_structural   SrNdNiO4
_chemical_formula_sum   'Sr2 Nd2 Ni2 O8'
_cell_volume   181.84852684
_cell_formula_units_Z   2
loop_
 _symmetry_equiv_pos_site_id
 _symmetry_equiv_pos_as_xyz
  1  'x, y, z'
loop_
 _atom_site_type_symbol
 _atom_site_label
 _atom_site_symmetry_multiplicity
 _atom_site_fract_x
 _atom_site_fract_y
 _atom_site_fract_z
 _atom_site_occupancy
  Sr  Sr0  1  0.85590107  0.50000000  0.28819787  1
  Sr  Sr1  1  0.64409893  -0.00000000  0.71180213  1
  Nd  Nd2  1  0.36457544  -0.00000000  0.27084912  1
  Nd  Nd3  1  0.13542456  0.50000000  0.72915088  1
  Ni  Ni4  1  0.50030634  0.50000000  0.99938732  1
  Ni  Ni5  1  0.99969366  -0.00000000  0.00061268  1
  O  O6  1  0.17538894  -0.00000000  0.64922212  1
  O  O7  1  0.66132905  0.50000000  0.67734191  1
  O  O8  1  0.32461106  0.50000000  0.35077788  1
  O  O9  1  0.83867095  0.00000000  0.32265809  1
  O  O10  1  0.25000000  0.25000000  -0.00000000  1
  O  O11  1  0.75000000  0.75000000  -0.00000000  1
  O  O12  1  0.25000000  0.75000000  -0.00000000  1
  O  O13  1  0.75000000  0.25000000  -0.00000000  1
