# generated using pymatgen
data_Sr4CaCl10
_symmetry_space_group_name_H-M   'P 1'
_cell_length_a   4.94736409
_cell_length_b   6.99898400
_cell_length_c   13.07451691
_cell_angle_alpha   105.52492217
_cell_angle_beta   100.90602693
_cell_angle_gamma   90.00000000
_symmetry_Int_Tables_number   1
_chemical_formula_structural   Sr4CaCl10
_chemical_formula_sum   'Sr4 Ca1 Cl10'
_cell_volume   427.71456277
_cell_formula_units_Z   1
loop_
 _symmetry_equiv_pos_site_id
 _symmetry_equiv_pos_as_xyz
  1  'x, y, z'
loop_
 _atom_site_type_symbol
 _atom_site_label
 _atom_site_symmetry_multiplicity
 _atom_site_fract_x
 _atom_site_fract_y
 _atom_site_fract_z
 _atom_site_occupancy
  Sr  Sr0  1  0.59889563  0.59889563  0.19779126  1
  Sr  Sr1  1  0.19939245  0.19939245  0.39878491  1
  Sr  Sr2  1  0.80060755  0.80060755  0.60121509  1
  Sr  Sr3  1  0.40110437  0.40110437  0.80220874  1
  Ca  Ca4  1  0.00000000  -0.00000000  -0.00000000  1
  Cl  Cl5  1  0.90236531  0.65649191  0.80473062  1
  Cl  Cl6  1  0.69978997  0.45031679  0.39957993  1
  Cl  Cl7  1  0.30021003  0.05073685  0.60042007  1
  Cl  Cl8  1  0.50000000  0.24104211  1.00000000  1
  Cl  Cl9  1  0.09763469  0.85176128  0.19526938  1
  Cl  Cl10  1  0.90236531  0.14823872  0.80473062  1
  Cl  Cl11  1  0.69978997  0.94926315  0.39957993  1
  Cl  Cl12  1  0.30021003  0.54968321  0.60042007  1
  Cl  Cl13  1  0.50000000  0.75895789  0.00000000  1
  Cl  Cl14  1  0.09763469  0.34350809  0.19526938  1
