# generated using pymatgen
data_Tb(Fe5Mo)2
_symmetry_space_group_name_H-M   'P 1'
_cell_length_a   4.72679659
_cell_length_b   6.51412372
_cell_length_c   6.51412372
_cell_angle_alpha   97.27168138
_cell_angle_beta   111.27295064
_cell_angle_gamma   68.72704936
_symmetry_Int_Tables_number   1
_chemical_formula_structural   Tb(Fe5Mo)2
_chemical_formula_sum   'Tb1 Fe10 Mo2'
_cell_volume   174.17079333
_cell_formula_units_Z   1
loop_
 _symmetry_equiv_pos_site_id
 _symmetry_equiv_pos_as_xyz
  1  'x, y, z'
loop_
 _atom_site_type_symbol
 _atom_site_label
 _atom_site_symmetry_multiplicity
 _atom_site_fract_x
 _atom_site_fract_y
 _atom_site_fract_z
 _atom_site_occupancy
  Tb  Tb0  1  -0.00000000  0.00000000  0.00000000  1
  Fe  Fe1  1  0.50000000  0.00000000  0.50000000  1
  Fe  Fe2  1  -0.00000000  0.00000000  0.50000000  1
  Fe  Fe3  1  0.50000000  0.50000000  0.00000000  1
  Fe  Fe4  1  -0.00000000  0.50000000  0.00000000  1
  Fe  Fe5  1  0.72029667  0.77970333  0.22029667  1
  Fe  Fe6  1  0.27970333  0.22029667  0.77970333  1
  Fe  Fe7  1  0.50000000  0.77487531  0.77487531  1
  Fe  Fe8  1  0.50000000  0.22512469  0.22512469  1
  Fe  Fe9  1  0.64177961  0.35822039  0.64177961  1
  Fe  Fe10  1  0.35822039  0.64177961  0.35822039  1
  Mo  Mo11  1  0.00000000  0.35676285  0.35676285  1
  Mo  Mo12  1  -0.00000000  0.64323715  0.64323715  1
