# generated using pymatgen
data_Sr4Zn3Si5
_symmetry_space_group_name_H-M   'P 1'
_cell_length_a   4.26389461
_cell_length_b   4.26338097
_cell_length_c   18.29459836
_cell_angle_alpha   90.00000000
_cell_angle_beta   90.00000000
_cell_angle_gamma   60.00398470
_symmetry_Int_Tables_number   1
_chemical_formula_structural   Sr4Zn3Si5
_chemical_formula_sum   'Sr4 Zn3 Si5'
_cell_volume   288.02590620
_cell_formula_units_Z   1
loop_
 _symmetry_equiv_pos_site_id
 _symmetry_equiv_pos_as_xyz
  1  'x, y, z'
loop_
 _atom_site_type_symbol
 _atom_site_label
 _atom_site_symmetry_multiplicity
 _atom_site_fract_x
 _atom_site_fract_y
 _atom_site_fract_z
 _atom_site_occupancy
  Sr  Sr0  1  0.99997547  0.00001226  0.24873610  1
  Sr  Sr1  1  0.00002640  0.99998680  0.74995449  1
  Sr  Sr2  1  0.00002640  0.99998680  0.00004551  1
  Sr  Sr3  1  0.99997547  0.00001226  0.50126390  1
  Zn  Zn4  1  0.33301308  0.33349346  0.87500000  1
  Zn  Zn5  1  0.66668246  0.66665877  0.12590389  1
  Zn  Zn6  1  0.66668246  0.66665877  0.62409611  1
  Si  Si7  1  0.33328413  0.33335793  0.12393027  1
  Si  Si8  1  0.33328413  0.33335793  0.62606973  1
  Si  Si9  1  0.66665479  0.66667260  0.37500000  1
  Si  Si10  1  0.66701289  0.66649355  0.87500000  1
  Si  Si11  1  0.33338230  0.33330885  0.37500000  1
