# generated using pymatgen
data_TaWSe4
_symmetry_space_group_name_H-M   'P 1'
_cell_length_a   3.40252174
_cell_length_b   3.40261076
_cell_length_c   13.57549737
_cell_angle_alpha   90.00000000
_cell_angle_beta   90.00000000
_cell_angle_gamma   59.99913457
_symmetry_Int_Tables_number   1
_chemical_formula_structural   TaWSe4
_chemical_formula_sum   'Ta1 W1 Se4'
_cell_volume   136.11179913
_cell_formula_units_Z   1
loop_
 _symmetry_equiv_pos_site_id
 _symmetry_equiv_pos_as_xyz
  1  'x, y, z'
loop_
 _atom_site_type_symbol
 _atom_site_label
 _atom_site_symmetry_multiplicity
 _atom_site_fract_x
 _atom_site_fract_y
 _atom_site_fract_z
 _atom_site_occupancy
  Ta  Ta0  1  0.00004263  0.99997868  0.75000000  1
  W  W1  1  0.99993940  0.00003030  0.25000000  1
  Se  Se2  1  0.33338816  0.33330592  0.62404230  1
  Se  Se3  1  0.66662083  0.66668959  0.37188188  1
  Se  Se4  1  0.66662083  0.66668959  0.12811812  1
  Se  Se5  1  0.33338816  0.33330592  0.87595770  1
