# generated using pymatgen
data_Sr2Zn3Cd
_symmetry_space_group_name_H-M   'P 1'
_cell_length_a   4.90420050
_cell_length_b   6.08807569
_cell_length_c   6.13625212
_cell_angle_alpha   98.54076173
_cell_angle_beta   113.55372397
_cell_angle_gamma   66.24847911
_symmetry_Int_Tables_number   1
_chemical_formula_structural   Sr2Zn3Cd
_chemical_formula_sum   'Sr2 Zn3 Cd1'
_cell_volume   153.70502435
_cell_formula_units_Z   1
loop_
 _symmetry_equiv_pos_site_id
 _symmetry_equiv_pos_as_xyz
  1  'x, y, z'
loop_
 _atom_site_type_symbol
 _atom_site_label
 _atom_site_symmetry_multiplicity
 _atom_site_fract_x
 _atom_site_fract_y
 _atom_site_fract_z
 _atom_site_occupancy
  Sr  Sr0  1  0.75001420  0.69825027  0.19827867  1
  Sr  Sr1  1  0.25080482  0.29892441  0.80053405  1
  Zn  Zn2  1  0.43086290  0.74360753  0.60533333  1
  Zn  Zn3  1  0.06248344  0.09215140  0.21711828  1
  Zn  Zn4  1  0.94356232  0.89246119  0.77958582  1
  Cd  Cd5  1  0.56227233  0.27460520  0.39914986  1
