# generated using pymatgen
data_Sr3MnFeO7
_symmetry_space_group_name_H-M   'P 1'
_cell_length_a   3.89052699
_cell_length_b   3.89052699
_cell_length_c   10.51345447
_cell_angle_alpha   79.33734265
_cell_angle_beta   79.33734265
_cell_angle_gamma   90.00000000
_symmetry_Int_Tables_number   1
_chemical_formula_structural   Sr3MnFeO7
_chemical_formula_sum   'Sr3 Mn1 Fe1 O7'
_cell_volume   153.58926995
_cell_formula_units_Z   1
loop_
 _symmetry_equiv_pos_site_id
 _symmetry_equiv_pos_as_xyz
  1  'x, y, z'
loop_
 _atom_site_type_symbol
 _atom_site_label
 _atom_site_symmetry_multiplicity
 _atom_site_fract_x
 _atom_site_fract_y
 _atom_site_fract_z
 _atom_site_occupancy
  Sr  Sr0  1  0.68350120  0.68350120  0.63299761  1
  Sr  Sr1  1  0.31701209  0.31701209  0.36597581  1
  Sr  Sr2  1  0.49957528  0.49957528  0.00084944  1
  Mn  Mn3  1  0.90161911  0.90161911  0.19676178  1
  Fe  Fe4  1  0.09698917  0.09698917  0.80602167  1
  O  O5  1  0.19417282  0.19417282  0.61165436  1
  O  O6  1  0.80675583  0.80675583  0.38648834  1
  O  O7  1  0.59656364  0.09656364  0.80687271  1
  O  O8  1  0.09656364  0.59656364  0.80687271  1
  O  O9  1  0.40373526  0.90373526  0.19252949  1
  O  O10  1  0.90373526  0.40373526  0.19252949  1
  O  O11  1  0.99977670  0.99977670  0.00044660  1
