# generated using pymatgen
data_Sr4NbCoO8
_symmetry_space_group_name_H-M   'P 1'
_cell_length_a   5.63176630
_cell_length_b   5.57825010
_cell_length_c   7.01279854
_cell_angle_alpha   90.00000000
_cell_angle_beta   66.32583426
_cell_angle_gamma   90.00000000
_symmetry_Int_Tables_number   1
_chemical_formula_structural   Sr4NbCoO8
_chemical_formula_sum   'Sr4 Nb1 Co1 O8'
_cell_volume   201.76942118
_cell_formula_units_Z   1
loop_
 _symmetry_equiv_pos_site_id
 _symmetry_equiv_pos_as_xyz
  1  'x, y, z'
loop_
 _atom_site_type_symbol
 _atom_site_label
 _atom_site_symmetry_multiplicity
 _atom_site_fract_x
 _atom_site_fract_y
 _atom_site_fract_z
 _atom_site_occupancy
  Sr  Sr0  1  0.35109732  -0.00000000  0.29780536  1
  Sr  Sr1  1  0.85503400  0.50000000  0.28993200  1
  Sr  Sr2  1  0.14496600  0.50000000  0.71006800  1
  Sr  Sr3  1  0.64890268  -0.00000000  0.70219464  1
  Nb  Nb4  1  0.50000000  0.50000000  0.00000000  1
  Co  Co5  1  -0.00000000  -0.00000000  0.00000000  1
  O  O6  1  0.16285942  0.00000000  0.67428116  1
  O  O7  1  0.66008847  0.50000000  0.67982306  1
  O  O8  1  0.33991153  0.50000000  0.32017694  1
  O  O9  1  0.83714058  -0.00000000  0.32571884  1
  O  O10  1  0.25013301  0.24924190  0.00000000  1
  O  O11  1  0.74986699  0.75075810  0.00000000  1
  O  O12  1  0.74986699  0.24924190  0.00000000  1
  O  O13  1  0.25013301  0.75075810  0.00000000  1
