# generated using pymatgen
data_Sr5Ti4FeO15
_symmetry_space_group_name_H-M   'P 1'
_cell_length_a   5.55575530
_cell_length_b   6.82128941
_cell_length_c   8.84233614
_cell_angle_alpha   105.36570424
_cell_angle_beta   108.30990194
_cell_angle_gamma   90.00000000
_symmetry_Int_Tables_number   1
_chemical_formula_structural   Sr5Ti4FeO15
_chemical_formula_sum   'Sr5 Ti4 Fe1 O15'
_cell_volume   305.49289012
_cell_formula_units_Z   1
loop_
 _symmetry_equiv_pos_site_id
 _symmetry_equiv_pos_as_xyz
  1  'x, y, z'
loop_
 _atom_site_type_symbol
 _atom_site_label
 _atom_site_symmetry_multiplicity
 _atom_site_fract_x
 _atom_site_fract_y
 _atom_site_fract_z
 _atom_site_occupancy
  Sr  Sr0  1  0.40000000  0.60000000  0.80000000  1
  Sr  Sr1  1  0.20085375  0.80089724  0.40170749  1
  Sr  Sr2  1  0.80098703  0.19878695  0.60197405  1
  Sr  Sr3  1  0.99901297  0.00121305  0.99802595  1
  Sr  Sr4  1  0.59914625  0.39910276  0.19829251  1
  Ti  Ti5  1  0.00132449  0.50093215  0.00264897  1
  Ti  Ti6  1  0.59830774  0.90345172  0.19661548  1
  Ti  Ti7  1  0.20169226  0.29654828  0.40338452  1
  Ti  Ti8  1  0.79867551  0.69906785  0.59735103  1
  Fe  Fe9  1  0.40000000  0.10000000  0.80000000  1
  O  O10  1  0.50146402  0.50301427  0.50091463  1
  O  O11  1  0.29853598  0.69698573  0.09908537  1
  O  O12  1  0.90000000  0.10000000  0.30000000  1
  O  O13  1  0.10264356  0.90236763  0.70107335  1
  O  O14  1  0.69735644  0.29763237  0.89892665  1
  O  O15  1  0.90000000  0.60000000  0.80000000  1
  O  O16  1  0.70052590  0.80057165  0.40105180  1
  O  O17  1  0.29716095  0.20394673  0.59432189  1
  O  O18  1  0.50283905  -0.00394673  0.00567811  1
  O  O19  1  0.09947410  0.39942835  0.19894820  1
  O  O20  1  0.59842979  0.90236763  0.70107335  1
  O  O21  1  0.40000000  0.10000000  0.30000000  1
  O  O22  1  0.99945061  0.50301427  0.50091463  1
  O  O23  1  0.20157021  0.29763237  0.89892665  1
  O  O24  1  0.80054939  0.69698573  0.09908537  1
