# generated using pymatgen
data_SrAlIn
_symmetry_space_group_name_H-M   'P 1'
_cell_length_a   4.96772573
_cell_length_b   6.35039625
_cell_length_c   6.25934596
_cell_angle_alpha   97.03137386
_cell_angle_beta   113.37982240
_cell_angle_gamma   66.97485301
_symmetry_Int_Tables_number   1
_chemical_formula_structural   SrAlIn
_chemical_formula_sum   'Sr2 Al2 In2'
_cell_volume   166.68543678
_cell_formula_units_Z   2
loop_
 _symmetry_equiv_pos_site_id
 _symmetry_equiv_pos_as_xyz
  1  'x, y, z'
loop_
 _atom_site_type_symbol
 _atom_site_label
 _atom_site_symmetry_multiplicity
 _atom_site_fract_x
 _atom_site_fract_y
 _atom_site_fract_z
 _atom_site_occupancy
  Sr  Sr0  1  0.75074158  0.70327074  0.20475391  1
  Sr  Sr1  1  0.24925842  0.29672926  0.79524609  1
  Al  Al2  1  0.05961282  0.09276205  0.21198769  1
  Al  Al3  1  0.94038718  0.90723795  0.78801231  1
  In  In4  1  0.56806140  0.26291308  0.39903589  1
  In  In5  1  0.43193860  0.73708692  0.60096411  1
