# generated using pymatgen
data_Sr15Pd5O24
_symmetry_space_group_name_H-M   'P 1'
_cell_length_a   9.78863746
_cell_length_b   9.78863746
_cell_length_c   9.78863745
_cell_angle_alpha   119.78047931
_cell_angle_beta   119.78047931
_cell_angle_gamma   60.21952088
_symmetry_Int_Tables_number   1
_chemical_formula_structural   Sr15Pd5O24
_chemical_formula_sum   'Sr15 Pd5 O24'
_cell_volume   666.50727858
_cell_formula_units_Z   1
loop_
 _symmetry_equiv_pos_site_id
 _symmetry_equiv_pos_as_xyz
  1  'x, y, z'
loop_
 _atom_site_type_symbol
 _atom_site_label
 _atom_site_symmetry_multiplicity
 _atom_site_fract_x
 _atom_site_fract_y
 _atom_site_fract_z
 _atom_site_occupancy
  Sr  Sr0  1  0.99145335  0.25854665  0.37500000  1
  Sr  Sr1  1  0.48401642  0.76598358  0.87500000  1
  Sr  Sr2  1  0.62500000  0.99145335  0.74145335  1
  Sr  Sr3  1  0.12500000  0.48401642  0.23401642  1
  Sr  Sr4  1  0.25854665  0.62500000  0.00854665  1
  Sr  Sr5  1  0.76598358  0.12500000  0.51598358  1
  Sr  Sr6  1  0.87581920  0.50275104  0.76044647  1
  Sr  Sr7  1  0.37418080  0.01044647  0.25275104  1
  Sr  Sr8  1  0.23955353  0.87581920  0.49724896  1
  Sr  Sr9  1  0.74724896  0.37418080  0.98955353  1
  Sr  Sr10  1  0.50275104  0.23955353  0.12418080  1
  Sr  Sr11  1  0.01044647  0.74724896  0.62581920  1
  Sr  Sr12  1  0.62500000  0.62500000  0.37500000  1
  Sr  Sr13  1  0.37488927  0.37488927  0.62511073  1
  Sr  Sr14  1  0.87511073  0.87511073  0.12488927  1
  Pd  Pd15  1  0.24966418  0.24966418  0.75033582  1
  Pd  Pd16  1  0.74998645  0.74998645  0.25001355  1
  Pd  Pd17  1  0.00033582  0.00033582  0.99966418  1
  Pd  Pd18  1  0.50001355  0.50001355  0.49998645  1
  Pd  Pd19  1  0.12500000  0.12500000  0.87500000  1
  O  O20  1  0.37541616  0.04623414  0.82980819  1
  O  O21  1  0.88678724  0.53858992  0.32605228  1
  O  O22  1  0.17019181  0.37541616  0.95376586  1
  O  O23  1  0.67394772  0.88678724  0.46141008  1
  O  O24  1  0.04623414  0.17019181  0.62458384  1
  O  O25  1  0.53858992  0.67394772  0.11321276  1
  O  O26  1  0.92304871  0.79139235  0.86400538  1
  O  O27  1  0.42324174  0.29154338  0.36581778  1
  O  O28  1  0.13599462  0.92304871  0.20860765  1
  O  O29  1  0.63418222  0.42324174  0.70845662  1
  O  O30  1  0.79139235  0.13599462  0.07695129  1
  O  O31  1  0.29154338  0.63418222  0.57675826  1
  O  O32  1  0.11400538  0.45860765  0.67304871  1
  O  O33  1  0.61581778  0.95845662  0.17324174  1
  O  O34  1  0.32695129  0.11400538  0.54139235  1
  O  O35  1  0.82675826  0.61581778  0.04154338  1
  O  O36  1  0.45860765  0.32695129  0.88599462  1
  O  O37  1  0.95845662  0.82675826  0.38418222  1
  O  O38  1  0.57605228  0.71141008  0.63678724  1
  O  O39  1  0.07980819  0.20376586  0.12541616  1
  O  O40  1  0.36321276  0.57605228  0.28858992  1
  O  O41  1  0.87458384  0.07980819  0.79623414  1
  O  O42  1  0.71141008  0.36321276  0.42394772  1
  O  O43  1  0.20376586  0.87458384  0.92019181  1
