# generated using pymatgen
data_Sr2LaGa11O20
_symmetry_space_group_name_H-M   'P 1'
_cell_length_a   5.16567322
_cell_length_b   9.75744437
_cell_length_c   9.75744437
_cell_angle_alpha   74.50717969
_cell_angle_beta   75.42414636
_cell_angle_gamma   75.42414636
_symmetry_Int_Tables_number   1
_chemical_formula_structural   Sr2LaGa11O20
_chemical_formula_sum   'Sr2 La1 Ga11 O20'
_cell_volume   449.62916539
_cell_formula_units_Z   1
loop_
 _symmetry_equiv_pos_site_id
 _symmetry_equiv_pos_as_xyz
  1  'x, y, z'
loop_
 _atom_site_type_symbol
 _atom_site_label
 _atom_site_symmetry_multiplicity
 _atom_site_fract_x
 _atom_site_fract_y
 _atom_site_fract_z
 _atom_site_occupancy
  Sr  Sr0  1  0.99881507  0.99502742  0.99502742  1
  Sr  Sr1  1  0.28914182  0.71952553  0.71952553  1
  La  La2  1  0.69890898  0.28357367  0.28357367  1
  Ga  Ga3  1  0.49957872  0.36812212  0.63295527  1
  Ga  Ga4  1  0.49957872  0.63295527  0.36812212  1
  Ga  Ga5  1  0.35090379  0.00749810  0.27943564  1
  Ga  Ga6  1  0.65216377  0.72111177  0.99278565  1
  Ga  Ga7  1  0.65216377  0.99278565  0.72111177  1
  Ga  Ga8  1  0.35090379  0.27943564  0.00749810  1
  Ga  Ga9  1  0.16148415  0.14613466  0.57874391  1
  Ga  Ga10  1  0.83920826  0.42413362  0.85408089  1
  Ga  Ga11  1  0.83920826  0.85408089  0.42413362  1
  Ga  Ga12  1  0.16148415  0.57874391  0.14613466  1
  Ga  Ga13  1  0.99678491  0.49864056  0.49864056  1
  O  O14  1  0.98263742  0.29052479  0.01195941  1
  O  O15  1  0.01392159  0.99590911  0.71665242  1
  O  O16  1  0.01392159  0.71665242  0.99590911  1
  O  O17  1  0.98263742  0.01195941  0.29052479  1
  O  O18  1  0.11164592  0.45563721  0.69289333  1
  O  O19  1  0.88372781  0.30107101  0.53366633  1
  O  O20  1  0.88372781  0.53366633  0.30107101  1
  O  O21  1  0.11164592  0.69289333  0.45563721  1
  O  O22  1  0.60780331  0.56443037  0.56443037  1
  O  O23  1  0.38967847  0.42778282  0.42778282  1
  O  O24  1  0.36784421  0.12872153  0.39431688  1
  O  O25  1  0.63982577  0.60312531  0.87668837  1
  O  O26  1  0.63982577  0.87668837  0.60312531  1
  O  O27  1  0.36784421  0.39431688  0.12872153  1
  O  O28  1  0.50977619  0.09623616  0.09623616  1
  O  O29  1  0.49863727  0.90776702  0.90776702  1
  O  O30  1  0.58345371  0.82992207  0.32835384  1
  O  O31  1  0.41883187  0.67112896  0.17144423  1
  O  O32  1  0.41883187  0.17144423  0.67112896  1
  O  O33  1  0.58345371  0.32835384  0.82992207  1
