# generated using pymatgen
data_Sr2CoSbO6
_symmetry_space_group_name_H-M   'P 1'
_cell_length_a   5.63858772
_cell_length_b   5.75558341
_cell_length_c   5.63858772
_cell_angle_alpha   58.87656459
_cell_angle_beta   60.89698102
_cell_angle_gamma   58.87656459
_symmetry_Int_Tables_number   1
_chemical_formula_structural   Sr2CoSbO6
_chemical_formula_sum   'Sr2 Co1 Sb1 O6'
_cell_volume   127.96139616
_cell_formula_units_Z   1
loop_
 _symmetry_equiv_pos_site_id
 _symmetry_equiv_pos_as_xyz
  1  'x, y, z'
loop_
 _atom_site_type_symbol
 _atom_site_label
 _atom_site_symmetry_multiplicity
 _atom_site_fract_x
 _atom_site_fract_y
 _atom_site_fract_z
 _atom_site_occupancy
  Sr  Sr0  1  0.74960682  0.24798147  0.74960682  1
  Sr  Sr1  1  0.25039318  0.75201853  0.25039318  1
  Co  Co2  1  0.50000000  0.00000000  0.50000000  1
  Sb  Sb3  1  -0.00000000  0.50000000  0.00000000  1
  O  O4  1  0.21717501  0.77150324  0.72616230  1
  O  O5  1  0.72616230  0.77150324  0.21717501  1
  O  O6  1  0.78282499  0.22849676  0.27383770  1
  O  O7  1  0.27383770  0.22849676  0.78282499  1
  O  O8  1  0.25811127  0.29348673  0.25811127  1
  O  O9  1  0.74188873  0.70651327  0.74188873  1
