# generated using pymatgen
data_Sr3LaMn2(WO6)2
_symmetry_space_group_name_H-M   'P 1'
_cell_length_a   5.77732108
_cell_length_b   5.75328358
_cell_length_c   8.16739550
_cell_angle_alpha   89.94511197
_cell_angle_beta   90.03699637
_cell_angle_gamma   89.52644942
_symmetry_Int_Tables_number   1
_chemical_formula_structural   Sr3LaMn2(WO6)2
_chemical_formula_sum   'Sr3 La1 Mn2 W2 O12'
_cell_volume   271.46306372
_cell_formula_units_Z   1
loop_
 _symmetry_equiv_pos_site_id
 _symmetry_equiv_pos_as_xyz
  1  'x, y, z'
loop_
 _atom_site_type_symbol
 _atom_site_label
 _atom_site_symmetry_multiplicity
 _atom_site_fract_x
 _atom_site_fract_y
 _atom_site_fract_z
 _atom_site_occupancy
  Sr  Sr0  1  0.03395085  0.98725466  0.24858607  1
  Sr  Sr1  1  0.52451211  0.50222228  0.24733226  1
  Sr  Sr2  1  0.96713885  0.00794004  0.75194859  1
  La  La3  1  0.46542066  0.49828386  0.75832159  1
  Mn  Mn4  1  0.49975832  0.00040748  0.49770903  1
  Mn  Mn5  1  0.99719906  0.49909744  0.00207698  1
  W  W6  1  0.50019416  0.99799708  0.00036270  1
  W  W7  1  0.99954327  0.50165054  0.50005913  1
  O  O8  1  0.20981032  0.23950394  0.54554822  1
  O  O9  1  0.29190769  0.72101148  0.03431694  1
  O  O10  1  0.79751362  0.76747086  0.46273811  1
  O  O11  1  0.70258543  0.28370405  0.95016960  1
  O  O12  1  0.26804808  0.69717782  0.46277514  1
  O  O13  1  0.23646862  0.20853463  0.94997611  1
  O  O14  1  0.72892434  0.30808420  0.54916298  1
  O  O15  1  0.77462698  0.80299084  0.03779118  1
  O  O16  1  0.48125352  0.07514015  0.24149964  1
  O  O17  1  0.02364840  0.57585523  0.73518574  1
  O  O18  1  0.51471035  0.90537774  0.75515550  1
  O  O19  1  0.98278539  0.42029569  0.26928450  1
