# generated using pymatgen
data_Sr2Y4Fe2Cu2O13
_symmetry_space_group_name_H-M   'P 1'
_cell_length_a   5.45666206
_cell_length_b   10.79944687
_cell_length_c   11.96525626
_cell_angle_alpha   62.62878877
_cell_angle_beta   76.81940575
_cell_angle_gamma   90.00000000
_symmetry_Int_Tables_number   1
_chemical_formula_structural   Sr2Y4Fe2Cu2O13
_chemical_formula_sum   'Sr4 Y8 Fe4 Cu4 O26'
_cell_volume   605.16827158
_cell_formula_units_Z   2
loop_
 _symmetry_equiv_pos_site_id
 _symmetry_equiv_pos_as_xyz
  1  'x, y, z'
loop_
 _atom_site_type_symbol
 _atom_site_label
 _atom_site_symmetry_multiplicity
 _atom_site_fract_x
 _atom_site_fract_y
 _atom_site_fract_z
 _atom_site_occupancy
  Sr  Sr0  1  0.29313944  0.86626280  0.99974794  1
  Sr  Sr1  1  0.70686056  0.13373720  0.00025206  1
  Sr  Sr2  1  0.20711262  0.36626280  0.99974794  1
  Sr  Sr3  1  0.79288738  0.63373720  0.00025206  1
  Y  Y4  1  0.11023049  0.67770754  0.36823244  1
  Y  Y5  1  0.52543417  0.95520952  0.36879656  1
  Y  Y6  1  0.39423074  0.54479048  0.63120344  1
  Y  Y7  1  0.97846293  0.82229246  0.63176756  1
  Y  Y8  1  0.88976951  0.32229246  0.63176756  1
  Y  Y9  1  0.47456583  0.04479048  0.63120344  1
  Y  Y10  1  0.60576926  0.45520952  0.36879656  1
  Y  Y11  1  0.02153707  0.17770754  0.36823244  1
  Fe  Fe12  1  0.12121207  0.02168790  0.18860838  1
  Fe  Fe13  1  0.80982045  0.47831210  0.81139162  1
  Fe  Fe14  1  0.87878793  0.97831210  0.81139162  1
  Fe  Fe15  1  0.19017955  0.52168790  0.18860838  1
  Cu  Cu16  1  0.68062872  0.78065846  0.20529722  1
  Cu  Cu17  1  0.38592594  0.71934154  0.79470278  1
  Cu  Cu18  1  0.31937128  0.21934154  0.79470278  1
  Cu  Cu19  1  0.61407406  0.28065846  0.20529722  1
  O  O20  1  0.93732113  0.64217105  0.21822547  1
  O  O21  1  0.85104556  0.13878228  0.21456340  1
  O  O22  1  0.56560896  0.36121772  0.78543660  1
  O  O23  1  0.65554660  0.85782895  0.78177453  1
  O  O24  1  0.06267887  0.35782895  0.78177453  1
  O  O25  1  0.14895444  0.86121772  0.78543660  1
  O  O26  1  0.43439104  0.63878228  0.21456340  1
  O  O27  1  0.34445340  0.14217105  0.21822547  1
  O  O28  1  0.39278842  0.89465222  0.21112444  1
  O  O29  1  0.10391286  0.60534778  0.78887556  1
  O  O30  1  0.60721158  0.10534778  0.78887556  1
  O  O31  1  0.89608714  0.39465222  0.21112444  1
  O  O32  1  0.75010610  0.52753700  0.50027812  1
  O  O33  1  0.75038422  0.97246300  0.49972188  1
  O  O34  1  0.24989390  0.47246300  0.49972188  1
  O  O35  1  0.24961578  0.02753700  0.50027812  1
  O  O36  1  0.24993810  0.75000000  0.50000000  1
  O  O37  1  0.75006190  0.25000000  0.50000000  1
  O  O38  1  0.13914730  0.14224492  0.70891360  1
  O  O39  1  0.34806090  0.35775508  0.29108640  1
  O  O40  1  0.86085270  0.85775508  0.29108640  1
  O  O41  1  0.65193910  0.64224492  0.70891360  1
  O  O42  1  0.30211859  0.60536433  0.00752810  1
  O  O43  1  0.69788141  0.39463567  0.99247190  1
  O  O44  1  0.19035331  0.10536433  0.00752810  1
  O  O45  1  0.80964669  0.89463567  0.99247190  1
