# generated using pymatgen
data_Sr2FeO3F
_symmetry_space_group_name_H-M   'P 1'
_cell_length_a   3.94145157
_cell_length_b   3.94145157
_cell_length_c   7.08659857
_cell_angle_alpha   73.85364261
_cell_angle_beta   73.85364261
_cell_angle_gamma   90.00000000
_symmetry_Int_Tables_number   1
_chemical_formula_structural   Sr2FeO3F
_chemical_formula_sum   'Sr2 Fe1 O3 F1'
_cell_volume   101.21929384
_cell_formula_units_Z   1
loop_
 _symmetry_equiv_pos_site_id
 _symmetry_equiv_pos_as_xyz
  1  'x, y, z'
loop_
 _atom_site_type_symbol
 _atom_site_label
 _atom_site_symmetry_multiplicity
 _atom_site_fract_x
 _atom_site_fract_y
 _atom_site_fract_z
 _atom_site_occupancy
  Sr  Sr0  1  0.36530148  0.36530148  0.26939705  1
  Sr  Sr1  1  0.63661254  0.63661254  0.72677492  1
  Fe  Fe2  1  0.01848016  0.01848016  0.96303968  1
  O  O3  1  0.99421482  0.49421482  0.01157036  1
  O  O4  1  0.49421482  0.99421482  0.01157036  1
  O  O5  1  0.16861240  0.16861240  0.66277519  1
  F  F6  1  0.82256379  0.82256379  0.35487242  1
