# generated using pymatgen
data_Sm2ScTaO7
_symmetry_space_group_name_H-M   'P 1'
_cell_length_a   7.46889724
_cell_length_b   7.46889724
_cell_length_c   7.46889724
_cell_angle_alpha   89.92832630
_cell_angle_beta   59.49721110
_cell_angle_gamma   119.41742948
_symmetry_Int_Tables_number   1
_chemical_formula_structural   Sm2ScTaO7
_chemical_formula_sum   'Sm4 Sc2 Ta2 O14'
_cell_volume   294.75910988
_cell_formula_units_Z   2
loop_
 _symmetry_equiv_pos_site_id
 _symmetry_equiv_pos_as_xyz
  1  'x, y, z'
loop_
 _atom_site_type_symbol
 _atom_site_label
 _atom_site_symmetry_multiplicity
 _atom_site_fract_x
 _atom_site_fract_y
 _atom_site_fract_z
 _atom_site_occupancy
  Sm  Sm0  1  0.75000000  0.37500000  0.87500000  1
  Sm  Sm1  1  0.25000000  0.37500000  0.37500000  1
  Sm  Sm2  1  0.25000000  0.87500000  0.37500000  1
  Sm  Sm3  1  0.75000000  0.37500000  0.37500000  1
  Sc  Sc4  1  0.75000000  0.87500000  0.37500000  1
  Sc  Sc5  1  0.25000000  0.87500000  0.87500000  1
  Ta  Ta6  1  0.25000000  0.37500000  0.87500000  1
  Ta  Ta7  1  0.75000000  0.87500000  0.87500000  1
  O  O8  1  0.50000000  0.25326658  0.24673342  1
  O  O9  1  0.00000000  0.49673342  0.50326658  1
  O  O10  1  0.91574770  0.96756015  0.55127218  1
  O  O11  1  0.48116767  0.53298012  0.55127218  1
  O  O12  1  0.50000000  0.97226474  0.52773526  1
  O  O13  1  0.08425230  0.53298012  0.94818755  1
  O  O14  1  0.51883233  0.96756015  0.94818755  1
  O  O15  1  0.50000000  0.55848919  0.94151081  1
  O  O16  1  0.58425230  0.78243985  0.19872782  1
  O  O17  1  0.01883233  0.21701988  0.19872782  1
  O  O18  1  0.00000000  0.77773526  0.22226474  1
  O  O19  1  0.41574770  0.21701988  0.80181245  1
  O  O20  1  0.98116767  0.78243985  0.80181245  1
  O  O21  1  0.00000000  0.19151081  0.80848919  1
