# generated using pymatgen
data_Sm2Co18Si4C3
_symmetry_space_group_name_H-M   'P 1'
_cell_length_a   6.39662910
_cell_length_b   7.67144037
_cell_length_c   7.69344445
_cell_angle_alpha   99.97024224
_cell_angle_beta   114.78121820
_cell_angle_gamma   65.57718762
_symmetry_Int_Tables_number   1
_chemical_formula_structural   Sm2Co18Si4C3
_chemical_formula_sum   'Sm2 Co18 Si4 C3'
_cell_volume   312.09234671
_cell_formula_units_Z   1
loop_
 _symmetry_equiv_pos_site_id
 _symmetry_equiv_pos_as_xyz
  1  'x, y, z'
loop_
 _atom_site_type_symbol
 _atom_site_label
 _atom_site_symmetry_multiplicity
 _atom_site_fract_x
 _atom_site_fract_y
 _atom_site_fract_z
 _atom_site_occupancy
  Sm  Sm0  1  0.62194269  0.25476614  0.75476614  1
  Sm  Sm1  1  0.37805731  0.74523386  0.24523386  1
  Co  Co2  1  0.17770335  0.17290051  0.42018489  1
  Co  Co3  1  0.43041896  0.92018489  0.67290051  1
  Co  Co4  1  0.85291732  0.82454942  0.92225193  1
  Co  Co5  1  0.25521481  0.42225193  0.32454942  1
  Co  Co6  1  0.19105447  0.57558742  0.83372713  1
  Co  Co7  1  0.43291475  0.33372713  0.07558742  1
  Co  Co8  1  0.84569559  0.08493877  0.16893622  1
  Co  Co9  1  0.26169814  0.66893622  0.58493877  1
  Co  Co10  1  0.82229665  0.82709949  0.57981511  1
  Co  Co11  1  0.56958104  0.07981511  0.32709949  1
  Co  Co12  1  0.14708268  0.17545058  0.07774807  1
  Co  Co13  1  0.74478519  0.57774807  0.67545058  1
  Co  Co14  1  0.80894553  0.42441258  0.16627287  1
  Co  Co15  1  0.56708525  0.66627287  0.92441258  1
  Co  Co16  1  0.15430441  0.91506123  0.83106378  1
  Co  Co17  1  0.73830186  0.33106378  0.41506123  1
  Co  Co18  1  0.13253841  0.25179961  0.75179961  1
  Co  Co19  1  0.86746159  0.74820039  0.24820039  1
  Si  Si20  1  -0.00000000  0.50000000  -0.00000000  1
  Si  Si21  1  -0.00000000  0.50000000  0.50000000  1
  Si  Si22  1  0.50000000  0.00000000  -0.00000000  1
  Si  Si23  1  -0.00000000  0.00000000  0.50000000  1
  C  C24  1  0.50000000  0.50000000  0.50000000  1
  C  C25  1  -0.00000000  0.00000000  -0.00000000  1
  C  C26  1  0.50000000  0.00000000  0.50000000  1
