# generated using pymatgen
data_Sb8Pd3Au
_symmetry_space_group_name_H-M   'P 1'
_cell_length_a   6.62177609
_cell_length_b   6.62177609
_cell_length_c   6.62177609
_cell_angle_alpha   90.29844637
_cell_angle_beta   90.29844637
_cell_angle_gamma   89.70155363
_symmetry_Int_Tables_number   1
_chemical_formula_structural   Sb8Pd3Au
_chemical_formula_sum   'Sb8 Pd3 Au1'
_cell_volume   290.33932291
_cell_formula_units_Z   1
loop_
 _symmetry_equiv_pos_site_id
 _symmetry_equiv_pos_as_xyz
  1  'x, y, z'
loop_
 _atom_site_type_symbol
 _atom_site_label
 _atom_site_symmetry_multiplicity
 _atom_site_fract_x
 _atom_site_fract_y
 _atom_site_fract_z
 _atom_site_occupancy
  Sb  Sb0  1  0.87444575  0.37444575  0.12555425  1
  Sb  Sb1  1  0.37031042  0.12898276  0.88310568  1
  Sb  Sb2  1  0.11689432  0.87031042  0.37101724  1
  Sb  Sb3  1  0.62898276  0.61689432  0.62968958  1
  Sb  Sb4  1  0.12555425  0.62555425  0.87444575  1
  Sb  Sb5  1  0.62968958  0.87101724  0.11689432  1
  Sb  Sb6  1  0.88310568  0.12968958  0.62898276  1
  Sb  Sb7  1  0.37101724  0.38310568  0.37031042  1
  Pd  Pd8  1  0.00000000  0.50000000  0.50000000  1
  Pd  Pd9  1  0.50000000  0.50000000  0.00000000  1
  Pd  Pd10  1  0.00000000  0.00000000  0.00000000  1
  Au  Au11  1  0.50000000  0.00000000  0.50000000  1
