# generated using pymatgen
data_Sm2InCuS5
_symmetry_space_group_name_H-M   'P 1'
_cell_length_a   3.86879910
_cell_length_b   11.50853205
_cell_length_c   16.62014209
_cell_angle_alpha   90.00000000
_cell_angle_beta   90.00000000
_cell_angle_gamma   90.00000000
_symmetry_Int_Tables_number   1
_chemical_formula_structural   Sm2InCuS5
_chemical_formula_sum   'Sm8 In4 Cu4 S20'
_cell_volume   739.99850447
_cell_formula_units_Z   4
loop_
 _symmetry_equiv_pos_site_id
 _symmetry_equiv_pos_as_xyz
  1  'x, y, z'
loop_
 _atom_site_type_symbol
 _atom_site_label
 _atom_site_symmetry_multiplicity
 _atom_site_fract_x
 _atom_site_fract_y
 _atom_site_fract_z
 _atom_site_occupancy
  Sm  Sm0  1  0.75000000  0.36561018  0.09585249  1
  Sm  Sm1  1  0.75000000  0.86561018  0.40414751  1
  Sm  Sm2  1  0.25000000  0.63438982  0.90414751  1
  Sm  Sm3  1  0.25000000  0.13438982  0.59585249  1
  Sm  Sm4  1  0.75000000  0.02585448  0.17993028  1
  Sm  Sm5  1  0.75000000  0.52585448  0.32006972  1
  Sm  Sm6  1  0.25000000  0.97414552  0.82006972  1
  Sm  Sm7  1  0.25000000  0.47414552  0.67993028  1
  In  In8  1  0.75000000  0.30542977  0.86148864  1
  In  In9  1  0.75000000  0.80542977  0.63851136  1
  In  In10  1  0.25000000  0.69457023  0.13851136  1
  In  In11  1  0.25000000  0.19457023  0.36148864  1
  Cu  Cu12  1  0.75000000  0.91791759  0.00411285  1
  Cu  Cu13  1  0.75000000  0.41791759  0.49588715  1
  Cu  Cu14  1  0.25000000  0.08208241  0.99588715  1
  Cu  Cu15  1  0.25000000  0.58208241  0.50411285  1
  S  S16  1  0.75000000  0.75874369  0.23172489  1
  S  S17  1  0.75000000  0.25874369  0.26827511  1
  S  S18  1  0.25000000  0.24125631  0.76827511  1
  S  S19  1  0.25000000  0.74125631  0.73172489  1
  S  S20  1  0.75000000  0.60888101  0.03539248  1
  S  S21  1  0.75000000  0.10888101  0.46460752  1
  S  S22  1  0.25000000  0.39111899  0.96460752  1
  S  S23  1  0.25000000  0.89111899  0.53539248  1
  S  S24  1  0.75000000  0.81574705  0.88751149  1
  S  S25  1  0.75000000  0.31574705  0.61248851  1
  S  S26  1  0.25000000  0.18425295  0.11248851  1
  S  S27  1  0.25000000  0.68425295  0.38751149  1
  S  S28  1  0.75000000  0.09599739  0.91959206  1
  S  S29  1  0.75000000  0.59599739  0.58040794  1
  S  S30  1  0.25000000  0.90400261  0.08040794  1
  S  S31  1  0.25000000  0.40400261  0.41959206  1
  S  S32  1  0.75000000  0.01391132  0.69498933  1
  S  S33  1  0.75000000  0.51391132  0.80501067  1
  S  S34  1  0.25000000  0.98608868  0.30501067  1
  S  S35  1  0.25000000  0.48608868  0.19498933  1
