# generated using pymatgen
data_Sn2Sb4Pt3
_symmetry_space_group_name_H-M   'P 1'
_cell_length_a   3.94610281
_cell_length_b   8.56340177
_cell_length_c   13.03201752
_cell_angle_alpha   98.55492646
_cell_angle_beta   90.00000000
_cell_angle_gamma   90.00000000
_symmetry_Int_Tables_number   1
_chemical_formula_structural   Sn2Sb4Pt3
_chemical_formula_sum   'Sn4 Sb8 Pt6'
_cell_volume   435.47898660
_cell_formula_units_Z   2
loop_
 _symmetry_equiv_pos_site_id
 _symmetry_equiv_pos_as_xyz
  1  'x, y, z'
loop_
 _atom_site_type_symbol
 _atom_site_label
 _atom_site_symmetry_multiplicity
 _atom_site_fract_x
 _atom_site_fract_y
 _atom_site_fract_z
 _atom_site_occupancy
  Sn  Sn0  1  0.50000000  0.32590090  0.80864272  1
  Sn  Sn1  1  0.50000000  0.99239726  0.14290307  1
  Sn  Sn2  1  0.50000000  0.66062649  0.47842323  1
  Sn  Sn3  1  0.50000000  0.67519601  0.19070759  1
  Sb  Sb4  1  0.50000000  0.34216173  0.52347551  1
  Sb  Sb5  1  0.50000000  0.00788898  0.85727994  1
  Sb  Sb6  1  0.00000000  0.31419044  0.05441830  1
  Sb  Sb7  1  0.00000000  0.97845975  0.38609795  1
  Sb  Sb8  1  0.00000000  0.64657341  0.72094637  1
  Sb  Sb9  1  0.00000000  0.68605188  0.94654183  1
  Sb  Sb10  1  0.00000000  0.35336974  0.27867407  1
  Sb  Sb11  1  0.00000000  0.01821629  0.61220998  1
  Pt  Pt12  1  0.50000000  0.83341222  0.66873285  1
  Pt  Pt13  1  0.50000000  0.49918848  0.99965288  1
  Pt  Pt14  1  0.50000000  0.16758922  0.33443104  1
  Pt  Pt15  1  0.00000000  0.33202410  0.66469130  1
  Pt  Pt16  1  0.00000000  0.00103676  0.99805184  1
  Pt  Pt17  1  0.00000000  0.66571635  0.33411953  1
