# generated using pymatgen
data_Sm4CrFe33C4
_symmetry_space_group_name_H-M   'P 1'
_cell_length_a   6.50403692
_cell_length_b   6.48021201
_cell_length_c   13.00634791
_cell_angle_alpha   83.55662993
_cell_angle_beta   83.54938135
_cell_angle_gamma   83.68356554
_symmetry_Int_Tables_number   1
_chemical_formula_structural   Sm4CrFe33C4
_chemical_formula_sum   'Sm4 Cr1 Fe33 C4'
_cell_volume   538.63365839
_cell_formula_units_Z   1
loop_
 _symmetry_equiv_pos_site_id
 _symmetry_equiv_pos_as_xyz
  1  'x, y, z'
loop_
 _atom_site_type_symbol
 _atom_site_label
 _atom_site_symmetry_multiplicity
 _atom_site_fract_x
 _atom_site_fract_y
 _atom_site_fract_z
 _atom_site_occupancy
  Sm  Sm0  1  0.66497116  0.65012067  0.32532131  1
  Sm  Sm1  1  0.66709779  0.65114592  0.82553311  1
  Sm  Sm2  1  0.33305521  0.34924789  0.17490030  1
  Sm  Sm3  1  0.34059976  0.35571124  0.67715909  1
  Cr  Cr4  1  0.09260008  0.09324461  0.54702234  1
  Fe  Fe5  1  0.85399965  0.34156717  0.17074176  1
  Fe  Fe6  1  0.85508430  0.34366225  0.67128846  1
  Fe  Fe7  1  0.33952706  0.34314764  0.42742778  1
  Fe  Fe8  1  0.34152868  0.34412924  0.92748310  1
  Fe  Fe9  1  0.34084013  0.85444013  0.17147136  1
  Fe  Fe10  1  0.34026338  0.85458026  0.67215034  1
  Fe  Fe11  1  0.14338054  0.65605672  0.32971933  1
  Fe  Fe12  1  0.14611789  0.65842408  0.82809280  1
  Fe  Fe13  1  0.65898326  0.65684242  0.07257169  1
  Fe  Fe14  1  0.66192775  0.65686119  0.57200745  1
  Fe  Fe15  1  0.65985625  0.14440504  0.32889803  1
  Fe  Fe16  1  0.66105893  0.14561838  0.82793602  1
  Fe  Fe17  1  0.28511827  0.71223548  0.49878429  1
  Fe  Fe18  1  0.28528178  0.71507568  0.99912558  1
  Fe  Fe19  1  0.71319981  0.00157952  0.14279590  1
  Fe  Fe20  1  0.71207247  0.00063459  0.64179249  1
  Fe  Fe21  1  0.00014223  0.28218695  0.35865167  1
  Fe  Fe22  1  0.00036670  0.28431462  0.85798584  1
  Fe  Fe23  1  0.28477957  0.99637167  0.35641220  1
  Fe  Fe24  1  0.28548072  0.99904292  0.85690570  1
  Fe  Fe25  1  -0.00020518  0.71723435  0.14138647  1
  Fe  Fe26  1  0.00199799  0.71545549  0.64120375  1
  Fe  Fe27  1  0.71446761  0.28443190  0.00073123  1
  Fe  Fe28  1  0.71117822  0.28401556  0.50079907  1
  Fe  Fe29  1  0.99893968  0.99929919  0.25023986  1
  Fe  Fe30  1  0.00051339  0.00107244  0.74890503  1
  Fe  Fe31  1  -0.00007710  0.49804790  0.50063168  1
  Fe  Fe32  1  0.00035494  0.50004042  0.99957237  1
  Fe  Fe33  1  0.49972346  0.00001855  0.99961587  1
  Fe  Fe34  1  0.49709118  -0.00016371  0.50038226  1
  Fe  Fe35  1  0.90846765  0.90927071  0.45298938  1
  Fe  Fe36  1  0.90399915  0.90389627  0.95267733  1
  Fe  Fe37  1  0.09594930  0.09516651  0.04795834  1
  C  C38  1  0.50014459  0.50025896  0.00023475  1
  C  C39  1  0.50006393  0.50037787  0.50006154  1
  C  C40  1  0.50003586  0.00041946  0.25041341  1
  C  C41  1  0.50002193  0.00051184  0.75001974  1
