# generated using pymatgen
data_Sn4GeTe4Se
_symmetry_space_group_name_H-M   'P 1'
_cell_length_a   4.41027049
_cell_length_b   4.41027049
_cell_length_c   18.57712415
_cell_angle_alpha   83.18282309
_cell_angle_beta   90.00000000
_cell_angle_gamma   120.00000000
_symmetry_Int_Tables_number   1
_chemical_formula_structural   Sn4GeTe4Se
_chemical_formula_sum   'Sn4 Ge1 Te4 Se1'
_cell_volume   309.97114266
_cell_formula_units_Z   1
loop_
 _symmetry_equiv_pos_site_id
 _symmetry_equiv_pos_as_xyz
  1  'x, y, z'
loop_
 _atom_site_type_symbol
 _atom_site_label
 _atom_site_symmetry_multiplicity
 _atom_site_fract_x
 _atom_site_fract_y
 _atom_site_fract_z
 _atom_site_occupancy
  Sn  Sn0  1  0.60758674  0.21517349  0.17723977  1
  Sn  Sn1  1  0.20398536  0.40797071  0.38804393  1
  Sn  Sn2  1  0.80106478  0.60212957  0.59680565  1
  Sn  Sn3  1  0.39821729  0.79643459  0.80534812  1
  Ge  Ge4  1  0.99905878  0.99811757  0.00282365  1
  Te  Te5  1  0.90180107  0.80360214  0.29459678  1
  Te  Te6  1  0.49883301  0.99766601  0.50350098  1
  Te  Te7  1  0.09616234  0.19232469  0.71151297  1
  Te  Te8  1  0.69260832  0.38521663  0.92217505  1
  Se  Se9  1  0.30068230  0.60136460  0.09795310  1
