# generated using pymatgen
data_NdTiCdSbO7
_symmetry_space_group_name_H-M   'P 1'
_cell_length_a   7.35338868
_cell_length_b   7.26301234
_cell_length_c   7.53136299
_cell_angle_alpha   90.00000000
_cell_angle_beta   59.19608765
_cell_angle_gamma   119.59426176
_symmetry_Int_Tables_number   1
_chemical_formula_structural   NdTiCdSbO7
_chemical_formula_sum   'Nd2 Ti2 Cd2 Sb2 O14'
_cell_volume   282.66991350
_cell_formula_units_Z   2
loop_
 _symmetry_equiv_pos_site_id
 _symmetry_equiv_pos_as_xyz
  1  'x, y, z'
loop_
 _atom_site_type_symbol
 _atom_site_label
 _atom_site_symmetry_multiplicity
 _atom_site_fract_x
 _atom_site_fract_y
 _atom_site_fract_z
 _atom_site_occupancy
  Nd  Nd0  1  -0.00000000  -0.00000000  0.50000000  1
  Nd  Nd1  1  -0.00000000  -0.00000000  0.00000000  1
  Ti  Ti2  1  0.50000000  -0.00000000  0.50000000  1
  Ti  Ti3  1  0.50000000  0.50000000  0.50000000  1
  Cd  Cd4  1  0.50000000  0.50000000  0.00000000  1
  Cd  Cd5  1  0.50000000  -0.00000000  0.00000000  1
  Sb  Sb6  1  -0.00000000  0.50000000  0.00000000  1
  Sb  Sb7  1  -0.00000000  0.50000000  0.50000000  1
  O  O8  1  0.64595043  0.82297521  0.42702479  1
  O  O9  1  0.84609256  0.42304628  0.82695372  1
  O  O10  1  0.24537669  0.82438223  0.81898115  1
  O  O11  1  0.24537669  0.42099447  0.43564215  1
  O  O12  1  0.24537669  0.42099447  0.81898115  1
  O  O13  1  0.24537669  0.82438223  0.43564215  1
  O  O14  1  0.35404957  0.17702479  0.57297521  1
  O  O15  1  0.15390744  0.57695372  0.17304628  1
  O  O16  1  0.75462331  0.17561777  0.18101885  1
  O  O17  1  0.75462331  0.57900553  0.56435785  1
  O  O18  1  0.75462331  0.57900553  0.18101885  1
  O  O19  1  0.75462331  0.17561777  0.56435785  1
  O  O20  1  0.26293171  0.13146586  0.11853414  1
  O  O21  1  0.73706829  0.86853414  0.88146586  1
