# generated using pymatgen
data_PrYAl6
_symmetry_space_group_name_H-M   'P 1'
_cell_length_a   4.59919719
_cell_length_b   6.43157566
_cell_length_c   6.43157566
_cell_angle_alpha   119.98565550
_cell_angle_beta   90.00000000
_cell_angle_gamma   90.00000000
_symmetry_Int_Tables_number   1
_chemical_formula_structural   PrYAl6
_chemical_formula_sum   'Pr1 Y1 Al6'
_cell_volume   164.78215724
_cell_formula_units_Z   1
loop_
 _symmetry_equiv_pos_site_id
 _symmetry_equiv_pos_as_xyz
  1  'x, y, z'
loop_
 _atom_site_type_symbol
 _atom_site_label
 _atom_site_symmetry_multiplicity
 _atom_site_fract_x
 _atom_site_fract_y
 _atom_site_fract_z
 _atom_site_occupancy
  Pr  Pr0  1  0.25000000  0.66667337  0.33332663  1
  Y  Y1  1  0.75000000  0.33332942  0.66667058  1
  Al  Al2  1  0.75000000  0.85727840  0.71456475  1
  Al  Al3  1  0.75000000  0.85727533  0.14272467  1
  Al  Al4  1  0.75000000  0.28543525  0.14272160  1
  Al  Al5  1  0.25000000  0.14549483  0.29098306  1
  Al  Al6  1  0.25000000  0.14549646  0.85450354  1
  Al  Al7  1  0.25000000  0.70901694  0.85450517  1
