# generated using pymatgen
data_P2Pb3O8
_symmetry_space_group_name_H-M   'P 1'
_cell_length_a   7.35007290
_cell_length_b   9.92769971
_cell_length_c   9.92777481
_cell_angle_alpha   59.99971392
_cell_angle_beta   90.00006979
_cell_angle_gamma   90.00013870
_symmetry_Int_Tables_number   1
_chemical_formula_structural   P2Pb3O8
_chemical_formula_sum   'P6 Pb9 O24'
_cell_volume   627.36686346
_cell_formula_units_Z   3
loop_
 _symmetry_equiv_pos_site_id
 _symmetry_equiv_pos_as_xyz
  1  'x, y, z'
loop_
 _atom_site_type_symbol
 _atom_site_label
 _atom_site_symmetry_multiplicity
 _atom_site_fract_x
 _atom_site_fract_y
 _atom_site_fract_z
 _atom_site_occupancy
  P  P0  1  0.74804149  0.37345222  0.60741145  1
  P  P1  1  0.74804007  0.01914081  0.37344774  1
  P  P2  1  0.74804102  0.60741165  0.01913952  1
  P  P3  1  0.24886314  0.62429295  0.39567432  1
  P  P4  1  0.24886461  0.98003818  0.62428985  1
  P  P5  1  0.24886455  0.39567726  0.98003133  1
  Pb  Pb6  1  0.75639896  0.98949765  0.74671044  1
  Pb  Pb7  1  0.75642425  0.26376922  0.98951543  1
  Pb  Pb8  1  0.75640278  0.74672049  0.26379623  1
  Pb  Pb9  1  0.24531224  0.99497710  0.25907356  1
  Pb  Pb10  1  0.24530707  0.74596716  0.99496267  1
  Pb  Pb11  1  0.24530797  0.25907076  0.74595400  1
  Pb  Pb12  1  0.51472530  0.66665914  0.66667078  1
  Pb  Pb13  1  0.00274460  0.33334337  0.33332858  1
  Pb  Pb14  1  0.49756057  0.33334594  0.33332673  1
  O  O15  1  0.75021635  0.48146069  0.42418117  1
  O  O16  1  0.75021576  0.09436570  0.48144880  1
  O  O17  1  0.75021615  0.42418190  0.09436095  1
  O  O18  1  0.25361148  0.51728813  0.57499873  1
  O  O19  1  0.25361586  0.90771235  0.51729047  1
  O  O20  1  0.25361234  0.57500155  0.90771014  1
  O  O21  1  0.74406630  0.47123120  0.68852599  1
  O  O22  1  0.74406178  0.84024671  0.47123028  1
  O  O23  1  0.74406124  0.68852667  0.84024497  1
  O  O24  1  0.24930526  0.52101259  0.31633438  1
  O  O25  1  0.24930587  0.16265700  0.52100746  1
  O  O26  1  0.24930453  0.31633518  0.16265107  1
  O  O27  1  0.57927203  0.26425240  0.64938153  1
  O  O28  1  0.57927521  0.08636543  0.26424587  1
  O  O29  1  0.57927086  0.64938127  0.08636812  1
  O  O30  1  0.08221848  0.73511676  0.33722113  1
  O  O31  1  0.08222166  0.92766760  0.73511311  1
  O  O32  1  0.08221927  0.33722059  0.92766483  1
  O  O33  1  0.41944593  0.73300317  0.34756064  1
  O  O34  1  0.41944513  0.91944354  0.73300049  1
  O  O35  1  0.41944478  0.34756372  0.91943521  1
  O  O36  1  0.92003145  0.26706400  0.65168576  1
  O  O37  1  0.92002966  0.08124914  0.26705853  1
  O  O38  1  0.92003398  0.65168882  0.08124775  1
