# generated using pymatgen
data_NbVB4
_symmetry_space_group_name_H-M   'P 1'
_cell_length_a   3.06787736
_cell_length_b   3.06819732
_cell_length_c   6.35106128
_cell_angle_alpha   90.00000000
_cell_angle_beta   90.00000000
_cell_angle_gamma   60.00344851
_symmetry_Int_Tables_number   1
_chemical_formula_structural   NbVB4
_chemical_formula_sum   'Nb1 V1 B4'
_cell_volume   51.77418911
_cell_formula_units_Z   1
loop_
 _symmetry_equiv_pos_site_id
 _symmetry_equiv_pos_as_xyz
  1  'x, y, z'
loop_
 _atom_site_type_symbol
 _atom_site_label
 _atom_site_symmetry_multiplicity
 _atom_site_fract_x
 _atom_site_fract_y
 _atom_site_fract_z
 _atom_site_occupancy
  Nb  Nb0  1  0.99996522  1.00000000  -0.00000000  1
  V  V1  1  0.99997256  1.00000000  0.50000000  1
  B  B2  1  0.66668406  0.66656299  0.26520333  1
  B  B3  1  0.66668406  0.66656299  0.73479667  1
  B  B4  1  0.33324705  0.33343701  0.26520333  1
  B  B5  1  0.33324705  0.33343701  0.73479667  1
