# generated using pymatgen
data_NdBr2Cl
_symmetry_space_group_name_H-M   'P 1'
_cell_length_a   4.30472589
_cell_length_b   7.83616187
_cell_length_c   7.99852310
_cell_angle_alpha   118.99642984
_cell_angle_beta   90.00000000
_cell_angle_gamma   90.00000000
_symmetry_Int_Tables_number   1
_chemical_formula_structural   NdBr2Cl
_chemical_formula_sum   'Nd2 Br4 Cl2'
_cell_volume   235.98965314
_cell_formula_units_Z   2
loop_
 _symmetry_equiv_pos_site_id
 _symmetry_equiv_pos_as_xyz
  1  'x, y, z'
loop_
 _atom_site_type_symbol
 _atom_site_label
 _atom_site_symmetry_multiplicity
 _atom_site_fract_x
 _atom_site_fract_y
 _atom_site_fract_z
 _atom_site_occupancy
  Nd  Nd0  1  0.75000000  0.67208310  0.33256365  1
  Nd  Nd1  1  0.25000000  0.33466756  0.66131774  1
  Br  Br2  1  0.75000000  0.30442316  0.91476249  1
  Br  Br3  1  0.25000000  0.90801060  0.61606794  1
  Br  Br4  1  0.25000000  0.38113381  0.29522781  1
  Br  Br5  1  0.25000000  0.71607425  0.08735547  1
  Cl  Cl6  1  0.75000000  0.09410240  0.41244275  1
  Cl  Cl7  1  0.75000000  0.58950511  0.68026215  1
