# generated using pymatgen
data_Ni5(Mo2As3)6
_symmetry_space_group_name_H-M   'P 1'
_cell_length_a   3.35063915
_cell_length_b   6.78430423
_cell_length_c   25.65826857
_cell_angle_alpha   89.75851295
_cell_angle_beta   86.25629056
_cell_angle_gamma   75.70345489
_symmetry_Int_Tables_number   1
_chemical_formula_structural   Ni5(Mo2As3)6
_chemical_formula_sum   'Ni5 Mo12 As18'
_cell_volume   563.94551971
_cell_formula_units_Z   1
loop_
 _symmetry_equiv_pos_site_id
 _symmetry_equiv_pos_as_xyz
  1  'x, y, z'
loop_
 _atom_site_type_symbol
 _atom_site_label
 _atom_site_symmetry_multiplicity
 _atom_site_fract_x
 _atom_site_fract_y
 _atom_site_fract_z
 _atom_site_occupancy
  Ni  Ni0  1  0.50029736  0.66544928  0.33395601  1
  Ni  Ni1  1  0.50000248  0.33331038  0.66668467  1
  Ni  Ni2  1  0.49970132  0.00125608  0.99934129  1
  Ni  Ni3  1  0.00025323  0.50002325  0.49947029  1
  Ni  Ni4  1  0.99977082  0.16661427  0.83384409  1
  Mo  Mo5  1  0.67214886  0.60961635  0.04608593  1
  Mo  Mo6  1  0.67879262  0.26797823  0.37443654  1
  Mo  Mo7  1  0.67768149  0.93541050  0.70922653  1
  Mo  Mo8  1  0.32784462  0.05703204  0.28727871  1
  Mo  Mo9  1  0.32234236  0.73124522  0.62407005  1
  Mo  Mo10  1  0.32118977  0.39870484  0.95891563  1
  Mo  Mo11  1  0.82064082  0.23074731  0.12797105  1
  Mo  Mo12  1  0.82655722  0.88819365  0.45869191  1
  Mo  Mo13  1  0.82648276  0.55415305  0.79288143  1
  Mo  Mo14  1  0.17930871  0.43597666  0.20540591  1
  Mo  Mo15  1  0.17351694  0.11252116  0.54044497  1
  Mo  Mo16  1  0.17346094  0.77847001  0.87460810  1
  As  As17  1  0.01452452  0.90550247  0.06544850  1
  As  As18  1  0.02023002  0.56092122  0.39861875  1
  As  As19  1  0.01997350  0.22770700  0.73234601  1
  As  As20  1  0.98545900  0.76119913  0.26788287  1
  As  As21  1  0.98007497  0.43883901  0.60101105  1
  As  As22  1  0.97975471  0.10579513  0.93469545  1
  As  As23  1  0.31745252  0.31138964  0.05370532  1
  As  As24  1  0.31968493  0.97644200  0.38418814  1
  As  As25  1  0.31957563  0.64156617  0.71928257  1
  As  As26  1  0.68255117  0.35524217  0.27965550  1
  As  As27  1  0.68045187  0.02506548  0.61403079  1
  As  As28  1  0.68028394  0.69028626  0.94914586  1
  As  As29  1  0.61370451  0.62343185  0.14915913  1
  As  As30  1  0.62846309  0.26719443  0.47587939  1
  As  As31  1  0.62819773  0.93357912  0.81002543  1
  As  As32  1  0.38625018  0.04329565  0.18420400  1
  As  As33  1  0.37185453  0.73300596  0.52328499  1
  As  As34  1  0.37152089  0.39950205  0.85745617  1
