# generated using pymatgen
data_NdY3(Mo4O15)2
_symmetry_space_group_name_H-M   'P 1'
_cell_length_a   6.95908659
_cell_length_b   9.80008942
_cell_length_c   10.80074665
_cell_angle_alpha   89.95930275
_cell_angle_beta   105.47731392
_cell_angle_gamma   90.06146005
_symmetry_Int_Tables_number   1
_chemical_formula_structural   NdY3(Mo4O15)2
_chemical_formula_sum   'Nd1 Y3 Mo8 O30'
_cell_volume   709.89469963
_cell_formula_units_Z   1
loop_
 _symmetry_equiv_pos_site_id
 _symmetry_equiv_pos_as_xyz
  1  'x, y, z'
loop_
 _atom_site_type_symbol
 _atom_site_label
 _atom_site_symmetry_multiplicity
 _atom_site_fract_x
 _atom_site_fract_y
 _atom_site_fract_z
 _atom_site_occupancy
  Nd  Nd0  1  0.21326853  0.02320475  0.27824527  1
  Y  Y1  1  0.79097715  0.52269804  0.22370315  1
  Y  Y2  1  0.79077522  0.97708451  0.72412113  1
  Y  Y3  1  0.21024309  0.47617531  0.77635456  1
  Mo  Mo4  1  0.08025538  0.74152984  0.00952697  1
  Mo  Mo5  1  0.91617732  0.24518861  0.49100718  1
  Mo  Mo6  1  0.91660441  0.25917254  0.98667773  1
  Mo  Mo7  1  0.07846903  0.75402122  0.51339470  1
  Mo  Mo8  1  0.61827571  0.90198899  0.15377473  1
  Mo  Mo9  1  0.38113848  0.40796662  0.34431634  1
  Mo  Mo10  1  0.38050386  0.09575556  0.84387472  1
  Mo  Mo11  1  0.61955560  0.59597668  0.65640157  1
  O  O12  1  0.97525742  0.62676148  0.10172447  1
  O  O13  1  0.01947146  0.12778158  0.40105917  1
  O  O14  1  0.02245696  0.37497622  0.89603444  1
  O  O15  1  0.97421664  0.87319765  0.60266384  1
  O  O16  1  0.61268710  0.72136587  0.14766987  1
  O  O17  1  0.39362569  0.22763624  0.35495196  1
  O  O18  1  0.38738813  0.27651756  0.85166842  1
  O  O19  1  0.61258361  0.77689948  0.64854281  1
  O  O20  1  0.87442359  0.94115042  0.18057433  1
  O  O21  1  0.12316164  0.44391947  0.31486770  1
  O  O22  1  0.12352444  0.05646197  0.81470911  1
  O  O23  1  0.87629891  0.55700676  0.68458993  1
  O  O24  1  0.21791337  0.64996297  0.91818461  1
  O  O25  1  0.77838628  0.15225682  0.58208781  1
  O  O26  1  0.78028100  0.34923004  0.08045327  1
  O  O27  1  0.22201678  0.84242101  0.42408515  1
  O  O28  1  0.55891732  0.97005828  0.29154703  1
  O  O29  1  0.45064415  0.47379998  0.20920443  1
  O  O30  1  0.45044459  0.02757373  0.70951776  1
  O  O31  1  0.55010866  0.52757720  0.79060029  1
  O  O32  1  0.24694381  0.86060715  0.11493873  1
  O  O33  1  0.75751863  0.36541792  0.38222845  1
  O  O34  1  0.75670444  0.13636125  0.88095651  1
  O  O35  1  0.24143447  0.63452330  0.62009674  1
  O  O36  1  0.88465779  0.83333842  0.89872829  1
  O  O37  1  0.11481732  0.33431227  0.60161740  1
  O  O38  1  0.11540864  0.17032606  0.09601077  1
  O  O39  1  0.88345608  0.66538709  0.39939945  1
  O  O40  1  0.49892858  0.00066669  0.99953504  1
  O  O41  1  0.50007874  0.50174247  0.50035418  1
