# generated using pymatgen
data_Pr6Mn(GeS7)2
_symmetry_space_group_name_H-M   'P 1'
_cell_length_a   5.82673923
_cell_length_b   10.22832044
_cell_length_c   10.22825640
_cell_angle_alpha   59.99967113
_cell_angle_beta   89.99964401
_cell_angle_gamma   89.99949433
_symmetry_Int_Tables_number   1
_chemical_formula_structural   Pr6Mn(GeS7)2
_chemical_formula_sum   'Pr6 Mn1 Ge2 S14'
_cell_volume   527.91099384
_cell_formula_units_Z   1
loop_
 _symmetry_equiv_pos_site_id
 _symmetry_equiv_pos_as_xyz
  1  'x, y, z'
loop_
 _atom_site_type_symbol
 _atom_site_label
 _atom_site_symmetry_multiplicity
 _atom_site_fract_x
 _atom_site_fract_y
 _atom_site_fract_z
 _atom_site_occupancy
  Pr  Pr0  1  0.25306528  0.22901865  0.12543529  1
  Pr  Pr1  1  0.25305984  0.64556159  0.22900856  1
  Pr  Pr2  1  0.25306786  0.12543479  0.64554747  1
  Pr  Pr3  1  0.74669629  0.77122319  0.87560849  1
  Pr  Pr4  1  0.74669790  0.35315476  0.77122677  1
  Pr  Pr5  1  0.74670200  0.87560536  0.35317412  1
  Mn  Mn6  1  0.48222034  0.00000109  0.00000323  1
  Ge  Ge7  1  0.83020806  0.33334605  0.33332768  1
  Ge  Ge8  1  0.33245393  0.66665114  0.66667359  1
  S  S9  1  0.98267607  0.10421724  0.41326117  1
  S  S10  1  0.98268974  0.48253590  0.10420026  1
  S  S11  1  0.98268696  0.41327086  0.48252549  1
  S  S12  1  0.48612757  0.89504868  0.58480520  1
  S  S13  1  0.48614650  0.52013336  0.89506552  1
  S  S14  1  0.48614486  0.58479556  0.52014079  1
  S  S15  1  0.45384344  0.33334572  0.33332618  1
  S  S16  1  0.95650279  0.66665614  0.66667222  1
  S  S17  1  0.70977957  0.14989003  0.08420570  1
  S  S18  1  0.70978256  0.76590731  0.14989549  1
  S  S19  1  0.70978591  0.08419708  0.76589904  1
  S  S20  1  0.26255470  0.84646372  0.91891411  1
  S  S21  1  0.26255307  0.23461994  0.84645979  1
  S  S22  1  0.26255475  0.91892184  0.23462385  1
