# generated using pymatgen
data_CaSn4S9
_symmetry_space_group_name_H-M   'P 1'
_cell_length_a   6.87646610
_cell_length_b   8.29075679
_cell_length_c   12.31028129
_cell_angle_alpha   100.69261856
_cell_angle_beta   90.00000000
_cell_angle_gamma   90.00000000
_symmetry_Int_Tables_number   1
_chemical_formula_structural   CaSn4S9
_chemical_formula_sum   'Ca2 Sn8 S18'
_cell_volume   689.63682201
_cell_formula_units_Z   2
loop_
 _symmetry_equiv_pos_site_id
 _symmetry_equiv_pos_as_xyz
  1  'x, y, z'
loop_
 _atom_site_type_symbol
 _atom_site_label
 _atom_site_symmetry_multiplicity
 _atom_site_fract_x
 _atom_site_fract_y
 _atom_site_fract_z
 _atom_site_occupancy
  Ca  Ca0  1  0.22179881  0.00000000  0.25000000  1
  Ca  Ca1  1  0.77820119  0.00000000  0.75000000  1
  Sn  Sn2  1  0.22155759  0.42628999  0.06125477  1
  Sn  Sn3  1  0.22155759  0.57371001  0.43874523  1
  Sn  Sn4  1  0.77844241  0.57371001  0.93874523  1
  Sn  Sn5  1  0.77844241  0.42628999  0.56125477  1
  Sn  Sn6  1  0.69972032  0.30666843  0.16224747  1
  Sn  Sn7  1  0.69972032  0.69333157  0.33775253  1
  Sn  Sn8  1  0.30027968  0.69333157  0.83775253  1
  Sn  Sn9  1  0.30027968  0.30666843  0.66224747  1
  S  S10  1  0.84607303  0.02106499  0.16985008  1
  S  S11  1  0.84607303  0.97893501  0.33014992  1
  S  S12  1  0.15392697  0.97893501  0.83014992  1
  S  S13  1  0.15392697  0.02106499  0.66985008  1
  S  S14  1  0.38716585  0.16403539  0.09466725  1
  S  S15  1  0.38716585  0.83596461  0.40533275  1
  S  S16  1  0.61283415  0.83596461  0.90533275  1
  S  S17  1  0.61283415  0.16403539  0.59466725  1
  S  S18  1  0.43352543  0.39631460  0.86521420  1
  S  S19  1  0.43352543  0.60368540  0.63478580  1
  S  S20  1  0.56647457  0.60368540  0.13478580  1
  S  S21  1  0.56647457  0.39631460  0.36521420  1
  S  S22  1  0.89515853  0.27736800  0.97951609  1
  S  S23  1  0.89515853  0.72263200  0.52048391  1
  S  S24  1  0.10484147  0.72263200  0.02048391  1
  S  S25  1  0.10484147  0.27736800  0.47951609  1
  S  S26  1  0.02400936  0.50000000  0.25000000  1
  S  S27  1  0.97599064  0.50000000  0.75000000  1
