# generated using pymatgen
data_Nb9AsO25
_symmetry_space_group_name_H-M   'P 1'
_cell_length_a   3.88235953
_cell_length_b   11.46576223
_cell_length_c   11.46586695
_cell_angle_alpha   91.64236752
_cell_angle_beta   99.74716510
_cell_angle_gamma   80.25274500
_symmetry_Int_Tables_number   1
_chemical_formula_structural   Nb9AsO25
_chemical_formula_sum   'Nb9 As1 O25'
_cell_volume   495.76459869
_cell_formula_units_Z   1
loop_
 _symmetry_equiv_pos_site_id
 _symmetry_equiv_pos_as_xyz
  1  'x, y, z'
loop_
 _atom_site_type_symbol
 _atom_site_label
 _atom_site_symmetry_multiplicity
 _atom_site_fract_x
 _atom_site_fract_y
 _atom_site_fract_z
 _atom_site_occupancy
  Nb  Nb0  1  0.89221558  0.32508608  0.11091623  1
  Nb  Nb1  1  0.10638543  0.67491392  0.88908377  1
  Nb  Nb2  1  0.78141877  0.11091252  0.67491011  1
  Nb  Nb3  1  0.21742118  0.88908748  0.32508989  1
  Nb  Nb4  1  0.03759466  0.00000000  0.00000000  1
  Nb  Nb5  1  0.10876035  0.21147500  0.44242299  1
  Nb  Nb6  1  0.87781236  0.78852500  0.55757701  1
  Nb  Nb7  1  0.67972424  0.44241356  0.78852216  1
  Nb  Nb8  1  0.33361564  0.55758644  0.21147784  1
  As  As9  1  0.25000124  0.50000000  0.50000000  1
  O  O10  1  0.08534207  0.37438584  0.52335838  1
  O  O11  1  0.93636953  0.62561416  0.47664162  1
  O  O12  1  0.54029721  0.52335929  0.62561606  1
  O  O13  1  0.43804044  0.47664071  0.37438394  1
  O  O14  1  0.95163104  0.16679600  0.06580549  1
  O  O15  1  0.05262154  0.83320400  0.93419451  1
  O  O16  1  0.88570820  0.06580601  0.83320982  1
  O  O17  1  0.11830439  0.93419399  0.16679018  1
  O  O18  1  0.50960580  0.00000000  0.00000000  1
  O  O19  1  0.77856230  0.39257646  0.95766552  1
  O  O20  1  0.21347324  0.60742354  0.04233448  1
  O  O21  1  0.82884918  0.95766072  0.60743093  1
  O  O22  1  0.17907897  0.04233928  0.39256907  1
  O  O23  1  0.01159265  0.26938470  0.29294946  1
  O  O24  1  0.98802789  0.73061530  0.70705054  1
  O  O25  1  0.71902757  0.29295336  0.73061460  1
  O  O26  1  0.28136633  0.70704664  0.26938540  1
  O  O27  1  0.83935452  0.51034548  0.19541634  1
  O  O28  1  0.15428367  0.48965452  0.80458366  1
  O  O29  1  0.65033358  0.19540751  0.48965455  1
  O  O30  1  0.35608654  0.80459249  0.51034545  1
  O  O31  1  0.38705122  0.36250913  0.13914882  1
  O  O32  1  0.61041152  0.63749087  0.86085118  1
  O  O33  1  0.25023783  0.13914224  0.63748676  1
  O  O34  1  0.75189330  0.86085776  0.36251324  1
