# generated using pymatgen
data_NaNi4(PO4)3
_symmetry_space_group_name_H-M   'P 1'
_cell_length_a   6.41321636
_cell_length_b   8.13885645
_cell_length_c   9.95577189
_cell_angle_alpha   90.00000000
_cell_angle_beta   90.00000000
_cell_angle_gamma   66.79715440
_symmetry_Int_Tables_number   1
_chemical_formula_structural   NaNi4(PO4)3
_chemical_formula_sum   'Na2 Ni8 P6 O24'
_cell_volume   477.62212557
_cell_formula_units_Z   2
loop_
 _symmetry_equiv_pos_site_id
 _symmetry_equiv_pos_as_xyz
  1  'x, y, z'
loop_
 _atom_site_type_symbol
 _atom_site_label
 _atom_site_symmetry_multiplicity
 _atom_site_fract_x
 _atom_site_fract_y
 _atom_site_fract_z
 _atom_site_occupancy
  Na  Na0  1  0.97302144  0.05395711  0.75103818  1
  Na  Na1  1  0.02697856  0.94604289  0.25103818  1
  Ni  Ni2  1  0.62941958  0.74116084  0.05996443  1
  Ni  Ni3  1  0.37408449  0.25183103  0.94025938  1
  Ni  Ni4  1  0.62591551  0.74816897  0.44025938  1
  Ni  Ni5  1  0.37058042  0.25883916  0.55996443  1
  Ni  Ni6  1  0.94607194  0.59938187  0.75041908  1
  Ni  Ni7  1  0.54545382  0.40061813  0.25041908  1
  Ni  Ni8  1  0.05392806  0.40061813  0.25041908  1
  Ni  Ni9  1  0.45454618  0.59938187  0.75041908  1
  P  P10  1  0.81403285  0.37193430  0.53276492  1
  P  P11  1  0.18597661  0.62804678  0.46647971  1
  P  P12  1  0.81402339  0.37195322  0.96647971  1
  P  P13  1  0.18596715  0.62806570  0.03276492  1
  P  P14  1  0.47675164  0.04649672  0.20439991  1
  P  P15  1  0.52324836  0.95350328  0.70439991  1
  O  O16  1  0.21572524  0.56854953  0.87945116  1
  O  O17  1  0.78359473  0.43281055  0.11983603  1
  O  O18  1  0.21640527  0.56718945  0.61983603  1
  O  O19  1  0.78427476  0.43145047  0.37945116  1
  O  O20  1  0.72050626  0.55898747  0.61241612  1
  O  O21  1  0.28010194  0.43979612  0.38770792  1
  O  O22  1  0.71989806  0.56020388  0.88770792  1
  O  O23  1  0.27949374  0.44101253  0.11241612  1
  O  O24  1  0.36870512  0.85907632  0.75269703  1
  O  O25  1  0.22778144  0.14092368  0.25269703  1
  O  O26  1  0.63129488  0.14092368  0.25269703  1
  O  O27  1  0.77221856  0.85907632  0.75269703  1
  O  O28  1  0.42428582  0.15142837  0.75269051  1
  O  O29  1  0.57571418  0.84857163  0.25269051  1
  O  O30  1  0.67360810  0.26772537  0.92842895  1
  O  O31  1  0.94081809  0.73288105  0.07068683  1
  O  O32  1  0.67369914  0.26711895  0.57068683  1
  O  O33  1  0.94133348  0.73227463  0.42842895  1
  O  O34  1  0.32630086  0.73288105  0.07068683  1
  O  O35  1  0.05866652  0.26772537  0.92842895  1
  O  O36  1  0.32639190  0.73227463  0.42842895  1
  O  O37  1  0.05918191  0.26711895  0.57068683  1
  O  O38  1  0.51216384  0.97567231  0.54832794  1
  O  O39  1  0.48783616  0.02432769  0.04832794  1
