# generated using pymatgen
data_NbMoSe4
_symmetry_space_group_name_H-M   'P 1'
_cell_length_a   3.41168255
_cell_length_b   3.41168255
_cell_length_c   26.72884588
_cell_angle_alpha   90.00000000
_cell_angle_beta   90.00000000
_cell_angle_gamma   119.99833827
_symmetry_Int_Tables_number   1
_chemical_formula_structural   NbMoSe4
_chemical_formula_sum   'Nb2 Mo2 Se8'
_cell_volume   269.43582389
_cell_formula_units_Z   2
loop_
 _symmetry_equiv_pos_site_id
 _symmetry_equiv_pos_as_xyz
  1  'x, y, z'
loop_
 _atom_site_type_symbol
 _atom_site_label
 _atom_site_symmetry_multiplicity
 _atom_site_fract_x
 _atom_site_fract_y
 _atom_site_fract_z
 _atom_site_occupancy
  Nb  Nb0  1  0.99999217  0.00000783  0.12500000  1
  Nb  Nb1  1  0.99999217  0.00000783  0.62500000  1
  Mo  Mo2  1  0.00001296  0.99998704  0.37500000  1
  Mo  Mo3  1  0.00001296  0.99998704  0.87500000  1
  Se  Se4  1  0.66668355  0.33331645  0.31357545  1
  Se  Se5  1  0.66668355  0.33331645  0.81357545  1
  Se  Se6  1  0.33331389  0.66668611  0.18897748  1
  Se  Se7  1  0.33331389  0.66668611  0.68897748  1
  Se  Se8  1  0.33331389  0.66668611  0.06102252  1
  Se  Se9  1  0.33331389  0.66668611  0.56102252  1
  Se  Se10  1  0.66668355  0.33331645  0.43642455  1
  Se  Se11  1  0.66668355  0.33331645  0.93642455  1
