# generated using pymatgen
data_NaLaMgTeO6
_symmetry_space_group_name_H-M   'P 1'
_cell_length_a   5.59580795
_cell_length_b   5.61900953
_cell_length_c   7.90406681
_cell_angle_alpha   89.90413988
_cell_angle_beta   90.00000000
_cell_angle_gamma   90.00000000
_symmetry_Int_Tables_number   1
_chemical_formula_structural   NaLaMgTeO6
_chemical_formula_sum   'Na2 La2 Mg2 Te2 O12'
_cell_volume   248.52641999
_cell_formula_units_Z   2
loop_
 _symmetry_equiv_pos_site_id
 _symmetry_equiv_pos_as_xyz
  1  'x, y, z'
loop_
 _atom_site_type_symbol
 _atom_site_label
 _atom_site_symmetry_multiplicity
 _atom_site_fract_x
 _atom_site_fract_y
 _atom_site_fract_z
 _atom_site_occupancy
  Na  Na0  1  0.75000000  0.24083833  0.99862303  1
  Na  Na1  1  0.25000000  0.74316635  0.49788638  1
  La  La2  1  0.25000000  0.76234784  0.99921133  1
  La  La3  1  0.75000000  0.25981215  0.49886331  1
  Mg  Mg4  1  0.75000000  0.75060488  0.75094148  1
  Mg  Mg5  1  0.25000000  0.25297063  0.25059344  1
  Te  Te6  1  0.75000000  0.74972879  0.24955280  1
  Te  Te7  1  0.25000000  0.25049264  0.74863537  1
  O  O8  1  0.51010456  0.50763268  0.29399301  1
  O  O9  1  0.00330818  0.48623011  0.70715865  1
  O  O10  1  0.49669182  0.48623011  0.70715865  1
  O  O11  1  0.98989544  0.50763268  0.29399301  1
  O  O12  1  0.75000000  0.67421817  0.01045397  1
  O  O13  1  0.25000000  0.33398886  0.98884816  1
  O  O14  1  0.50342952  0.98691458  0.20887263  1
  O  O15  1  0.00991336  0.00764898  0.79342087  1
  O  O16  1  0.49008664  0.00764898  0.79342087  1
  O  O17  1  0.99657048  0.98691458  0.20887263  1
  O  O18  1  0.75000000  0.83222250  0.48956199  1
  O  O19  1  0.25000000  0.17275617  0.50993842  1
