# generated using pymatgen
data_Nb12TlTe15As
_symmetry_space_group_name_H-M   'P 1'
_cell_length_a   7.32204173
_cell_length_b   10.73124513
_cell_length_c   10.71837184
_cell_angle_alpha   120.11512360
_cell_angle_beta   90.00000000
_cell_angle_gamma   90.00000000
_symmetry_Int_Tables_number   1
_chemical_formula_structural   Nb12TlTe15As
_chemical_formula_sum   'Nb12 Tl1 Te15 As1'
_cell_volume   728.51213081
_cell_formula_units_Z   1
loop_
 _symmetry_equiv_pos_site_id
 _symmetry_equiv_pos_as_xyz
  1  'x, y, z'
loop_
 _atom_site_type_symbol
 _atom_site_label
 _atom_site_symmetry_multiplicity
 _atom_site_fract_x
 _atom_site_fract_y
 _atom_site_fract_z
 _atom_site_occupancy
  Nb  Nb0  1  0.37500000  0.61532403  0.51081971  1
  Nb  Nb1  1  0.87500000  0.61916764  0.51476454  1
  Nb  Nb2  1  0.37500000  0.48927460  0.10449243  1
  Nb  Nb3  1  0.87500000  0.48530349  0.10405369  1
  Nb  Nb4  1  0.37500000  0.89538934  0.38446882  1
  Nb  Nb5  1  0.87500000  0.89577332  0.38085921  1
  Nb  Nb6  1  0.14094298  0.38524879  0.49855646  1
  Nb  Nb7  1  0.60905702  0.38524879  0.49855646  1
  Nb  Nb8  1  0.14046896  0.50145915  0.88700236  1
  Nb  Nb9  1  0.60953104  0.50145915  0.88700236  1
  Nb  Nb10  1  0.14091650  0.11316001  0.61479713  1
  Nb  Nb11  1  0.60908350  0.11316001  0.61479713  1
  Tl  Tl12  1  0.37500000  0.99994997  0.00000133  1
  Te  Te13  1  0.37500000  0.33757070  0.27354952  1
  Te  Te14  1  0.87500000  0.33816474  0.28316752  1
  Te  Te15  1  0.37500000  0.72615771  0.06395338  1
  Te  Te16  1  0.87500000  0.71619185  0.05465920  1
  Te  Te17  1  0.37500000  0.93612743  0.66245510  1
  Te  Te18  1  0.87500000  0.94516790  0.66163792  1
  Te  Te19  1  0.12662182  0.66712816  0.73108269  1
  Te  Te20  1  0.62337818  0.66712816  0.73108269  1
  Te  Te21  1  0.12664471  0.26940378  0.93621672  1
  Te  Te22  1  0.62335529  0.26940378  0.93621672  1
  Te  Te23  1  0.12661956  0.06376527  0.33294306  1
  Te  Te24  1  0.62338044  0.06376527  0.33294306  1
  Te  Te25  1  0.87500000  0.33332143  0.66670960  1
  Te  Te26  1  0.12398792  0.66670349  0.33327271  1
  Te  Te27  1  0.62601208  0.66670349  0.33327271  1
  As  As28  1  0.37500000  0.33337852  0.66666575  1
