# generated using pymatgen
data_Nb2GaCo3
_symmetry_space_group_name_H-M   'P 1'
_cell_length_a   4.91567098
_cell_length_b   4.91618794
_cell_length_c   7.66256438
_cell_angle_alpha   90.00000000
_cell_angle_beta   90.00000000
_cell_angle_gamma   59.99651375
_symmetry_Int_Tables_number   1
_chemical_formula_structural   Nb2GaCo3
_chemical_formula_sum   'Nb4 Ga2 Co6'
_cell_volume   160.36175275
_cell_formula_units_Z   2
loop_
 _symmetry_equiv_pos_site_id
 _symmetry_equiv_pos_as_xyz
  1  'x, y, z'
loop_
 _atom_site_type_symbol
 _atom_site_label
 _atom_site_symmetry_multiplicity
 _atom_site_fract_x
 _atom_site_fract_y
 _atom_site_fract_z
 _atom_site_occupancy
  Nb  Nb0  1  0.33332584  0.33333708  0.55897297  1
  Nb  Nb1  1  0.66667416  0.66666292  0.44102703  1
  Nb  Nb2  1  0.66667416  0.66666292  0.05897297  1
  Nb  Nb3  1  0.33332584  0.33333708  0.94102703  1
  Ga  Ga4  1  0.00000000  -0.00000000  0.50000000  1
  Ga  Ga5  1  0.00000000  -0.00000000  -0.00000000  1
  Co  Co6  1  0.82708874  0.34590355  0.75000000  1
  Co  Co7  1  0.34604052  0.82697974  0.75000000  1
  Co  Co8  1  0.82708874  0.82700772  0.75000000  1
  Co  Co9  1  0.17291126  0.65409645  0.25000000  1
  Co  Co10  1  0.65395948  0.17302026  0.25000000  1
  Co  Co11  1  0.17291126  0.17299228  0.25000000  1
