# generated using pymatgen
data_Nb6TlTe8
_symmetry_space_group_name_H-M   'P 1'
_cell_length_a   3.68355162
_cell_length_b   10.84588880
_cell_length_c   10.84629545
_cell_angle_alpha   60.00404520
_cell_angle_beta   90.00045531
_cell_angle_gamma   90.00153652
_symmetry_Int_Tables_number   1
_chemical_formula_structural   Nb6TlTe8
_chemical_formula_sum   'Nb6 Tl1 Te8'
_cell_volume   375.28540186
_cell_formula_units_Z   1
loop_
 _symmetry_equiv_pos_site_id
 _symmetry_equiv_pos_as_xyz
  1  'x, y, z'
loop_
 _atom_site_type_symbol
 _atom_site_label
 _atom_site_symmetry_multiplicity
 _atom_site_fract_x
 _atom_site_fract_y
 _atom_site_fract_z
 _atom_site_occupancy
  Nb  Nb0  1  0.74970695  0.38723487  0.51149550  1
  Nb  Nb1  1  0.74969180  0.10131308  0.38722906  1
  Nb  Nb2  1  0.74969963  0.51148931  0.10127051  1
  Nb  Nb3  1  0.25029305  0.61276513  0.48850450  1
  Nb  Nb4  1  0.25030820  0.89868692  0.61277094  1
  Nb  Nb5  1  0.25030037  0.48851069  0.89872949  1
  Tl  Tl6  1  0.50000000  0.00000000  -0.00000000  1
  Te  Te7  1  0.74978178  0.66663765  0.66667524  1
  Te  Te8  1  0.25021822  0.33336235  0.33332476  1
  Te  Te9  1  0.75192875  0.06394659  0.66299072  1
  Te  Te10  1  0.75192028  0.27304158  0.06397517  1
  Te  Te11  1  0.75191887  0.66299772  0.27305732  1
  Te  Te12  1  0.24807125  0.93605341  0.33700928  1
  Te  Te13  1  0.24807972  0.72695842  0.93602483  1
  Te  Te14  1  0.24808113  0.33700228  0.72694268  1
