# generated using pymatgen
data_Pr5Ti4GaO17
_symmetry_space_group_name_H-M   'P 1'
_cell_length_a   5.53854359
_cell_length_b   7.78756834
_cell_length_c   32.07512577
_cell_angle_alpha   97.06365105
_cell_angle_beta   90.00000000
_cell_angle_gamma   90.00000000
_symmetry_Int_Tables_number   1
_chemical_formula_structural   Pr5Ti4GaO17
_chemical_formula_sum   'Pr20 Ti16 Ga4 O68'
_cell_volume   1372.95725150
_cell_formula_units_Z   4
loop_
 _symmetry_equiv_pos_site_id
 _symmetry_equiv_pos_as_xyz
  1  'x, y, z'
loop_
 _atom_site_type_symbol
 _atom_site_label
 _atom_site_symmetry_multiplicity
 _atom_site_fract_x
 _atom_site_fract_y
 _atom_site_fract_z
 _atom_site_occupancy
  Pr  Pr0  1  0.88158521  0.85722401  0.72057115  1
  Pr  Pr1  1  0.38844374  0.14546245  0.78040925  1
  Pr  Pr2  1  0.11155626  0.14546245  0.28040925  1
  Pr  Pr3  1  0.61841479  0.85722401  0.22057115  1
  Pr  Pr4  1  0.00222758  0.69672036  0.90410762  1
  Pr  Pr5  1  0.49503493  0.29901629  0.59483327  1
  Pr  Pr6  1  0.00496507  0.29901629  0.09483327  1
  Pr  Pr7  1  0.49777242  0.69672036  0.40410762  1
  Pr  Pr8  1  0.94502450  0.35806259  0.70300075  1
  Pr  Pr9  1  0.45235451  0.64106731  0.80176627  1
  Pr  Pr10  1  0.04764549  0.64106731  0.30176627  1
  Pr  Pr11  1  0.55497550  0.35806259  0.20300075  1
  Pr  Pr12  1  0.98742094  0.21823993  0.91710612  1
  Pr  Pr13  1  0.47962559  0.78766491  0.58175198  1
  Pr  Pr14  1  0.02037441  0.78766491  0.08175198  1
  Pr  Pr15  1  0.51257906  0.21823993  0.41710612  1
  Pr  Pr16  1  0.50675577  0.25795130  0.00480667  1
  Pr  Pr17  1  0.00722140  0.73982348  0.49244559  1
  Pr  Pr18  1  0.49277860  0.73982348  0.99244559  1
  Pr  Pr19  1  0.99324423  0.25795130  0.50480667  1
  Ti  Ti20  1  0.95437716  0.91597150  0.82330547  1
  Ti  Ti21  1  0.44592481  0.08073093  0.67633628  1
  Ti  Ti22  1  0.05407519  0.08073093  0.17633628  1
  Ti  Ti23  1  0.54562284  0.91597150  0.32330547  1
  Ti  Ti24  1  0.49057279  0.95332400  0.90638741  1
  Ti  Ti25  1  0.98094457  0.04828739  0.59282815  1
  Ti  Ti26  1  0.51905543  0.04828739  0.09282815  1
  Ti  Ti27  1  0.00942721  0.95332400  0.40638741  1
  Ti  Ti28  1  0.00314408  0.99780599  0.99905539  1
  Ti  Ti29  1  0.49685592  0.99780599  0.49905539  1
  Ti  Ti30  1  0.95423505  0.40361409  0.82258507  1
  Ti  Ti31  1  0.44016534  0.59405223  0.67864538  1
  Ti  Ti32  1  0.05983466  0.59405223  0.17864538  1
  Ti  Ti33  1  0.54576495  0.40361409  0.32258507  1
  Ti  Ti34  1  0.98332926  0.54481640  0.59342498  1
  Ti  Ti35  1  0.51667074  0.54481640  0.09342498  1
  Ga  Ga36  1  0.00223932  0.50027893  0.99970693  1
  Ga  Ga37  1  0.49776068  0.50027893  0.49970693  1
  Ga  Ga38  1  0.48652902  0.45424704  0.90598846  1
  Ga  Ga39  1  0.01347098  0.45424704  0.40598846  1
  O  O40  1  0.56909935  0.71563151  0.91860967  1
  O  O41  1  0.06715485  0.28793433  0.58030199  1
  O  O42  1  0.43284515  0.28793433  0.08030199  1
  O  O43  1  0.93090065  0.71563151  0.41860967  1
  O  O44  1  0.21857955  0.51264116  0.94905421  1
  O  O45  1  0.71950918  0.48769641  0.55156336  1
  O  O46  1  0.78049082  0.48769641  0.05156336  1
  O  O47  1  0.28142045  0.51264116  0.44905421  1
  O  O48  1  0.21046419  0.93611761  0.95036923  1
  O  O49  1  0.71296446  0.06117874  0.55110087  1
  O  O50  1  0.78703554  0.06117874  0.05110087  1
  O  O51  1  0.28953581  0.93611761  0.45036923  1
  O  O52  1  0.18187015  0.08394303  0.71132882  1
  O  O53  1  0.68706355  0.91941189  0.78891922  1
  O  O54  1  0.81293645  0.91941189  0.28891922  1
  O  O55  1  0.31812985  0.08394303  0.21132882  1
  O  O56  1  0.17228094  0.86838404  0.77944240  1
  O  O57  1  0.66671506  0.12882309  0.72009107  1
  O  O58  1  0.83328494  0.12882309  0.22009107  1
  O  O59  1  0.32771906  0.86838404  0.27944240  1
  O  O60  1  0.89047654  0.66823858  0.82912725  1
  O  O61  1  0.39478613  0.33583948  0.67077781  1
  O  O62  1  0.10521387  0.33583948  0.17077781  1
  O  O63  1  0.60952346  0.66823858  0.32912725  1
  O  O64  1  0.15723857  0.62987264  0.70387638  1
  O  O65  1  0.67267012  0.36960688  0.79446457  1
  O  O66  1  0.82732988  0.36960688  0.29446457  1
  O  O67  1  0.34276143  0.62987264  0.20387638  1
  O  O68  1  0.28158331  0.97373528  0.03601745  1
  O  O69  1  0.78289629  0.02131453  0.46494975  1
  O  O70  1  0.71710371  0.02131453  0.96494975  1
  O  O71  1  0.21841669  0.97373528  0.53601745  1
  O  O72  1  0.28141992  0.55989983  0.03629048  1
  O  O73  1  0.77929322  0.44244281  0.46439840  1
  O  O74  1  0.72070678  0.44244281  0.96439840  1
  O  O75  1  0.21858008  0.55989983  0.53629048  1
  O  O76  1  0.78732524  0.12907258  0.63701888  1
  O  O77  1  0.28770014  0.87540024  0.86293807  1
  O  O78  1  0.21229986  0.87540024  0.36293807  1
  O  O79  1  0.71267476  0.12907258  0.13701888  1
  O  O80  1  0.15926324  0.40615861  0.77413915  1
  O  O81  1  0.65095901  0.59603136  0.72514726  1
  O  O82  1  0.84904099  0.59603136  0.22514726  1
  O  O83  1  0.34073676  0.40615861  0.27413915  1
  O  O84  1  0.42528164  0.20156689  0.91314826  1
  O  O85  1  0.92484851  0.79446721  0.58998721  1
  O  O86  1  0.57515149  0.79446721  0.08998721  1
  O  O87  1  0.07471836  0.20156689  0.41314826  1
  O  O88  1  0.79128221  0.50695518  0.63785385  1
  O  O89  1  0.27494986  0.49297803  0.85992180  1
  O  O90  1  0.22505014  0.49297803  0.35992180  1
  O  O91  1  0.70871779  0.50695518  0.13785385  1
  O  O92  1  0.29804303  0.57747993  0.61897159  1
  O  O93  1  0.79879069  0.41980192  0.88023042  1
  O  O94  1  0.70120931  0.41980192  0.38023042  1
  O  O95  1  0.20195697  0.57747993  0.11897159  1
  O  O96  1  0.04660073  0.16514236  0.83057652  1
  O  O97  1  0.53734980  0.83417415  0.66886045  1
  O  O98  1  0.96265020  0.83417415  0.16886045  1
  O  O99  1  0.45339927  0.16514236  0.33057652  1
  O  O100  1  0.07380275  0.24441342  0.99783029  1
  O  O101  1  0.57751216  0.75474550  0.50362981  1
  O  O102  1  0.92248784  0.75474550  0.00362981  1
  O  O103  1  0.42619725  0.24441342  0.49783029  1
  O  O104  1  0.29499723  0.03903649  0.61914072  1
  O  O105  1  0.79889912  0.96550313  0.88086061  1
  O  O106  1  0.70110088  0.96550313  0.38086061  1
  O  O107  1  0.20500277  0.03903649  0.11914072  1
