# generated using pymatgen
data_Mn2SnPd3
_symmetry_space_group_name_H-M   'P 1'
_cell_length_a   4.48998057
_cell_length_b   4.48998057
_cell_length_c   11.10624070
_cell_angle_alpha   90.00000000
_cell_angle_beta   90.00000000
_cell_angle_gamma   120.00000000
_symmetry_Int_Tables_number   1
_chemical_formula_structural   Mn2SnPd3
_chemical_formula_sum   'Mn4 Sn2 Pd6'
_cell_volume   193.90394146
_cell_formula_units_Z   2
loop_
 _symmetry_equiv_pos_site_id
 _symmetry_equiv_pos_as_xyz
  1  'x, y, z'
loop_
 _atom_site_type_symbol
 _atom_site_label
 _atom_site_symmetry_multiplicity
 _atom_site_fract_x
 _atom_site_fract_y
 _atom_site_fract_z
 _atom_site_occupancy
  Mn  Mn0  1  0.33333300  0.66666700  0.66666700  1
  Mn  Mn1  1  -0.00000000  -0.00000000  0.00525401  1
  Mn  Mn2  1  0.66666700  0.33333300  0.32807899  1
  Mn  Mn3  1  0.33333300  0.66666700  0.16666700  1
  Sn  Sn4  1  -0.00000000  0.00000000  0.49815200  1
  Sn  Sn5  1  0.66666700  0.33333300  0.83518100  1
  Pd  Pd6  1  -0.00000000  0.00000000  0.75022393  1
  Pd  Pd7  1  0.66666700  0.33333300  0.08863396  1
  Pd  Pd8  1  0.33333300  0.66666700  0.41156922  1
  Pd  Pd9  1  0.33333300  0.66666700  0.92176478  1
  Pd  Pd10  1  -0.00000000  -0.00000000  0.24469904  1
  Pd  Pd11  1  0.66666700  0.33333300  0.58310907  1
