# generated using pymatgen
data_Na3Nb6Bi5O24
_symmetry_space_group_name_H-M   'P 1'
_cell_length_a   5.55924385
_cell_length_b   5.61125596
_cell_length_c   16.85529608
_cell_angle_alpha   80.34013635
_cell_angle_beta   90.08069649
_cell_angle_gamma   90.34821843
_symmetry_Int_Tables_number   1
_chemical_formula_structural   Na3Nb6Bi5O24
_chemical_formula_sum   'Na3 Nb6 Bi5 O24'
_cell_volume   518.32518721
_cell_formula_units_Z   1
loop_
 _symmetry_equiv_pos_site_id
 _symmetry_equiv_pos_as_xyz
  1  'x, y, z'
loop_
 _atom_site_type_symbol
 _atom_site_label
 _atom_site_symmetry_multiplicity
 _atom_site_fract_x
 _atom_site_fract_y
 _atom_site_fract_z
 _atom_site_occupancy
  Na  Na0  1  0.49156762  0.44708780  0.13317504  1
  Na  Na1  1  0.50595322  0.56755298  0.87818924  1
  Na  Na2  1  0.00720140  0.94514769  0.13273199  1
  Nb  Nb3  1  0.50319869  0.15058799  0.75254939  1
  Nb  Nb4  1  0.50065610  0.90088534  0.24910679  1
  Nb  Nb5  1  0.00897393  0.64135199  0.75106466  1
  Nb  Nb6  1  0.00200348  0.40005835  0.24926082  1
  Nb  Nb7  1  0.50467709  0.01207319  0.00563841  1
  Nb  Nb8  1  0.99498650  0.50347939  0.00654569  1
  Bi  Bi9  1  0.01125169  0.02963937  0.87474048  1
  Bi  Bi10  1  0.46419611  0.32667730  0.42286104  1
  Bi  Bi11  1  0.53416723  0.75025400  0.57416168  1
  Bi  Bi12  1  0.03555831  0.82544925  0.42257445  1
  Bi  Bi13  1  0.96583777  0.24866319  0.57385724  1
  O  O14  1  0.23912620  0.26222974  0.01622447  1
  O  O15  1  0.75070425  0.28938392  0.97417804  1
  O  O16  1  0.25487284  0.76628015  0.01598308  1
  O  O17  1  0.75114225  0.79232086  0.97573078  1
  O  O18  1  0.57864124  0.21504173  0.64143918  1
  O  O19  1  0.42262825  0.86097648  0.36048617  1
  O  O20  1  0.91403184  0.72253698  0.64175271  1
  O  O21  1  0.07604484  0.36105444  0.36060630  1
  O  O22  1  0.24938316  0.03883970  0.50184798  1
  O  O23  1  0.74871267  0.54173456  0.49700332  1
  O  O24  1  0.24776660  0.53778369  0.50154562  1
  O  O25  1  0.74992578  0.04214101  0.49626158  1
  O  O26  1  0.41646782  0.10950924  0.87901626  1
  O  O27  1  0.57371150  0.99063050  0.11664598  1
  O  O28  1  0.07842914  0.63507830  0.87738893  1
  O  O29  1  0.92032777  0.48541859  0.11626422  1
  O  O30  1  0.22131910  0.16439903  0.22091377  1
  O  O31  1  0.79073606  0.37004798  0.78077044  1
  O  O32  1  0.27530710  0.66437579  0.22045741  1
  O  O33  1  0.71829686  0.87906081  0.78223558  1
  O  O34  1  0.30141099  0.47615039  0.74173618  1
  O  O35  1  0.71207795  0.20751025  0.25463758  1
  O  O36  1  0.19349806  0.98103638  0.74626330  1
  O  O37  1  0.78520863  0.70755165  0.25415421  1
