# generated using pymatgen
data_Na2Th(MoO4)3
_symmetry_space_group_name_H-M   'P 1'
_cell_length_a   6.97183309
_cell_length_b   6.97183309
_cell_length_c   12.01989572
_cell_angle_alpha   80.21427759
_cell_angle_beta   99.78572241
_cell_angle_gamma   65.46143551
_symmetry_Int_Tables_number   1
_chemical_formula_structural   Na2Th(MoO4)3
_chemical_formula_sum   'Na4 Th2 Mo6 O24'
_cell_volume   504.53542499
_cell_formula_units_Z   2
loop_
 _symmetry_equiv_pos_site_id
 _symmetry_equiv_pos_as_xyz
  1  'x, y, z'
loop_
 _atom_site_type_symbol
 _atom_site_label
 _atom_site_symmetry_multiplicity
 _atom_site_fract_x
 _atom_site_fract_y
 _atom_site_fract_z
 _atom_site_occupancy
  Na  Na0  1  0.78757274  0.46108894  0.57820643  1
  Na  Na1  1  0.46108894  0.78757274  0.92179357  1
  Na  Na2  1  0.53891106  0.21242726  0.07820643  1
  Na  Na3  1  0.21242726  0.53891106  0.42179357  1
  Th  Th4  1  0.12733007  0.12733007  0.25000000  1
  Th  Th5  1  0.87266993  0.87266993  0.75000000  1
  Mo  Mo6  1  0.29356240  0.95537473  0.58647617  1
  Mo  Mo7  1  0.95537473  0.29356240  0.91352383  1
  Mo  Mo8  1  0.62366290  0.62366290  0.25000000  1
  Mo  Mo9  1  0.70643760  0.04462527  0.41352383  1
  Mo  Mo10  1  0.37633710  0.37633710  0.75000000  1
  Mo  Mo11  1  0.04462527  0.70643760  0.08647617  1
  O  O12  1  0.86023332  0.20920900  0.78825279  1
  O  O13  1  0.51002777  0.56280338  0.12547136  1
  O  O14  1  0.19339865  0.90737810  0.44809781  1
  O  O15  1  0.20920900  0.86023332  0.71174721  1
  O  O16  1  0.90737810  0.19339865  0.05190219  1
  O  O17  1  0.56280338  0.51002777  0.37452864  1
  O  O18  1  0.52035889  0.07440376  0.77924665  1
  O  O19  1  0.16546221  0.40932164  0.11945079  1
  O  O20  1  0.82197141  0.75815656  0.43987218  1
  O  O21  1  0.07440376  0.52035889  0.72075335  1
  O  O22  1  0.75815656  0.82197141  0.06012782  1
  O  O23  1  0.40932164  0.16546221  0.38054921  1
  O  O24  1  0.48997223  0.43719662  0.87452864  1
  O  O25  1  0.13976668  0.79079100  0.21174721  1
  O  O26  1  0.80660135  0.09262190  0.55190219  1
  O  O27  1  0.09262190  0.80660135  0.94809781  1
  O  O28  1  0.79079100  0.13976668  0.28825279  1
  O  O29  1  0.43719662  0.48997223  0.62547136  1
  O  O30  1  0.83453779  0.59067836  0.88054921  1
  O  O31  1  0.47964111  0.92559624  0.22075335  1
  O  O32  1  0.17802859  0.24184344  0.56012782  1
  O  O33  1  0.24184344  0.17802859  0.93987218  1
  O  O34  1  0.92559624  0.47964111  0.27924665  1
  O  O35  1  0.59067836  0.83453779  0.61945079  1
