# generated using pymatgen
data_NaEuTiNbO6F
_symmetry_space_group_name_H-M   'P 1'
_cell_length_a   7.35656938
_cell_length_b   7.21407558
_cell_length_c   7.55679141
_cell_angle_alpha   90.00000000
_cell_angle_beta   59.09551733
_cell_angle_gamma   119.36130094
_symmetry_Int_Tables_number   1
_chemical_formula_structural   NaEuTiNbO6F
_chemical_formula_sum   'Na2 Eu2 Ti2 Nb2 O12 F2'
_cell_volume   282.38758159
_cell_formula_units_Z   2
loop_
 _symmetry_equiv_pos_site_id
 _symmetry_equiv_pos_as_xyz
  1  'x, y, z'
loop_
 _atom_site_type_symbol
 _atom_site_label
 _atom_site_symmetry_multiplicity
 _atom_site_fract_x
 _atom_site_fract_y
 _atom_site_fract_z
 _atom_site_occupancy
  Na  Na0  1  0.50000000  0.50000000  -0.00000000  1
  Na  Na1  1  0.50000000  0.00000000  -0.00000000  1
  Eu  Eu2  1  0.00000000  0.00000000  0.50000000  1
  Eu  Eu3  1  0.00000000  0.00000000  -0.00000000  1
  Ti  Ti4  1  0.50000000  0.00000000  0.50000000  1
  Ti  Ti5  1  0.50000000  0.50000000  0.50000000  1
  Nb  Nb6  1  0.00000000  0.50000000  -0.00000000  1
  Nb  Nb7  1  0.00000000  0.50000000  0.50000000  1
  O  O8  1  0.65179245  0.82589622  0.42410378  1
  O  O9  1  0.86642610  0.43321305  0.81678695  1
  O  O10  1  0.24741318  0.82828108  0.81641480  1
  O  O11  1  0.24741318  0.41913209  0.43617203  1
  O  O12  1  0.24741318  0.41913209  0.81641480  1
  O  O13  1  0.24741318  0.82828108  0.43617203  1
  O  O14  1  0.34820755  0.17410378  0.57589622  1
  O  O15  1  0.13357390  0.56678695  0.18321305  1
  O  O16  1  0.75258682  0.17171892  0.18358520  1
  O  O17  1  0.75258682  0.58086791  0.56382797  1
  O  O18  1  0.75258682  0.58086791  0.18358520  1
  O  O19  1  0.75258682  0.17171892  0.56382797  1
  F  F20  1  0.25351362  0.12675681  0.12324319  1
  F  F21  1  0.74648638  0.87324319  0.87675681  1
