# generated using pymatgen
data_Na2Cd2Fe(PO4)3
_symmetry_space_group_name_H-M   'P 1'
_cell_length_a   6.70029352
_cell_length_b   8.97639776
_cell_length_c   8.97639776
_cell_angle_alpha   92.15006151
_cell_angle_beta   107.03389990
_cell_angle_gamma   107.03389990
_symmetry_Int_Tables_number   1
_chemical_formula_structural   Na2Cd2Fe(PO4)3
_chemical_formula_sum   'Na4 Cd4 Fe2 P6 O24'
_cell_volume   489.04065001
_cell_formula_units_Z   2
loop_
 _symmetry_equiv_pos_site_id
 _symmetry_equiv_pos_as_xyz
  1  'x, y, z'
loop_
 _atom_site_type_symbol
 _atom_site_label
 _atom_site_symmetry_multiplicity
 _atom_site_fract_x
 _atom_site_fract_y
 _atom_site_fract_z
 _atom_site_occupancy
  Na  Na0  1  0.75000000  0.02802388  0.97197612  1
  Na  Na1  1  0.25000000  0.98014692  0.01985308  1
  Na  Na2  1  0.50350874  0.50155878  0.50060026  1
  Na  Na3  1  0.99649126  0.49939974  0.49844122  1
  Cd  Cd4  1  0.35140009  0.92299066  0.62514163  1
  Cd  Cd5  1  0.14859991  0.37485837  0.07700934  1
  Cd  Cd6  1  0.25000000  0.27392440  0.72607560  1
  Cd  Cd7  1  0.75000000  0.72844066  0.27155934  1
  Fe  Fe8  1  0.63827669  0.06787250  0.38486637  1
  Fe  Fe9  1  0.86172331  0.61513363  0.93212750  1
  P  P10  1  0.75000000  0.28743501  0.71256499  1
  P  P11  1  0.25000000  0.72307095  0.27692905  1
  P  P12  1  0.37527387  0.65826563  0.87514142  1
  P  P13  1  0.12472613  0.12485858  0.34173437  1
  P  P14  1  0.63283348  0.34196943  0.13313759  1
  P  P15  1  0.86716652  0.86686241  0.65803057  1
  O  O16  1  0.74533285  0.26166332  0.53777343  1
  O  O17  1  0.75466715  0.46222657  0.73833668  1
  O  O18  1  0.19238506  0.73268991  0.42961177  1
  O  O19  1  0.30761494  0.57038823  0.26731009  1
  O  O20  1  0.54394498  0.18116179  0.74544549  1
  O  O21  1  0.95605502  0.25455451  0.81883821  1
  O  O22  1  0.45776597  0.85438559  0.26221019  1
  O  O23  1  0.04223403  0.73778981  0.14561441  1
  O  O24  1  0.41488200  0.83491313  0.85846248  1
  O  O25  1  0.08511800  0.14153752  0.16508687  1
  O  O26  1  0.64039024  0.17891683  0.19013137  1
  O  O27  1  0.85960976  0.80986863  0.82108317  1
  O  O28  1  0.32111923  0.55056992  0.71967291  1
  O  O29  1  0.17888077  0.28032709  0.44943008  1
  O  O30  1  0.66894126  0.45990480  0.27570682  1
  O  O31  1  0.83105874  0.72429318  0.54009520  1
  O  O32  1  0.18241118  0.60469975  0.94479643  1
  O  O33  1  0.31758882  0.05520357  0.39530025  1
  O  O34  1  0.81431733  0.40947861  0.05421024  1
  O  O35  1  0.68568267  0.94578976  0.59052139  1
  O  O36  1  0.59672998  0.64713292  0.99405124  1
  O  O37  1  0.90327002  0.00594876  0.35286708  1
  O  O38  1  0.40569615  0.30570719  0.00396292  1
  O  O39  1  0.09430385  0.99603708  0.69429281  1
