# generated using pymatgen
data_Na3Zr2Si2PO12
_symmetry_space_group_name_H-M   'P 1'
_cell_length_a   9.17315394
_cell_length_b   9.17315394
_cell_length_c   9.25922235
_cell_angle_alpha   60.60758540
_cell_angle_beta   60.60758540
_cell_angle_gamma   60.20830074
_symmetry_Int_Tables_number   1
_chemical_formula_structural   Na3Zr2Si2PO12
_chemical_formula_sum   'Na6 Zr4 Si4 P2 O24'
_cell_volume   556.82170563
_cell_formula_units_Z   2
loop_
 _symmetry_equiv_pos_site_id
 _symmetry_equiv_pos_as_xyz
  1  'x, y, z'
loop_
 _atom_site_type_symbol
 _atom_site_label
 _atom_site_symmetry_multiplicity
 _atom_site_fract_x
 _atom_site_fract_y
 _atom_site_fract_z
 _atom_site_occupancy
  Na  Na0  1  0.61568246  0.38431754  0.25000000  1
  Na  Na1  1  0.39835054  0.60164946  0.75000000  1
  Na  Na2  1  0.75315624  0.91615201  0.68421683  1
  Na  Na3  1  0.08384799  0.24684376  0.81578317  1
  Na  Na4  1  0.99889096  0.52198637  0.01637877  1
  Na  Na5  1  0.47801363  0.00110904  0.48362123  1
  Zr  Zr6  1  0.85721506  0.34416466  0.44321968  1
  Zr  Zr7  1  0.65583534  0.14278494  0.05678032  1
  Zr  Zr8  1  0.14582617  0.65248573  0.55507228  1
  Zr  Zr9  1  0.34751427  0.85417383  0.94492772  1
  Si  Si10  1  0.94727931  0.05272069  0.25000000  1
  Si  Si11  1  0.04809231  0.95190769  0.75000000  1
  Si  Si12  1  0.74788548  0.53553208  0.75755238  1
  Si  Si13  1  0.46446792  0.25211452  0.74244762  1
  P  P14  1  0.25274711  0.46131886  0.23850036  1
  P  P15  1  0.53868114  0.74725289  0.26149964  1
  O  O16  1  0.99380435  0.88815001  0.42471211  1
  O  O17  1  0.11184999  0.00619565  0.07528789  1
  O  O18  1  0.00636507  0.12013299  0.57803577  1
  O  O19  1  0.87986701  0.99363493  0.92196423  1
  O  O20  1  0.71528753  0.58903667  0.26198527  1
  O  O21  1  0.41096333  0.28471247  0.23801473  1
  O  O22  1  0.27744135  0.41566377  0.72704180  1
  O  O23  1  0.58433623  0.72255865  0.77295820  1
  O  O24  1  0.07996107  0.44199841  0.27393548  1
  O  O25  1  0.55800159  0.92003893  0.22606452  1
  O  O26  1  0.93305433  0.56125018  0.71145309  1
  O  O27  1  0.43874982  0.06694567  0.78854691  1
  O  O28  1  0.23765793  0.51621644  0.38139871  1
  O  O29  1  0.48378356  0.76234207  0.11860129  1
  O  O30  1  0.75177794  0.48761921  0.60741397  1
  O  O31  1  0.51238079  0.24822206  0.89258603  1
  O  O32  1  0.92663504  0.24530586  0.24252865  1
  O  O33  1  0.75469414  0.07336496  0.25747135  1
  O  O34  1  0.06764888  0.76526507  0.74647644  1
  O  O35  1  0.23473493  0.93235112  0.75352356  1
  O  O36  1  0.29262770  0.60864511  0.05788680  1
  O  O37  1  0.39135489  0.70737230  0.44211320  1
  O  O38  1  0.73234994  0.36681335  0.94192839  1
  O  O39  1  0.63318665  0.26765006  0.55807161  1
