# generated using pymatgen
data_MnZn3(FeO2)8
_symmetry_space_group_name_H-M   'P 1'
_cell_length_a   6.07922473
_cell_length_b   8.59727056
_cell_length_c   6.07922473
_cell_angle_alpha   90.00000000
_cell_angle_beta   90.00000000
_cell_angle_gamma   90.00000000
_symmetry_Int_Tables_number   1
_chemical_formula_structural   MnZn3(FeO2)8
_chemical_formula_sum   'Mn1 Zn3 Fe8 O16'
_cell_volume   317.72909855
_cell_formula_units_Z   1
loop_
 _symmetry_equiv_pos_site_id
 _symmetry_equiv_pos_as_xyz
  1  'x, y, z'
loop_
 _atom_site_type_symbol
 _atom_site_label
 _atom_site_symmetry_multiplicity
 _atom_site_fract_x
 _atom_site_fract_y
 _atom_site_fract_z
 _atom_site_occupancy
  Mn  Mn0  1  0.50000000  0.75000000  0.00000000  1
  Zn  Zn1  1  -0.00000000  0.25000000  0.50000000  1
  Zn  Zn2  1  -0.00000000  0.00041117  0.00000000  1
  Zn  Zn3  1  0.50000000  0.49958883  0.50000000  1
  Fe  Fe4  1  0.24917195  0.37423990  0.00000000  1
  Fe  Fe5  1  0.75042150  0.87598151  0.50000000  1
  Fe  Fe6  1  0.00000000  0.62401849  0.74957850  1
  Fe  Fe7  1  0.50000000  0.12576010  0.25082805  1
  Fe  Fe8  1  -0.00000000  0.62401849  0.25042150  1
  Fe  Fe9  1  0.50000000  0.12576010  0.74917195  1
  Fe  Fe10  1  0.75082805  0.37423990  -0.00000000  1
  Fe  Fe11  1  0.24957850  0.87598151  0.50000000  1
  O  O12  1  0.72897587  0.13507778  0.00000000  1
  O  O13  1  0.22977729  0.63557314  0.50000000  1
  O  O14  1  0.50000000  0.36492222  0.77102413  1
  O  O15  1  -0.00000000  0.86442686  0.27022271  1
  O  O16  1  0.50000000  0.36492222  0.22897587  1
  O  O17  1  -0.00000000  0.86442686  0.72977729  1
  O  O18  1  0.27102413  0.13507778  0.00000000  1
  O  O19  1  0.77022271  0.63557314  0.50000000  1
  O  O20  1  0.77783947  0.61036288  -0.00000000  1
  O  O21  1  0.26991294  0.11565479  0.50000000  1
  O  O22  1  -0.00000000  0.38434521  0.23008706  1
  O  O23  1  0.50000000  0.88963712  0.72216053  1
  O  O24  1  -0.00000000  0.38434521  0.76991294  1
  O  O25  1  0.50000000  0.88963712  0.27783947  1
  O  O26  1  0.22216053  0.61036288  -0.00000000  1
  O  O27  1  0.73008706  0.11565479  0.50000000  1
