# generated using pymatgen
data_MnCr2Se3S
_symmetry_space_group_name_H-M   'P 1'
_cell_length_a   3.68197873
_cell_length_b   6.33193844
_cell_length_c   7.12474383
_cell_angle_alpha   117.94322362
_cell_angle_beta   75.02522982
_cell_angle_gamma   89.99999975
_symmetry_Int_Tables_number   1
_chemical_formula_structural   MnCr2Se3S
_chemical_formula_sum   'Mn1 Cr2 Se3 S1'
_cell_volume   140.32333185
_cell_formula_units_Z   1
loop_
 _symmetry_equiv_pos_site_id
 _symmetry_equiv_pos_as_xyz
  1  'x, y, z'
loop_
 _atom_site_type_symbol
 _atom_site_label
 _atom_site_symmetry_multiplicity
 _atom_site_fract_x
 _atom_site_fract_y
 _atom_site_fract_z
 _atom_site_occupancy
  Mn  Mn0  1  0.00172439  0.98249911  0.99655122  1
  Cr  Cr1  1  0.25423432  0.73055862  0.49153136  1
  Cr  Cr2  1  0.74048241  0.28022672  0.51903518  1
  Se  Se3  1  0.87152588  0.45732413  0.25694825  1
  Se  Se4  1  0.36276691  0.96841248  0.27446619  1
  Se  Se5  1  0.63077120  0.03921069  0.73845760  1
  S  S6  1  0.13849490  0.54176825  0.72301020  1
