# generated using pymatgen
data_PrCd6
_symmetry_space_group_name_H-M   'P 1'
_cell_length_a   13.86507258
_cell_length_b   13.86507258
_cell_length_c   13.86507258
_cell_angle_alpha   71.85401047
_cell_angle_beta   70.21549326
_cell_angle_gamma   110.49203926
_symmetry_Int_Tables_number   1
_chemical_formula_structural   PrCd6
_chemical_formula_sum   'Pr12 Cd72'
_cell_volume   2050.94390631
_cell_formula_units_Z   12
loop_
 _symmetry_equiv_pos_site_id
 _symmetry_equiv_pos_as_xyz
  1  'x, y, z'
loop_
 _atom_site_type_symbol
 _atom_site_label
 _atom_site_symmetry_multiplicity
 _atom_site_fract_x
 _atom_site_fract_y
 _atom_site_fract_z
 _atom_site_occupancy
  Pr  Pr0  1  0.70207245  0.50608697  0.19598548  1
  Pr  Pr1  1  0.29792755  0.49391303  0.80401452  1
  Pr  Pr2  1  0.70207245  0.89805792  0.80401452  1
  Pr  Pr3  1  0.29792755  0.10194208  0.19598548  1
  Pr  Pr4  1  0.80918329  0.30130899  0.88950772  1
  Pr  Pr5  1  0.19081671  0.69869101  0.11049228  1
  Pr  Pr6  1  0.19081671  0.30130899  0.50787430  1
  Pr  Pr7  1  0.80918329  0.69869101  0.49212570  1
  Pr  Pr8  1  0.48554777  0.18833198  0.70278422  1
  Pr  Pr9  1  0.51445223  0.81166802  0.29721578  1
  Pr  Pr10  1  0.10888380  0.81166802  0.70278422  1
  Pr  Pr11  1  0.89111620  0.18833198  0.29721578  1
  Cd  Cd12  1  0.99963292  0.67701362  0.00182169  1
  Cd  Cd13  1  0.32116469  0.32298638  0.67738070  1
  Cd  Cd14  1  0.67883531  0.00145461  0.99817831  1
  Cd  Cd15  1  0.00036708  0.99854539  0.32261930  1
  Cd  Cd16  1  0.00036708  0.32298638  0.99817831  1
  Cd  Cd17  1  0.67883531  0.67701362  0.32261930  1
  Cd  Cd18  1  0.32116469  0.99854539  0.00182169  1
  Cd  Cd19  1  0.99963292  0.00145461  0.67738070  1
  Cd  Cd20  1  0.90392460  0.64745450  0.25647010  1
  Cd  Cd21  1  0.09607540  0.35254550  0.74352990  1
  Cd  Cd22  1  0.90392460  0.16039470  0.74352990  1
  Cd  Cd23  1  0.09607540  0.83960530  0.25647010  1
  Cd  Cd24  1  0.76429338  0.09026082  0.14544580  1
  Cd  Cd25  1  0.23570662  0.90973918  0.85455420  1
  Cd  Cd26  1  0.23570662  0.09026082  0.67403256  1
  Cd  Cd27  1  0.76429338  0.90973918  0.32596744  1
  Cd  Cd28  1  0.33668946  0.24219003  0.90550057  1
  Cd  Cd29  1  0.66331054  0.75780997  0.09449943  1
  Cd  Cd30  1  0.85230940  0.75780997  0.90550057  1
  Cd  Cd31  1  0.14769060  0.24219003  0.09449943  1
  Cd  Cd32  1  0.64625124  0.24261415  0.40363710  1
  Cd  Cd33  1  0.35374876  0.75738585  0.59636290  1
  Cd  Cd34  1  0.64625124  0.04988834  0.59636290  1
  Cd  Cd35  1  0.35374876  0.95011166  0.40363710  1
  Cd  Cd36  1  0.59561587  0.35279530  0.05158883  1
  Cd  Cd37  1  0.40438413  0.64720470  0.94841117  1
  Cd  Cd38  1  0.40438413  0.35279530  0.24282057  1
  Cd  Cd39  1  0.59561587  0.64720470  0.75717943  1
  Cd  Cd40  1  0.75371165  0.40369883  0.64998717  1
  Cd  Cd41  1  0.24628835  0.59630117  0.35001283  1
  Cd  Cd42  1  0.94631400  0.59630117  0.64998717  1
  Cd  Cd43  1  0.05368600  0.40369883  0.35001283  1
  Cd  Cd44  1  -0.00000000  0.59187347  0.40812653  1
  Cd  Cd45  1  -0.00000000  0.40812653  0.59187347  1
  Cd  Cd46  1  0.59573607  -0.00000000  0.40426393  1
  Cd  Cd47  1  0.40426393  0.00000000  0.59573607  1
  Cd  Cd48  1  0.40467084  0.40467084  0.00000000  1
  Cd  Cd49  1  0.59532916  0.59532916  0.00000000  1
  Cd  Cd50  1  0.91465758  0.45249178  0.22750821  1
  Cd  Cd51  1  0.32000001  0.54750822  0.53783420  1
  Cd  Cd52  1  0.67999999  0.14216579  0.77249179  1
  Cd  Cd53  1  0.08534242  0.85783421  0.46216580  1
  Cd  Cd54  1  0.54852006  0.08970207  0.13985089  1
  Cd  Cd55  1  0.22955296  0.68837095  0.86014911  1
  Cd  Cd56  1  0.45147994  0.31162905  0.45881799  1
  Cd  Cd57  1  0.77044704  0.91029793  0.54118201  1
  Cd  Cd58  1  0.54051906  0.45591270  0.68432604  1
  Cd  Cd59  1  0.45948094  0.77515490  0.08460636  1
  Cd  Cd60  1  0.85976125  0.54408730  0.91539364  1
  Cd  Cd61  1  0.14023875  0.22484510  0.31567396  1
  Cd  Cd62  1  0.08534242  0.54750822  0.77249179  1
  Cd  Cd63  1  0.67999999  0.45249178  0.46216580  1
  Cd  Cd64  1  0.32000001  0.85783421  0.22750821  1
  Cd  Cd65  1  0.91465758  0.14216579  0.53783420  1
  Cd  Cd66  1  0.45147994  0.91029793  0.86014911  1
  Cd  Cd67  1  0.77044704  0.31162905  0.13985089  1
  Cd  Cd68  1  0.54852006  0.68837095  0.54118201  1
  Cd  Cd69  1  0.22955296  0.08970207  0.45881799  1
  Cd  Cd70  1  0.45948094  0.54408730  0.31567396  1
  Cd  Cd71  1  0.54051906  0.22484510  0.91539364  1
  Cd  Cd72  1  0.14023875  0.45591270  0.08460636  1
  Cd  Cd73  1  0.85976125  0.77515490  0.68432604  1
  Cd  Cd74  1  0.80196113  0.30196113  0.50000000  1
  Cd  Cd75  1  0.19803887  0.69803887  0.50000000  1
  Cd  Cd76  1  0.50000000  0.19874281  0.30125719  1
  Cd  Cd77  1  0.50000000  0.80125719  0.69874281  1
  Cd  Cd78  1  0.69361058  0.50000000  0.80638942  1
  Cd  Cd79  1  0.30638942  0.50000000  0.19361058  1
  Cd  Cd80  1  0.90573238  0.82099930  0.08473308  1
  Cd  Cd81  1  0.09426762  0.17900070  0.91526692  1
  Cd  Cd82  1  0.90573238  0.99046545  0.91526692  1
  Cd  Cd83  1  0.09426762  0.00953455  0.08473308  1
