# generated using pymatgen
data_Mn4Cr(Co2Ge)5
_symmetry_space_group_name_H-M   'P 1'
_cell_length_a   4.06621783
_cell_length_b   4.06621783
_cell_length_c   16.60038470
_cell_angle_alpha   82.96511721
_cell_angle_beta   90.00000000
_cell_angle_gamma   120.00000000
_symmetry_Int_Tables_number   1
_chemical_formula_structural   Mn4Cr(Co2Ge)5
_chemical_formula_sum   'Mn4 Cr1 Co10 Ge5'
_cell_volume   235.31150768
_cell_formula_units_Z   1
loop_
 _symmetry_equiv_pos_site_id
 _symmetry_equiv_pos_as_xyz
  1  'x, y, z'
loop_
 _atom_site_type_symbol
 _atom_site_label
 _atom_site_symmetry_multiplicity
 _atom_site_fract_x
 _atom_site_fract_y
 _atom_site_fract_z
 _atom_site_occupancy
  Mn  Mn0  1  0.59982285  0.19964571  0.20053144  1
  Mn  Mn1  1  0.19994836  0.39989671  0.40015493  1
  Mn  Mn2  1  0.80005164  0.60010329  0.59984507  1
  Mn  Mn3  1  0.40017715  0.80035429  0.79946856  1
  Cr  Cr4  1  0.00000000  -0.00000000  -0.00000000  1
  Co  Co5  1  0.05009479  0.10018957  0.84971564  1
  Co  Co6  1  0.85005289  0.70010578  0.44984132  1
  Co  Co7  1  0.45006401  0.90012803  0.64980796  1
  Co  Co8  1  0.65029736  0.30059472  0.04910792  1
  Co  Co9  1  0.25001982  0.50003964  0.24994054  1
  Co  Co10  1  0.34970264  0.69940528  0.95089208  1
  Co  Co11  1  0.14994711  0.29989422  0.55015868  1
  Co  Co12  1  0.74998018  0.49996036  0.75005946  1
  Co  Co13  1  0.94990521  0.89981043  0.15028436  1
  Co  Co14  1  0.54993599  0.09987197  0.35019204  1
  Ge  Ge15  1  0.69975333  0.39950666  0.90074001  1
  Ge  Ge16  1  0.50000000  -0.00000000  0.50000000  1
  Ge  Ge17  1  0.10008271  0.20016541  0.69975188  1
  Ge  Ge18  1  0.30024667  0.60049334  0.09925999  1
  Ge  Ge19  1  0.89991729  0.79983459  0.30024812  1
