# generated using pymatgen
data_Mn(CuTe)2
_symmetry_space_group_name_H-M   'P 1'
_cell_length_a   8.55065331
_cell_length_b   8.55065331
_cell_length_c   8.55065331
_cell_angle_alpha   90.00000000
_cell_angle_beta   60.00000000
_cell_angle_gamma   120.00000000
_symmetry_Int_Tables_number   1
_chemical_formula_structural   Mn(CuTe)2
_chemical_formula_sum   'Mn4 Cu8 Te8'
_cell_volume   442.06170740
_cell_formula_units_Z   4
loop_
 _symmetry_equiv_pos_site_id
 _symmetry_equiv_pos_as_xyz
  1  'x, y, z'
loop_
 _atom_site_type_symbol
 _atom_site_label
 _atom_site_symmetry_multiplicity
 _atom_site_fract_x
 _atom_site_fract_y
 _atom_site_fract_z
 _atom_site_occupancy
  Mn  Mn0  1  0.50163138  0.50244706  0.99918431  1
  Mn  Mn1  1  0.50163138  0.99918431  0.99918431  1
  Mn  Mn2  1  0.99836862  0.99918431  0.50244706  1
  Mn  Mn3  1  0.99836862  0.99918431  0.99918431  1
  Cu  Cu4  1  0.74672581  0.87336290  0.37663710  1
  Cu  Cu5  1  0.75327419  0.37663710  0.87336290  1
  Cu  Cu6  1  0.25000000  0.87336290  0.87336290  1
  Cu  Cu7  1  0.25000000  0.37663710  0.37663710  1
  Cu  Cu8  1  0.25000000  0.37663710  0.87336290  1
  Cu  Cu9  1  0.25000000  0.87336290  0.37663710  1
  Cu  Cu10  1  0.75000000  0.37500000  0.37500000  1
  Cu  Cu11  1  0.25000000  0.62500000  0.62500000  1
  Te  Te12  1  0.99510828  0.74266242  0.25244586  1
  Te  Te13  1  0.99510828  0.25244586  0.25244586  1
  Te  Te14  1  0.50489172  0.25244586  0.74266242  1
  Te  Te15  1  0.50489172  0.25244586  0.25244586  1
  Te  Te16  1  0.99001541  0.23502312  0.75499229  1
  Te  Te17  1  0.99001541  0.75499229  0.75499229  1
  Te  Te18  1  0.50998459  0.75499229  0.23502312  1
  Te  Te19  1  0.50998459  0.75499229  0.75499229  1
