# generated using pymatgen
data_MgZn3S4
_symmetry_space_group_name_H-M   'P 1'
_cell_length_a   3.90059617
_cell_length_b   3.90059617
_cell_length_c   12.95303959
_cell_angle_alpha   90.00000000
_cell_angle_beta   81.34022351
_cell_angle_gamma   120.00000000
_symmetry_Int_Tables_number   1
_chemical_formula_structural   MgZn3S4
_chemical_formula_sum   'Mg1 Zn3 S4'
_cell_volume   168.07352638
_cell_formula_units_Z   1
loop_
 _symmetry_equiv_pos_site_id
 _symmetry_equiv_pos_as_xyz
  1  'x, y, z'
loop_
 _atom_site_type_symbol
 _atom_site_label
 _atom_site_symmetry_multiplicity
 _atom_site_fract_x
 _atom_site_fract_y
 _atom_site_fract_z
 _atom_site_occupancy
  Mg  Mg0  1  0.49999675  0.74999838  0.75000487  1
  Zn  Zn1  1  0.99713950  0.99856975  0.00429075  1
  Zn  Zn2  1  0.50007914  0.25003957  0.24988129  1
  Zn  Zn3  1  0.00274817  0.50137408  0.49587775  1
  S  S4  1  0.87358713  0.93679356  0.18961931  1
  S  S5  1  0.37625269  0.18812634  0.43562097  1
  S  S6  1  0.87928832  0.43964416  0.68106752  1
  S  S7  1  0.37090831  0.68545416  0.94363753  1
