# generated using pymatgen
data_LuAlCo
_symmetry_space_group_name_H-M   'P 1'
_cell_length_a   5.25436925
_cell_length_b   5.25374070
_cell_length_c   8.33075299
_cell_angle_alpha   90.00000000
_cell_angle_beta   90.00000000
_cell_angle_gamma   60.94155295
_symmetry_Int_Tables_number   1
_chemical_formula_structural   LuAlCo
_chemical_formula_sum   'Lu4 Al4 Co4'
_cell_volume   201.02352037
_cell_formula_units_Z   4
loop_
 _symmetry_equiv_pos_site_id
 _symmetry_equiv_pos_as_xyz
  1  'x, y, z'
loop_
 _atom_site_type_symbol
 _atom_site_label
 _atom_site_symmetry_multiplicity
 _atom_site_fract_x
 _atom_site_fract_y
 _atom_site_fract_z
 _atom_site_occupancy
  Lu  Lu0  1  0.33336054  0.33340269  0.54696096  1
  Lu  Lu1  1  0.67040140  0.67043600  0.42517203  1
  Lu  Lu2  1  0.67040140  0.67043600  0.07482797  1
  Lu  Lu3  1  0.33336054  0.33340269  0.95303904  1
  Al  Al4  1  0.99580115  0.99569376  0.47877833  1
  Al  Al5  1  0.99580115  0.99569376  0.02122167  1
  Al  Al6  1  0.83410585  0.34023665  0.75000000  1
  Al  Al7  1  0.34019937  0.83410700  0.75000000  1
  Co  Co8  1  0.83331433  0.83334472  0.75000000  1
  Co  Co9  1  0.17522881  0.64305306  0.25000000  1
  Co  Co10  1  0.64306376  0.17524052  0.25000000  1
  Co  Co11  1  0.17496171  0.17495316  0.25000000  1
