# generated using pymatgen
data_MgSiNiO4
_symmetry_space_group_name_H-M   'P 1'
_cell_length_a   4.79560797
_cell_length_b   6.01790717
_cell_length_c   10.23055099
_cell_angle_alpha   90.00000000
_cell_angle_beta   90.00000000
_cell_angle_gamma   90.00000000
_symmetry_Int_Tables_number   1
_chemical_formula_structural   MgSiNiO4
_chemical_formula_sum   'Mg4 Si4 Ni4 O16'
_cell_volume   295.24882761
_cell_formula_units_Z   4
loop_
 _symmetry_equiv_pos_site_id
 _symmetry_equiv_pos_as_xyz
  1  'x, y, z'
loop_
 _atom_site_type_symbol
 _atom_site_label
 _atom_site_symmetry_multiplicity
 _atom_site_fract_x
 _atom_site_fract_y
 _atom_site_fract_z
 _atom_site_occupancy
  Mg  Mg0  1  0.50000000  -0.00000000  0.50000000  1
  Mg  Mg1  1  -0.00000000  0.50000000  0.00000000  1
  Mg  Mg2  1  0.50000000  0.50000000  0.50000000  1
  Mg  Mg3  1  0.00000000  0.00000000  -0.00000000  1
  Si  Si4  1  0.92796711  0.75000000  0.40564184  1
  Si  Si5  1  0.57203289  0.75000000  0.90564184  1
  Si  Si6  1  0.07203289  0.25000000  0.59435816  1
  Si  Si7  1  0.42796711  0.25000000  0.09435816  1
  Ni  Ni8  1  0.49243179  0.75000000  0.22565947  1
  Ni  Ni9  1  0.00756821  0.75000000  0.72565947  1
  Ni  Ni10  1  0.50756821  0.25000000  0.77434053  1
  Ni  Ni11  1  0.99243179  0.25000000  0.27434053  1
  O  O12  1  0.71978725  0.75000000  0.05400661  1
  O  O13  1  0.78021275  0.75000000  0.55400661  1
  O  O14  1  0.28021275  0.25000000  0.94599339  1
  O  O15  1  0.21978725  0.25000000  0.44599339  1
  O  O16  1  0.26760346  0.75000000  0.40776855  1
  O  O17  1  0.23239654  0.75000000  0.90776855  1
  O  O18  1  0.73239654  0.25000000  0.59223145  1
  O  O19  1  0.76760346  0.25000000  0.09223145  1
  O  O20  1  0.77482066  0.96882398  0.33750810  1
  O  O21  1  0.72517934  0.53117602  0.83750810  1
  O  O22  1  0.22517934  0.46882398  0.66249190  1
  O  O23  1  0.27482066  0.03117602  0.16249190  1
  O  O24  1  0.22517934  0.03117602  0.66249190  1
  O  O25  1  0.27482066  0.46882398  0.16249190  1
  O  O26  1  0.77482066  0.53117602  0.33750810  1
  O  O27  1  0.72517934  0.96882398  0.83750810  1
