# generated using pymatgen
data_MnFe2(PO4)3
_symmetry_space_group_name_H-M   'P 1'
_cell_length_a   4.87005504
_cell_length_b   17.81699737
_cell_length_c   9.88921368
_cell_angle_alpha   90.00000000
_cell_angle_beta   89.63010980
_cell_angle_gamma   90.00000000
_symmetry_Int_Tables_number   1
_chemical_formula_structural   MnFe2(PO4)3
_chemical_formula_sum   'Mn4 Fe8 P12 O48'
_cell_volume   858.06679412
_cell_formula_units_Z   4
loop_
 _symmetry_equiv_pos_site_id
 _symmetry_equiv_pos_as_xyz
  1  'x, y, z'
loop_
 _atom_site_type_symbol
 _atom_site_label
 _atom_site_symmetry_multiplicity
 _atom_site_fract_x
 _atom_site_fract_y
 _atom_site_fract_z
 _atom_site_occupancy
  Mn  Mn0  1  0.57366119  0.08333300  0.78182108  1
  Mn  Mn1  1  0.57300980  0.41671122  0.78183821  1
  Mn  Mn2  1  0.57300980  0.74995578  0.78183821  1
  Mn  Mn3  1  0.92449909  0.08333300  0.28256648  1
  Fe  Fe4  1  0.94979551  0.41668909  0.27481275  1
  Fe  Fe5  1  0.94979551  0.74997791  0.27481275  1
  Fe  Fe6  1  0.45015850  0.24950314  0.22443447  1
  Fe  Fe7  1  0.45192143  0.58333300  0.22562133  1
  Fe  Fe8  1  0.45015850  0.91716386  0.22443447  1
  Fe  Fe9  1  0.05300859  0.25021510  0.72297627  1
  Fe  Fe10  1  0.05296914  0.58333300  0.72292559  1
  Fe  Fe11  1  0.05300859  0.91645190  0.72297627  1
  P  P12  1  0.09840472  0.08333300  0.59584316  1
  P  P13  1  0.09984662  0.41673420  0.59670440  1
  P  P14  1  0.09984662  0.74993280  0.59670440  1
  P  P15  1  0.40281933  0.08333300  0.09631996  1
  P  P16  1  0.40144515  0.41662950  0.09400618  1
  P  P17  1  0.40144515  0.75003750  0.09400618  1
  P  P18  1  0.89860046  0.25099075  0.40591238  1
  P  P19  1  0.89801475  0.58333300  0.40559620  1
  P  P20  1  0.89860046  0.91567625  0.40591238  1
  P  P21  1  0.59922484  0.24999690  0.90564923  1
  P  P22  1  0.59889896  0.58333300  0.90570134  1
  P  P23  1  0.59922484  0.91667010  0.90564923  1
  O  O24  1  0.78358787  0.08333300  0.61869359  1
  O  O25  1  0.78476890  0.41667059  0.61979659  1
  O  O26  1  0.78476890  0.74999641  0.61979659  1
  O  O27  1  0.71697256  0.08333300  0.11911256  1
  O  O28  1  0.70989041  0.41671552  0.11844707  1
  O  O29  1  0.70989041  0.74995148  0.11844707  1
  O  O30  1  0.20737611  0.25004522  0.37963741  1
  O  O31  1  0.20753376  0.58333300  0.37941052  1
  O  O32  1  0.20737611  0.91662178  0.37963741  1
  O  O33  1  0.29162384  0.24983341  0.88011090  1
  O  O34  1  0.29138963  0.58333300  0.88035864  1
  O  O35  1  0.29162384  0.91683359  0.88011090  1
  O  O36  1  0.24008510  0.01483885  0.66555335  1
  O  O37  1  0.24046935  0.34815608  0.66722873  1
  O  O38  1  0.24053892  0.68144678  0.66729431  1
  O  O39  1  0.25994296  0.15191029  0.16622989  1
  O  O40  1  0.25223247  0.48425259  0.16683283  1
  O  O41  1  0.25217703  0.81760621  0.16683261  1
  O  O42  1  0.74791529  0.18380308  0.33181771  1
  O  O43  1  0.75182229  0.51574607  0.33135606  1
  O  O44  1  0.75223829  0.84845941  0.33159002  1
  O  O45  1  0.75166400  0.31689195  0.83190436  1
  O  O46  1  0.75170320  0.65025149  0.83227835  1
  O  O47  1  0.75173471  0.98364700  0.83192128  1
  O  O48  1  0.75223829  0.31820759  0.33159002  1
  O  O49  1  0.75182229  0.65092093  0.33135606  1
  O  O50  1  0.74791529  0.98286292  0.33181771  1
  O  O51  1  0.75173471  0.18301900  0.83192128  1
  O  O52  1  0.75170320  0.51641551  0.83227835  1
  O  O53  1  0.75166400  0.84977505  0.83190436  1
  O  O54  1  0.24008510  0.15182815  0.66555335  1
  O  O55  1  0.24053892  0.48521922  0.66729431  1
  O  O56  1  0.24046935  0.81851092  0.66722873  1
  O  O57  1  0.25994296  0.01475671  0.16622989  1
  O  O58  1  0.25217703  0.34906079  0.16683261  1
  O  O59  1  0.25223247  0.68241341  0.16683283  1
  O  O60  1  0.35058951  0.08333300  0.94232171  1
  O  O61  1  0.34245571  0.41664088  0.94090446  1
  O  O62  1  0.34245571  0.75002612  0.94090446  1
  O  O63  1  0.15011753  0.08333300  0.44131138  1
  O  O64  1  0.15130749  0.41668380  0.44332500  1
  O  O65  1  0.15130749  0.74998320  0.44332500  1
  O  O66  1  0.65994291  0.25049566  0.05705090  1
  O  O67  1  0.65811852  0.58333300  0.05748435  1
  O  O68  1  0.65994291  0.91617134  0.05705090  1
  O  O69  1  0.83680950  0.25003331  0.55742876  1
  O  O70  1  0.83692608  0.58333300  0.55716315  1
  O  O71  1  0.83680950  0.91663369  0.55742876  1
