# generated using pymatgen
data_MnCd4S5
_symmetry_space_group_name_H-M   'P 1'
_cell_length_a   6.76434703
_cell_length_b   7.20375040
_cell_length_c   11.00099295
_cell_angle_alpha   70.89143541
_cell_angle_beta   89.98641924
_cell_angle_gamma   89.95790005
_symmetry_Int_Tables_number   1
_chemical_formula_structural   MnCd4S5
_chemical_formula_sum   'Mn2 Cd8 S10'
_cell_volume   506.52647456
_cell_formula_units_Z   2
loop_
 _symmetry_equiv_pos_site_id
 _symmetry_equiv_pos_as_xyz
  1  'x, y, z'
loop_
 _atom_site_type_symbol
 _atom_site_label
 _atom_site_symmetry_multiplicity
 _atom_site_fract_x
 _atom_site_fract_y
 _atom_site_fract_z
 _atom_site_occupancy
  Mn  Mn0  1  0.62394483  0.66475603  0.00244483  1
  Mn  Mn1  1  0.62393059  0.06715232  0.19754883  1
  Cd  Cd2  1  0.12729310  0.33422442  0.00268164  1
  Cd  Cd3  1  0.12729831  0.73693895  0.19728355  1
  Cd  Cd4  1  0.12588856  0.13263938  0.39720407  1
  Cd  Cd5  1  0.12365525  0.53326024  0.59999944  1
  Cd  Cd6  1  0.12589840  0.92981620  0.80283332  1
  Cd  Cd7  1  0.62196367  0.26378770  0.80526665  1
  Cd  Cd8  1  0.62195168  0.46906802  0.39475201  1
  Cd  Cd9  1  0.62259650  0.86933024  0.59998299  1
  S  S10  1  0.50924342  0.33740061  0.00987346  1
  S  S11  1  0.50926752  0.74724987  0.19014881  1
  S  S12  1  0.50610014  0.13000260  0.38990396  1
  S  S13  1  0.50221473  0.53072607  0.60001184  1
  S  S14  1  0.50609983  0.91990475  0.81009548  1
  S  S15  1  0.00243000  0.26589711  0.80146906  1
  S  S16  1  0.98285847  0.66580373  0.00057438  1
  S  S17  1  0.98283509  0.06641789  0.19940885  1
  S  S18  1  0.00245737  0.46739390  0.39850118  1
  S  S19  1  0.00207253  0.86822997  0.60001565  1
