# generated using pymatgen
data_Mn3Sn2Pd5
_symmetry_space_group_name_H-M   'P 1'
_cell_length_a   4.52709764
_cell_length_b   4.52709764
_cell_length_c   18.70013940
_cell_angle_alpha   96.95238683
_cell_angle_beta   83.04761317
_cell_angle_gamma   120.00000000
_symmetry_Int_Tables_number   1
_chemical_formula_structural   Mn3Sn2Pd5
_chemical_formula_sum   'Mn6 Sn4 Pd10'
_cell_volume   328.64807505
_cell_formula_units_Z   2
loop_
 _symmetry_equiv_pos_site_id
 _symmetry_equiv_pos_as_xyz
  1  'x, y, z'
loop_
 _atom_site_type_symbol
 _atom_site_label
 _atom_site_symmetry_multiplicity
 _atom_site_fract_x
 _atom_site_fract_y
 _atom_site_fract_z
 _atom_site_occupancy
  Mn  Mn0  1  0.39997074  0.60002926  0.80008778  1
  Mn  Mn1  1  0.20002926  0.79997074  0.39991222  1
  Mn  Mn2  1  0.80000000  0.20000000  0.60000000  1
  Mn  Mn3  1  0.99932983  0.00067017  0.00201050  1
  Mn  Mn4  1  0.60067017  0.39932983  0.19798950  1
  Mn  Mn5  1  0.30000000  0.70000000  0.10000000  1
  Sn  Sn6  1  0.90014848  0.09985152  0.29955455  1
  Sn  Sn7  1  0.49994815  0.50005185  0.50015555  1
  Sn  Sn8  1  0.10005185  0.89994815  0.69984445  1
  Sn  Sn9  1  0.69985152  0.30014848  0.90044545  1
  Pd  Pd10  1  0.04996889  0.95003111  0.85009333  1
  Pd  Pd11  1  0.84996260  0.15003740  0.45011220  1
  Pd  Pd12  1  0.45002913  0.54997087  0.64991260  1
  Pd  Pd13  1  0.64940847  0.35059153  0.05177460  1
  Pd  Pd14  1  0.25054051  0.74945949  0.24837848  1
  Pd  Pd15  1  0.34945949  0.65054051  0.95162152  1
  Pd  Pd16  1  0.14997087  0.85002913  0.55008740  1
  Pd  Pd17  1  0.75003740  0.24996260  0.74988780  1
  Pd  Pd18  1  0.95059153  0.04940847  0.14822540  1
  Pd  Pd19  1  0.55003111  0.44996889  0.34990667  1
