# generated using pymatgen
data_SrMg7
_symmetry_space_group_name_H-M   'P 1'
_cell_length_a   6.79190833
_cell_length_b   6.79190771
_cell_length_c   5.29968289
_cell_angle_alpha   90.00000000
_cell_angle_beta   90.00000000
_cell_angle_gamma   120.00000297
_symmetry_Int_Tables_number   1
_chemical_formula_structural   SrMg7
_chemical_formula_sum   'Sr1 Mg7'
_cell_volume   211.72107690
_cell_formula_units_Z   1
loop_
 _symmetry_equiv_pos_site_id
 _symmetry_equiv_pos_as_xyz
  1  'x, y, z'
loop_
 _atom_site_type_symbol
 _atom_site_label
 _atom_site_symmetry_multiplicity
 _atom_site_fract_x
 _atom_site_fract_y
 _atom_site_fract_z
 _atom_site_occupancy
  Sr  Sr0  1  0.16666700  0.33333300  0.25000000  1
  Mg  Mg1  1  0.17423799  0.83711849  0.25000000  1
  Mg  Mg2  1  0.66288151  0.32576201  0.25000000  1
  Mg  Mg3  1  0.66288151  0.83711849  0.25000000  1
  Mg  Mg4  1  0.34113671  0.15886329  0.75000000  1
  Mg  Mg5  1  0.34113671  0.68227443  0.75000000  1
  Mg  Mg6  1  0.81772557  0.15886329  0.75000000  1
  Mg  Mg7  1  0.83333300  0.66666700  0.75000000  1
