# generated using pymatgen
data_Li2AlGaSi2(H2O5)2
_symmetry_space_group_name_H-M   'P 1'
_cell_length_a   5.05286122
_cell_length_b   8.31850388
_cell_length_c   10.60459566
_cell_angle_alpha   90.05822025
_cell_angle_beta   90.00000000
_cell_angle_gamma   90.00000000
_symmetry_Int_Tables_number   1
_chemical_formula_structural   Li2AlGaSi2(H2O5)2
_chemical_formula_sum   'Li4 Al2 Ga2 Si4 H8 O20'
_cell_volume   445.73473978
_cell_formula_units_Z   2
loop_
 _symmetry_equiv_pos_site_id
 _symmetry_equiv_pos_as_xyz
  1  'x, y, z'
loop_
 _atom_site_type_symbol
 _atom_site_label
 _atom_site_symmetry_multiplicity
 _atom_site_fract_x
 _atom_site_fract_y
 _atom_site_fract_z
 _atom_site_occupancy
  Li  Li0  1  0.24304007  0.68653859  0.18618685  1
  Li  Li1  1  0.74304007  0.31346141  0.81381315  1
  Li  Li2  1  0.74079720  0.17932819  0.31156955  1
  Li  Li3  1  0.24079720  0.82067181  0.68843045  1
  Al  Al4  1  0.24787395  0.08080810  0.15608783  1
  Al  Al5  1  0.74787395  0.91919190  0.84391217  1
  Ga  Ga6  1  0.74543918  0.58175071  0.34486365  1
  Ga  Ga7  1  0.24543918  0.41824929  0.65513635  1
  Si  Si8  1  0.74880736  0.87510699  0.14287143  1
  Si  Si9  1  0.24880736  0.12489301  0.85712857  1
  Si  Si10  1  0.24785701  0.36992611  0.35361158  1
  Si  Si11  1  0.74785701  0.63007389  0.64638842  1
  H  H12  1  0.65564300  0.33023729  0.03793470  1
  H  H13  1  0.15564300  0.66976271  0.96206530  1
  H  H14  1  0.15404792  0.83023701  0.46464171  1
  H  H15  1  0.65404792  0.16976299  0.53535829  1
  H  H16  1  0.88437697  0.46046359  0.01876264  1
  H  H17  1  0.38437697  0.53953641  0.98123736  1
  H  H18  1  0.38480269  0.96082425  0.48155673  1
  H  H19  1  0.88480269  0.03917575  0.51844327  1
  O  O20  1  0.22033841  0.58475993  0.01738313  1
  O  O21  1  0.72033841  0.41524007  0.98261687  1
  O  O22  1  0.72030987  0.08283684  0.48191212  1
  O  O23  1  0.22030987  0.91716316  0.51808788  1
  O  O24  1  0.86737400  0.72245347  0.22341772  1
  O  O25  1  0.36737400  0.27754653  0.77658228  1
  O  O26  1  0.36426619  0.22005222  0.26945391  1
  O  O27  1  0.86426619  0.77994778  0.73054609  1
  O  O28  1  0.39140158  0.54066678  0.31172357  1
  O  O29  1  0.89140158  0.45933322  0.68827643  1
  O  O30  1  0.90950311  0.03918397  0.18631138  1
  O  O31  1  0.40950311  0.96081603  0.81368862  1
  O  O32  1  0.81763541  0.67061915  0.49920725  1
  O  O33  1  0.31763541  0.32938085  0.50079275  1
  O  O34  1  0.30476273  0.15999975  0.00577093  1
  O  O35  1  0.80476273  0.84000025  0.99422907  1
  O  O36  1  0.92916976  0.38824483  0.32402328  1
  O  O37  1  0.42916976  0.61175517  0.67597672  1
  O  O38  1  0.43255356  0.89925137  0.17558598  1
  O  O39  1  0.93255356  0.10074863  0.82441402  1
