# generated using pymatgen
data_LiTeH5O6
_symmetry_space_group_name_H-M   'P 1'
_cell_length_a   7.61481851
_cell_length_b   7.69819097
_cell_length_c   7.69983217
_cell_angle_alpha   90.01244312
_cell_angle_beta   90.00000000
_cell_angle_gamma   90.00000000
_symmetry_Int_Tables_number   1
_chemical_formula_structural   LiTeH5O6
_chemical_formula_sum   'Li4 Te4 H20 O24'
_cell_volume   451.36666917
_cell_formula_units_Z   4
loop_
 _symmetry_equiv_pos_site_id
 _symmetry_equiv_pos_as_xyz
  1  'x, y, z'
loop_
 _atom_site_type_symbol
 _atom_site_label
 _atom_site_symmetry_multiplicity
 _atom_site_fract_x
 _atom_site_fract_y
 _atom_site_fract_z
 _atom_site_occupancy
  Li  Li0  1  0.00114309  0.50238494  0.01098911  1
  Li  Li1  1  0.99885691  0.00238494  0.51098911  1
  Li  Li2  1  0.49757610  0.48980275  0.50216397  1
  Li  Li3  1  0.50242390  0.98980275  0.00216397  1
  Te  Te4  1  0.50330893  0.51119949  0.00172372  1
  Te  Te5  1  0.49669107  0.01119949  0.50172372  1
  Te  Te6  1  0.00610813  0.50006512  0.48787896  1
  Te  Te7  1  0.99389187  0.00006512  0.98787896  1
  H  H8  1  0.73806919  0.28443062  0.06374144  1
  H  H9  1  0.74453397  0.21528802  0.43330374  1
  H  H10  1  0.23892660  0.56415520  0.71467342  1
  H  H11  1  0.24362453  0.93378929  0.78383568  1
  H  H12  1  0.25546603  0.71528802  0.93330374  1
  H  H13  1  0.26193081  0.78443062  0.56374144  1
  H  H14  1  0.75637547  0.43378929  0.28383568  1
  H  H15  1  0.76107340  0.06415520  0.21467342  1
  H  H16  1  0.71641407  0.50374640  0.75953833  1
  H  H17  1  0.71947364  0.99433431  0.73440751  1
  H  H18  1  0.22166094  0.25917726  0.49807979  1
  H  H19  1  0.21409060  0.23403567  0.00718016  1
  H  H20  1  0.28052636  0.49433431  0.23440751  1
  H  H21  1  0.28358593  0.00374640  0.25953833  1
  H  H22  1  0.78590940  0.73403567  0.50718016  1
  H  H23  1  0.77833906  0.75917726  0.99807979  1
  H  H24  1  0.43896442  0.26610613  0.79627689  1
  H  H25  1  0.93914907  0.29614168  0.73412532  1
  H  H26  1  0.56103558  0.76610613  0.29627689  1
  H  H27  1  0.06085093  0.79614168  0.23412532  1
  O  O28  1  0.58986390  0.53849160  0.76272830  1
  O  O29  1  0.59172364  0.95497715  0.73005515  1
  O  O30  1  0.09264614  0.26245992  0.46194236  1
  O  O31  1  0.08892146  0.22974293  0.04565024  1
  O  O32  1  0.40827636  0.45497715  0.23005515  1
  O  O33  1  0.41013610  0.03849160  0.26272830  1
  O  O34  1  0.91107854  0.72974293  0.54565024  1
  O  O35  1  0.90735386  0.76245992  0.96194236  1
  O  O36  1  0.73471026  0.41594175  0.07456823  1
  O  O37  1  0.73459460  0.08393376  0.42259742  1
  O  O38  1  0.23586220  0.57566584  0.58329240  1
  O  O39  1  0.23343746  0.92363588  0.91516898  1
  O  O40  1  0.26540540  0.58393376  0.92259742  1
  O  O41  1  0.26528974  0.91594175  0.57456823  1
  O  O42  1  0.76656254  0.42363588  0.41516898  1
  O  O43  1  0.76413780  0.07566584  0.08329240  1
  O  O44  1  0.43072820  0.27267579  0.92793111  1
  O  O45  1  0.42506066  0.23395437  0.57104916  1
  O  O46  1  0.93210882  0.42788153  0.72673149  1
  O  O47  1  0.92351352  0.07098260  0.76536710  1
  O  O48  1  0.57493934  0.73395437  0.07104916  1
  O  O49  1  0.56927180  0.77267579  0.42793111  1
  O  O50  1  0.07648648  0.57098260  0.26536710  1
  O  O51  1  0.06789118  0.92788153  0.22673149  1
