# generated using pymatgen
data_Mn12SiNi32P13
_symmetry_space_group_name_H-M   'P 1'
_cell_length_a   7.75725403
_cell_length_b   7.75725404
_cell_length_c   13.44402684
_cell_angle_alpha   73.23170996
_cell_angle_beta   90.00000000
_cell_angle_gamma   120.00000003
_symmetry_Int_Tables_number   1
_chemical_formula_structural   Mn12SiNi32P13
_chemical_formula_sum   'Mn12 Si1 Ni32 P13'
_cell_volume   660.59050771
_cell_formula_units_Z   1
loop_
 _symmetry_equiv_pos_site_id
 _symmetry_equiv_pos_as_xyz
  1  'x, y, z'
loop_
 _atom_site_type_symbol
 _atom_site_label
 _atom_site_symmetry_multiplicity
 _atom_site_fract_x
 _atom_site_fract_y
 _atom_site_fract_z
 _atom_site_occupancy
  Mn  Mn0  1  0.15360801  0.30721601  0.15341393  1
  Mn  Mn1  1  0.65221257  0.30442514  0.65239458  1
  Mn  Mn2  1  0.34778743  0.30460715  0.34760542  1
  Mn  Mn3  1  0.84639199  0.30702193  0.84658607  1
  Mn  Mn4  1  0.53937006  0.69297807  0.15341393  1
  Mn  Mn5  1  0.04318027  0.69539285  0.65239458  1
  Mn  Mn6  1  0.34778743  0.69557486  0.34760542  1
  Mn  Mn7  1  0.84639199  0.69278399  0.84658607  1
  Mn  Mn8  1  0.15360801  0.69297807  0.15341393  1
  Mn  Mn9  1  0.65221257  0.69539285  0.65239458  1
  Mn  Mn10  1  0.95681973  0.30460715  0.34760542  1
  Mn  Mn11  1  0.46062994  0.30702193  0.84658607  1
  Si  Si12  1  0.50000000  0.00000000  0.50000000  1
  Ni  Ni13  1  0.49586794  0.33665702  0.16747505  1
  Ni  Ni14  1  0.99538239  0.33587940  0.66873821  1
  Ni  Ni15  1  0.49586794  0.99173587  0.16747505  1
  Ni  Ni16  1  0.99538239  0.99076479  0.66873821  1
  Ni  Ni17  1  0.66802820  0.33605639  0.99591541  1
  Ni  Ni18  1  0.16832788  0.33665576  0.49501636  1
  Ni  Ni19  1  0.84078908  0.33665702  0.16747505  1
  Ni  Ni20  1  0.34049700  0.33587940  0.66873821  1
  Ni  Ni21  1  0.00461761  0.66412060  0.33126179  1
  Ni  Ni22  1  0.50413206  0.66334298  0.83252495  1
  Ni  Ni23  1  0.00461761  0.00923521  0.33126179  1
  Ni  Ni24  1  0.50413206  0.00826413  0.83252495  1
  Ni  Ni25  1  0.83167212  0.66334424  0.50498364  1
  Ni  Ni26  1  0.33197180  0.66394361  0.00408459  1
  Ni  Ni27  1  0.65950300  0.66412060  0.33126179  1
  Ni  Ni28  1  0.15921092  0.66334298  0.83252495  1
  Ni  Ni29  1  0.82490768  0.11643355  0.05865876  1
  Ni  Ni30  1  0.32241477  0.11818857  0.55939666  1
  Ni  Ni31  1  0.82490768  0.64981537  0.05865876  1
  Ni  Ni32  1  0.32241477  0.64482954  0.55939666  1
  Ni  Ni33  1  0.55924527  0.11849054  0.32226418  1
  Ni  Ni34  1  0.05838540  0.11677080  0.82484381  1
  Ni  Ni35  1  0.29152587  0.11643355  0.05865876  1
  Ni  Ni36  1  0.79577380  0.11818857  0.55939666  1
  Ni  Ni37  1  0.67758523  0.88181143  0.44060334  1
  Ni  Ni38  1  0.17509232  0.88356645  0.94134124  1
  Ni  Ni39  1  0.67758523  0.35517046  0.44060334  1
  Ni  Ni40  1  0.17509232  0.35018463  0.94134124  1
  Ni  Ni41  1  0.94161460  0.88322920  0.17515619  1
  Ni  Ni42  1  0.44075473  0.88150946  0.67773582  1
  Ni  Ni43  1  0.20422620  0.88181143  0.44060334  1
  Ni  Ni44  1  0.70847413  0.88356645  0.94134124  1
  P  P45  1  0.50000000  0.00000000  -0.00000000  1
  P  P46  1  0.00000000  0.00000000  0.50000000  1
  P  P47  1  0.74972776  0.00023852  0.25003372  1
  P  P48  1  0.25027224  0.99976148  0.74996628  1
  P  P49  1  0.00000000  0.50000000  -0.00000000  1
  P  P50  1  0.50000000  0.50000000  0.50000000  1
  P  P51  1  0.74972776  0.49945552  0.25003372  1
  P  P52  1  0.25027224  0.50054448  0.74996628  1
  P  P53  1  0.50000000  0.50000000  -0.00000000  1
  P  P54  1  0.00000000  0.50000000  0.50000000  1
  P  P55  1  0.25051076  0.00023852  0.25003372  1
  P  P56  1  0.74948924  0.99976148  0.74996628  1
  P  P57  1  0.00000000  0.00000000  -0.00000000  1
