# generated using pymatgen
data_LaZnAgAs2
_symmetry_space_group_name_H-M   'P 1'
_cell_length_a   4.37580250
_cell_length_b   4.37580260
_cell_length_c   7.02856512
_cell_angle_alpha   90.00266966
_cell_angle_beta   90.00266970
_cell_angle_gamma   60.00109087
_symmetry_Int_Tables_number   1
_chemical_formula_structural   LaZnAgAs2
_chemical_formula_sum   'La1 Zn1 Ag1 As2'
_cell_volume   116.55140465
_cell_formula_units_Z   1
loop_
 _symmetry_equiv_pos_site_id
 _symmetry_equiv_pos_as_xyz
  1  'x, y, z'
loop_
 _atom_site_type_symbol
 _atom_site_label
 _atom_site_symmetry_multiplicity
 _atom_site_fract_x
 _atom_site_fract_y
 _atom_site_fract_z
 _atom_site_occupancy
  La  La0  1  0.99998968  0.99998968  0.98627120  1
  Zn  Zn1  1  0.33333050  0.33333050  0.37544518  1
  Ag  Ag2  1  0.66665950  0.66665950  0.63796077  1
  As  As3  1  0.66669725  0.66669725  0.24989100  1
  As  As4  1  0.33332307  0.33332307  0.75043184  1
