# generated using pymatgen
data_La3YSc4O12
_symmetry_space_group_name_H-M   'P 1'
_cell_length_a   5.67049518
_cell_length_b   5.83289999
_cell_length_c   8.13544675
_cell_angle_alpha   90.00000000
_cell_angle_beta   90.00000000
_cell_angle_gamma   89.74587518
_symmetry_Int_Tables_number   1
_chemical_formula_structural   La3YSc4O12
_chemical_formula_sum   'La3 Y1 Sc4 O12'
_cell_volume   269.08076344
_cell_formula_units_Z   1
loop_
 _symmetry_equiv_pos_site_id
 _symmetry_equiv_pos_as_xyz
  1  'x, y, z'
loop_
 _atom_site_type_symbol
 _atom_site_label
 _atom_site_symmetry_multiplicity
 _atom_site_fract_x
 _atom_site_fract_y
 _atom_site_fract_z
 _atom_site_occupancy
  La  La0  1  0.01191424  0.95391932  0.25000000  1
  La  La1  1  0.51190244  0.54581551  0.75000000  1
  La  La2  1  0.98659405  0.04735940  0.75000000  1
  Y  Y3  1  0.48666378  0.44684902  0.25000000  1
  Sc  Sc4  1  0.50106251  0.00044545  0.00251124  1
  Sc  Sc5  1  0.99936474  0.49962684  0.49692476  1
  Sc  Sc6  1  0.50106251  0.00044545  0.49748876  1
  Sc  Sc7  1  0.99936474  0.49962684  0.00307524  1
  O  O8  1  0.60045380  0.05135722  0.25000000  1
  O  O9  1  0.87582259  0.53525250  0.25000000  1
  O  O10  1  0.39760437  0.96376067  0.75000000  1
  O  O11  1  0.10027609  0.46541023  0.75000000  1
  O  O12  1  0.80123711  0.79969640  0.94633706  1
  O  O13  1  0.70162800  0.29769610  0.55269231  1
  O  O14  1  0.20453388  0.20465375  0.44262534  1
  O  O15  1  0.30655809  0.69301950  0.06303738  1
  O  O16  1  0.20453388  0.20465375  0.05737466  1
  O  O17  1  0.30655809  0.69301950  0.43696262  1
  O  O18  1  0.80123711  0.79969640  0.55366294  1
  O  O19  1  0.70162800  0.29769610  0.94730769  1
