# generated using pymatgen
data_La4S4Cl2O
_symmetry_space_group_name_H-M   'P 1'
_cell_length_a   7.08973522
_cell_length_b   9.32785508
_cell_length_c   9.41333492
_cell_angle_alpha   60.29993220
_cell_angle_beta   90.00000000
_cell_angle_gamma   90.00000000
_symmetry_Int_Tables_number   1
_chemical_formula_structural   La4S4Cl2O
_chemical_formula_sum   'La8 S8 Cl4 O2'
_cell_volume   540.74262551
_cell_formula_units_Z   2
loop_
 _symmetry_equiv_pos_site_id
 _symmetry_equiv_pos_as_xyz
  1  'x, y, z'
loop_
 _atom_site_type_symbol
 _atom_site_label
 _atom_site_symmetry_multiplicity
 _atom_site_fract_x
 _atom_site_fract_y
 _atom_site_fract_z
 _atom_site_occupancy
  La  La0  1  0.78644796  0.32500320  0.34999359  1
  La  La1  1  0.28644796  0.67499680  0.65000641  1
  La  La2  1  0.23475314  0.19538369  0.60923263  1
  La  La3  1  0.25824218  0.60854150  0.20271748  1
  La  La4  1  0.25824218  0.18874102  0.20271748  1
  La  La5  1  0.73475314  0.80461631  0.39076737  1
  La  La6  1  0.75824218  0.39145850  0.79728252  1
  La  La7  1  0.75824218  0.81125898  0.79728252  1
  S  S8  1  0.52880766  0.46404376  0.07191249  1
  S  S9  1  0.52572353  0.05809700  0.47463551  1
  S  S10  1  0.52572353  0.46726748  0.47463551  1
  S  S11  1  0.02880766  0.53595624  0.92808751  1
  S  S12  1  0.02572353  0.94190300  0.52536449  1
  S  S13  1  0.02572353  0.53273252  0.52536449  1
  S  S14  1  0.85990234  0.13552631  0.72894738  1
  S  S15  1  0.35990234  0.86447369  0.27105262  1
  Cl  Cl16  1  0.85908460  0.73375088  0.13368775  1
  Cl  Cl17  1  0.85908460  0.13256138  0.13368775  1
  Cl  Cl18  1  0.35908460  0.26624912  0.86631225  1
  Cl  Cl19  1  0.35908460  0.86743862  0.86631225  1
  O  O20  1  0.13440827  0.33254521  0.33490958  1
  O  O21  1  0.63440827  0.66745479  0.66509042  1
