# generated using pymatgen
data_Li3Ga14
_symmetry_space_group_name_H-M   'P 1'
_cell_length_a   7.42484936
_cell_length_b   7.42484936
_cell_length_c   7.42485001
_cell_angle_alpha   69.37636277
_cell_angle_beta   69.37636277
_cell_angle_gamma   69.37635791
_symmetry_Int_Tables_number   1
_chemical_formula_structural   Li3Ga14
_chemical_formula_sum   'Li3 Ga14'
_cell_volume   346.16099022
_cell_formula_units_Z   1
loop_
 _symmetry_equiv_pos_site_id
 _symmetry_equiv_pos_as_xyz
  1  'x, y, z'
loop_
 _atom_site_type_symbol
 _atom_site_label
 _atom_site_symmetry_multiplicity
 _atom_site_fract_x
 _atom_site_fract_y
 _atom_site_fract_z
 _atom_site_occupancy
  Li  Li0  1  0.57998057  0.11961388  0.11961388  1
  Li  Li1  1  0.11961388  0.11961388  0.57998057  1
  Li  Li2  1  0.11961388  0.57998057  0.11961388  1
  Ga  Ga3  1  0.17547561  0.49312735  0.49312735  1
  Ga  Ga4  1  0.49312735  0.49312735  0.17547561  1
  Ga  Ga5  1  0.49312735  0.17547561  0.49312735  1
  Ga  Ga6  1  0.82523059  0.51265099  0.51265099  1
  Ga  Ga7  1  0.51265099  0.51265099  0.82523059  1
  Ga  Ga8  1  0.51265099  0.82523059  0.51265099  1
  Ga  Ga9  1  0.07537429  0.07537429  0.07537429  1
  Ga  Ga10  1  0.92071556  0.92071556  0.92071556  1
  Ga  Ga11  1  0.18251917  0.70245828  0.70245828  1
  Ga  Ga12  1  0.70245828  0.70245828  0.18251917  1
  Ga  Ga13  1  0.70245828  0.18251917  0.70245828  1
  Ga  Ga14  1  0.82324941  0.29387689  0.29387689  1
  Ga  Ga15  1  0.29387689  0.29387689  0.82324941  1
  Ga  Ga16  1  0.29387689  0.82324941  0.29387689  1
