# generated using pymatgen
data_K4NaCl5
_symmetry_space_group_name_H-M   'P 1'
_cell_length_a   4.41006259
_cell_length_b   9.88823486
_cell_length_c   7.65932336
_cell_angle_alpha   104.83201302
_cell_angle_beta   106.73158720
_cell_angle_gamma   77.11496917
_symmetry_Int_Tables_number   1
_chemical_formula_structural   K4NaCl5
_chemical_formula_sum   'K4 Na1 Cl5'
_cell_volume   305.15988464
_cell_formula_units_Z   1
loop_
 _symmetry_equiv_pos_site_id
 _symmetry_equiv_pos_as_xyz
  1  'x, y, z'
loop_
 _atom_site_type_symbol
 _atom_site_label
 _atom_site_symmetry_multiplicity
 _atom_site_fract_x
 _atom_site_fract_y
 _atom_site_fract_z
 _atom_site_occupancy
  K  K0  1  0.39913216  0.39820918  0.19647349  1
  K  K1  1  0.79992502  0.80453192  0.40438197  1
  K  K2  1  0.20007498  0.19546808  0.59561803  1
  K  K3  1  0.60086784  0.60179082  0.80352651  1
  Na  Na4  1  0.00000000  -0.00000000  0.00000000  1
  Cl  Cl5  1  0.00000000  0.50000000  0.50000000  1
  Cl  Cl6  1  0.40864601  0.90868237  0.72597440  1
  Cl  Cl7  1  0.80743565  0.28703216  0.90190346  1
  Cl  Cl8  1  0.19256435  0.71296784  0.09809654  1
  Cl  Cl9  1  0.59135399  0.09131763  0.27402560  1
