# generated using pymatgen
data_KNa3Mg4F12
_symmetry_space_group_name_H-M   'P 1'
_cell_length_a   5.54628360
_cell_length_b   5.61108935
_cell_length_c   7.89512186
_cell_angle_alpha   90.00000000
_cell_angle_beta   90.00000000
_cell_angle_gamma   90.20781802
_symmetry_Int_Tables_number   1
_chemical_formula_structural   KNa3Mg4F12
_chemical_formula_sum   'K1 Na3 Mg4 F12'
_cell_volume   245.70004607
_cell_formula_units_Z   1
loop_
 _symmetry_equiv_pos_site_id
 _symmetry_equiv_pos_as_xyz
  1  'x, y, z'
loop_
 _atom_site_type_symbol
 _atom_site_label
 _atom_site_symmetry_multiplicity
 _atom_site_fract_x
 _atom_site_fract_y
 _atom_site_fract_z
 _atom_site_occupancy
  K  K0  1  0.50440914  0.51995883  0.25000000  1
  Na  Na1  1  0.99276924  0.03483870  0.25000000  1
  Na  Na2  1  0.49852747  0.46311075  0.75000000  1
  Na  Na3  1  0.99897420  0.97168438  0.75000000  1
  Mg  Mg4  1  0.99994136  0.50156460  0.99475438  1
  Mg  Mg5  1  0.50064814  0.99774718  0.50443290  1
  Mg  Mg6  1  0.99994136  0.50156460  0.50524562  1
  Mg  Mg7  1  0.50064814  0.99774718  0.99556710  1
  F  F8  1  0.79660782  0.79551552  0.03830382  1
  F  F9  1  0.71860363  0.28036507  0.48142357  1
  F  F10  1  0.21339462  0.21320643  0.54206505  1
  F  F11  1  0.29260600  0.70867972  0.95963473  1
  F  F12  1  0.21339462  0.21320643  0.95793495  1
  F  F13  1  0.29260600  0.70867972  0.54036527  1
  F  F14  1  0.79660782  0.79551552  0.46169618  1
  F  F15  1  0.71860363  0.28036507  0.01857643  1
  F  F16  1  0.42437809  0.00036286  0.25000000  1
  F  F17  1  0.04117160  0.47112010  0.25000000  1
  F  F18  1  0.57389570  0.01172409  0.75000000  1
  F  F19  1  0.92227141  0.53304326  0.75000000  1
