# generated using pymatgen
data_K4Sr2SnAs4
_symmetry_space_group_name_H-M   'P 1'
_cell_length_a   7.76775529
_cell_length_b   10.54642179
_cell_length_c   10.54638092
_cell_angle_alpha   60.53846463
_cell_angle_beta   88.69036665
_cell_angle_gamma   91.30771551
_symmetry_Int_Tables_number   1
_chemical_formula_structural   K4Sr2SnAs4
_chemical_formula_sum   'K8 Sr4 Sn2 As8'
_cell_volume   751.48355883
_cell_formula_units_Z   2
loop_
 _symmetry_equiv_pos_site_id
 _symmetry_equiv_pos_as_xyz
  1  'x, y, z'
loop_
 _atom_site_type_symbol
 _atom_site_label
 _atom_site_symmetry_multiplicity
 _atom_site_fract_x
 _atom_site_fract_y
 _atom_site_fract_z
 _atom_site_occupancy
  K  K0  1  0.38118577  0.52302567  0.95007974  1
  K  K1  1  0.88116395  0.04993936  0.47695067  1
  K  K2  1  0.18082274  0.14008023  0.71576661  1
  K  K3  1  0.21105475  0.71538758  0.13656562  1
  K  K4  1  0.19379363  0.14864535  0.13992449  1
  K  K5  1  0.71104018  0.86344248  0.28458737  1
  K  K6  1  0.68081277  0.28425258  0.85993218  1
  K  K7  1  0.69378159  0.86007597  0.85135517  1
  Sr  Sr8  1  0.38245138  0.93952818  0.52973270  1
  Sr  Sr9  1  0.38041778  0.52322993  0.52933643  1
  Sr  Sr10  1  0.88247554  0.47026329  0.06047223  1
  Sr  Sr11  1  0.88042968  0.47066496  0.47677592  1
  Sn  Sn12  1  0.49718126  0.33582618  0.33169058  1
  Sn  Sn13  1  0.99715251  0.66829975  0.66416239  1
  As  As14  1  0.15131034  0.34464003  0.33313387  1
  As  As15  1  0.65127477  0.66686367  0.65535615  1
  As  As16  1  0.13489190  0.79594103  0.39180205  1
  As  As17  1  0.09220266  0.39163553  0.79570571  1
  As  As18  1  0.10871797  0.80175819  0.80595193  1
  As  As19  1  0.59221793  0.20427848  0.60839889  1
  As  As20  1  0.63489780  0.60817477  0.20407056  1
  As  As21  1  0.60872309  0.19404678  0.19824876  1
