# generated using pymatgen
data_SrMg6Ga
_symmetry_space_group_name_H-M   'P 1'
_cell_length_a   7.41642966
_cell_length_b   6.16993815
_cell_length_c   4.98268600
_cell_angle_alpha   90.00000000
_cell_angle_beta   90.00000000
_cell_angle_gamma   114.58006114
_symmetry_Int_Tables_number   1
_chemical_formula_structural   SrMg6Ga
_chemical_formula_sum   'Sr1 Mg6 Ga1'
_cell_volume   207.34093368
_cell_formula_units_Z   1
loop_
 _symmetry_equiv_pos_site_id
 _symmetry_equiv_pos_as_xyz
  1  'x, y, z'
loop_
 _atom_site_type_symbol
 _atom_site_label
 _atom_site_symmetry_multiplicity
 _atom_site_fract_x
 _atom_site_fract_y
 _atom_site_fract_z
 _atom_site_occupancy
  Sr  Sr0  1  0.10076358  0.30038179  0.25000000  1
  Mg  Mg1  1  0.62907269  0.32251907  0.25000000  1
  Mg  Mg2  1  0.62907269  0.80655262  0.25000000  1
  Mg  Mg3  1  0.35343202  0.17242831  0.75000000  1
  Mg  Mg4  1  0.35343202  0.68100471  0.75000000  1
  Mg  Mg5  1  0.76196990  0.13098545  0.75000000  1
  Mg  Mg6  1  0.90765332  0.70382666  0.75000000  1
  Ga  Ga7  1  0.26460379  0.88230139  0.25000000  1
