# generated using pymatgen
data_KRb2W(OF)3
_symmetry_space_group_name_H-M   'P 1'
_cell_length_a   6.42784335
_cell_length_b   6.49814403
_cell_length_c   6.49814403
_cell_angle_alpha   89.34058701
_cell_angle_beta   60.02307512
_cell_angle_gamma   119.97692488
_symmetry_Int_Tables_number   1
_chemical_formula_structural   KRb2W(OF)3
_chemical_formula_sum   'K1 Rb2 W1 O3 F3'
_cell_volume   190.92683609
_cell_formula_units_Z   1
loop_
 _symmetry_equiv_pos_site_id
 _symmetry_equiv_pos_as_xyz
  1  'x, y, z'
loop_
 _atom_site_type_symbol
 _atom_site_label
 _atom_site_symmetry_multiplicity
 _atom_site_fract_x
 _atom_site_fract_y
 _atom_site_fract_z
 _atom_site_occupancy
  K  K0  1  -0.00000000  0.49775113  0.49775113  1
  Rb  Rb1  1  0.50000000  0.24140217  0.24140217  1
  Rb  Rb2  1  0.50000000  0.74140217  0.74140217  1
  W  W3  1  -0.00000000  0.98324818  0.98324818  1
  O  O4  1  0.40635127  0.21978445  0.81343318  1
  O  O5  1  0.00000000  0.78691168  0.78691168  1
  O  O6  1  0.59364873  0.81343318  0.21978445  1
  F  F7  1  0.00000000  0.21872017  0.77883805  1
  F  F8  1  0.00000000  0.21850881  0.21850881  1
  F  F9  1  0.00000000  0.77883805  0.21872017  1
