# generated using pymatgen
data_K2RbCO3F
_symmetry_space_group_name_H-M   'P 1'
_cell_length_a   7.14967659
_cell_length_b   7.14967667
_cell_length_c   7.20879562
_cell_angle_alpha   64.53668193
_cell_angle_beta   64.53669017
_cell_angle_gamma   64.68700626
_symmetry_Int_Tables_number   1
_chemical_formula_structural   K2RbCO3F
_chemical_formula_sum   'K4 Rb2 C2 O6 F2'
_cell_volume   286.75908738
_cell_formula_units_Z   2
loop_
 _symmetry_equiv_pos_site_id
 _symmetry_equiv_pos_as_xyz
  1  'x, y, z'
loop_
 _atom_site_type_symbol
 _atom_site_label
 _atom_site_symmetry_multiplicity
 _atom_site_fract_x
 _atom_site_fract_y
 _atom_site_fract_z
 _atom_site_occupancy
  K  K0  1  0.81653720  0.68346280  0.25000000  1
  K  K1  1  0.75024622  0.18358501  0.31625135  1
  K  K2  1  0.18345234  0.31654766  0.75000000  1
  K  K3  1  0.31641499  0.74975378  0.18374865  1
  Rb  Rb4  1  0.68582183  0.25013152  0.81416044  1
  Rb  Rb5  1  0.24986848  0.81417817  0.68583956  1
  C  C6  1  0.24934554  0.25065446  0.25000000  1
  C  C7  1  0.74996875  0.75003125  0.75000000  1
  O  O8  1  0.07754429  0.25206401  0.42067045  1
  O  O9  1  0.24793599  0.42245571  0.07932955  1
  O  O10  1  0.42096795  0.07903205  0.25000000  1
  O  O11  1  0.75133056  0.58024833  0.92265630  1
  O  O12  1  0.57844348  0.92155652  0.75000000  1
  O  O13  1  0.91975167  0.74866944  0.57734370  1
  F  F14  1  0.50093011  0.49855942  0.49000035  1
  F  F15  1  0.00144058  0.99906989  0.00999965  1
