# generated using pymatgen
data_K8CaTe6
_symmetry_space_group_name_H-M   'P 1'
_cell_length_a   6.31455241
_cell_length_b   10.09773153
_cell_length_c   10.09773153
_cell_angle_alpha   95.61040737
_cell_angle_beta   108.22032145
_cell_angle_gamma   71.77967855
_symmetry_Int_Tables_number   1
_chemical_formula_structural   K8CaTe6
_chemical_formula_sum   'K8 Ca1 Te6'
_cell_volume   580.91223083
_cell_formula_units_Z   1
loop_
 _symmetry_equiv_pos_site_id
 _symmetry_equiv_pos_as_xyz
  1  'x, y, z'
loop_
 _atom_site_type_symbol
 _atom_site_label
 _atom_site_symmetry_multiplicity
 _atom_site_fract_x
 _atom_site_fract_y
 _atom_site_fract_z
 _atom_site_occupancy
  K  K0  1  0.41515126  0.86574343  0.69085456  1
  K  K1  1  0.59004013  0.13425657  0.30914544  1
  K  K2  1  0.90995987  0.30914544  0.13425657  1
  K  K3  1  0.08484874  0.69085456  0.86574343  1
  K  K4  1  0.71910531  0.69085456  0.13425657  1
  K  K5  1  0.27570330  0.30914544  0.86574343  1
  K  K6  1  0.78089469  0.13425657  0.69085456  1
  K  K7  1  0.22429670  0.86574343  0.30914544  1
  Ca  Ca8  1  0.25000000  0.50000000  0.50000000  1
  Te  Te9  1  0.33882631  0.50000000  0.20711246  1
  Te  Te10  1  0.63171385  0.50000000  0.79288754  1
  Te  Te11  1  0.86828615  0.79288754  0.50000000  1
  Te  Te12  1  0.16117369  0.20711246  0.50000000  1
  Te  Te13  1  0.25000000  0.00000000  -0.00000000  1
  Te  Te14  1  0.75000000  0.00000000  -0.00000000  1
