# generated using pymatgen
data_LaGa3Fe10C
_symmetry_space_group_name_H-M   'P 1'
_cell_length_a   8.29669113
_cell_length_b   8.29669113
_cell_length_c   8.24844453
_cell_angle_alpha   60.83780397
_cell_angle_beta   60.83780397
_cell_angle_gamma   91.78219037
_symmetry_Int_Tables_number   1
_chemical_formula_structural   LaGa3Fe10C
_chemical_formula_sum   'La2 Ga6 Fe20 C2'
_cell_volume   405.22840788
_cell_formula_units_Z   2
loop_
 _symmetry_equiv_pos_site_id
 _symmetry_equiv_pos_as_xyz
  1  'x, y, z'
loop_
 _atom_site_type_symbol
 _atom_site_label
 _atom_site_symmetry_multiplicity
 _atom_site_fract_x
 _atom_site_fract_y
 _atom_site_fract_z
 _atom_site_occupancy
  La  La0  1  0.75142293  0.75142293  0.00000000  1
  La  La1  1  0.25142293  0.25142293  0.00000000  1
  Ga  Ga2  1  0.05764716  0.19563661  0.50000000  1
  Ga  Ga3  1  0.69563661  0.55764716  0.50000000  1
  Ga  Ga4  1  0.43664032  0.93664032  0.86720950  1
  Ga  Ga5  1  0.80384981  0.30384981  0.13279050  1
  Ga  Ga6  1  0.93855387  0.80400537  0.50000000  1
  Ga  Ga7  1  0.30400537  0.43855387  0.50000000  1
  Fe  Fe8  1  0.21045921  0.06249137  0.72403565  1
  Fe  Fe9  1  0.78652702  0.93449486  0.27596435  1
  Fe  Fe10  1  0.70851900  0.43168791  0.85366437  1
  Fe  Fe11  1  0.28535228  0.56218338  0.14633563  1
  Fe  Fe12  1  0.93168791  0.20851900  0.85366437  1
  Fe  Fe13  1  0.06218338  0.78535228  0.14633563  1
  Fe  Fe14  1  0.56249137  0.71045921  0.72403565  1
  Fe  Fe15  1  0.43449486  0.28652702  0.27596435  1
  Fe  Fe16  1  0.49853554  0.99853554  0.50000000  1
  Fe  Fe17  1  0.00125021  0.50125021  0.50000000  1
  Fe  Fe18  1  0.28839849  0.78839849  0.28351410  1
  Fe  Fe19  1  0.07191259  0.57191259  0.71648590  1
  Fe  Fe20  1  0.78141112  0.06324210  0.50000000  1
  Fe  Fe21  1  0.56324210  0.28141112  0.50000000  1
  Fe  Fe22  1  0.71331492  0.21331492  0.72508348  1
  Fe  Fe23  1  0.93839840  0.43839840  0.27491652  1
  Fe  Fe24  1  0.21414891  0.93675908  0.50000000  1
  Fe  Fe25  1  0.43675908  0.71414891  0.50000000  1
  Fe  Fe26  1  0.56416139  0.06416139  0.14158378  1
  Fe  Fe27  1  0.20574517  0.70574517  0.85841622  1
  C  C28  1  0.50091401  0.50091401  0.00000000  1
  C  C29  1  0.00091401  0.00091401  0.00000000  1
