# generated using pymatgen
data_K3SnSb3
_symmetry_space_group_name_H-M   'P 1'
_cell_length_a   4.41720808
_cell_length_b   7.04305005
_cell_length_c   9.20612886
_cell_angle_alpha   95.57488026
_cell_angle_beta   76.11901721
_cell_angle_gamma   90.00000000
_symmetry_Int_Tables_number   1
_chemical_formula_structural   K3SnSb3
_chemical_formula_sum   'K3 Sn1 Sb3'
_cell_volume   276.64849033
_cell_formula_units_Z   1
loop_
 _symmetry_equiv_pos_site_id
 _symmetry_equiv_pos_as_xyz
  1  'x, y, z'
loop_
 _atom_site_type_symbol
 _atom_site_label
 _atom_site_symmetry_multiplicity
 _atom_site_fract_x
 _atom_site_fract_y
 _atom_site_fract_z
 _atom_site_occupancy
  K  K0  1  0.00254332  0.99904577  0.99491336  1
  K  K1  1  0.70591213  0.74949572  0.58817574  1
  K  K2  1  0.28990439  0.25208735  0.42019122  1
  Sn  Sn3  1  0.08433530  0.50794434  0.83132940  1
  Sb  Sb4  1  0.37242646  0.74707792  0.25514708  1
  Sb  Sb5  1  0.62555274  0.24819633  0.74889451  1
  Sb  Sb6  1  0.91932565  0.49615257  0.16134870  1
