# generated using pymatgen
data_In3Cu3SiSe8
_symmetry_space_group_name_H-M   'P 1'
_cell_length_a   5.88229028
_cell_length_b   5.88229028
_cell_length_c   11.08495243
_cell_angle_alpha   90.00000000
_cell_angle_beta   90.00000000
_cell_angle_gamma   90.00000000
_symmetry_Int_Tables_number   1
_chemical_formula_structural   In3Cu3SiSe8
_chemical_formula_sum   'In3 Cu3 Si1 Se8'
_cell_volume   383.55419614
_cell_formula_units_Z   1
loop_
 _symmetry_equiv_pos_site_id
 _symmetry_equiv_pos_as_xyz
  1  'x, y, z'
loop_
 _atom_site_type_symbol
 _atom_site_label
 _atom_site_symmetry_multiplicity
 _atom_site_fract_x
 _atom_site_fract_y
 _atom_site_fract_z
 _atom_site_occupancy
  In  In0  1  0.50000000  -0.00000000  0.26613497  1
  In  In1  1  0.00000000  0.50000000  0.73386503  1
  In  In2  1  0.50000000  0.50000000  -0.00000000  1
  Cu  Cu3  1  0.00000000  0.50000000  0.26407738  1
  Cu  Cu4  1  0.50000000  -0.00000000  0.73592262  1
  Cu  Cu5  1  0.00000000  -0.00000000  -0.00000000  1
  Si  Si6  1  0.00000000  -0.00000000  0.50000000  1
  Se  Se7  1  0.77328510  0.26011647  0.39824936  1
  Se  Se8  1  0.25065331  0.77809868  0.86743984  1
  Se  Se9  1  0.22671490  0.73988353  0.39824936  1
  Se  Se10  1  0.74934669  0.22190132  0.86743984  1
  Se  Se11  1  0.22190132  0.25065331  0.13256016  1
  Se  Se12  1  0.73988353  0.77328510  0.60175064  1
  Se  Se13  1  0.77809868  0.74934669  0.13256016  1
  Se  Se14  1  0.26011647  0.22671490  0.60175064  1
