# generated using pymatgen
data_KSr4Si8H17O29
_symmetry_space_group_name_H-M   'P 1'
_cell_length_a   9.25827688
_cell_length_b   9.25827688
_cell_length_c   16.47701735
_cell_angle_alpha   90.00000000
_cell_angle_beta   90.00000000
_cell_angle_gamma   90.00000000
_symmetry_Int_Tables_number   1
_chemical_formula_structural   KSr4Si8H17O29
_chemical_formula_sum   'K2 Sr8 Si16 H34 O58'
_cell_volume   1412.33892426
_cell_formula_units_Z   2
loop_
 _symmetry_equiv_pos_site_id
 _symmetry_equiv_pos_as_xyz
  1  'x, y, z'
loop_
 _atom_site_type_symbol
 _atom_site_label
 _atom_site_symmetry_multiplicity
 _atom_site_fract_x
 _atom_site_fract_y
 _atom_site_fract_z
 _atom_site_occupancy
  K  K0  1  -0.00000000  0.00000000  0.50040696  1
  K  K1  1  0.50000000  0.50000000  0.00040696  1
  Sr  Sr2  1  0.39149579  0.23920576  0.50183806  1
  Sr  Sr3  1  0.60850421  0.76079424  0.50183806  1
  Sr  Sr4  1  0.10850421  0.73920576  0.00183806  1
  Sr  Sr5  1  0.89149579  0.26079424  0.00183806  1
  Sr  Sr6  1  0.23920576  0.60850421  0.50183806  1
  Sr  Sr7  1  0.76079424  0.39149579  0.50183806  1
  Sr  Sr8  1  0.73920576  0.89149579  0.00183806  1
  Sr  Sr9  1  0.26079424  0.10850421  0.00183806  1
  Si  Si10  1  0.59354469  0.28128982  0.30766424  1
  Si  Si11  1  0.40645531  0.71871018  0.30766424  1
  Si  Si12  1  0.90645531  0.78128982  0.80766424  1
  Si  Si13  1  0.09354469  0.21871018  0.80766424  1
  Si  Si14  1  0.28128982  0.40645531  0.30766424  1
  Si  Si15  1  0.71871018  0.59354469  0.30766424  1
  Si  Si16  1  0.78128982  0.09354469  0.80766424  1
  Si  Si17  1  0.21871018  0.90645531  0.80766424  1
  Si  Si18  1  0.40673186  0.71912349  0.69207743  1
  Si  Si19  1  0.59326814  0.28087651  0.69207743  1
  Si  Si20  1  0.09326814  0.21912349  0.19207743  1
  Si  Si21  1  0.90673186  0.78087651  0.19207743  1
  Si  Si22  1  0.71912349  0.59326814  0.69207743  1
  Si  Si23  1  0.28087651  0.40673186  0.69207743  1
  Si  Si24  1  0.21912349  0.90673186  0.19207743  1
  Si  Si25  1  0.78087651  0.09326814  0.19207743  1
  H  H26  1  0.67195583  0.07443270  0.40995775  1
  H  H27  1  0.32804417  0.92556730  0.40995775  1
  H  H28  1  0.82804417  0.57443270  0.90995775  1
  H  H29  1  0.17195583  0.42556730  0.90995775  1
  H  H30  1  0.07443270  0.32804417  0.40995775  1
  H  H31  1  0.92556730  0.67195583  0.40995775  1
  H  H32  1  0.57443270  0.17195583  0.90995775  1
  H  H33  1  0.42556730  0.82804417  0.90995775  1
  H  H34  1  0.32715894  0.92592100  0.59057133  1
  H  H35  1  0.67284106  0.07407900  0.59057133  1
  H  H36  1  0.17284106  0.42592100  0.09057133  1
  H  H37  1  0.82715894  0.57407900  0.09057133  1
  H  H38  1  0.92592100  0.67284106  0.59057133  1
  H  H39  1  0.07407900  0.32715894  0.59057133  1
  H  H40  1  0.42592100  0.82715894  0.09057133  1
  H  H41  1  0.57407900  0.17284106  0.09057133  1
  H  H42  1  0.26684505  0.04831803  0.64664341  1
  H  H43  1  0.73315495  0.95168197  0.64664341  1
  H  H44  1  0.23315495  0.54831803  0.14664341  1
  H  H45  1  0.76684505  0.45168197  0.14664341  1
  H  H46  1  0.04831803  0.73315495  0.64664341  1
  H  H47  1  0.95168197  0.26684505  0.64664341  1
  H  H48  1  0.54831803  0.76684505  0.14664341  1
  H  H49  1  0.45168197  0.23315495  0.14664341  1
  H  H50  1  0.73161291  0.95172423  0.35416235  1
  H  H51  1  0.26838709  0.04827577  0.35416235  1
  H  H52  1  0.76838709  0.45172423  0.85416235  1
  H  H53  1  0.23161291  0.54827577  0.85416235  1
  H  H54  1  0.95172423  0.26838709  0.35416235  1
  H  H55  1  0.04827577  0.73161291  0.35416235  1
  H  H56  1  0.45172423  0.23161291  0.85416235  1
  H  H57  1  0.54827577  0.76838709  0.85416235  1
  H  H58  1  0.50000000  0.50000000  0.43798985  1
  H  H59  1  -0.00000000  0.00000000  0.93798985  1
  O  O60  1  0.28191717  0.02610239  0.58936508  1
  O  O61  1  0.71808283  0.97389761  0.58936508  1
  O  O62  1  0.21808283  0.52610239  0.08936508  1
  O  O63  1  0.78191717  0.47389761  0.08936508  1
  O  O64  1  0.02610239  0.71808283  0.58936508  1
  O  O65  1  0.97389761  0.28191717  0.58936508  1
  O  O66  1  0.52610239  0.78191717  0.08936508  1
  O  O67  1  0.47389761  0.21808283  0.08936508  1
  O  O68  1  0.71697494  0.97433150  0.41137333  1
  O  O69  1  0.28302506  0.02566850  0.41137333  1
  O  O70  1  0.78302506  0.47433150  0.91137333  1
  O  O71  1  0.21697494  0.52566850  0.91137333  1
  O  O72  1  0.97433150  0.28302506  0.41137333  1
  O  O73  1  0.02566850  0.71697494  0.41137333  1
  O  O74  1  0.47433150  0.21697494  0.91137333  1
  O  O75  1  0.52566850  0.78302506  0.91137333  1
  O  O76  1  0.42420251  0.31103770  0.28053571  1
  O  O77  1  0.57579749  0.68896230  0.28053571  1
  O  O78  1  0.07579749  0.81103770  0.78053571  1
  O  O79  1  0.92420251  0.18896230  0.78053571  1
  O  O80  1  0.31103770  0.57579749  0.28053571  1
  O  O81  1  0.68896230  0.42420251  0.28053571  1
  O  O82  1  0.81103770  0.92420251  0.78053571  1
  O  O83  1  0.18896230  0.07579749  0.78053571  1
  O  O84  1  0.57619408  0.68906153  0.71852368  1
  O  O85  1  0.42380592  0.31093847  0.71852368  1
  O  O86  1  0.92380592  0.18906153  0.21852368  1
  O  O87  1  0.07619408  0.81093847  0.21852368  1
  O  O88  1  0.68906153  0.42380592  0.71852368  1
  O  O89  1  0.31093847  0.57619408  0.71852368  1
  O  O90  1  0.18906153  0.07619408  0.21852368  1
  O  O91  1  0.81093847  0.92380592  0.21852368  1
  O  O92  1  0.64843700  0.14752999  0.25050324  1
  O  O93  1  0.35156300  0.85247001  0.25050324  1
  O  O94  1  0.85156300  0.64752999  0.75050324  1
  O  O95  1  0.14843700  0.35247001  0.75050324  1
  O  O96  1  0.14752999  0.35156300  0.25050324  1
  O  O97  1  0.85247001  0.64843700  0.25050324  1
  O  O98  1  0.64752999  0.14843700  0.75050324  1
  O  O99  1  0.35247001  0.85156300  0.75050324  1
  O  O100  1  0.60738325  0.24168449  0.40272797  1
  O  O101  1  0.39261675  0.75831551  0.40272797  1
  O  O102  1  0.89261675  0.74168449  0.90272797  1
  O  O103  1  0.10738325  0.25831551  0.90272797  1
  O  O104  1  0.24168449  0.39261675  0.40272797  1
  O  O105  1  0.75831551  0.60738325  0.40272797  1
  O  O106  1  0.74168449  0.10738325  0.90272797  1
  O  O107  1  0.25831551  0.89261675  0.90272797  1
  O  O108  1  0.39167867  0.76157995  0.59769214  1
  O  O109  1  0.60832133  0.23842005  0.59769214  1
  O  O110  1  0.10832133  0.26157995  0.09769214  1
  O  O111  1  0.89167867  0.73842005  0.09769214  1
  O  O112  1  0.76157995  0.60832133  0.59769214  1
  O  O113  1  0.23842005  0.39167867  0.59769214  1
  O  O114  1  0.26157995  0.89167867  0.09769214  1
  O  O115  1  0.73842005  0.10832133  0.09769214  1
  O  O116  1  0.50000000  0.50000000  0.49706035  1
  O  O117  1  -0.00000000  0.00000000  0.99706035  1
