# generated using pymatgen
data_In5AgTe8
_symmetry_space_group_name_H-M   'P 1'
_cell_length_a   7.76524557
_cell_length_b   7.76524557
_cell_length_c   9.17822851
_cell_angle_alpha   89.77218885
_cell_angle_beta   90.22781115
_cell_angle_gamma   72.19861182
_symmetry_Int_Tables_number   1
_chemical_formula_structural   In5AgTe8
_chemical_formula_sum   'In5 Ag1 Te8'
_cell_volume   526.92882861
_cell_formula_units_Z   1
loop_
 _symmetry_equiv_pos_site_id
 _symmetry_equiv_pos_as_xyz
  1  'x, y, z'
loop_
 _atom_site_type_symbol
 _atom_site_label
 _atom_site_symmetry_multiplicity
 _atom_site_fract_x
 _atom_site_fract_y
 _atom_site_fract_z
 _atom_site_occupancy
  In  In0  1  0.49054526  0.49054526  0.00000000  1
  In  In1  1  0.01010273  0.01010273  0.50000000  1
  In  In2  1  0.49955783  0.49955783  0.50000000  1
  In  In3  1  0.01034805  0.48905716  0.75308373  1
  In  In4  1  0.48905716  0.01034805  0.24691627  1
  Ag  Ag5  1  0.99912748  0.99912748  0.00000000  1
  Te  Te6  1  0.61920167  0.11191458  0.98563638  1
  Te  Te7  1  0.11231883  0.61881899  0.48143347  1
  Te  Te8  1  0.11191458  0.61920167  0.01436362  1
  Te  Te9  1  0.61881899  0.11231883  0.51856653  1
  Te  Te10  1  0.11279967  0.15361191  0.24621064  1
  Te  Te11  1  0.62106505  0.65153079  0.75121981  1
  Te  Te12  1  0.15361191  0.11279967  0.75378936  1
  Te  Te13  1  0.65153079  0.62106505  0.24878019  1
