# generated using pymatgen
data_HoFe11Re
_symmetry_space_group_name_H-M   'P 1'
_cell_length_a   4.68646227
_cell_length_b   6.42591550
_cell_length_c   6.42591550
_cell_angle_alpha   97.98704464
_cell_angle_beta   111.38625107
_cell_angle_gamma   68.61374893
_symmetry_Int_Tables_number   1
_chemical_formula_structural   HoFe11Re
_chemical_formula_sum   'Ho1 Fe11 Re1'
_cell_volume   167.77912091
_cell_formula_units_Z   1
loop_
 _symmetry_equiv_pos_site_id
 _symmetry_equiv_pos_as_xyz
  1  'x, y, z'
loop_
 _atom_site_type_symbol
 _atom_site_label
 _atom_site_symmetry_multiplicity
 _atom_site_fract_x
 _atom_site_fract_y
 _atom_site_fract_z
 _atom_site_occupancy
  Ho  Ho0  1  0.00428315  0.99571685  0.00428315  1
  Fe  Fe1  1  0.50043888  0.99887521  0.50002383  1
  Fe  Fe2  1  0.00070974  0.99887521  0.50002383  1
  Fe  Fe3  1  0.50043888  0.49997617  0.00112479  1
  Fe  Fe4  1  0.00070974  0.49997617  0.00112479  1
  Fe  Fe5  1  0.72665532  0.77334468  0.22665532  1
  Fe  Fe6  1  0.27256954  0.22743046  0.77256954  1
  Fe  Fe7  1  0.49864246  0.77745929  0.77474420  1
  Fe  Fe8  1  0.49864246  0.22525580  0.22254071  1
  Fe  Fe9  1  0.35950181  0.64049819  0.35950181  1
  Fe  Fe10  1  0.99931055  0.35970171  0.35832281  1
  Fe  Fe11  1  0.99931055  0.64167719  0.64029829  1
  Re  Re12  1  0.63878692  0.36121308  0.63878692  1
