# generated using pymatgen
data_La20Al3Si9O52
_symmetry_space_group_name_H-M   'P 1'
_cell_length_a   7.28055894
_cell_length_b   9.86561285
_cell_length_c   17.08022165
_cell_angle_alpha   89.98702002
_cell_angle_beta   89.95492886
_cell_angle_gamma   90.01068407
_symmetry_Int_Tables_number   1
_chemical_formula_structural   La20Al3Si9O52
_chemical_formula_sum   'La20 Al3 Si9 O52'
_cell_volume   1226.82365101
_cell_formula_units_Z   1
loop_
 _symmetry_equiv_pos_site_id
 _symmetry_equiv_pos_as_xyz
  1  'x, y, z'
loop_
 _atom_site_type_symbol
 _atom_site_label
 _atom_site_symmetry_multiplicity
 _atom_site_fract_x
 _atom_site_fract_y
 _atom_site_fract_z
 _atom_site_occupancy
  La  La0  1  0.49979656  0.00269656  0.33467327  1
  La  La1  1  0.49808634  0.50127739  0.83465297  1
  La  La2  1  0.00209624  0.50527347  0.16714691  1
  La  La3  1  0.00066609  0.99897334  0.66887385  1
  La  La4  1  0.25372049  0.11050734  0.12175423  1
  La  La5  1  0.25318434  0.61684372  0.62017743  1
  La  La6  1  0.25310677  0.26473179  0.49467627  1
  La  La7  1  0.25382921  0.76408161  -0.00001836  1
  La  La8  1  0.25275794  0.62204497  0.38130337  1
  La  La9  1  0.25303854  0.11516334  0.88197315  1
  La  La10  1  0.75302760  0.37999991  0.38371722  1
  La  La11  1  0.75305966  0.88911297  0.87907189  1
  La  La12  1  0.75342464  0.23619898  0.00341153  1
  La  La13  1  0.75272990  0.73975743  0.50142754  1
  La  La14  1  0.75335807  0.87447692  0.11580787  1
  La  La15  1  0.75391940  0.37334535  0.61553888  1
  La  La16  1  0.00335076  0.00148611  0.33417775  1
  La  La17  1  0.00508881  0.50140790  0.83462963  1
  La  La18  1  0.50056870  0.50374023  0.16759289  1
  La  La19  1  0.50240502  0.99922330  0.66792850  1
  Al  Al20  1  0.25126078  0.78612610  0.18729451  1
  Al  Al21  1  0.25133604  0.82625205  0.79891818  1
  Al  Al22  1  0.75122044  0.11056785  0.48665804  1
  Si  Si23  1  0.25153539  0.28495952  0.68556367  1
  Si  Si24  1  0.25042567  0.32961880  0.29855444  1
  Si  Si25  1  0.25128081  0.38405252  0.01537797  1
  Si  Si26  1  0.25085223  0.88761693  0.51521862  1
  Si  Si27  1  0.75088684  0.71614219  0.31379126  1
  Si  Si28  1  0.75068865  0.21756546  0.81446557  1
  Si  Si29  1  0.75148544  0.17212032  0.20042353  1
  Si  Si30  1  0.75106479  0.66899244  0.70078663  1
  Si  Si31  1  0.75089637  0.61256416  0.98477605  1
  O  O32  1  0.05722051  0.77685244  0.12405956  1
  O  O33  1  0.06793156  0.28183838  0.62882117  1
  O  O34  1  0.06668655  0.41650433  0.32581659  1
  O  O35  1  0.05750677  0.92548610  0.82641444  1
  O  O36  1  0.06711733  0.30133567  0.04608033  1
  O  O37  1  0.06713287  0.80209335  0.54416349  1
  O  O38  1  0.56709527  0.71690609  0.37094174  1
  O  O39  1  0.56762944  0.22200014  0.87204748  1
  O  O40  1  0.56830352  0.08479305  0.17348568  1
  O  O41  1  0.56740599  0.58196936  0.67390258  1
  O  O42  1  0.55816334  0.20294865  0.45108538  1
  O  O43  1  0.56755311  0.69561693  0.95419618  1
  O  O44  1  0.25478955  0.62714383  0.23581253  1
  O  O45  1  0.25534009  0.13918026  0.73350651  1
  O  O46  1  0.25468481  0.32859655  0.20155678  1
  O  O47  1  0.25488986  0.83134537  0.69509361  1
  O  O48  1  0.25537057  0.52996070  0.06347474  1
  O  O49  1  0.25458142  0.03271908  0.56368542  1
  O  O50  1  0.75487280  0.86162131  0.26553007  1
  O  O51  1  0.75489589  0.36209794  0.76507749  1
  O  O52  1  0.75542091  0.17008598  0.29729279  1
  O  O53  1  0.75483629  0.66903351  0.79779320  1
  O  O54  1  0.75483240  0.95846213  0.43158263  1
  O  O55  1  0.75497094  0.46714224  0.93603950  1
  O  O56  1  0.26325543  0.00142033  0.00155489  1
  O  O57  1  0.26461431  0.50281977  0.49958179  1
  O  O58  1  0.76492441  0.00245174  0.99975903  1
  O  O59  1  0.76390705  0.50189260  0.50119170  1
  O  O60  1  0.44180811  0.78650624  0.12189367  1
  O  O61  1  0.43215248  0.28881082  0.62702335  1
  O  O62  1  0.43153285  0.41546365  0.32968602  1
  O  O63  1  0.44148611  0.92377360  0.83220592  1
  O  O64  1  0.43247603  0.29542161  0.04342473  1
  O  O65  1  0.43213578  0.79699290  0.54144173  1
  O  O66  1  0.93200200  0.71027127  0.37225437  1
  O  O67  1  0.93106868  0.21529942  0.87340598  1
  O  O68  1  0.93171014  0.08582073  0.16908217  1
  O  O69  1  0.93206823  0.58320279  0.66962835  1
  O  O70  1  0.94068730  0.21084818  0.45495618  1
  O  O71  1  0.93128611  0.70166775  0.95671657  1
  O  O72  1  0.24976736  0.92823556  0.24918681  1
  O  O73  1  0.24933901  0.41568002  0.74503919  1
  O  O74  1  0.24840782  0.17651401  0.33589469  1
  O  O75  1  0.25006613  0.66223479  0.83902731  1
  O  O76  1  0.24896884  0.91002628  0.41988563  1
  O  O77  1  0.24914300  0.40494079  0.92010007  1
  O  O78  1  0.74896724  0.58532517  0.25426582  1
  O  O79  1  0.74840534  0.08481074  0.75667110  1
  O  O80  1  0.74901323  0.32676166  0.16477523  1
  O  O81  1  0.74907664  0.82352848  0.66491583  1
  O  O82  1  0.74848448  0.58751536  0.07979494  1
  O  O83  1  0.74986558  0.08910937  0.58883182  1
