# generated using pymatgen
data_K4BaU3O12
_symmetry_space_group_name_H-M   'P 1'
_cell_length_a   7.64348873
_cell_length_b   7.64348873
_cell_length_c   7.64348873
_cell_angle_alpha   70.82422930
_cell_angle_beta   70.82422930
_cell_angle_gamma   109.17577070
_symmetry_Int_Tables_number   1
_chemical_formula_structural   K4BaU3O12
_chemical_formula_sum   'K4 Ba1 U3 O12'
_cell_volume   347.46755357
_cell_formula_units_Z   1
loop_
 _symmetry_equiv_pos_site_id
 _symmetry_equiv_pos_as_xyz
  1  'x, y, z'
loop_
 _atom_site_type_symbol
 _atom_site_label
 _atom_site_symmetry_multiplicity
 _atom_site_fract_x
 _atom_site_fract_y
 _atom_site_fract_z
 _atom_site_occupancy
  K  K0  1  0.00000000  -0.00000000  -0.00000000  1
  K  K1  1  0.50000000  -0.00000000  -0.00000000  1
  K  K2  1  0.00000000  0.50000000  -0.00000000  1
  K  K3  1  0.00000000  -0.00000000  0.50000000  1
  Ba  Ba4  1  0.50000000  0.50000000  0.50000000  1
  U  U5  1  0.50000000  0.50000000  -0.00000000  1
  U  U6  1  0.50000000  -0.00000000  0.50000000  1
  U  U7  1  0.00000000  0.50000000  0.50000000  1
  O  O8  1  0.25520426  0.74479574  0.50000000  1
  O  O9  1  0.74479574  0.50000000  0.74479574  1
  O  O10  1  0.50000000  0.25520426  0.25520426  1
  O  O11  1  0.25520426  0.50000000  0.25520426  1
  O  O12  1  0.74479574  0.25520426  0.50000000  1
  O  O13  1  0.50000000  0.74479574  0.74479574  1
  O  O14  1  0.29019243  0.29019243  0.98818479  1
  O  O15  1  0.29019243  0.01181521  0.70980757  1
  O  O16  1  0.01181521  0.29019243  0.70980757  1
  O  O17  1  0.70980757  0.70980757  0.01181521  1
  O  O18  1  0.70980757  0.98818479  0.29019243  1
  O  O19  1  0.98818479  0.70980757  0.29019243  1
