# generated using pymatgen
data_Ho5Cu(WO4)8
_symmetry_space_group_name_H-M   'P 1'
_cell_length_a   5.67335557
_cell_length_b   10.04996455
_cell_length_c   11.60068555
_cell_angle_alpha   109.76015589
_cell_angle_beta   90.00000000
_cell_angle_gamma   73.60501749
_symmetry_Int_Tables_number   1
_chemical_formula_structural   Ho5Cu(WO4)8
_chemical_formula_sum   'Ho5 Cu1 W8 O32'
_cell_volume   593.83235924
_cell_formula_units_Z   1
loop_
 _symmetry_equiv_pos_site_id
 _symmetry_equiv_pos_as_xyz
  1  'x, y, z'
loop_
 _atom_site_type_symbol
 _atom_site_label
 _atom_site_symmetry_multiplicity
 _atom_site_fract_x
 _atom_site_fract_y
 _atom_site_fract_z
 _atom_site_occupancy
  Ho  Ho0  1  0.82608122  0.70377761  0.04080683  1
  Ho  Ho1  1  0.52985883  0.29622239  0.45919317  1
  Ho  Ho2  1  0.18183767  0.29272671  0.95295221  1
  Ho  Ho3  1  0.47456438  0.70727329  0.54704779  1
  Ho  Ho4  1  0.30754354  0.00000000  0.25000000  1
  Cu  Cu5  1  0.70396259  1.00000000  0.75000000  1
  W  W6  1  0.30868014  0.62294354  0.21418284  1
  W  W7  1  0.93162368  0.37705646  0.28581716  1
  W  W8  1  0.68662268  0.37865538  0.78787038  1
  W  W9  1  0.06527807  0.62134462  0.71212962  1
  W  W10  1  0.87003095  0.88611869  0.41273979  1
  W  W11  1  0.75614964  0.11388131  0.08726021  1
  W  W12  1  0.12914024  0.11411289  0.59702109  1
  W  W13  1  0.24325313  0.88588711  0.90297891  1
  O  O14  1  0.22428937  0.73631309  0.39450713  1
  O  O15  1  0.96060246  0.26368691  0.10549287  1
  O  O16  1  0.77107747  0.26369803  0.60760965  1
  O  O17  1  0.03477550  0.73630197  0.89239035  1
  O  O18  1  0.61005774  0.02865262  0.38189634  1
  O  O19  1  0.63871036  0.97134738  0.11810366  1
  O  O20  1  0.38432059  0.96615100  0.61334547  1
  O  O21  1  0.35047159  0.03384900  0.88665453  1
  O  O22  1  0.71358643  0.75827751  0.42240952  1
  O  O23  1  0.47186394  0.24172249  0.07759048  1
  O  O24  1  0.28549781  0.23703794  0.57403112  1
  O  O25  1  0.52253575  0.76296206  0.92596888  1
  O  O26  1  0.20799446  0.53440085  0.05908941  1
  O  O27  1  0.74239531  0.46559915  0.44091059  1
  O  O28  1  0.79576472  0.46821918  0.94336088  1
  O  O29  1  0.26398390  0.53178082  0.55663912  1
  O  O30  1  0.47865222  0.74214560  0.17651439  1
  O  O31  1  0.22079782  0.25785440  0.32348561  1
  O  O32  1  0.51815049  0.26784106  0.83003842  1
  O  O33  1  0.78599155  0.73215894  0.66996158  1
  O  O34  1  0.98658482  0.79279417  0.22994525  1
  O  O35  1  0.77937899  0.20720583  0.27005475  1
  O  O36  1  0.02095223  0.21260699  0.77227464  1
  O  O37  1  0.23355922  0.78739301  0.72772536  1
  O  O38  1  0.58454122  0.48998364  0.23513065  1
  O  O39  1  0.07452485  0.51001636  0.26486935  1
  O  O40  1  0.41833575  0.51303386  0.76441621  1
  O  O41  1  0.93136961  0.48696614  0.73558379  1
  O  O42  1  0.89616434  0.97220099  0.58486910  1
  O  O43  1  0.86836533  0.02779901  0.91513090  1
  O  O44  1  0.08995548  0.03016638  0.41973624  1
  O  O45  1  0.12012186  0.96983362  0.08026376  1
