# generated using pymatgen
data_In(BiSe2)3
_symmetry_space_group_name_H-M   'P 1'
_cell_length_a   4.15656771
_cell_length_b   4.15656693
_cell_length_c   19.67582809
_cell_angle_alpha   83.93675092
_cell_angle_beta   90.00000178
_cell_angle_gamma   120.00000307
_symmetry_Int_Tables_number   1
_chemical_formula_structural   In(BiSe2)3
_chemical_formula_sum   'In1 Bi3 Se6'
_cell_volume   292.19901862
_cell_formula_units_Z   1
loop_
 _symmetry_equiv_pos_site_id
 _symmetry_equiv_pos_as_xyz
  1  'x, y, z'
loop_
 _atom_site_type_symbol
 _atom_site_label
 _atom_site_symmetry_multiplicity
 _atom_site_fract_x
 _atom_site_fract_y
 _atom_site_fract_z
 _atom_site_occupancy
  In  In0  1  0.19997130  0.39994260  0.40008609  1
  Bi  Bi1  1  0.69999192  0.39998385  0.90002423  1
  Bi  Bi2  1  0.29955711  0.59911421  0.10132868  1
  Bi  Bi3  1  0.80173194  0.60346388  0.59480418  1
  Se  Se4  1  0.60578600  0.21157201  0.18264199  1
  Se  Se5  1  0.10797920  0.21595839  0.67606241  1
  Se  Se6  1  0.88875167  0.77750334  0.33374499  1
  Se  Se7  1  0.39394826  0.78789651  0.81815523  1
  Se  Se8  1  0.99997813  0.99995626  0.00006561  1
  Se  Se9  1  0.50230447  0.00460894  0.49308659  1
