# generated using pymatgen
data_HfTi4(PbO3)5
_symmetry_space_group_name_H-M   'P 1'
_cell_length_a   3.97143135
_cell_length_b   19.70525446
_cell_length_c   4.33295597
_cell_angle_alpha   90.00000000
_cell_angle_beta   90.00000000
_cell_angle_gamma   90.00000000
_symmetry_Int_Tables_number   1
_chemical_formula_structural   HfTi4(PbO3)5
_chemical_formula_sum   'Hf1 Ti4 Pb5 O15'
_cell_volume   339.08875134
_cell_formula_units_Z   1
loop_
 _symmetry_equiv_pos_site_id
 _symmetry_equiv_pos_as_xyz
  1  'x, y, z'
loop_
 _atom_site_type_symbol
 _atom_site_label
 _atom_site_symmetry_multiplicity
 _atom_site_fract_x
 _atom_site_fract_y
 _atom_site_fract_z
 _atom_site_occupancy
  Hf  Hf0  1  0.50000000  0.10000000  0.53615652  1
  Ti  Ti1  1  0.50000000  0.30199517  0.52461293  1
  Ti  Ti2  1  0.50000000  0.50029804  0.52446393  1
  Ti  Ti3  1  0.50000000  0.69970196  0.52446393  1
  Ti  Ti4  1  0.50000000  0.89800483  0.52461293  1
  Pb  Pb5  1  0.00000000  0.99650776  0.98618677  1
  Pb  Pb6  1  -0.00000000  0.20349224  0.98618677  1
  Pb  Pb7  1  -0.00000000  0.40055016  0.97678794  1
  Pb  Pb8  1  0.00000000  0.60000000  0.97559648  1
  Pb  Pb9  1  -0.00000000  0.79944984  0.97678794  1
  O  O10  1  0.50000000  0.10000000  0.07933216  1
  O  O11  1  0.50000000  0.30093920  0.11637345  1
  O  O12  1  0.50000000  0.50006856  0.11842978  1
  O  O13  1  0.50000000  0.69993144  0.11842978  1
  O  O14  1  0.50000000  0.89906080  0.11637345  1
  O  O15  1  0.00000000  0.10000000  0.62149424  1
  O  O16  1  0.00000000  0.30147613  0.61287993  1
  O  O17  1  0.00000000  0.50007412  0.61301901  1
  O  O18  1  0.00000000  0.69992588  0.61301901  1
  O  O19  1  0.00000000  0.89852387  0.61287993  1
  O  O20  1  0.50000000  0.99525741  0.61381046  1
  O  O21  1  0.50000000  0.20474259  0.61381046  1
  O  O22  1  0.50000000  0.40107634  0.61518902  1
  O  O23  1  0.50000000  0.60000000  0.61391416  1
  O  O24  1  0.50000000  0.79892366  0.61518902  1
