# generated using pymatgen
data_K3B5PH2O13
_symmetry_space_group_name_H-M   'P 1'
_cell_length_a   7.41116878
_cell_length_b   6.92272779
_cell_length_c   12.33802244
_cell_angle_alpha   94.09521065
_cell_angle_beta   90.00000000
_cell_angle_gamma   90.00000000
_symmetry_Int_Tables_number   1
_chemical_formula_structural   K3B5PH2O13
_chemical_formula_sum   'K6 B10 P2 H4 O26'
_cell_volume   631.39223534
_cell_formula_units_Z   2
loop_
 _symmetry_equiv_pos_site_id
 _symmetry_equiv_pos_as_xyz
  1  'x, y, z'
loop_
 _atom_site_type_symbol
 _atom_site_label
 _atom_site_symmetry_multiplicity
 _atom_site_fract_x
 _atom_site_fract_y
 _atom_site_fract_z
 _atom_site_occupancy
  K  K0  1  0.24828102  0.64730745  0.05226045  1
  K  K1  1  0.24828102  0.35269255  0.44773955  1
  K  K2  1  0.75171898  0.35269255  0.94773955  1
  K  K3  1  0.75171898  0.64730745  0.55226045  1
  K  K4  1  0.58758207  0.00000000  0.25000000  1
  K  K5  1  0.41241793  0.00000000  0.75000000  1
  B  B6  1  0.18730937  0.86453758  0.42491094  1
  B  B7  1  0.18730937  0.13546242  0.07508906  1
  B  B8  1  0.81269063  0.13546242  0.57508906  1
  B  B9  1  0.81269063  0.86453758  0.92491094  1
  B  B10  1  0.02129971  0.67286434  0.80238555  1
  B  B11  1  0.02129971  0.32713566  0.69761445  1
  B  B12  1  0.97870029  0.32713566  0.19761445  1
  B  B13  1  0.97870029  0.67286434  0.30238555  1
  B  B14  1  0.11697319  -0.00000000  0.25000000  1
  B  B15  1  0.88302681  0.00000000  0.75000000  1
  P  P16  1  0.65114475  0.50000000  0.25000000  1
  P  P17  1  0.34885525  0.50000000  0.75000000  1
  H  H18  1  0.77289954  0.81149138  0.07694124  1
  H  H19  1  0.77289954  0.18850862  0.42305876  1
  H  H20  1  0.22710046  0.18850862  0.92305876  1
  H  H21  1  0.22710046  0.81149138  0.57694124  1
  O  O22  1  0.06450747  0.50000000  0.25000000  1
  O  O23  1  0.93549253  0.50000000  0.75000000  1
  O  O24  1  0.06214757  0.71846902  0.41038371  1
  O  O25  1  0.06214757  0.28153098  0.08961629  1
  O  O26  1  0.93785243  0.28153098  0.58961629  1
  O  O27  1  0.93785243  0.71846902  0.91038371  1
  O  O28  1  0.99782842  0.82933555  0.22907567  1
  O  O29  1  0.99782842  0.17066445  0.27092433  1
  O  O30  1  0.00217158  0.17066445  0.77092433  1
  O  O31  1  0.00217158  0.82933555  0.72907567  1
  O  O32  1  0.23471792  0.98304398  0.34543958  1
  O  O33  1  0.23471792  0.01695602  0.15456042  1
  O  O34  1  0.76528208  0.01695602  0.65456042  1
  O  O35  1  0.76528208  0.98304398  0.84543958  1
  O  O36  1  0.72718522  0.89849135  0.02469541  1
  O  O37  1  0.72718522  0.10150865  0.47530459  1
  O  O38  1  0.27281478  0.10150865  0.97530459  1
  O  O39  1  0.27281478  0.89849135  0.52469541  1
  O  O40  1  0.21852230  0.63919260  0.82326536  1
  O  O41  1  0.21852230  0.36080740  0.67673464  1
  O  O42  1  0.78147770  0.36080740  0.17673464  1
  O  O43  1  0.78147770  0.63919260  0.32326536  1
  O  O44  1  0.54265725  0.61662317  0.17340938  1
  O  O45  1  0.54265725  0.38337683  0.32659062  1
  O  O46  1  0.45734275  0.38337683  0.82659062  1
  O  O47  1  0.45734275  0.61662317  0.67340938  1
