# generated using pymatgen
data_FeCu2Sn3S8
_symmetry_space_group_name_H-M   'P 1'
_cell_length_a   7.32065197
_cell_length_b   7.30471174
_cell_length_c   7.32563129
_cell_angle_alpha   60.09441499
_cell_angle_beta   59.85331977
_cell_angle_gamma   90.00000000
_symmetry_Int_Tables_number   1
_chemical_formula_structural   FeCu2Sn3S8
_chemical_formula_sum   'Fe1 Cu2 Sn3 S8'
_cell_volume   276.78179963
_cell_formula_units_Z   1
loop_
 _symmetry_equiv_pos_site_id
 _symmetry_equiv_pos_as_xyz
  1  'x, y, z'
loop_
 _atom_site_type_symbol
 _atom_site_label
 _atom_site_symmetry_multiplicity
 _atom_site_fract_x
 _atom_site_fract_y
 _atom_site_fract_z
 _atom_site_occupancy
  Fe  Fe0  1  0.00000000  0.50000000  0.50000000  1
  Cu  Cu1  1  0.62105502  0.87884417  0.74231166  1
  Cu  Cu2  1  0.37894498  0.12115583  0.25768834  1
  Sn  Sn3  1  0.50000000  0.50000000  0.50000000  1
  Sn  Sn4  1  0.00000000  0.50000000  -0.00000000  1
  Sn  Sn5  1  0.00000000  0.00000000  -0.00000000  1
  S  S6  1  0.77375676  0.27340537  0.95318926  1
  S  S7  1  0.25167259  0.24894207  0.00211587  1
  S  S8  1  0.77332609  0.27357305  0.49926374  1
  S  S9  1  0.77332609  0.72716320  0.49926374  1
  S  S10  1  0.22624324  0.72659463  0.04681074  1
  S  S11  1  0.74832741  0.75105793  0.99788413  1
  S  S12  1  0.22667391  0.72642695  0.50073626  1
  S  S13  1  0.22667391  0.27283680  0.50073626  1
