# generated using pymatgen
data_Fe3Co3B2
_symmetry_space_group_name_H-M   'P 1'
_cell_length_a   4.42734270
_cell_length_b   5.27526843
_cell_length_c   6.63175357
_cell_angle_alpha   90.00000000
_cell_angle_beta   89.94203182
_cell_angle_gamma   90.00000000
_symmetry_Int_Tables_number   1
_chemical_formula_structural   Fe3Co3B2
_chemical_formula_sum   'Fe6 Co6 B4'
_cell_volume   154.88731864
_cell_formula_units_Z   2
loop_
 _symmetry_equiv_pos_site_id
 _symmetry_equiv_pos_as_xyz
  1  'x, y, z'
loop_
 _atom_site_type_symbol
 _atom_site_label
 _atom_site_symmetry_multiplicity
 _atom_site_fract_x
 _atom_site_fract_y
 _atom_site_fract_z
 _atom_site_occupancy
  Fe  Fe0  1  0.34958231  0.67871287  0.44769689  1
  Fe  Fe1  1  0.15041769  0.17871287  0.05230311  1
  Fe  Fe2  1  0.87233456  0.52121380  0.24755842  1
  Fe  Fe3  1  0.62766544  0.02121380  0.25244158  1
  Fe  Fe4  1  0.12971658  0.47746564  0.74985492  1
  Fe  Fe5  1  0.37028342  0.97746564  0.75014508  1
  Co  Co6  1  0.34986789  0.68022967  0.05844473  1
  Co  Co7  1  0.15013211  0.18022967  0.44155527  1
  Co  Co8  1  0.65323791  0.32167207  0.55667643  1
  Co  Co9  1  0.84676209  0.82167207  0.94332357  1
  Co  Co10  1  0.65042790  0.32065152  0.94323129  1
  Co  Co11  1  0.84957210  0.82065152  0.55676871  1
  B  B12  1  0.07494286  0.88450348  0.24969569  1
  B  B13  1  0.42505714  0.38450348  0.25030431  1
  B  B14  1  0.92265416  0.11555095  0.74879598  1
  B  B15  1  0.57734584  0.61555095  0.75120402  1
