# generated using pymatgen
data_EuAgGe
_symmetry_space_group_name_H-M   'P 1'
_cell_length_a   4.68299247
_cell_length_b   6.02150277
_cell_length_c   5.90320961
_cell_angle_alpha   97.44280745
_cell_angle_beta   113.36879483
_cell_angle_gamma   67.11667772
_symmetry_Int_Tables_number   1
_chemical_formula_structural   EuAgGe
_chemical_formula_sum   'Eu2 Ag2 Ge2'
_cell_volume   140.72151654
_cell_formula_units_Z   2
loop_
 _symmetry_equiv_pos_site_id
 _symmetry_equiv_pos_as_xyz
  1  'x, y, z'
loop_
 _atom_site_type_symbol
 _atom_site_label
 _atom_site_symmetry_multiplicity
 _atom_site_fract_x
 _atom_site_fract_y
 _atom_site_fract_z
 _atom_site_occupancy
  Eu  Eu0  1  0.75435347  0.70779266  0.21649961  1
  Eu  Eu1  1  0.24564653  0.29220734  0.78350039  1
  Ag  Ag2  1  0.55351553  0.27282526  0.37985632  1
  Ag  Ag3  1  0.44648447  0.72717474  0.62014368  1
  Ge  Ge4  1  0.04790593  0.10727014  0.20308200  1
  Ge  Ge5  1  0.95209407  0.89272986  0.79691800  1
