# generated using pymatgen
data_FeCu(RhSe2)4
_symmetry_space_group_name_H-M   'P 1'
_cell_length_a   7.36059223
_cell_length_b   7.36059223
_cell_length_c   7.36059223
_cell_angle_alpha   90.00000000
_cell_angle_beta   60.00000000
_cell_angle_gamma   120.00000000
_symmetry_Int_Tables_number   1
_chemical_formula_structural   FeCu(RhSe2)4
_chemical_formula_sum   'Fe1 Cu1 Rh4 Se8'
_cell_volume   281.98322876
_cell_formula_units_Z   1
loop_
 _symmetry_equiv_pos_site_id
 _symmetry_equiv_pos_as_xyz
  1  'x, y, z'
loop_
 _atom_site_type_symbol
 _atom_site_label
 _atom_site_symmetry_multiplicity
 _atom_site_fract_x
 _atom_site_fract_y
 _atom_site_fract_z
 _atom_site_occupancy
  Fe  Fe0  1  0.25000000  0.62500000  0.62500000  1
  Cu  Cu1  1  0.75000000  0.37500000  0.37500000  1
  Rh  Rh2  1  0.49830999  0.49746498  0.00084501  1
  Rh  Rh3  1  0.49830999  0.00084501  0.00084501  1
  Rh  Rh4  1  0.00169001  0.00084501  0.49746498  1
  Rh  Rh5  1  0.00169001  0.00084501  0.00084501  1
  Se  Se6  1  0.02114853  0.78172279  0.23942574  1
  Se  Se7  1  0.02114853  0.23942574  0.23942574  1
  Se  Se8  1  0.47885147  0.23942574  0.78172279  1
  Se  Se9  1  0.47885147  0.23942574  0.23942574  1
  Se  Se10  1  0.98382887  0.22574331  0.75808556  1
  Se  Se11  1  0.98382887  0.75808556  0.75808556  1
  Se  Se12  1  0.51617113  0.75808556  0.22574331  1
  Se  Se13  1  0.51617113  0.75808556  0.75808556  1
