# generated using pymatgen
data_Fe2Ni(PO4)2
_symmetry_space_group_name_H-M   'P 1'
_cell_length_a   4.85753948
_cell_length_b   6.02283070
_cell_length_c   10.40891323
_cell_angle_alpha   90.68275053
_cell_angle_beta   90.00000000
_cell_angle_gamma   90.00000000
_symmetry_Int_Tables_number   1
_chemical_formula_structural   Fe2Ni(PO4)2
_chemical_formula_sum   'Fe4 Ni2 P4 O16'
_cell_volume   304.50298019
_cell_formula_units_Z   2
loop_
 _symmetry_equiv_pos_site_id
 _symmetry_equiv_pos_as_xyz
  1  'x, y, z'
loop_
 _atom_site_type_symbol
 _atom_site_label
 _atom_site_symmetry_multiplicity
 _atom_site_fract_x
 _atom_site_fract_y
 _atom_site_fract_z
 _atom_site_occupancy
  Fe  Fe0  1  0.51844812  0.23705238  0.78061731  1
  Fe  Fe1  1  0.01844812  0.76294762  0.71938269  1
  Fe  Fe2  1  0.50035033  0.50043905  0.49717039  1
  Fe  Fe3  1  0.00035033  0.49956095  0.00282961  1
  Ni  Ni4  1  0.48986280  0.76333424  0.22279680  1
  Ni  Ni5  1  0.98986280  0.23666576  0.27720320  1
  P  P6  1  0.92916786  0.74343025  0.39693299  1
  P  P7  1  0.42916786  0.25656975  0.10306701  1
  P  P8  1  0.06973121  0.25942194  0.59607795  1
  P  P9  1  0.56973121  0.74057806  0.90392205  1
  O  O10  1  0.24661726  0.72708731  0.39160273  1
  O  O11  1  0.74661726  0.27291269  0.10839727  1
  O  O12  1  0.75349319  0.27758314  0.60241862  1
  O  O13  1  0.25349319  0.72241686  0.89758138  1
  O  O14  1  0.81268263  0.93787550  0.31737567  1
  O  O15  1  0.31268263  0.06212450  0.18262433  1
  O  O16  1  0.18321579  0.06731867  0.67791996  1
  O  O17  1  0.68321579  0.93268133  0.82208004  1
  O  O18  1  0.77886062  0.53219909  0.33415658  1
  O  O19  1  0.27886062  0.46780091  0.16584342  1
  O  O20  1  0.21841554  0.46997775  0.65916766  1
  O  O21  1  0.71841554  0.53002225  0.84083234  1
  O  O22  1  0.67963362  0.74740007  0.04395508  1
  O  O23  1  0.17963362  0.25259993  0.45604492  1
  O  O24  1  0.31952104  0.25233702  0.96296930  1
  O  O25  1  0.81952104  0.74766298  0.53703070  1
