# generated using pymatgen
data_Fe4TeSe3
_symmetry_space_group_name_H-M   'P 1'
_cell_length_a   3.62618657
_cell_length_b   7.27582727
_cell_length_c   7.27582727
_cell_angle_alpha   60.89835712
_cell_angle_beta   90.00000000
_cell_angle_gamma   90.00000000
_symmetry_Int_Tables_number   1
_chemical_formula_structural   Fe4TeSe3
_chemical_formula_sum   'Fe4 Te1 Se3'
_cell_volume   167.72824727
_cell_formula_units_Z   1
loop_
 _symmetry_equiv_pos_site_id
 _symmetry_equiv_pos_as_xyz
  1  'x, y, z'
loop_
 _atom_site_type_symbol
 _atom_site_label
 _atom_site_symmetry_multiplicity
 _atom_site_fract_x
 _atom_site_fract_y
 _atom_site_fract_z
 _atom_site_occupancy
  Fe  Fe0  1  0.50000000  0.24973312  0.74973312  1
  Fe  Fe1  1  0.50000000  0.74144028  0.24144028  1
  Fe  Fe2  1  -0.00000000  0.00572633  -0.00820235  1
  Fe  Fe3  1  -0.00000000  0.49179765  0.50572633  1
  Te  Te4  1  -0.00000000  0.39501947  0.89501947  1
  Se  Se5  1  -0.00000000  0.86339156  0.36339156  1
  Se  Se6  1  0.50000000  0.37596781  0.37692379  1
  Se  Se7  1  0.50000000  0.87692379  0.87596781  1
