# generated using pymatgen
data_GaAg3
_symmetry_space_group_name_H-M   'P 1'
_cell_length_a   2.95922159
_cell_length_b   2.95922159
_cell_length_c   9.31134053
_cell_angle_alpha   90.00000000
_cell_angle_beta   90.00000000
_cell_angle_gamma   120.07361829
_symmetry_Int_Tables_number   1
_chemical_formula_structural   GaAg3
_chemical_formula_sum   'Ga1 Ag3'
_cell_volume   70.56269625
_cell_formula_units_Z   1
loop_
 _symmetry_equiv_pos_site_id
 _symmetry_equiv_pos_as_xyz
  1  'x, y, z'
loop_
 _atom_site_type_symbol
 _atom_site_label
 _atom_site_symmetry_multiplicity
 _atom_site_fract_x
 _atom_site_fract_y
 _atom_site_fract_z
 _atom_site_occupancy
  Ga  Ga0  1  0.66667034  0.33332966  0.37500000  1
  Ag  Ag1  1  0.66681457  0.33318543  0.87500000  1
  Ag  Ag2  1  0.33325755  0.66674245  0.13292262  1
  Ag  Ag3  1  0.33325755  0.66674245  0.61707738  1
