# generated using pymatgen
data_La9Lu11(GaO4)12
_symmetry_space_group_name_H-M   'P 1'
_cell_length_a   11.26864168
_cell_length_b   11.26864168
_cell_length_c   11.27728492
_cell_angle_alpha   70.31356667
_cell_angle_beta   70.75326801
_cell_angle_gamma   109.44972858
_symmetry_Int_Tables_number   1
_chemical_formula_structural   La9Lu11(GaO4)12
_chemical_formula_sum   'La9 Lu11 Ga12 O48'
_cell_volume   1102.77216414
_cell_formula_units_Z   1
loop_
 _symmetry_equiv_pos_site_id
 _symmetry_equiv_pos_as_xyz
  1  'x, y, z'
loop_
 _atom_site_type_symbol
 _atom_site_label
 _atom_site_symmetry_multiplicity
 _atom_site_fract_x
 _atom_site_fract_y
 _atom_site_fract_z
 _atom_site_occupancy
  La  La0  1  0.37585739  0.62585739  0.25000000  1
  La  La1  1  0.12386918  0.24828927  0.62643424  1
  La  La2  1  0.37472351  0.75030342  0.87356576  1
  La  La3  1  0.24962892  0.12452601  0.12543461  1
  La  La4  1  0.74996062  0.37506353  0.37456539  1
  La  La5  1  0.87458307  0.12458307  0.25000000  1
  La  La6  1  0.62542796  0.37542796  0.75000000  1
  La  La7  1  0.87501058  0.75037129  0.37502384  1
  La  La8  1  0.62539513  0.25003443  0.12497616  1
  Lu  Lu9  1  0.50255646  0.99922312  0.99947436  1
  Lu  Lu10  1  0.49869748  0.50203082  0.50052564  1
  Lu  Lu11  1  0.00160965  0.50368709  0.99509056  1
  Lu  Lu12  1  0.99877765  0.99670021  0.50490944  1
  Lu  Lu13  1  0.50321964  0.50356806  0.99801728  1
  Lu  Lu14  1  0.49552719  0.99611453  0.50173773  1
  Lu  Lu15  1  0.00158534  0.50123692  0.50198272  1
  Lu  Lu16  1  0.99785226  0.99726492  0.99826227  1
  Lu  Lu17  1  0.75174188  0.87549109  0.87433906  1
  Lu  Lu18  1  0.24983015  0.62608093  0.62566094  1
  Lu  Lu19  1  0.12441933  0.87441933  0.75000000  1
  Ga  Ga20  1  0.75228751  0.62912342  0.12017784  1
  Ga  Ga21  1  0.24930126  0.87246535  0.37982216  1
  Ga  Ga22  1  0.37206100  0.12206100  0.75000000  1
  Ga  Ga23  1  0.12505185  0.37505185  0.25000000  1
  Ga  Ga24  1  0.87594524  0.24988463  0.87422392  1
  Ga  Ga25  1  0.62410855  0.75016916  0.62577608  1
  Ga  Ga26  1  0.24984349  0.37792221  0.87221849  1
  Ga  Ga27  1  0.75014070  0.12206199  0.62778151  1
  Ga  Ga28  1  0.62416442  0.87416442  0.25000000  1
  Ga  Ga29  1  0.87873815  0.62873815  0.75000000  1
  Ga  Ga30  1  0.12465032  0.75075023  0.12283243  1
  Ga  Ga31  1  0.37358266  0.24748275  0.37716757  1
  O  O32  1  0.52253626  0.31251660  0.60048171  1
  O  O33  1  0.41299832  0.12301797  0.89951829  1
  O  O34  1  0.08643747  0.18570224  0.29076199  1
  O  O35  1  0.97646423  0.37719946  0.20923801  1
  O  O36  1  0.68704761  0.21206956  0.91244139  1
  O  O37  1  0.87592438  0.28910433  0.02417559  1
  O  O38  1  0.81327992  0.90009997  0.47582441  1
  O  O39  1  0.62451095  0.59948900  0.58755861  1
  O  O40  1  0.78882831  0.47644078  0.12326885  1
  O  O41  1  0.71093612  0.58834997  0.31134731  1
  O  O42  1  0.09970962  0.91209716  0.37673115  1
  O  O43  1  0.39969728  0.02228343  0.18865269  1
  O  O44  1  0.47002968  0.68808586  0.40472042  1
  O  O45  1  0.59280628  0.87475010  0.09527958  1
  O  O46  1  0.91851880  0.81652461  0.71838228  1
  O  O47  1  0.03490690  0.63690108  0.78161772  1
  O  O48  1  0.31236780  0.78776313  0.08772476  1
  O  O49  1  0.12348974  0.71819691  0.96939001  1
  O  O50  1  0.18758692  0.09287975  0.53060999  1
  O  O51  1  0.37548789  0.40009256  0.41227524  1
  O  O52  1  0.21208334  0.53057696  0.86363834  1
  O  O53  1  0.28734967  0.42293891  0.68217404  1
  O  O54  1  0.89421531  0.07572168  0.63636166  1
  O  O55  1  0.60511295  0.96952371  0.81782596  1
  O  O56  1  0.46982279  0.78197031  0.62525163  1
  O  O57  1  0.59413953  0.71868747  0.81133493  1
  O  O58  1  0.90722194  0.09507442  0.87474837  1
  O  O59  1  0.03002240  0.40547446  0.68866507  1
  O  O60  1  0.31319015  0.52501196  0.09844141  1
  O  O61  1  0.12345337  0.41163156  0.40155859  1
  O  O62  1  0.18208539  0.07678414  0.78767204  1
  O  O63  1  0.36445618  0.96975743  0.71232796  1
  O  O64  1  0.21287309  0.68249382  0.42453227  1
  O  O65  1  0.28207399  0.86408675  0.53529158  1
  O  O66  1  0.89937833  0.81736557  0.96470842  1
  O  O67  1  0.60702609  0.63740535  0.07546773  1
  O  O68  1  0.52482996  0.21057485  0.37575076  1
  O  O69  1  0.41316177  0.28965329  0.18690963  1
  O  O70  1  0.08632561  0.90058073  0.12424924  1
  O  O71  1  0.97656292  0.60007140  0.31309037  1
  O  O72  1  0.68866375  0.47655450  0.89956487  1
  O  O73  1  0.87611937  0.58822862  0.60043513  1
  O  O74  1  0.81310402  0.91235474  0.21141362  1
  O  O75  1  0.62376836  0.02451764  0.28858638  1
  O  O76  1  0.78940597  0.31229487  0.58791979  1
  O  O77  1  0.70937629  0.12224048  0.47800933  1
  O  O78  1  0.10024981  0.18738562  0.02199067  1
  O  O79  1  0.40021466  0.37732576  0.91208021  1
