# generated using pymatgen
data_Er4Fe34C3
_symmetry_space_group_name_H-M   'P 1'
_cell_length_a   6.47537591
_cell_length_b   6.44076003
_cell_length_c   12.90166870
_cell_angle_alpha   82.98603030
_cell_angle_beta   83.46869437
_cell_angle_gamma   83.54200629
_symmetry_Int_Tables_number   1
_chemical_formula_structural   Er4Fe34C3
_chemical_formula_sum   'Er4 Fe34 C3'
_cell_volume   527.93014119
_cell_formula_units_Z   1
loop_
 _symmetry_equiv_pos_site_id
 _symmetry_equiv_pos_as_xyz
  1  'x, y, z'
loop_
 _atom_site_type_symbol
 _atom_site_label
 _atom_site_symmetry_multiplicity
 _atom_site_fract_x
 _atom_site_fract_y
 _atom_site_fract_z
 _atom_site_occupancy
  Er  Er0  1  0.66351873  0.65433883  0.32751570  1
  Er  Er1  1  0.66110753  0.66029117  0.82592427  1
  Er  Er2  1  0.33648127  0.34566117  0.17248430  1
  Er  Er3  1  0.33889247  0.33970883  0.67407573  1
  Fe  Fe4  1  0.90227746  0.90380670  0.45216932  1
  Fe  Fe5  1  0.90477391  0.90421478  0.95062766  1
  Fe  Fe6  1  0.09772254  0.09619330  0.04783068  1
  Fe  Fe7  1  0.09522609  0.09578522  0.54937234  1
  Fe  Fe8  1  0.34149989  0.34472661  0.42628440  1
  Fe  Fe9  1  0.34315470  0.34259876  0.92421085  1
  Fe  Fe10  1  0.34173690  0.85099061  0.17221559  1
  Fe  Fe11  1  0.34410571  0.84951447  0.67315635  1
  Fe  Fe12  1  0.85251089  0.34490114  0.17292030  1
  Fe  Fe13  1  0.84893705  0.34479005  0.67306875  1
  Fe  Fe14  1  0.65850011  0.65527339  0.07371560  1
  Fe  Fe15  1  0.65684530  0.65740124  0.57578915  1
  Fe  Fe16  1  0.65826310  0.14900939  0.32778441  1
  Fe  Fe17  1  0.65589429  0.15048553  0.82684365  1
  Fe  Fe18  1  0.14748911  0.65509886  0.32707970  1
  Fe  Fe19  1  0.15106295  0.65520995  0.82693125  1
  Fe  Fe20  1  0.28481289  0.71568213  0.50006362  1
  Fe  Fe21  1  0.28445844  0.71545978  -0.00014195  1
  Fe  Fe22  1  0.71611410  0.99965264  0.14201116  1
  Fe  Fe23  1  0.70924556  0.00000655  0.64653056  1
  Fe  Fe24  1  0.00140926  0.29062629  0.35458067  1
  Fe  Fe25  1  0.99918817  0.29135890  0.85374638  1
  Fe  Fe26  1  0.28388590  0.00034736  0.35798884  1
  Fe  Fe27  1  0.29075444  0.99999345  0.85346944  1
  Fe  Fe28  1  0.99859074  0.70937371  0.14541933  1
  Fe  Fe29  1  0.00081183  0.70864110  0.64625362  1
  Fe  Fe30  1  0.71518711  0.28431787  -0.00006362  1
  Fe  Fe31  1  0.71554156  0.28454022  0.50014195  1
  Fe  Fe32  1  -0.00000000  0.00000000  0.25000000  1
  Fe  Fe33  1  -0.00000000  0.00000000  0.75000000  1
  Fe  Fe34  1  0.99899543  0.49988809  0.50036422  1
  Fe  Fe35  1  0.00100457  0.50011191  0.99963578  1
  Fe  Fe36  1  0.50034522  0.99806250  0.99897230  1
  Fe  Fe37  1  0.49965478  0.00193750  0.50102770  1
  C  C38  1  0.49878492  0.49961296  0.99963545  1
  C  C39  1  0.50121508  0.50038704  0.50036455  1
  C  C40  1  0.50000000  0.00000000  0.25000000  1
