# generated using pymatgen
data_LaMg6Cd
_symmetry_space_group_name_H-M   'P 1'
_cell_length_a   6.74072654
_cell_length_b   6.74072594
_cell_length_c   5.16713846
_cell_angle_alpha   90.00000000
_cell_angle_beta   90.00000000
_cell_angle_gamma   119.96336725
_symmetry_Int_Tables_number   1
_chemical_formula_structural   LaMg6Cd
_chemical_formula_sum   'La1 Mg6 Cd1'
_cell_volume   203.40157233
_cell_formula_units_Z   1
loop_
 _symmetry_equiv_pos_site_id
 _symmetry_equiv_pos_as_xyz
  1  'x, y, z'
loop_
 _atom_site_type_symbol
 _atom_site_label
 _atom_site_symmetry_multiplicity
 _atom_site_fract_x
 _atom_site_fract_y
 _atom_site_fract_z
 _atom_site_occupancy
  La  La0  1  0.16902999  0.33097001  0.25000000  1
  Mg  Mg1  1  0.17435181  0.83547598  0.25000000  1
  Mg  Mg2  1  0.66452402  0.32564819  0.25000000  1
  Mg  Mg3  1  0.66273889  0.83726111  0.25000000  1
  Mg  Mg4  1  0.34046581  0.68408319  0.75000000  1
  Mg  Mg5  1  0.81591681  0.15953419  0.75000000  1
  Mg  Mg6  1  0.83289347  0.66710653  0.75000000  1
  Cd  Cd7  1  0.34007921  0.15992079  0.75000000  1
