# generated using pymatgen
data_Cu19Sn16
_symmetry_space_group_name_H-M   'P 1'
_cell_length_a   7.54866446
_cell_length_b   9.79287851
_cell_length_c   9.77652965
_cell_angle_alpha   116.54957260
_cell_angle_beta   89.67431574
_cell_angle_gamma   89.82452813
_symmetry_Int_Tables_number   1
_chemical_formula_structural   Cu19Sn16
_chemical_formula_sum   'Cu19 Sn16'
_cell_volume   646.47734450
_cell_formula_units_Z   1
loop_
 _symmetry_equiv_pos_site_id
 _symmetry_equiv_pos_as_xyz
  1  'x, y, z'
loop_
 _atom_site_type_symbol
 _atom_site_label
 _atom_site_symmetry_multiplicity
 _atom_site_fract_x
 _atom_site_fract_y
 _atom_site_fract_z
 _atom_site_occupancy
  Cu  Cu0  1  0.24226024  0.19176096  0.31221270  1
  Cu  Cu1  1  0.74416199  0.81023267  0.18789441  1
  Cu  Cu2  1  0.75319765  0.81208012  0.68729400  1
  Cu  Cu3  1  0.25373628  0.18997818  0.81364659  1
  Cu  Cu4  1  0.73004400  0.05960275  0.44485933  1
  Cu  Cu5  1  0.22339060  0.94223698  0.05773875  1
  Cu  Cu6  1  0.27671451  0.94364138  0.55698649  1
  Cu  Cu7  1  0.77330344  0.05853290  0.94074458  1
  Cu  Cu8  1  0.77195749  0.31586394  0.18724335  1
  Cu  Cu9  1  0.27631143  0.68654473  0.31751183  1
  Cu  Cu10  1  0.22455042  0.68151833  0.81467580  1
  Cu  Cu11  1  0.73125264  0.31441446  0.68249463  1
  Cu  Cu12  1  0.25631956  0.43018912  0.06731482  1
  Cu  Cu13  1  0.75159081  0.56649470  0.43108957  1
  Cu  Cu14  1  0.74407331  0.56860901  0.93086197  1
  Cu  Cu15  1  0.24513522  0.43052970  0.56794144  1
  Cu  Cu16  1  0.90816794  0.80923303  0.93773179  1
  Cu  Cu17  1  0.59060572  0.81216863  0.43758799  1
  Cu  Cu18  1  0.09166345  0.19059490  0.06298692  1
  Sn  Sn19  1  0.90429791  0.06927693  0.21492123  1
  Sn  Sn20  1  0.40655107  0.94179577  0.29322432  1
  Sn  Sn21  1  0.09418747  0.92995890  0.78477294  1
  Sn  Sn22  1  0.58664082  0.07662401  0.71040296  1
  Sn  Sn23  1  0.44840460  0.18243713  0.06259020  1
  Sn  Sn24  1  0.94663074  0.81652050  0.43667984  1
  Sn  Sn25  1  0.55107182  0.81578176  0.93850056  1
  Sn  Sn26  1  0.07188652  0.18322274  0.56244176  1
  Sn  Sn27  1  0.41165303  0.44289520  0.81887371  1
  Sn  Sn28  1  0.90845592  0.54406782  0.66785434  1
  Sn  Sn29  1  0.58754071  0.54509182  0.16901523  1
  Sn  Sn30  1  0.08976981  0.45694911  0.33183918  1
  Sn  Sn31  1  0.91474064  0.32230880  0.92215457  1
  Sn  Sn32  1  0.41629092  0.67696783  0.57718802  1
  Sn  Sn33  1  0.08823208  0.67819648  0.07817653  1
  Sn  Sn34  1  0.57530929  0.31377872  0.43064767  1
