# generated using pymatgen
data_CsNaSiO3
_symmetry_space_group_name_H-M   'P 1'
_cell_length_a   8.60276765
_cell_length_b   8.60276757
_cell_length_c   8.60276765
_cell_angle_alpha   90.91256082
_cell_angle_beta   90.91256190
_cell_angle_gamma   90.91256082
_symmetry_Int_Tables_number   1
_chemical_formula_structural   CsNaSiO3
_chemical_formula_sum   'Cs6 Na6 Si6 O18'
_cell_volume   636.42541808
_cell_formula_units_Z   6
loop_
 _symmetry_equiv_pos_site_id
 _symmetry_equiv_pos_as_xyz
  1  'x, y, z'
loop_
 _atom_site_type_symbol
 _atom_site_label
 _atom_site_symmetry_multiplicity
 _atom_site_fract_x
 _atom_site_fract_y
 _atom_site_fract_z
 _atom_site_occupancy
  Cs  Cs0  1  0.65834148  0.65834148  0.65834148  1
  Cs  Cs1  1  0.34057284  0.34057284  0.34057284  1
  Cs  Cs2  1  0.00065680  0.00065680  0.49699817  1
  Cs  Cs3  1  0.00065680  0.49699817  0.00065680  1
  Cs  Cs4  1  0.49699817  0.00065680  0.00065680  1
  Cs  Cs5  1  0.98410137  0.98410137  0.98410137  1
  Na  Na6  1  0.63085536  0.00010924  0.36906372  1
  Na  Na7  1  0.00010924  0.36906372  0.63085536  1
  Na  Na8  1  0.36906372  0.63085536  0.00010924  1
  Na  Na9  1  0.00010924  0.63085536  0.36906372  1
  Na  Na10  1  0.63085536  0.36906372  0.00010924  1
  Na  Na11  1  0.36906372  0.00010924  0.63085536  1
  Si  Si12  1  0.78999399  0.32777979  0.32777979  1
  Si  Si13  1  0.32777979  0.32777979  0.78999399  1
  Si  Si14  1  0.32777979  0.78999399  0.32777979  1
  Si  Si15  1  0.20987959  0.67213905  0.67213905  1
  Si  Si16  1  0.67213905  0.67213905  0.20987959  1
  Si  Si17  1  0.67213905  0.20987959  0.67213905  1
  O  O18  1  0.72544548  0.20098065  0.20098065  1
  O  O19  1  0.20098065  0.20098065  0.72544548  1
  O  O20  1  0.20098065  0.72544548  0.20098065  1
  O  O21  1  0.27403123  0.79900518  0.79900518  1
  O  O22  1  0.79900518  0.79900518  0.27403123  1
  O  O23  1  0.79900518  0.27403123  0.79900518  1
  O  O24  1  0.71228992  0.28734002  0.49993023  1
  O  O25  1  0.28734002  0.49993023  0.71228992  1
  O  O26  1  0.49993023  0.71228992  0.28734002  1
  O  O27  1  0.28734002  0.71228992  0.49993023  1
  O  O28  1  0.71228992  0.49993023  0.28734002  1
  O  O29  1  0.49993023  0.28734002  0.71228992  1
  O  O30  1  0.97617928  0.35285614  0.35285614  1
  O  O31  1  0.35285614  0.35285614  0.97617928  1
  O  O32  1  0.35285614  0.97617928  0.35285614  1
  O  O33  1  0.02332507  0.64829363  0.64829363  1
  O  O34  1  0.64829363  0.64829363  0.02332507  1
  O  O35  1  0.64829363  0.02332507  0.64829363  1
