# generated using pymatgen
data_Er6Mn(GeS7)2
_symmetry_space_group_name_H-M   'P 1'
_cell_length_a   5.67415575
_cell_length_b   9.85425144
_cell_length_c   9.85423576
_cell_angle_alpha   60.00065259
_cell_angle_beta   89.99934937
_cell_angle_gamma   90.00051586
_symmetry_Int_Tables_number   1
_chemical_formula_structural   Er6Mn(GeS7)2
_chemical_formula_sum   'Er6 Mn1 Ge2 S14'
_cell_volume   477.17900601
_cell_formula_units_Z   1
loop_
 _symmetry_equiv_pos_site_id
 _symmetry_equiv_pos_as_xyz
  1  'x, y, z'
loop_
 _atom_site_type_symbol
 _atom_site_label
 _atom_site_symmetry_multiplicity
 _atom_site_fract_x
 _atom_site_fract_y
 _atom_site_fract_z
 _atom_site_occupancy
  Er  Er0  1  0.24996479  0.23145289  0.12443250  1
  Er  Er1  1  0.24983000  0.64412939  0.23146396  1
  Er  Er2  1  0.24988134  0.12439413  0.64410348  1
  Er  Er3  1  0.75029293  0.76868363  0.87526214  1
  Er  Er4  1  0.75027532  0.35605474  0.76868603  1
  Er  Er5  1  0.75034727  0.87526085  0.35605946  1
  Mn  Mn6  1  0.48691650  0.00001351  0.00000111  1
  Ge  Ge7  1  0.82847852  0.33331256  0.33335140  1
  Ge  Ge8  1  0.33263266  0.66668071  0.66664958  1
  S  S9  1  0.99757454  0.09913303  0.41499840  1
  S  S10  1  0.99755681  0.48582882  0.09917875  1
  S  S11  1  0.99754501  0.41500227  0.48585715  1
  S  S12  1  0.50099353  0.90077347  0.58477939  1
  S  S13  1  0.50099891  0.51447374  0.90074497  1
  S  S14  1  0.50098234  0.58480064  0.51444550  1
  S  S15  1  0.71838131  0.16035663  0.09225633  1
  S  S16  1  0.71838585  0.74737826  0.16036311  1
  S  S17  1  0.71841010  0.09227194  0.74736010  1
  S  S18  1  0.23943931  0.83684766  0.91081394  1
  S  S19  1  0.23942985  0.25234043  0.83684066  1
  S  S20  1  0.23943000  0.91081453  0.25235581  1
  S  S21  1  0.44532716  0.33332531  0.33333558  1
  S  S22  1  0.94892595  0.66667088  0.66666067  1
