# generated using pymatgen
data_Er4Co3
_symmetry_space_group_name_H-M   'P 1'
_cell_length_a   3.99451000
_cell_length_b   11.29907616
_cell_length_c   11.30986564
_cell_angle_alpha   120.02802103
_cell_angle_beta   90.00309985
_cell_angle_gamma   90.00114596
_symmetry_Int_Tables_number   1
_chemical_formula_structural   Er4Co3
_chemical_formula_sum   'Er12 Co9'
_cell_volume   441.94866759
_cell_formula_units_Z   3
loop_
 _symmetry_equiv_pos_site_id
 _symmetry_equiv_pos_as_xyz
  1  'x, y, z'
loop_
 _atom_site_type_symbol
 _atom_site_label
 _atom_site_symmetry_multiplicity
 _atom_site_fract_x
 _atom_site_fract_y
 _atom_site_fract_z
 _atom_site_occupancy
  Er  Er0  1  0.74957264  0.62061969  0.48510371  1
  Er  Er1  1  0.74958772  0.51470932  0.13557744  1
  Er  Er2  1  0.74952966  0.86453898  0.37943348  1
  Er  Er3  1  0.25042736  0.37938031  0.51489629  1
  Er  Er4  1  0.25041228  0.48529068  0.86442256  1
  Er  Er5  1  0.25047034  0.13546102  0.62056652  1
  Er  Er6  1  0.74954596  0.77529521  0.02202870  1
  Er  Er7  1  0.74954817  0.97780954  0.75309549  1
  Er  Er8  1  0.74954449  0.24705851  0.22475379  1
  Er  Er9  1  0.25045404  0.22470479  0.97797130  1
  Er  Er10  1  0.25045183  0.02219046  0.24690451  1
  Er  Er11  1  0.25045551  0.75294149  0.77524621  1
  Co  Co12  1  0.74990934  0.33333528  0.66661804  1
  Co  Co13  1  0.25009066  0.66666472  0.33338196  1
  Co  Co14  1  0.74940208  0.28307717  0.84397482  1
  Co  Co15  1  0.74944015  0.15600306  0.43902935  1
  Co  Co16  1  0.74948987  0.56108449  0.71697307  1
  Co  Co17  1  0.25059792  0.71692283  0.15602518  1
  Co  Co18  1  0.25055985  0.84399694  0.56097065  1
  Co  Co19  1  0.25051013  0.43891551  0.28302693  1
  Co  Co20  1  0.50000000  -0.00000000  -0.00000000  1
