# generated using pymatgen
data_Gd4Fe34C3
_symmetry_space_group_name_H-M   'P 1'
_cell_length_a   6.47592925
_cell_length_b   6.44232690
_cell_length_c   12.89680327
_cell_angle_alpha   83.47449166
_cell_angle_beta   83.78335532
_cell_angle_gamma   83.71681032
_symmetry_Int_Tables_number   1
_chemical_formula_structural   Gd4Fe34C3
_chemical_formula_sum   'Gd4 Fe34 C3'
_cell_volume   528.84963520
_cell_formula_units_Z   1
loop_
 _symmetry_equiv_pos_site_id
 _symmetry_equiv_pos_as_xyz
  1  'x, y, z'
loop_
 _atom_site_type_symbol
 _atom_site_label
 _atom_site_symmetry_multiplicity
 _atom_site_fract_x
 _atom_site_fract_y
 _atom_site_fract_z
 _atom_site_occupancy
  Gd  Gd0  1  0.66422462  0.65049687  0.32631723  1
  Gd  Gd1  1  0.65989588  0.66175937  0.82364239  1
  Gd  Gd2  1  0.33577538  0.34950313  0.17368277  1
  Gd  Gd3  1  0.34010412  0.33824063  0.67635761  1
  Fe  Fe4  1  0.85561346  0.34461404  0.17207503  1
  Fe  Fe5  1  0.85136956  0.34403403  0.67317933  1
  Fe  Fe6  1  0.34106903  0.34460953  0.42810752  1
  Fe  Fe7  1  0.34351041  0.34248532  0.92498421  1
  Fe  Fe8  1  0.34155818  0.85448524  0.17166111  1
  Fe  Fe9  1  0.34223347  0.85179265  0.67280405  1
  Fe  Fe10  1  0.14438654  0.65538596  0.32792497  1
  Fe  Fe11  1  0.14863044  0.65596597  0.82682067  1
  Fe  Fe12  1  0.65893097  0.65539047  0.07189248  1
  Fe  Fe13  1  0.65648959  0.65751468  0.57501579  1
  Fe  Fe14  1  0.65844182  0.14551476  0.32833889  1
  Fe  Fe15  1  0.65776653  0.14820735  0.82719595  1
  Fe  Fe16  1  0.90387946  0.90261149  0.45145564  1
  Fe  Fe17  1  0.90450830  0.90370487  0.95092607  1
  Fe  Fe18  1  0.09612054  0.09738851  0.04854436  1
  Fe  Fe19  1  0.09549170  0.09629513  0.54907393  1
  Fe  Fe20  1  0.28545461  0.71518384  -0.00087103  1
  Fe  Fe21  1  0.28565832  0.71481615  0.50050442  1
  Fe  Fe22  1  0.71384874  0.00085272  0.14212998  1
  Fe  Fe23  1  0.71672952  0.00065942  0.64270989  1
  Fe  Fe24  1  0.00068585  0.28341945  0.35842943  1
  Fe  Fe25  1  -0.00114569  0.28715672  0.85685372  1
  Fe  Fe26  1  0.28615126  -0.00085272  0.35787002  1
  Fe  Fe27  1  0.28327048  -0.00065942  0.85729011  1
  Fe  Fe28  1  -0.00068585  0.71658055  0.14157057  1
  Fe  Fe29  1  0.00114569  0.71284328  0.64314628  1
  Fe  Fe30  1  0.71454539  0.28481616  0.50087103  1
  Fe  Fe31  1  0.71434168  0.28518385  0.99949558  1
  Fe  Fe32  1  -0.00000000  -0.00000000  0.25000000  1
  Fe  Fe33  1  -0.00000000  -0.00000000  0.75000000  1
  Fe  Fe34  1  0.00152490  0.50045887  0.99938548  1
  Fe  Fe35  1  0.99847510  0.49954113  0.50061452  1
  Fe  Fe36  1  0.49927540  0.00166078  0.50169164  1
  Fe  Fe37  1  0.50072460  0.99833922  0.99830836  1
  C  C38  1  0.50087934  0.49998425  0.50102521  1
  C  C39  1  0.49912066  0.50001575  0.99897479  1
  C  C40  1  0.50000000  -0.00000000  0.25000000  1
