# generated using pymatgen
data_Er2MgS4
_symmetry_space_group_name_H-M   'P 1'
_cell_length_a   3.75831580
_cell_length_b   6.50801404
_cell_length_c   12.78572327
_cell_angle_alpha   90.00000000
_cell_angle_beta   90.00000000
_cell_angle_gamma   73.21714682
_symmetry_Int_Tables_number   1
_chemical_formula_structural   Er2MgS4
_chemical_formula_sum   'Er4 Mg2 S8'
_cell_volume   299.40784448
_cell_formula_units_Z   2
loop_
 _symmetry_equiv_pos_site_id
 _symmetry_equiv_pos_as_xyz
  1  'x, y, z'
loop_
 _atom_site_type_symbol
 _atom_site_label
 _atom_site_symmetry_multiplicity
 _atom_site_fract_x
 _atom_site_fract_y
 _atom_site_fract_z
 _atom_site_occupancy
  Er  Er0  1  0.38216176  0.23567648  0.78314147  1
  Er  Er1  1  0.61783824  0.76432352  0.28314147  1
  Er  Er2  1  0.13800918  0.72398164  0.58241160  1
  Er  Er3  1  0.86199082  0.27601836  0.08241160  1
  Mg  Mg4  1  0.12606201  0.74787599  0.94605226  1
  Mg  Mg5  1  0.87393799  0.25212401  0.44605226  1
  S  S6  1  0.78854208  0.42291584  0.63606952  1
  S  S7  1  0.21145792  0.57708416  0.13606952  1
  S  S8  1  0.48820122  0.02359756  0.99776222  1
  S  S9  1  0.51179878  0.97640244  0.49776222  1
  S  S10  1  0.76374164  0.47251672  0.89502947  1
  S  S11  1  0.23625836  0.52748328  0.39502947  1
  S  S12  1  0.03626524  0.92746952  0.76753346  1
  S  S13  1  0.96373476  0.07253048  0.26753346  1
