# generated using pymatgen
data_Cr2CoP3
_symmetry_space_group_name_H-M   'P 1'
_cell_length_a   3.10882343
_cell_length_b   5.26236652
_cell_length_c   17.62031994
_cell_angle_alpha   90.00928661
_cell_angle_beta   90.00000000
_cell_angle_gamma   90.00000000
_symmetry_Int_Tables_number   1
_chemical_formula_structural   Cr2CoP3
_chemical_formula_sum   'Cr8 Co4 P12'
_cell_volume   288.26434849
_cell_formula_units_Z   4
loop_
 _symmetry_equiv_pos_site_id
 _symmetry_equiv_pos_as_xyz
  1  'x, y, z'
loop_
 _atom_site_type_symbol
 _atom_site_label
 _atom_site_symmetry_multiplicity
 _atom_site_fract_x
 _atom_site_fract_y
 _atom_site_fract_z
 _atom_site_occupancy
  Cr  Cr0  1  0.75000000  0.99098355  0.60318775  1
  Cr  Cr1  1  0.75000000  0.99194474  0.93751410  1
  Cr  Cr2  1  0.25000000  0.50334377  0.10085895  1
  Cr  Cr3  1  0.25000000  0.50595234  0.43153810  1
  Cr  Cr4  1  0.25000000  0.50711166  0.76620320  1
  Cr  Cr5  1  0.25000000  0.00347240  0.06681486  1
  Cr  Cr6  1  0.25000000  0.00415487  0.39784774  1
  Cr  Cr7  1  0.25000000  0.00482311  0.73179441  1
  Co  Co8  1  0.75000000  0.49888368  0.23327024  1
  Co  Co9  1  0.75000000  0.49384345  0.56571970  1
  Co  Co10  1  0.75000000  0.49457628  0.89931987  1
  Co  Co11  1  0.75000000  0.99854317  0.26574666  1
  P  P12  1  0.75000000  0.31380130  0.02215551  1
  P  P13  1  0.75000000  0.30959558  0.35305759  1
  P  P14  1  0.75000000  0.31170065  0.68831194  1
  P  P15  1  0.75000000  0.81023890  0.14650231  1
  P  P16  1  0.75000000  0.81681819  0.47927916  1
  P  P17  1  0.75000000  0.81649975  0.81300761  1
  P  P18  1  0.25000000  0.68764596  0.30725132  1
  P  P19  1  0.25000000  0.68308529  0.64194888  1
  P  P20  1  0.25000000  0.68215686  0.97642939  1
  P  P21  1  0.25000000  0.18831183  0.19139614  1
  P  P22  1  0.25000000  0.19129869  0.52371515  1
  P  P23  1  0.25000000  0.19121400  0.85712940  1
