# generated using pymatgen
data_CeIrOs
_symmetry_space_group_name_H-M   'P 1'
_cell_length_a   5.45977320
_cell_length_b   5.45977320
_cell_length_c   5.45977320
_cell_angle_alpha   93.21514149
_cell_angle_beta   60.18214991
_cell_angle_gamma   123.97568832
_symmetry_Int_Tables_number   1
_chemical_formula_structural   CeIrOs
_chemical_formula_sum   'Ce2 Ir2 Os2'
_cell_volume   111.39465632
_cell_formula_units_Z   2
loop_
 _symmetry_equiv_pos_site_id
 _symmetry_equiv_pos_as_xyz
  1  'x, y, z'
loop_
 _atom_site_type_symbol
 _atom_site_label
 _atom_site_symmetry_multiplicity
 _atom_site_fract_x
 _atom_site_fract_y
 _atom_site_fract_z
 _atom_site_occupancy
  Ce  Ce0  1  0.50000000  0.75064731  0.74935269  1
  Ce  Ce1  1  0.00000000  0.99935269  0.00064731  1
  Ir  Ir2  1  0.75000000  0.37500000  0.87500000  1
  Ir  Ir3  1  0.25000000  0.37500000  0.37500000  1
  Os  Os4  1  0.25000000  0.87500000  0.37500000  1
  Os  Os5  1  0.75000000  0.37500000  0.37500000  1
