# generated using pymatgen
data_Fe14Cu7(PO4)18
_symmetry_space_group_name_H-M   'P 1'
_cell_length_a   9.89190183
_cell_length_b   12.87022608
_cell_length_c   11.13135937
_cell_angle_alpha   70.88029285
_cell_angle_beta   101.28675973
_cell_angle_gamma   107.72925393
_symmetry_Int_Tables_number   1
_chemical_formula_structural   Fe14Cu7(PO4)18
_chemical_formula_sum   'Fe14 Cu7 P18 O72'
_cell_volume   1268.10359733
_cell_formula_units_Z   1
loop_
 _symmetry_equiv_pos_site_id
 _symmetry_equiv_pos_as_xyz
  1  'x, y, z'
loop_
 _atom_site_type_symbol
 _atom_site_label
 _atom_site_symmetry_multiplicity
 _atom_site_fract_x
 _atom_site_fract_y
 _atom_site_fract_z
 _atom_site_occupancy
  Fe  Fe0  1  0.98431150  0.86801091  0.53321063  1
  Fe  Fe1  1  0.65106573  0.53473018  0.19914257  1
  Fe  Fe2  1  0.31770317  0.20104200  0.86661220  1
  Fe  Fe3  1  0.34893427  0.46526982  0.80085743  1
  Fe  Fe4  1  0.01568850  0.13198909  0.46678937  1
  Fe  Fe5  1  0.68229683  0.79895800  0.13338780  1
  Fe  Fe6  1  0.09771473  0.57313285  0.37701038  1
  Fe  Fe7  1  0.76449888  0.23972111  0.04371941  1
  Fe  Fe8  1  0.43075833  0.90633053  0.71059852  1
  Fe  Fe9  1  0.23550112  0.76027889  0.95628059  1
  Fe  Fe10  1  0.90228527  0.42686715  0.62298962  1
  Fe  Fe11  1  0.56924167  0.09366947  0.28940148  1
  Fe  Fe12  1  0.66663886  0.66644116  0.66684119  1
  Fe  Fe13  1  0.33336114  0.33355884  0.33315881  1
  Cu  Cu14  1  0.11100148  0.84093071  0.30777166  1
  Cu  Cu15  1  0.77896639  0.50706930  0.97497437  1
  Cu  Cu16  1  0.44572640  0.17372886  0.64163634  1
  Cu  Cu17  1  0.22103361  0.49293070  0.02502563  1
  Cu  Cu18  1  0.88899852  0.15906929  0.69222834  1
  Cu  Cu19  1  0.55427360  0.82627114  0.35836366  1
  Cu  Cu20  1  -0.00000000  0.00000000  0.00000000  1
  P  P21  1  0.17400441  0.34248757  0.57870142  1
  P  P22  1  0.84270898  0.00898617  0.24237001  1
  P  P23  1  0.50754069  0.67587405  0.91195570  1
  P  P24  1  0.15729102  0.99101383  0.75762999  1
  P  P25  1  0.82599559  0.65751243  0.42129858  1
  P  P26  1  0.49245931  0.32412595  0.08804430  1
  P  P27  1  0.00006578  0.62897188  0.77190841  1
  P  P28  1  0.66677664  0.29574892  0.43851488  1
  P  P29  1  0.33414826  0.96196452  0.10573818  1
  P  P30  1  0.33322336  0.70425108  0.56148512  1
  P  P31  1  -0.00006578  0.37102812  0.22809159  1
  P  P32  1  0.66585174  0.03803548  0.89426182  1
  P  P33  1  0.05050806  0.27904972  0.90284695  1
  P  P34  1  0.71742160  0.94628810  0.56950236  1
  P  P35  1  0.38409607  0.61293355  0.23610970  1
  P  P36  1  0.28257840  0.05371190  0.43049764  1
  P  P37  1  0.94949194  0.72095028  0.09715305  1
  P  P38  1  0.61590393  0.38706645  0.76389030  1
  O  O39  1  0.25534874  0.33956359  0.71562294  1
  O  O40  1  0.92312971  0.00662523  0.38007937  1
  O  O41  1  0.58867034  0.67275204  0.04906284  1
  O  O42  1  0.07687029  0.99337477  0.61992063  1
  O  O43  1  0.74465126  0.66043641  0.28437706  1
  O  O44  1  0.41132966  0.32724796  0.95093716  1
  O  O45  1  0.27459235  0.35846575  0.48470720  1
  O  O46  1  0.94514984  0.02460428  0.14930739  1
  O  O47  1  0.60856043  0.69235000  0.81815913  1
  O  O48  1  0.05485016  0.97539572  0.85069261  1
  O  O49  1  0.72540765  0.64153425  0.51529280  1
  O  O50  1  0.39143957  0.30765000  0.18184087  1
  O  O51  1  0.16556846  0.39445808  0.90230677  1
  O  O52  1  0.83306694  0.06114436  0.56918253  1
  O  O53  1  0.49960291  0.72763251  0.23617652  1
  O  O54  1  0.16693306  0.93885564  0.43081747  1
  O  O55  1  0.83443154  0.60554192  0.09769323  1
  O  O56  1  0.50039709  0.27236749  0.76382348  1
  O  O57  1  0.28632354  0.58282129  0.33750803  1
  O  O58  1  0.95277615  0.24959353  0.00406575  1
  O  O59  1  0.61960628  0.91641186  0.67081166  1
  O  O60  1  0.04722385  0.75040647  0.99593425  1
  O  O61  1  0.71367646  0.41717871  0.66249197  1
  O  O62  1  0.38039372  0.08358814  0.32918834  1
  O  O63  1  0.99699713  0.53180651  0.71991098  1
  O  O64  1  0.66358062  0.19840981  0.38651663  1
  O  O65  1  0.33100855  0.86502269  0.05326936  1
  O  O66  1  0.33641938  0.80159019  0.61348337  1
  O  O67  1  0.00300287  0.46819349  0.28008902  1
  O  O68  1  0.66899145  0.13497731  0.94673064  1
  O  O69  1  0.85228503  0.61160379  0.81710555  1
  O  O70  1  0.51884013  0.27832624  0.48355430  1
  O  O71  1  0.18798638  0.94391397  0.15330824  1
  O  O72  1  0.48115987  0.72167376  0.51644570  1
  O  O73  1  0.14771497  0.38839621  0.18289445  1
  O  O74  1  0.81201362  0.05608603  0.84669176  1
  O  O75  1  0.20919476  0.70157141  0.45214758  1
  O  O76  1  0.87581073  0.36833699  0.11863823  1
  O  O77  1  0.54063477  0.03491912  0.78544638  1
  O  O78  1  0.12418927  0.63166301  0.88136177  1
  O  O79  1  0.79080524  0.29842859  0.54785242  1
  O  O80  1  0.45936523  0.96508088  0.21455362  1
  O  O81  1  0.37144021  0.04024672  0.56662922  1
  O  O82  1  0.03847187  0.70709947  0.23366684  1
  O  O83  1  0.70528298  0.37358401  0.89979098  1
  O  O84  1  0.96152813  0.29290053  0.76633316  1
  O  O85  1  0.62855979  0.95975328  0.43337078  1
  O  O86  1  0.29471702  0.62641599  0.10020902  1
  O  O87  1  0.02793243  0.74510340  0.66863093  1
  O  O88  1  0.69430928  0.41177615  0.33502363  1
  O  O89  1  0.36046249  0.07795951  0.00240439  1
  O  O90  1  0.30569072  0.58822385  0.66497637  1
  O  O91  1  0.97206757  0.25489660  0.33136907  1
  O  O92  1  0.63953751  0.92204049  0.99759561  1
  O  O93  1  0.93882690  0.77643781  0.40766495  1
  O  O94  1  0.60478004  0.44305507  0.07396166  1
  O  O95  1  0.27034558  0.10964368  0.74183131  1
  O  O96  1  0.39521996  0.55694493  0.92603834  1
  O  O97  1  0.06117310  0.22356219  0.59233505  1
  O  O98  1  0.72965442  0.89035632  0.25816869  1
  O  O99  1  0.12504639  0.18180950  0.92605984  1
  O  O100  1  0.79190525  0.84883269  0.59263426  1
  O  O101  1  0.45837341  0.51533025  0.25922837  1
  O  O102  1  0.20809475  0.15116731  0.40736574  1
  O  O103  1  0.87495361  0.81819050  0.07394016  1
  O  O104  1  0.54162659  0.48466975  0.74077163  1
  O  O105  1  0.09172749  0.43668197  0.54115946  1
  O  O106  1  0.76032268  0.10322585  0.20618473  1
  O  O107  1  0.42505836  0.77004687  0.87452605  1
  O  O108  1  0.23967732  0.89677415  0.79381527  1
  O  O109  1  0.90827251  0.56331803  0.45884054  1
  O  O110  1  0.57494164  0.22995313  0.12547395  1
