# generated using pymatgen
data_Ce3AsS3
_symmetry_space_group_name_H-M   'P 1'
_cell_length_a   7.40921823
_cell_length_b   7.45973435
_cell_length_c   7.40890900
_cell_angle_alpha   70.51296111
_cell_angle_beta   70.83909723
_cell_angle_gamma   109.48871206
_symmetry_Int_Tables_number   1
_chemical_formula_structural   Ce3AsS3
_chemical_formula_sum   'Ce6 As2 S6'
_cell_volume   316.30091598
_cell_formula_units_Z   2
loop_
 _symmetry_equiv_pos_site_id
 _symmetry_equiv_pos_as_xyz
  1  'x, y, z'
loop_
 _atom_site_type_symbol
 _atom_site_label
 _atom_site_symmetry_multiplicity
 _atom_site_fract_x
 _atom_site_fract_y
 _atom_site_fract_z
 _atom_site_occupancy
  Ce  Ce0  1  0.37010161  0.24422285  0.38026203  1
  Ce  Ce1  1  0.12587876  0.75577715  0.12448488  1
  Ce  Ce2  1  0.87998338  0.62720098  0.74309086  1
  Ce  Ce3  1  0.62371890  0.87386096  0.25309988  1
  Ce  Ce4  1  0.74985794  0.12613904  0.62696083  1
  Ce  Ce5  1  0.25278240  0.37279902  0.87029184  1
  As  As6  1  0.84586540  0.34602123  0.15405174  1
  As  As7  1  0.49984417  0.65397877  0.00007297  1
  S  S8  1  0.50025898  0.15061780  0.99873652  1
  S  S9  1  0.65053009  0.50107869  0.49979468  1
  S  S10  1  0.00135314  0.00062050  0.34915280  1
  S  S11  1  0.34964118  0.84938220  0.64935432  1
  S  S12  1  0.14945140  0.49892131  0.50087337  1
  S  S13  1  0.00073264  0.99937950  0.84977330  1
