# generated using pymatgen
data_CrP2W
_symmetry_space_group_name_H-M   'P 1'
_cell_length_a   3.16859209
_cell_length_b   5.52082605
_cell_length_c   6.15044799
_cell_angle_alpha   90.00000000
_cell_angle_beta   90.00000000
_cell_angle_gamma   90.00000000
_symmetry_Int_Tables_number   1
_chemical_formula_structural   CrP2W
_chemical_formula_sum   'Cr2 P4 W2'
_cell_volume   107.59129818
_cell_formula_units_Z   2
loop_
 _symmetry_equiv_pos_site_id
 _symmetry_equiv_pos_as_xyz
  1  'x, y, z'
loop_
 _atom_site_type_symbol
 _atom_site_label
 _atom_site_symmetry_multiplicity
 _atom_site_fract_x
 _atom_site_fract_y
 _atom_site_fract_z
 _atom_site_occupancy
  Cr  Cr0  1  0.75000000  0.48861066  0.68626355  1
  Cr  Cr1  1  0.75000000  0.98861066  0.81373645  1
  P  P2  1  0.75000000  0.32089673  0.04534743  1
  P  P3  1  0.75000000  0.82089673  0.45465257  1
  P  P4  1  0.25000000  0.68475503  0.91721130  1
  P  P5  1  0.25000000  0.18475503  0.58278870  1
  W  W6  1  0.25000000  0.50573758  0.30519892  1
  W  W7  1  0.25000000  0.00573758  0.19480108  1
