# generated using pymatgen
data_CaPb3Se4
_symmetry_space_group_name_H-M   'P 1'
_cell_length_a   4.36098973
_cell_length_b   7.57008016
_cell_length_c   7.57008016
_cell_angle_alpha   70.59509466
_cell_angle_beta   90.00000000
_cell_angle_gamma   90.00000000
_symmetry_Int_Tables_number   1
_chemical_formula_structural   CaPb3Se4
_chemical_formula_sum   'Ca1 Pb3 Se4'
_cell_volume   235.71496168
_cell_formula_units_Z   1
loop_
 _symmetry_equiv_pos_site_id
 _symmetry_equiv_pos_as_xyz
  1  'x, y, z'
loop_
 _atom_site_type_symbol
 _atom_site_label
 _atom_site_symmetry_multiplicity
 _atom_site_fract_x
 _atom_site_fract_y
 _atom_site_fract_z
 _atom_site_occupancy
  Ca  Ca0  1  0.00000000  0.25000000  0.25000000  1
  Pb  Pb1  1  0.50000000  0.25000000  0.75000000  1
  Pb  Pb2  1  0.50000000  0.75000000  0.25000000  1
  Pb  Pb3  1  0.00000000  0.75000000  0.75000000  1
  Se  Se4  1  0.00000000  0.49514996  0.49514996  1
  Se  Se5  1  -0.00000000  0.00485004  0.00485004  1
  Se  Se6  1  0.50000000  0.00931982  0.49068018  1
  Se  Se7  1  0.50000000  0.49068018  0.00931982  1
