# generated using pymatgen
data_Rb
_symmetry_space_group_name_H-M   'P 1'
_cell_length_a   4.97815952
_cell_length_b   9.20356153
_cell_length_c   9.06210610
_cell_angle_alpha   85.73994510
_cell_angle_beta   74.05771348
_cell_angle_gamma   74.30910968
_symmetry_Int_Tables_number   1
_chemical_formula_structural   Rb
_chemical_formula_sum   Rb4
_cell_volume   384.35042157
_cell_formula_units_Z   4
loop_
 _symmetry_equiv_pos_site_id
 _symmetry_equiv_pos_as_xyz
  1  'x, y, z'
loop_
 _atom_site_type_symbol
 _atom_site_label
 _atom_site_symmetry_multiplicity
 _atom_site_fract_x
 _atom_site_fract_y
 _atom_site_fract_z
 _atom_site_occupancy
  Rb  Rb0  1  0.11748824  0.50000000  0.76502351  1
  Rb  Rb1  1  0.63251176  -0.00000000  0.73497649  1
  Rb  Rb2  1  0.38251176  0.50000000  0.23497649  1
  Rb  Rb3  1  0.36748824  0.00000000  0.26502351  1
