# generated using pymatgen
data_Ce3Si3Pt
_symmetry_space_group_name_H-M   'P 1'
_cell_length_a   4.09473210
_cell_length_b   4.18640134
_cell_length_c   9.59284495
_cell_angle_alpha   77.39640863
_cell_angle_beta   77.67677791
_cell_angle_gamma   90.00000000
_symmetry_Int_Tables_number   1
_chemical_formula_structural   Ce3Si3Pt
_chemical_formula_sum   'Ce3 Si3 Pt1'
_cell_volume   156.59509694
_cell_formula_units_Z   1
loop_
 _symmetry_equiv_pos_site_id
 _symmetry_equiv_pos_as_xyz
  1  'x, y, z'
loop_
 _atom_site_type_symbol
 _atom_site_label
 _atom_site_symmetry_multiplicity
 _atom_site_fract_x
 _atom_site_fract_y
 _atom_site_fract_z
 _atom_site_occupancy
  Ce  Ce0  1  0.00051966  0.00051966  0.99896067  1
  Ce  Ce1  1  0.68508111  0.18508111  0.62983777  1
  Ce  Ce2  1  0.31470373  0.81470373  0.37059254  1
  Si  Si3  1  0.85931758  0.35931758  0.28136484  1
  Si  Si4  1  0.14018144  0.64018144  0.71963713  1
  Si  Si5  1  0.56536589  0.56536589  0.86926821  1
  Pt  Pt6  1  0.43483058  0.43483058  0.13033883  1
