# generated using pymatgen
data_CaMg7(SiO3)8
_symmetry_space_group_name_H-M   'P 1'
_cell_length_a   5.29904379
_cell_length_b   8.98335516
_cell_length_c   9.54989852
_cell_angle_alpha   90.31436411
_cell_angle_beta   103.09494390
_cell_angle_gamma   89.89645178
_symmetry_Int_Tables_number   1
_chemical_formula_structural   CaMg7(SiO3)8
_chemical_formula_sum   'Ca1 Mg7 Si8 O24'
_cell_volume   442.77733529
_cell_formula_units_Z   1
loop_
 _symmetry_equiv_pos_site_id
 _symmetry_equiv_pos_as_xyz
  1  'x, y, z'
loop_
 _atom_site_type_symbol
 _atom_site_label
 _atom_site_symmetry_multiplicity
 _atom_site_fract_x
 _atom_site_fract_y
 _atom_site_fract_z
 _atom_site_occupancy
  Ca  Ca0  1  0.47138528  0.46290190  0.73885899  1
  Mg  Mg1  1  0.47773619  0.84622704  0.74891873  1
  Mg  Mg2  1  0.02210852  0.34857570  0.25084914  1
  Mg  Mg3  1  0.52313508  0.15120765  0.25066757  1
  Mg  Mg4  1  0.98056766  0.65716615  0.75044560  1
  Mg  Mg5  1  0.02856808  0.98842600  0.25131814  1
  Mg  Mg6  1  0.52846679  0.51149532  0.25185950  1
  Mg  Mg7  1  0.97386515  0.00847612  0.74963892  1
  Si  Si8  1  0.18810828  0.66529852  0.44981880  1
  Si  Si9  1  0.31073418  0.15735970  0.54749639  1
  Si  Si10  1  0.81588845  0.33935339  0.54318318  1
  Si  Si11  1  0.69032937  0.83907945  0.44961195  1
  Si  Si12  1  0.73861474  0.15593732  0.95924232  1
  Si  Si13  1  0.75985527  0.66071877  0.04310884  1
  Si  Si14  1  0.25863817  0.84123701  0.04382165  1
  Si  Si15  1  0.23307335  0.34081402  0.96348614  1
  O  O16  1  0.25121104  0.51444193  0.37022084  1
  O  O17  1  0.25285868  0.01294184  0.63357795  1
  O  O18  1  0.78348273  0.49499763  0.61940820  1
  O  O19  1  0.75124979  0.98716750  0.36778371  1
  O  O20  1  0.25628514  0.66868493  0.62537732  1
  O  O21  1  0.24120054  0.15487279  0.37213354  1
  O  O22  1  0.73916174  0.33857796  0.36795546  1
  O  O23  1  0.75984362  0.84505721  0.62578543  1
  O  O24  1  0.80892446  0.15693218  0.13444022  1
  O  O25  1  0.69757560  0.66598818  0.86836883  1
  O  O26  1  0.19409963  0.84274078  0.86845109  1
  O  O27  1  0.30626412  0.33904791  0.13853704  1
  O  O28  1  0.98285787  0.22925878  0.89711676  1
  O  O29  1  0.51014835  0.72993998  0.10476257  1
  O  O30  1  0.01201983  0.77214430  0.10755677  1
  O  O31  1  0.47951197  0.26394222  0.90385288  1
  O  O32  1  0.37333624  0.79682475  0.39646602  1
  O  O33  1  0.12684338  0.29023314  0.59921354  1
  O  O34  1  0.62234020  0.21452617  0.60212008  1
  O  O35  1  0.87058502  0.70529982  0.39451737  1
  O  O36  1  0.70799443  0.99923837  0.87549779  1
  O  O37  1  0.79064742  0.50070254  0.12228142  1
  O  O38  1  0.29194875  0.00115215  0.12335389  1
  O  O39  1  0.18853488  0.50101289  0.88889543  1
