# generated using pymatgen
data_Co3Ag2P3HO12
_symmetry_space_group_name_H-M   'P 1'
_cell_length_a   6.71457267
_cell_length_b   9.19602801
_cell_length_c   9.18726753
_cell_angle_alpha   88.58770838
_cell_angle_beta   111.43393517
_cell_angle_gamma   68.58749105
_symmetry_Int_Tables_number   1
_chemical_formula_structural   Co3Ag2P3HO12
_chemical_formula_sum   'Co6 Ag4 P6 H2 O24'
_cell_volume   483.36130052
_cell_formula_units_Z   2
loop_
 _symmetry_equiv_pos_site_id
 _symmetry_equiv_pos_as_xyz
  1  'x, y, z'
loop_
 _atom_site_type_symbol
 _atom_site_label
 _atom_site_symmetry_multiplicity
 _atom_site_fract_x
 _atom_site_fract_y
 _atom_site_fract_z
 _atom_site_occupancy
  Co  Co0  1  0.95959120  0.04212207  0.95877956  1
  Co  Co1  1  0.95706629  0.54212207  0.45877956  1
  Co  Co2  1  0.45236269  0.42935210  0.84834850  1
  Co  Co3  1  0.94757905  0.15827487  0.57138377  1
  Co  Co4  1  0.46552985  0.65827487  0.07138377  1
  Co  Co5  1  0.96663371  0.92935210  0.34834850  1
  Ag  Ag6  1  0.61908747  0.74400888  0.73727462  1
  Ag  Ag7  1  0.37417826  0.24400888  0.23727462  1
  Ag  Ag8  1  0.46786732  0.54301723  0.47025065  1
  Ag  Ag9  1  0.45936610  0.04301723  0.97025065  1
  P  P10  1  0.46664040  0.22038865  0.63723929  1
  P  P11  1  0.95597058  0.36632348  0.78520716  1
  P  P12  1  0.46291310  0.86632348  0.28520716  1
  P  P13  1  0.95021024  0.72038865  0.13723929  1
  P  P14  1  0.86061925  0.29531318  0.20725896  1
  P  P15  1  0.05132653  0.79531318  0.70725896  1
  H  H16  1  0.33422695  0.04476497  0.50808810  1
  H  H17  1  0.12909618  0.54476497  0.00808810  1
  O  O18  1  0.61579957  0.18529724  0.54151203  1
  O  O19  1  0.73149332  0.45508797  0.81068523  1
  O  O20  1  0.62410394  0.95508797  0.31068523  1
  O  O21  1  0.74041522  0.68529724  0.04151203  1
  O  O22  1  0.60348458  0.41240205  0.09337177  1
  O  O23  1  0.07748514  0.91240205  0.59337177  1
  O  O24  1  0.99190053  0.19920973  0.11160593  1
  O  O25  1  0.91757092  0.88733879  0.80335434  1
  O  O26  1  0.99844462  0.38733879  0.30335434  1
  O  O27  1  0.92049567  0.69920973  0.61160593  1
  O  O28  1  0.83298107  0.17988634  0.32275538  1
  O  O29  1  0.30988797  0.67988634  0.82275538  1
  O  O30  1  0.59385421  0.17970475  0.82237242  1
  O  O31  1  0.04338310  0.17899263  0.81895359  1
  O  O32  1  0.59657786  0.67899263  0.31895359  1
  O  O33  1  0.04881346  0.67970475  0.32237242  1
  O  O34  1  0.30982011  0.11740555  0.58839781  1
  O  O35  1  0.15462664  0.41644803  0.88531397  1
  O  O36  1  0.31423930  0.91644803  0.38531397  1
  O  O37  1  0.16117215  0.61740555  0.08839781  1
  O  O38  1  0.31027366  0.40102275  0.60614099  1
  O  O39  1  0.89277697  0.39518872  0.59955593  1
  O  O40  1  0.31159024  0.89518872  0.09955593  1
  O  O41  1  0.89484458  0.90102275  0.10614099  1
