# generated using pymatgen
data_CaPr2BeO5
_symmetry_space_group_name_H-M   'P 1'
_cell_length_a   6.56595878
_cell_length_b   7.25188235
_cell_length_c   9.57902499
_cell_angle_alpha   90.00000000
_cell_angle_beta   90.00000000
_cell_angle_gamma   90.00000000
_symmetry_Int_Tables_number   1
_chemical_formula_structural   CaPr2BeO5
_chemical_formula_sum   'Ca4 Pr8 Be4 O20'
_cell_volume   456.11064478
_cell_formula_units_Z   4
loop_
 _symmetry_equiv_pos_site_id
 _symmetry_equiv_pos_as_xyz
  1  'x, y, z'
loop_
 _atom_site_type_symbol
 _atom_site_label
 _atom_site_symmetry_multiplicity
 _atom_site_fract_x
 _atom_site_fract_y
 _atom_site_fract_z
 _atom_site_occupancy
  Ca  Ca0  1  0.57812934  0.97912400  0.67591675  1
  Ca  Ca1  1  0.42187066  0.47912400  0.32408325  1
  Ca  Ca2  1  0.07812934  0.47912400  0.82408325  1
  Ca  Ca3  1  0.92187066  0.97912400  0.17591675  1
  Pr  Pr4  1  0.09781522  0.74575725  0.52390324  1
  Pr  Pr5  1  0.40218478  0.74575725  0.02390324  1
  Pr  Pr6  1  0.90218478  0.24575725  0.47609676  1
  Pr  Pr7  1  0.59781522  0.24575725  0.97609676  1
  Pr  Pr8  1  0.92634012  0.52729857  0.17163640  1
  Pr  Pr9  1  0.07365988  0.02729857  0.82836360  1
  Pr  Pr10  1  0.42634012  0.02729857  0.32836360  1
  Pr  Pr11  1  0.57365988  0.52729857  0.67163640  1
  Be  Be12  1  0.69257337  0.74842550  0.39571675  1
  Be  Be13  1  0.80742663  0.74842550  0.89571675  1
  Be  Be14  1  0.30742663  0.24842550  0.60428325  1
  Be  Be15  1  0.19257337  0.24842550  0.10428325  1
  O  O16  1  0.31106021  0.05785877  0.07115484  1
  O  O17  1  0.19342559  0.44137983  0.57384910  1
  O  O18  1  0.68893979  0.55785877  0.92884516  1
  O  O19  1  0.80657441  0.94137983  0.42615090  1
  O  O20  1  0.69342559  0.94137983  0.92615090  1
  O  O21  1  0.81106021  0.55785877  0.42884516  1
  O  O22  1  0.30657441  0.44137983  0.07384910  1
  O  O23  1  0.18893979  0.05785877  0.57115484  1
  O  O24  1  0.64029596  0.75046214  0.22341598  1
  O  O25  1  0.85970404  0.75046214  0.72341598  1
  O  O26  1  0.35970404  0.25046214  0.77658402  1
  O  O27  1  0.14029596  0.25046214  0.27658402  1
  O  O28  1  0.01865172  0.75035502  0.98778827  1
  O  O29  1  0.48134828  0.75035502  0.48778827  1
  O  O30  1  0.98134828  0.25035502  0.01221173  1
  O  O31  1  0.51865172  0.25035502  0.51221173  1
  O  O32  1  0.16593996  0.74933891  0.27336887  1
  O  O33  1  0.33406004  0.74933891  0.77336887  1
  O  O34  1  0.83406004  0.24933891  0.72663113  1
  O  O35  1  0.66593996  0.24933891  0.22663113  1
