# generated using pymatgen
data_Cd4Ge(SeS)3
_symmetry_space_group_name_H-M   'P 1'
_cell_length_a   7.41823018
_cell_length_b   7.48779696
_cell_length_c   12.87922185
_cell_angle_alpha   90.10164323
_cell_angle_beta   73.26221151
_cell_angle_gamma   119.69313950
_symmetry_Int_Tables_number   1
_chemical_formula_structural   Cd4Ge(SeS)3
_chemical_formula_sum   'Cd8 Ge2 Se6 S6'
_cell_volume   586.52851790
_cell_formula_units_Z   2
loop_
 _symmetry_equiv_pos_site_id
 _symmetry_equiv_pos_as_xyz
  1  'x, y, z'
loop_
 _atom_site_type_symbol
 _atom_site_label
 _atom_site_symmetry_multiplicity
 _atom_site_fract_x
 _atom_site_fract_y
 _atom_site_fract_z
 _atom_site_occupancy
  Cd  Cd0  1  0.05262491  0.82511015  0.49693110  1
  Cd  Cd1  1  0.77555414  0.32511015  0.99693110  1
  Cd  Cd2  1  0.76705451  0.06522110  0.30923776  1
  Cd  Cd3  1  0.48892883  0.56522110  0.80923776  1
  Cd  Cd4  1  0.40317998  0.56951509  0.16188475  1
  Cd  Cd5  1  0.50445037  0.06951509  0.66188475  1
  Cd  Cd6  1  0.41741672  0.48702006  0.49752807  1
  Cd  Cd7  1  0.07207527  0.98702006  0.99752807  1
  Ge  Ge8  1  0.91389742  0.61637748  0.24373683  1
  Ge  Ge9  1  0.95874323  0.11637748  0.74373683  1
  Se  Se10  1  0.70593291  0.98471397  0.11517854  1
  Se  Se11  1  0.66360252  0.48471397  0.61517854  1
  Se  Se12  1  0.43247973  0.35682189  0.99573552  1
  Se  Se13  1  0.42860664  0.85682189  0.49573552  1
  Se  Se14  1  0.07107978  0.94981836  0.29584238  1
  Se  Se15  1  0.08289620  0.44981836  0.79584238  1
  S  S16  1  0.06204421  0.65267375  0.06219171  1
  S  S17  1  0.02843782  0.15267375  0.56219171  1
  S  S18  1  0.03796226  0.44832565  0.32031031  1
  S  S19  1  0.59005308  0.94832565  0.82031031  1
  S  S20  1  0.54841323  0.42740251  0.29642303  1
  S  S21  1  0.08256625  0.92740251  0.79642303  1
