# generated using pymatgen
data_CaNdGa3O7
_symmetry_space_group_name_H-M   'P 1'
_cell_length_a   5.28497529
_cell_length_b   7.98476649
_cell_length_c   7.98476649
_cell_angle_alpha   89.44475786
_cell_angle_beta   90.00000000
_cell_angle_gamma   90.00000000
_symmetry_Int_Tables_number   1
_chemical_formula_structural   CaNdGa3O7
_chemical_formula_sum   'Ca2 Nd2 Ga6 O14'
_cell_volume   336.93568392
_cell_formula_units_Z   2
loop_
 _symmetry_equiv_pos_site_id
 _symmetry_equiv_pos_as_xyz
  1  'x, y, z'
loop_
 _atom_site_type_symbol
 _atom_site_label
 _atom_site_symmetry_multiplicity
 _atom_site_fract_x
 _atom_site_fract_y
 _atom_site_fract_z
 _atom_site_occupancy
  Ca  Ca0  1  0.51765596  0.33974418  0.16025582  1
  Ca  Ca1  1  0.51765596  0.66025582  0.83974418  1
  Nd  Nd2  1  0.49023729  0.16293605  0.66293605  1
  Nd  Nd3  1  0.49023729  0.83706395  0.33706395  1
  Ga  Ga4  1  0.99510376  0.50000000  0.50000000  1
  Ga  Ga5  1  0.99510376  0.00000000  -0.00000000  1
  Ga  Ga6  1  0.96501827  0.14580698  0.35419302  1
  Ga  Ga7  1  0.03817195  0.35742528  0.85742528  1
  Ga  Ga8  1  0.96501827  0.85419302  0.64580698  1
  Ga  Ga9  1  0.03817195  0.64257472  0.14257472  1
  O  O10  1  0.30844677  0.13395499  0.36604501  1
  O  O11  1  0.69511791  0.35548643  0.85548643  1
  O  O12  1  0.30844677  0.86604501  0.63395499  1
  O  O13  1  0.69511791  0.64451357  0.14451357  1
  O  O14  1  0.78383544  0.33753132  0.41351390  1
  O  O15  1  0.21092502  0.15643156  0.90398158  1
  O  O16  1  0.78383544  0.66246868  0.58648610  1
  O  O17  1  0.21092502  0.84356844  0.09601842  1
  O  O18  1  0.21092502  0.59601842  0.34356844  1
  O  O19  1  0.78383544  0.91351390  0.83753132  1
  O  O20  1  0.21092502  0.40398158  0.65643156  1
  O  O21  1  0.78383544  0.08648610  0.16246868  1
  O  O22  1  0.20759855  0.50000000  -0.00000000  1
  O  O23  1  0.79385580  0.00000000  0.50000000  1
