# generated using pymatgen
data_CeGa7Fe5
_symmetry_space_group_name_H-M   'P 1'
_cell_length_a   5.04053112
_cell_length_b   6.65146870
_cell_length_c   6.65146870
_cell_angle_alpha   98.00360591
_cell_angle_beta   112.26578680
_cell_angle_gamma   67.73421320
_symmetry_Int_Tables_number   1
_chemical_formula_structural   CeGa7Fe5
_chemical_formula_sum   'Ce1 Ga7 Fe5'
_cell_volume   190.98477921
_cell_formula_units_Z   1
loop_
 _symmetry_equiv_pos_site_id
 _symmetry_equiv_pos_as_xyz
  1  'x, y, z'
loop_
 _atom_site_type_symbol
 _atom_site_label
 _atom_site_symmetry_multiplicity
 _atom_site_fract_x
 _atom_site_fract_y
 _atom_site_fract_z
 _atom_site_occupancy
  Ce  Ce0  1  0.00565882  0.99434118  0.00565882  1
  Ga  Ga1  1  0.65726972  0.34273028  0.65726972  1
  Ga  Ga2  1  0.34023902  0.65976098  0.34023902  1
  Ga  Ga3  1  0.99027716  0.35334159  0.33389592  1
  Ga  Ga4  1  0.99027716  0.66610408  0.64665841  1
  Ga  Ga5  1  0.27250009  0.22749991  0.77250009  1
  Ga  Ga6  1  0.50605361  0.78352783  0.79563505  1
  Ga  Ga7  1  0.50605361  0.20436495  0.21647217  1
  Fe  Fe8  1  0.49611831  0.00106837  0.49927300  1
  Fe  Fe9  1  0.00208631  0.00106837  0.49927300  1
  Fe  Fe10  1  0.49611831  0.50072700  0.99893163  1
  Fe  Fe11  1  0.00208631  0.50072700  0.99893163  1
  Fe  Fe12  1  0.73526156  0.76473844  0.23526156  1
