# generated using pymatgen
data_Ca2Sn3S8
_symmetry_space_group_name_H-M   'P 1'
_cell_length_a   5.24636458
_cell_length_b   16.32473654
_cell_length_c   17.39056915
_cell_angle_alpha   101.47841570
_cell_angle_beta   90.00000000
_cell_angle_gamma   90.00000000
_symmetry_Int_Tables_number   1
_chemical_formula_structural   Ca2Sn3S8
_chemical_formula_sum   'Ca8 Sn12 S32'
_cell_volume   1459.63545686
_cell_formula_units_Z   4
loop_
 _symmetry_equiv_pos_site_id
 _symmetry_equiv_pos_as_xyz
  1  'x, y, z'
loop_
 _atom_site_type_symbol
 _atom_site_label
 _atom_site_symmetry_multiplicity
 _atom_site_fract_x
 _atom_site_fract_y
 _atom_site_fract_z
 _atom_site_occupancy
  Ca  Ca0  1  0.70375855  0.15688290  0.45621729  1
  Ca  Ca1  1  0.20375855  0.84311710  0.54378271  1
  Ca  Ca2  1  0.68949474  0.16107686  0.95697134  1
  Ca  Ca3  1  0.18949474  0.83892314  0.04302866  1
  Ca  Ca4  1  0.24666654  0.40349318  0.41559479  1
  Ca  Ca5  1  0.74666654  0.59650682  0.58440521  1
  Ca  Ca6  1  0.17526301  0.40474749  0.91706445  1
  Ca  Ca7  1  0.67526301  0.59525251  0.08293555  1
  Sn  Sn8  1  0.18923638  0.38119053  0.61776869  1
  Sn  Sn9  1  0.68923638  0.61880947  0.38223131  1
  Sn  Sn10  1  0.23277617  0.37976158  0.11941817  1
  Sn  Sn11  1  0.73277617  0.62023842  0.88058183  1
  Sn  Sn12  1  0.17619601  0.71293860  0.26559562  1
  Sn  Sn13  1  0.67619601  0.28706140  0.73440438  1
  Sn  Sn14  1  0.24024981  0.71792407  0.76641998  1
  Sn  Sn15  1  0.74024981  0.28207593  0.23358002  1
  Sn  Sn16  1  0.22362657  0.97501951  0.32861004  1
  Sn  Sn17  1  0.72362657  0.02498049  0.67138996  1
  Sn  Sn18  1  0.21536229  0.97993450  0.82675488  1
  Sn  Sn19  1  0.71536229  0.02006550  0.17324512  1
  S  S20  1  0.20211532  0.07933137  0.44465734  1
  S  S21  1  0.70211532  0.92066863  0.55534266  1
  S  S22  1  0.19650411  0.08231102  0.94391924  1
  S  S23  1  0.69650411  0.91768898  0.05608076  1
  S  S24  1  0.23649798  0.51393051  0.58000374  1
  S  S25  1  0.73649798  0.48606949  0.41999626  1
  S  S26  1  0.18479368  0.51168297  0.08009654  1
  S  S27  1  0.68479368  0.48831703  0.91990346  1
  S  S28  1  0.21366796  0.27315180  0.50415094  1
  S  S29  1  0.71366796  0.72684820  0.49584906  1
  S  S30  1  0.20538423  0.27335278  0.00448926  1
  S  S31  1  0.70538423  0.72664722  0.99551074  1
  S  S32  1  0.15248225  0.72304187  0.63438827  1
  S  S33  1  0.65248225  0.27695813  0.36561173  1
  S  S34  1  0.26535025  0.71933295  0.13395619  1
  S  S35  1  0.76535025  0.28066705  0.86604381  1
  S  S36  1  0.20778436  0.83979422  0.36865098  1
  S  S37  1  0.70778436  0.16020578  0.63134902  1
  S  S38  1  0.19062357  0.84499940  0.86811283  1
  S  S39  1  0.69062357  0.15500060  0.13188717  1
  S  S40  1  0.19741154  0.60390771  0.83852452  1
  S  S41  1  0.69741154  0.39609229  0.16147548  1
  S  S42  1  0.22126162  0.60255490  0.34138799  1
  S  S43  1  0.72126162  0.39744510  0.65861201  1
  S  S44  1  0.20368449  0.98731999  0.18949951  1
  S  S45  1  0.70368449  0.01268001  0.81050049  1
  S  S46  1  0.20662891  0.99345302  0.68789108  1
  S  S47  1  0.70662891  0.00654698  0.31210892  1
  S  S48  1  0.19909643  0.32712151  0.24347086  1
  S  S49  1  0.69909643  0.67287849  0.75652914  1
  S  S50  1  0.71818322  0.66754522  0.25588332  1
  S  S51  1  0.21818322  0.33245478  0.74411668  1
