# generated using pymatgen
data_Ca2ZrTi(SiO5)2
_symmetry_space_group_name_H-M   'P 1'
_cell_length_a   5.55410296
_cell_length_b   5.62226584
_cell_length_c   13.42637664
_cell_angle_alpha   87.65725121
_cell_angle_beta   87.80242593
_cell_angle_gamma   105.78673279
_symmetry_Int_Tables_number   1
_chemical_formula_structural   Ca2ZrTi(SiO5)2
_chemical_formula_sum   'Ca4 Zr2 Ti2 Si4 O20'
_cell_volume   402.57552024
_cell_formula_units_Z   2
loop_
 _symmetry_equiv_pos_site_id
 _symmetry_equiv_pos_as_xyz
  1  'x, y, z'
loop_
 _atom_site_type_symbol
 _atom_site_label
 _atom_site_symmetry_multiplicity
 _atom_site_fract_x
 _atom_site_fract_y
 _atom_site_fract_z
 _atom_site_occupancy
  Ca  Ca0  1  0.04654024  0.71008971  0.13054360  1
  Ca  Ca1  1  0.54654024  0.21008971  0.63054360  1
  Ca  Ca2  1  0.45345976  0.78991029  0.36945640  1
  Ca  Ca3  1  0.95345976  0.28991029  0.86945640  1
  Zr  Zr4  1  0.50000000  0.50000000  0.00000000  1
  Zr  Zr5  1  -0.00000000  -0.00000000  0.50000000  1
  Ti  Ti6  1  0.25000000  0.25000000  0.25000000  1
  Ti  Ti7  1  0.75000000  0.75000000  0.75000000  1
  Si  Si8  1  0.79848232  0.43899748  0.37259941  1
  Si  Si9  1  0.29848232  0.93899748  0.87259941  1
  Si  Si10  1  0.70151768  0.06100252  0.12740059  1
  Si  Si11  1  0.20151768  0.56100252  0.62740059  1
  O  O12  1  0.20947726  0.05180187  0.36836527  1
  O  O13  1  0.70947726  0.55180187  0.86836527  1
  O  O14  1  0.29052274  0.44819813  0.13163473  1
  O  O15  1  0.79052274  0.94819813  0.63163473  1
  O  O16  1  0.58236670  0.45558651  0.29292939  1
  O  O17  1  0.08236670  0.95558651  0.79292939  1
  O  O18  1  0.71411451  0.84414995  0.04977892  1
  O  O19  1  0.21411451  0.34414995  0.54977892  1
  O  O20  1  0.91763330  0.04441349  0.20707061  1
  O  O21  1  0.41763330  0.54441349  0.70707061  1
  O  O22  1  0.78588549  0.65585005  0.45022108  1
  O  O23  1  0.28588549  0.15585005  0.95022108  1
  O  O24  1  0.76615251  0.32940696  0.06282174  1
  O  O25  1  0.26615251  0.82940696  0.56282174  1
  O  O26  1  0.07523521  0.49703920  0.31154806  1
  O  O27  1  0.57523521  0.99703920  0.81154806  1
  O  O28  1  0.73384749  0.17059304  0.43717826  1
  O  O29  1  0.23384749  0.67059304  0.93717826  1
  O  O30  1  0.42476479  0.00296080  0.18845194  1
  O  O31  1  0.92476479  0.50296080  0.68845194  1
