# generated using pymatgen
data_Ca2AlH10ClO8
_symmetry_space_group_name_H-M   'P 1'
_cell_length_a   5.73609142
_cell_length_b   5.79585782
_cell_length_c   16.30490972
_cell_angle_alpha   90.00002619
_cell_angle_beta   100.26603121
_cell_angle_gamma   59.65468677
_symmetry_Int_Tables_number   1
_chemical_formula_structural   Ca2AlH10ClO8
_chemical_formula_sum   'Ca4 Al2 H20 Cl2 O16'
_cell_volume   457.71711914
_cell_formula_units_Z   2
loop_
 _symmetry_equiv_pos_site_id
 _symmetry_equiv_pos_as_xyz
  1  'x, y, z'
loop_
 _atom_site_type_symbol
 _atom_site_label
 _atom_site_symmetry_multiplicity
 _atom_site_fract_x
 _atom_site_fract_y
 _atom_site_fract_z
 _atom_site_occupancy
  Ca  Ca0  1  0.69277863  0.15234560  0.53845484  1
  Ca  Ca1  1  0.69277624  0.65487866  0.03845370  1
  Ca  Ca2  1  0.30788336  0.84640429  0.46155898  1
  Ca  Ca3  1  0.30788413  0.34571318  0.96155999  1
  Al  Al4  1  0.00071762  0.49899736  0.50000492  1
  Al  Al5  1  0.00071767  0.00028465  0.00000477  1
  H  H6  1  0.28131715  0.59941406  0.61881297  1
  H  H7  1  0.22400641  0.11496748  0.61807879  1
  H  H8  1  0.73384671  0.66964100  0.61846119  1
  H  H9  1  0.28131717  0.61926855  0.11881291  1
  H  H10  1  0.73384699  0.09651205  0.11846122  1
  H  H11  1  0.22400672  0.16102575  0.11807891  1
  H  H12  1  0.71180238  0.40366219  0.38130844  1
  H  H13  1  0.78097409  0.88147129  0.38097336  1
  H  H14  1  0.26672011  0.33856757  0.38234920  1
  H  H15  1  0.71180238  0.38453508  0.88130855  1
  H  H16  1  0.26671995  0.89471205  0.88234923  1
  H  H17  1  0.78097390  0.83755431  0.88097337  1
  H  H18  1  0.71402663  0.27609933  0.72213860  1
  H  H19  1  0.99746291  0.00655906  0.72219561  1
  H  H20  1  0.99746292  0.49597775  0.22219561  1
  H  H21  1  0.71402660  0.50987374  0.22213858  1
  H  H22  1  0.27066719  0.00352053  0.27792487  1
  H  H23  1  0.00071856  0.99081224  0.27769259  1
  H  H24  1  0.27066722  0.22581199  0.77792489  1
  H  H25  1  0.00071878  0.50846894  0.77769263  1
  Cl  Cl26  1  0.49728901  0.75262566  0.74999383  1
  Cl  Cl27  1  0.49728926  0.25008599  0.24999353  1
  O  O28  1  0.29643646  0.53371427  0.56399077  1
  O  O29  1  0.10008091  0.16990441  0.56343821  1
  O  O30  1  0.73393642  0.73237518  0.56316953  1
  O  O31  1  0.29643696  0.66984816  0.06399051  1
  O  O32  1  0.73393685  0.03368839  0.06316976  1
  O  O33  1  0.10008025  0.23001581  0.06343829  1
  O  O34  1  0.70448987  0.46529728  0.43675993  1
  O  O35  1  0.90230719  0.82824444  0.43603876  1
  O  O36  1  0.26766436  0.26802641  0.43661019  1
  O  O37  1  0.70448961  0.33021296  0.93675985  1
  O  O38  1  0.26766410  0.96430770  0.93661017  1
  O  O39  1  0.90230695  0.76944789  0.93603845  1
  O  O40  1  0.80041756  0.10920789  0.69546600  1
  O  O41  1  0.80041770  0.59037413  0.19546592  1
  O  O42  1  0.19645698  0.90990434  0.30457871  1
  O  O43  1  0.19645712  0.39364037  0.80457884  1
