# generated using pymatgen
data_Bi3Pd12Pb
_symmetry_space_group_name_H-M   'P 1'
_cell_length_a   5.07416384
_cell_length_b   5.85170737
_cell_length_c   9.54259880
_cell_angle_alpha   90.00000000
_cell_angle_beta   90.00000000
_cell_angle_gamma   90.00000000
_symmetry_Int_Tables_number   1
_chemical_formula_structural   Bi3Pd12Pb
_chemical_formula_sum   'Bi3 Pd12 Pb1'
_cell_volume   283.34382423
_cell_formula_units_Z   1
loop_
 _symmetry_equiv_pos_site_id
 _symmetry_equiv_pos_as_xyz
  1  'x, y, z'
loop_
 _atom_site_type_symbol
 _atom_site_label
 _atom_site_symmetry_multiplicity
 _atom_site_fract_x
 _atom_site_fract_y
 _atom_site_fract_z
 _atom_site_occupancy
  Bi  Bi0  1  0.15905715  0.50000000  0.25000000  1
  Bi  Bi1  1  0.49966696  0.00000000  0.49963465  1
  Bi  Bi2  1  0.49966696  0.00000000  0.00036535  1
  Pd  Pd3  1  0.99928960  0.25112758  0.50131241  1
  Pd  Pd4  1  0.99928960  0.25112758  0.99868759  1
  Pd  Pd5  1  0.99928960  0.74887242  0.50131241  1
  Pd  Pd6  1  0.99928960  0.74887242  0.99868759  1
  Pd  Pd7  1  0.33138697  0.25299314  0.75000000  1
  Pd  Pd8  1  0.66984779  0.25020045  0.25000000  1
  Pd  Pd9  1  0.66984779  0.74979955  0.25000000  1
  Pd  Pd10  1  0.33138697  0.74700686  0.75000000  1
  Pd  Pd11  1  0.84604872  0.00000000  0.75000000  1
  Pd  Pd12  1  0.15496120  0.00000000  0.25000000  1
  Pd  Pd13  1  0.50106941  0.50000000  0.50059603  1
  Pd  Pd14  1  0.50106941  0.50000000  0.99940397  1
  Pb  Pb15  1  0.83883223  0.50000000  0.75000000  1
