# generated using pymatgen
data_Ca10Nb5InO24
_symmetry_space_group_name_H-M   'P 1'
_cell_length_a   8.08881230
_cell_length_b   8.05298552
_cell_length_c   9.86108263
_cell_angle_alpha   66.70068485
_cell_angle_beta   66.85098286
_cell_angle_gamma   92.30677815
_symmetry_Int_Tables_number   1
_chemical_formula_structural   Ca10Nb5InO24
_chemical_formula_sum   'Ca10 Nb5 In1 O24'
_cell_volume   527.68642424
_cell_formula_units_Z   1
loop_
 _symmetry_equiv_pos_site_id
 _symmetry_equiv_pos_as_xyz
  1  'x, y, z'
loop_
 _atom_site_type_symbol
 _atom_site_label
 _atom_site_symmetry_multiplicity
 _atom_site_fract_x
 _atom_site_fract_y
 _atom_site_fract_z
 _atom_site_occupancy
  Ca  Ca0  1  0.74972284  0.25211506  0.50166219  1
  Ca  Ca1  1  0.00119867  0.99861147  0.00088706  1
  Ca  Ca2  1  0.59787256  0.15339952  0.26062998  1
  Ca  Ca3  1  0.11359525  0.66319071  0.24265314  1
  Ca  Ca4  1  0.41714851  0.36173679  0.74744785  1
  Ca  Ca5  1  0.91240112  0.85565084  0.74196786  1
  Ca  Ca6  1  0.89199927  0.34167831  0.75917696  1
  Ca  Ca7  1  0.39774485  0.84264427  0.73915265  1
  Ca  Ca8  1  0.08683418  0.14374839  0.26165071  1
  Ca  Ca9  1  0.58123448  0.64209864  0.25024822  1
  Nb  Nb10  1  0.49929171  0.00487544  0.99822484  1
  Nb  Nb11  1  0.98493650  0.50289787  0.00449713  1
  Nb  Nb12  1  0.25023548  0.25382863  0.50826494  1
  Nb  Nb13  1  0.75142739  0.74482425  0.49170506  1
  Nb  Nb14  1  0.48981878  0.50233652  0.99865861  1
  In  In15  1  0.25067670  0.75009155  0.49831165  1
  O  O16  1  0.46150723  0.90847314  0.23948476  1
  O  O17  1  0.96640914  0.42396210  0.22540084  1
  O  O18  1  0.17353337  0.22094829  0.72818838  1
  O  O19  1  0.64974729  0.68703965  0.76444120  1
  O  O20  1  0.05461989  0.58462754  0.75853107  1
  O  O21  1  0.52168587  0.08049308  0.77623436  1
  O  O22  1  0.35100434  0.31943152  0.23528381  1
  O  O23  1  0.83035724  0.77076683  0.27262193  1
  O  O24  1  0.47734086  0.66761557  0.56197132  1
  O  O25  1  0.99994527  0.16793754  0.54040082  1
  O  O26  1  0.42831043  0.71651665  0.05352445  1
  O  O27  1  0.91747619  0.24104369  0.05335518  1
  O  O28  1  0.01007837  0.82549734  0.45758463  1
  O  O29  1  0.51973708  0.33357570  0.42788090  1
  O  O30  1  0.08793920  0.76571672  0.93352085  1
  O  O31  1  0.57106074  0.27776788  0.95240471  1
  O  O32  1  0.28704600  0.99253444  0.54380304  1
  O  O33  1  0.75830565  0.47851242  0.58544699  1
  O  O34  1  0.23247713  0.00728762  0.08245385  1
  O  O35  1  0.72792487  0.53008869  0.04707725  1
  O  O36  1  0.23067217  0.52311835  0.43059830  1
  O  O37  1  0.72118881  0.00198347  0.44777157  1
  O  O38  1  0.28500385  0.47597345  0.94692034  1
  O  O39  1  0.76049071  0.98536007  0.92996063  1
