# generated using pymatgen
data_Ca3LaMn4O12
_symmetry_space_group_name_H-M   'P 1'
_cell_length_a   5.42900253
_cell_length_b   5.43456294
_cell_length_c   7.65135578
_cell_angle_alpha   90.00000000
_cell_angle_beta   90.00000000
_cell_angle_gamma   89.92787851
_symmetry_Int_Tables_number   1
_chemical_formula_structural   Ca3LaMn4O12
_chemical_formula_sum   'Ca3 La1 Mn4 O12'
_cell_volume   225.74738053
_cell_formula_units_Z   1
loop_
 _symmetry_equiv_pos_site_id
 _symmetry_equiv_pos_as_xyz
  1  'x, y, z'
loop_
 _atom_site_type_symbol
 _atom_site_label
 _atom_site_symmetry_multiplicity
 _atom_site_fract_x
 _atom_site_fract_y
 _atom_site_fract_z
 _atom_site_occupancy
  Ca  Ca0  1  0.47006193  0.49123587  0.75000000  1
  Ca  Ca1  1  0.96493147  0.00828447  0.75000000  1
  Ca  Ca2  1  0.53268626  0.50786155  0.25000000  1
  La  La3  1  0.02497318  0.99608666  0.25000000  1
  Mn  Mn4  1  0.49964961  -0.00026754  0.99558320  1
  Mn  Mn5  1  0.00099252  0.49996411  0.50493095  1
  Mn  Mn6  1  0.49964961  -0.00026754  0.50441680  1
  Mn  Mn7  1  0.00099252  0.49996411  0.99506905  1
  O  O8  1  0.21377292  0.21239988  0.96163143  1
  O  O9  1  0.71912229  0.28151076  0.54060764  1
  O  O10  1  0.77958986  0.77978981  0.46431532  1
  O  O11  1  0.28068650  0.71929379  0.04303298  1
  O  O12  1  0.77958986  0.77978981  0.03568468  1
  O  O13  1  0.28068650  0.71929379  0.45696702  1
  O  O14  1  0.21377292  0.21239988  0.53836857  1
  O  O15  1  0.71912229  0.28151076  0.95939236  1
  O  O16  1  0.02268348  0.57853016  0.75000000  1
  O  O17  1  0.51642970  0.92024258  0.75000000  1
  O  O18  1  0.98551379  0.43751556  0.25000000  1
  O  O19  1  0.49509278  0.07486153  0.25000000  1
