# generated using pymatgen
data_Ca8Be5Al3Si18(HO14)4
_symmetry_space_group_name_H-M   'P 1'
_cell_length_a   5.05196016
_cell_length_b   12.00857428
_cell_length_c   19.65496698
_cell_angle_alpha   89.88724532
_cell_angle_beta   89.72922065
_cell_angle_gamma   77.85421549
_symmetry_Int_Tables_number   1
_chemical_formula_structural   Ca8Be5Al3Si18(HO14)4
_chemical_formula_sum   'Ca8 Be5 Al3 Si18 H4 O56'
_cell_volume   1165.69963939
_cell_formula_units_Z   1
loop_
 _symmetry_equiv_pos_site_id
 _symmetry_equiv_pos_as_xyz
  1  'x, y, z'
loop_
 _atom_site_type_symbol
 _atom_site_label
 _atom_site_symmetry_multiplicity
 _atom_site_fract_x
 _atom_site_fract_y
 _atom_site_fract_z
 _atom_site_occupancy
  Ca  Ca0  1  0.67396984  0.16883334  0.65154054  1
  Ca  Ca1  1  0.15892265  0.16658279  0.34612707  1
  Ca  Ca2  1  0.67398951  0.16977577  0.84893444  1
  Ca  Ca3  1  0.17734771  0.16393811  0.15159191  1
  Ca  Ca4  1  0.32547937  0.83369159  0.34676506  1
  Ca  Ca5  1  0.84300862  0.83140111  0.65089115  1
  Ca  Ca6  1  0.34135861  0.83892707  0.15591567  1
  Ca  Ca7  1  0.84194071  0.83272277  0.84403888  1
  Be  Be8  1  0.05851790  0.24941330  0.74994454  1
  Be  Be9  1  0.69471990  0.24798922  0.24947944  1
  Be  Be10  1  0.94338079  0.75209154  0.24972831  1
  Be  Be11  1  0.30754757  0.75054745  0.74950792  1
  Be  Be12  1  0.70223867  0.00063537  0.10291264  1
  Al  Al13  1  0.40511754  0.19071297  0.49963808  1
  Al  Al14  1  0.41006647  0.18816735  0.00210770  1
  Al  Al15  1  0.59550658  0.80930899  0.49970614  1
  Si  Si16  1  0.21914887  0.99924060  0.75063420  1
  Si  Si17  1  0.77574079  0.99949638  0.24686563  1
  Si  Si18  1  0.92653890  0.42781697  0.64305466  1
  Si  Si19  1  0.64594232  0.42734641  0.35670251  1
  Si  Si20  1  0.92605003  0.42768977  0.85715173  1
  Si  Si21  1  0.64687498  0.42672260  0.14297560  1
  Si  Si22  1  0.07328306  0.57249632  0.35673474  1
  Si  Si23  1  0.35454688  0.57201174  0.64308566  1
  Si  Si24  1  0.07450345  0.57302038  0.14449907  1
  Si  Si25  1  0.35309430  0.57199539  0.85569842  1
  Si  Si26  1  0.82973089  0.33995453  0.49990247  1
  Si  Si27  1  0.82894432  0.33887330  0.99984818  1
  Si  Si28  1  0.16959112  0.66008444  0.49988581  1
  Si  Si29  1  0.16657979  0.66139416  0.99954347  1
  Si  Si30  1  0.59535374  0.81534510  0.00188665  1
  Si  Si31  1  0.27734877  -0.00001932  0.60517280  1
  Si  Si32  1  0.72462404  0.00002357  0.39437348  1
  Si  Si33  1  0.27810465  0.99952555  0.89668199  1
  H  H34  1  0.40338662  0.32199189  0.74979558  1
  H  H35  1  0.27480949  0.32237091  0.25013241  1
  H  H36  1  0.59795038  0.67710912  0.25042549  1
  H  H37  1  0.72522648  0.67748082  0.74962082  1
  O  O38  1  0.91417355  0.30873315  0.68055102  1
  O  O39  1  0.77810778  0.30844722  0.31974646  1
  O  O40  1  0.91329492  0.30925358  0.81963878  1
  O  O41  1  0.78048226  0.30906177  0.18040801  1
  O  O42  1  0.08653845  0.69142218  0.31953295  1
  O  O43  1  0.22318487  0.69083237  0.68070969  1
  O  O44  1  0.08905554  0.69247170  0.18007176  1
  O  O45  1  0.22179797  0.69210134  0.81984172  1
  O  O46  1  0.96243713  0.99995374  0.61482866  1
  O  O47  1  0.04043963  0.99983395  0.38708624  1
  O  O48  1  0.96710931  0.99489490  0.88739265  1
  O  O49  1  0.02184620  0.99800773  0.11787401  1
  O  O50  1  0.34444448  0.11540684  0.57271089  1
  O  O51  1  0.54172960  0.11488125  0.42776112  1
  O  O52  1  0.34693531  0.11409149  0.92780073  1
  O  O53  1  0.53464295  0.11239536  0.07244027  1
  O  O54  1  0.65658114  0.88501737  0.42776594  1
  O  O55  1  0.45959599  0.88453139  0.57270536  1
  O  O56  1  0.65013898  0.88307562  0.06750891  1
  O  O57  1  0.46486326  0.88361935  0.93240570  1
  O  O58  1  0.63812026  0.26271247  0.53720006  1
  O  O59  1  0.09896196  0.26282514  0.46359837  1
  O  O60  1  0.63626863  0.26335736  0.96200071  1
  O  O61  1  0.09801329  0.26328156  0.03529559  1
  O  O62  1  0.36158368  0.73733808  0.46353959  1
  O  O63  1  0.90083880  0.73724791  0.53718621  1
  O  O64  1  0.37291956  0.74056205  0.02855167  1
  O  O65  1  0.88122539  0.74012010  0.96755673  1
  O  O66  1  0.38771425  0.24175234  0.75033879  1
  O  O67  1  0.37203166  0.24233383  0.25057066  1
  O  O68  1  0.61495943  0.75718453  0.25036576  1
  O  O69  1  0.62928535  0.75768233  0.75027043  1
  O  O70  1  0.92462348  0.41651496  0.56011281  1
  O  O71  1  0.65717063  0.41646440  0.44009442  1
  O  O72  1  0.92160953  0.41811960  0.93994832  1
  O  O73  1  0.65686743  0.41724047  0.05952220  1
  O  O74  1  0.07354118  0.58379553  0.44006610  1
  O  O75  1  0.34133588  0.58370204  0.56015862  1
  O  O76  1  0.08120455  0.58786399  0.06098617  1
  O  O77  1  0.32710539  0.58676472  0.93854821  1
  O  O78  1  0.42444320  0.99956840  0.68391946  1
  O  O79  1  0.57827193  0.99962811  0.31658320  1
  O  O80  1  0.42638036  0.99434017  0.81815985  1
  O  O81  1  0.57544893  0.99477304  0.18254514  1
  O  O82  1  0.98938463  0.11720247  0.75134272  1
  O  O83  1  0.89549205  0.11650794  0.24969379  1
  O  O84  1  0.01580075  0.88299673  0.25004761  1
  O  O85  1  0.10396225  0.88188492  0.75023914  1
  O  O86  1  0.20550252  0.46770052  0.66526822  1
  O  O87  1  0.32639435  0.46783282  0.33523315  1
  O  O88  1  0.20591565  0.46756943  0.83464458  1
  O  O89  1  0.32587355  0.46759982  0.16455188  1
  O  O90  1  0.79396699  0.53237456  0.33519421  1
  O  O91  1  0.67357246  0.53232640  0.66528103  1
  O  O92  1  0.79260808  0.53309885  0.16384499  1
  O  O93  1  0.67371637  0.53299077  0.83525787  1
