# generated using pymatgen
data_CeBi2(Rh2O5)3
_symmetry_space_group_name_H-M   'P 1'
_cell_length_a   5.21498988
_cell_length_b   7.24494870
_cell_length_c   30.20491222
_cell_angle_alpha   90.00000000
_cell_angle_beta   90.00000000
_cell_angle_gamma   89.92658275
_symmetry_Int_Tables_number   1
_chemical_formula_structural   CeBi2(Rh2O5)3
_chemical_formula_sum   'Ce4 Bi8 Rh24 O60'
_cell_volume   1141.21114922
_cell_formula_units_Z   4
loop_
 _symmetry_equiv_pos_site_id
 _symmetry_equiv_pos_as_xyz
  1  'x, y, z'
loop_
 _atom_site_type_symbol
 _atom_site_label
 _atom_site_symmetry_multiplicity
 _atom_site_fract_x
 _atom_site_fract_y
 _atom_site_fract_z
 _atom_site_occupancy
  Ce  Ce0  1  0.29356993  0.24126172  0.25000000  1
  Ce  Ce1  1  0.29386608  0.24003726  0.58338185  1
  Ce  Ce2  1  0.29386608  0.24003726  0.91661815  1
  Ce  Ce3  1  0.20682635  0.74140141  0.25000000  1
  Bi  Bi4  1  0.21682252  0.74034997  0.58334985  1
  Bi  Bi5  1  0.21682252  0.74034997  0.91665015  1
  Bi  Bi6  1  0.71561530  0.75963493  0.08336597  1
  Bi  Bi7  1  0.71561530  0.75963493  0.41663403  1
  Bi  Bi8  1  0.71533414  0.75948280  0.75000000  1
  Bi  Bi9  1  0.78231959  0.25938390  0.08326305  1
  Bi  Bi10  1  0.78231959  0.25938390  0.41673695  1
  Bi  Bi11  1  0.78221113  0.25923303  0.75000000  1
  Rh  Rh12  1  0.24895262  0.08104158  0.14734403  1
  Rh  Rh13  1  0.24879800  0.08072435  0.48057064  1
  Rh  Rh14  1  0.24899306  0.08062854  0.81389166  1
  Rh  Rh15  1  0.25006617  0.57942547  0.02019664  1
  Rh  Rh16  1  0.25034125  0.58050836  0.35281357  1
  Rh  Rh17  1  0.24971191  0.57932416  0.68683358  1
  Rh  Rh18  1  0.75027080  0.91935514  0.31298081  1
  Rh  Rh19  1  0.75110661  0.91956621  0.64671465  1
  Rh  Rh20  1  0.75091692  0.91958217  0.98006282  1
  Rh  Rh21  1  0.74984911  0.41916966  0.18704127  1
  Rh  Rh22  1  0.75096364  0.42038635  0.52044286  1
  Rh  Rh23  1  0.75089459  0.42039213  0.85378148  1
  Rh  Rh24  1  0.75027080  0.91935514  0.18701919  1
  Rh  Rh25  1  0.75091692  0.91958217  0.51993718  1
  Rh  Rh26  1  0.75110661  0.91956621  0.85328535  1
  Rh  Rh27  1  0.74984911  0.41916966  0.31295873  1
  Rh  Rh28  1  0.75089459  0.42039213  0.64621852  1
  Rh  Rh29  1  0.75096364  0.42038635  0.97955714  1
  Rh  Rh30  1  0.24879800  0.08072435  0.01942936  1
  Rh  Rh31  1  0.24895262  0.08104158  0.35265597  1
  Rh  Rh32  1  0.24899306  0.08062854  0.68610834  1
  Rh  Rh33  1  0.25034125  0.58050836  0.14718643  1
  Rh  Rh34  1  0.25006617  0.57942547  0.47980336  1
  Rh  Rh35  1  0.24971191  0.57932416  0.81316642  1
  O  O36  1  0.43482710  0.83314581  0.14949640  1
  O  O37  1  0.43319708  0.83259823  0.48333450  1
  O  O38  1  0.43347529  0.83264669  0.81664823  1
  O  O39  1  0.06690058  0.33272089  0.01726465  1
  O  O40  1  0.06562604  0.33320576  0.35046792  1
  O  O41  1  0.06671335  0.33264505  0.68391140  1
  O  O42  1  0.56298891  0.16820314  0.31439786  1
  O  O43  1  0.56384558  0.16827173  0.64797933  1
  O  O44  1  0.56358420  0.16839807  0.98126141  1
  O  O45  1  0.93713319  0.66803088  0.18566120  1
  O  O46  1  0.93385065  0.66782634  0.51715767  1
  O  O47  1  0.93387656  0.66778418  0.85049617  1
  O  O48  1  0.56298891  0.16820314  0.18560214  1
  O  O49  1  0.56358420  0.16839807  0.51873859  1
  O  O50  1  0.56384558  0.16827173  0.85202067  1
  O  O51  1  0.93713319  0.66803088  0.31433880  1
  O  O52  1  0.93387656  0.66778418  0.64950383  1
  O  O53  1  0.93385065  0.66782634  0.98284233  1
  O  O54  1  0.43319708  0.83259823  0.01666550  1
  O  O55  1  0.43482710  0.83314581  0.35050360  1
  O  O56  1  0.43347529  0.83264669  0.68335177  1
  O  O57  1  0.06562604  0.33320576  0.14953208  1
  O  O58  1  0.06690058  0.33272089  0.48273535  1
  O  O59  1  0.06671335  0.33264505  0.81608860  1
  O  O60  1  0.90413460  0.98256858  0.12755638  1
  O  O61  1  0.90433040  0.98260330  0.46064512  1
  O  O62  1  0.90435937  0.98244148  0.79400438  1
  O  O63  1  0.59738260  0.48130320  0.03914546  1
  O  O64  1  0.59636774  0.48205163  0.37248730  1
  O  O65  1  0.59730925  0.48142572  0.70585933  1
  O  O66  1  0.09762636  0.01812523  0.29241017  1
  O  O67  1  0.09340663  0.02220451  0.62648923  1
  O  O68  1  0.09334701  0.02214457  0.95979234  1
  O  O69  1  0.40232833  0.51784727  0.20751716  1
  O  O70  1  0.39970294  0.51505485  0.53988395  1
  O  O71  1  0.39985398  0.51508820  0.87319681  1
  O  O72  1  0.09762636  0.01812523  0.20758983  1
  O  O73  1  0.09334701  0.02214457  0.54020766  1
  O  O74  1  0.09340663  0.02220451  0.87351077  1
  O  O75  1  0.40232833  0.51784727  0.29248284  1
  O  O76  1  0.39985398  0.51508820  0.62680319  1
  O  O77  1  0.39970294  0.51505485  0.96011605  1
  O  O78  1  0.90433040  0.98260330  0.03935488  1
  O  O79  1  0.90413460  0.98256858  0.37244362  1
  O  O80  1  0.90435937  0.98244148  0.70599562  1
  O  O81  1  0.59636774  0.48205163  0.12751270  1
  O  O82  1  0.59738260  0.48130320  0.46085454  1
  O  O83  1  0.59730925  0.48142572  0.79414067  1
  O  O84  1  0.40012165  0.11683008  0.08345683  1
  O  O85  1  0.40012165  0.11683008  0.41654317  1
  O  O86  1  0.40021499  0.11667796  0.75000000  1
  O  O87  1  0.10107548  0.61840626  0.08363450  1
  O  O88  1  0.10107548  0.61840626  0.41636550  1
  O  O89  1  0.10142945  0.61950154  0.75000000  1
  O  O90  1  0.58416875  0.87805792  0.25000000  1
  O  O91  1  0.59430038  0.88441276  0.58334139  1
  O  O92  1  0.59430038  0.88441276  0.91665861  1
  O  O93  1  0.91611960  0.37815538  0.25000000  1
  O  O94  1  0.90890939  0.37561956  0.58333492  1
  O  O95  1  0.90890939  0.37561956  0.91666508  1
