# generated using pymatgen
data_BaSr2(PO4)2
_symmetry_space_group_name_H-M   'P 1'
_cell_length_a   5.53523397
_cell_length_b   5.53523421
_cell_length_c   7.52072871
_cell_angle_alpha   68.40776988
_cell_angle_beta   111.59223120
_cell_angle_gamma   119.99999538
_symmetry_Int_Tables_number   1
_chemical_formula_structural   BaSr2(PO4)2
_chemical_formula_sum   'Ba1 Sr2 P2 O8'
_cell_volume   180.64257755
_cell_formula_units_Z   1
loop_
 _symmetry_equiv_pos_site_id
 _symmetry_equiv_pos_as_xyz
  1  'x, y, z'
loop_
 _atom_site_type_symbol
 _atom_site_label
 _atom_site_symmetry_multiplicity
 _atom_site_fract_x
 _atom_site_fract_y
 _atom_site_fract_z
 _atom_site_occupancy
  Ba  Ba0  1  -0.00000000  -0.00000000  0.00000000  1
  Sr  Sr1  1  0.20926445  0.79073555  0.62779335  1
  Sr  Sr2  1  0.79073555  0.20926445  0.37220665  1
  P  P3  1  0.40995705  0.59004295  0.22987116  1
  P  P4  1  0.59004295  0.40995705  0.77012884  1
  O  O5  1  0.33385211  0.66614789  0.00155634  1
  O  O6  1  0.66614789  0.33385211  0.99844366  1
  O  O7  1  0.28284322  0.71715678  0.30833664  1
  O  O8  1  0.74265020  0.71715678  0.30833664  1
  O  O9  1  0.28284322  0.25734980  0.30833664  1
  O  O10  1  0.71715678  0.28284322  0.69166336  1
  O  O11  1  0.25734980  0.28284322  0.69166336  1
  O  O12  1  0.71715678  0.74265020  0.69166336  1
