# generated using pymatgen
data_Ba3SrSm2(CuO2)6
_symmetry_space_group_name_H-M   'P 1'
_cell_length_a   5.50343148
_cell_length_b   5.50343148
_cell_length_c   12.59014765
_cell_angle_alpha   77.37547010
_cell_angle_beta   77.37547010
_cell_angle_gamma   90.00000000
_symmetry_Int_Tables_number   1
_chemical_formula_structural   Ba3SrSm2(CuO2)6
_chemical_formula_sum   'Ba3 Sr1 Sm2 Cu6 O12'
_cell_volume   362.65456459
_cell_formula_units_Z   1
loop_
 _symmetry_equiv_pos_site_id
 _symmetry_equiv_pos_as_xyz
  1  'x, y, z'
loop_
 _atom_site_type_symbol
 _atom_site_label
 _atom_site_symmetry_multiplicity
 _atom_site_fract_x
 _atom_site_fract_y
 _atom_site_fract_z
 _atom_site_occupancy
  Ba  Ba0  1  0.09563592  0.59563592  0.80872817  1
  Ba  Ba1  1  0.90400546  0.40400546  0.19198907  1
  Ba  Ba2  1  0.40428508  0.90428508  0.19142984  1
  Sr  Sr3  1  0.59995381  0.09995381  0.80009238  1
  Sm  Sm4  1  0.24977733  0.74977733  0.50044533  1
  Sm  Sm5  1  0.74973531  0.24973531  0.50052937  1
  Cu  Cu6  1  0.17818092  0.17818092  0.64363817  1
  Cu  Cu7  1  0.67818092  0.67818092  0.64363817  1
  Cu  Cu8  1  0.32096631  0.32096631  0.35806739  1
  Cu  Cu9  1  0.82096631  0.82096631  0.35806739  1
  Cu  Cu10  1  0.50064067  0.50064067  0.99871865  1
  Cu  Cu11  1  0.00064067  0.00064067  0.99871865  1
  O  O12  1  0.93417580  0.93812755  0.62769666  1
  O  O13  1  0.43812755  0.43417580  0.62769666  1
  O  O14  1  0.43812755  0.93812755  0.62769666  1
  O  O15  1  0.93417580  0.43417580  0.62769666  1
  O  O16  1  0.06282178  0.06217989  0.37499833  1
  O  O17  1  0.56217989  0.56282178  0.37499833  1
  O  O18  1  0.56217989  0.06217989  0.37499833  1
  O  O19  1  0.06282178  0.56282178  0.37499833  1
  O  O20  1  0.07633799  0.07633799  0.84732403  1
  O  O21  1  0.57633799  0.57633799  0.84732403  1
  O  O22  1  0.42487265  0.42487265  0.15025470  1
  O  O23  1  0.92487265  0.92487265  0.15025470  1
