# generated using pymatgen
data_Ce5Nd5Si6
_symmetry_space_group_name_H-M   'P 1'
_cell_length_a   7.73460205
_cell_length_b   7.73460205
_cell_length_c   8.77342443
_cell_angle_alpha   64.13949347
_cell_angle_beta   64.13949347
_cell_angle_gamma   90.19171600
_symmetry_Int_Tables_number   1
_chemical_formula_structural   Ce5Nd5Si6
_chemical_formula_sum   'Ce5 Nd5 Si6'
_cell_volume   412.67861669
_cell_formula_units_Z   1
loop_
 _symmetry_equiv_pos_site_id
 _symmetry_equiv_pos_as_xyz
  1  'x, y, z'
loop_
 _atom_site_type_symbol
 _atom_site_label
 _atom_site_symmetry_multiplicity
 _atom_site_fract_x
 _atom_site_fract_y
 _atom_site_fract_z
 _atom_site_occupancy
  Ce  Ce0  1  0.48860656  0.48153190  0.02657061  1
  Ce  Ce1  1  0.98153190  0.98860656  0.02657061  1
  Ce  Ce2  1  0.67825073  0.53633437  0.28551559  1
  Ce  Ce3  1  0.03633437  0.17825073  0.28551559  1
  Ce  Ce4  1  0.53780234  0.03780234  0.28567055  1
  Nd  Nd5  1  0.17972971  0.67972971  0.29202233  1
  Nd  Nd6  1  0.32847603  0.46662573  0.70557937  1
  Nd  Nd7  1  0.96662573  0.82847603  0.70557937  1
  Nd  Nd8  1  0.46786574  0.96786574  0.70270845  1
  Nd  Nd9  1  0.82237172  0.32237172  0.70986508  1
  Si  Si10  1  0.61471708  0.88593619  0.99723643  1
  Si  Si11  1  0.38593619  0.11471708  0.99723643  1
  Si  Si12  1  0.88824742  0.38824742  -0.00208328  1
  Si  Si13  1  0.11647006  0.61647006  0.99772617  1
  Si  Si14  1  0.25418313  0.25285130  0.49214334  1
  Si  Si15  1  0.75285130  0.75418313  0.49214334  1
