# generated using pymatgen
data_Ba4Fe2MoWO12
_symmetry_space_group_name_H-M   'P 1'
_cell_length_a   5.82495725
_cell_length_b   5.82495725
_cell_length_c   10.07465326
_cell_angle_alpha   73.19653873
_cell_angle_beta   90.00000000
_cell_angle_gamma   120.00000000
_symmetry_Int_Tables_number   1
_chemical_formula_structural   Ba4Fe2MoWO12
_chemical_formula_sum   'Ba4 Fe2 Mo1 W1 O12'
_cell_volume   279.05637293
_cell_formula_units_Z   1
loop_
 _symmetry_equiv_pos_site_id
 _symmetry_equiv_pos_as_xyz
  1  'x, y, z'
loop_
 _atom_site_type_symbol
 _atom_site_label
 _atom_site_symmetry_multiplicity
 _atom_site_fract_x
 _atom_site_fract_y
 _atom_site_fract_z
 _atom_site_occupancy
  Ba  Ba0  1  0.62334677  0.24669354  0.12995969  1
  Ba  Ba1  1  0.12643034  0.25286067  0.62070899  1
  Ba  Ba2  1  0.87356966  0.74713933  0.37929101  1
  Ba  Ba3  1  0.37665323  0.75330646  0.87004031  1
  Fe  Fe4  1  0.24644390  0.49288780  0.26066831  1
  Fe  Fe5  1  0.75355610  0.50711220  0.73933169  1
  Mo  Mo6  1  0.50000000  -0.00000000  0.50000000  1
  W  W7  1  -0.00000000  -0.00000000  0.00000000  1
  O  O8  1  0.12098336  0.24196673  0.11899561  1
  O  O9  1  0.62598568  0.25197137  0.62722718  1
  O  O10  1  0.37401432  0.25321286  0.37277282  1
  O  O11  1  0.87901664  0.23997898  0.88100439  1
  O  O12  1  0.63903766  0.76002102  0.11899561  1
  O  O13  1  0.12080146  0.74678714  0.62722718  1
  O  O14  1  0.37401432  0.74802863  0.37277282  1
  O  O15  1  0.87901664  0.75803327  0.88100439  1
  O  O16  1  0.12098336  0.76002102  0.11899561  1
  O  O17  1  0.62598568  0.74678714  0.62722718  1
  O  O18  1  0.87919854  0.25321286  0.37277282  1
  O  O19  1  0.36096234  0.23997898  0.88100439  1
