# generated using pymatgen
data_BaTi6O11
_symmetry_space_group_name_H-M   'P 1'
_cell_length_a   7.73709198
_cell_length_b   7.73709198
_cell_length_c   14.29815117
_cell_angle_alpha   90.00000000
_cell_angle_beta   90.00000000
_cell_angle_gamma   81.51964144
_symmetry_Int_Tables_number   1
_chemical_formula_structural   BaTi6O11
_chemical_formula_sum   'Ba4 Ti24 O44'
_cell_volume   846.56612392
_cell_formula_units_Z   4
loop_
 _symmetry_equiv_pos_site_id
 _symmetry_equiv_pos_as_xyz
  1  'x, y, z'
loop_
 _atom_site_type_symbol
 _atom_site_label
 _atom_site_symmetry_multiplicity
 _atom_site_fract_x
 _atom_site_fract_y
 _atom_site_fract_z
 _atom_site_occupancy
  Ba  Ba0  1  0.16920261  0.83079739  0.07760013  1
  Ba  Ba1  1  0.84642957  0.15357043  0.90629314  1
  Ba  Ba2  1  0.33079739  0.66920261  0.57760013  1
  Ba  Ba3  1  0.65357043  0.34642957  0.40629314  1
  Ti  Ti4  1  0.69546232  0.55484123  0.17738638  1
  Ti  Ti5  1  0.54876071  0.70211310  0.81989523  1
  Ti  Ti6  1  0.05484123  0.19546232  0.67738638  1
  Ti  Ti7  1  0.20211310  0.04876071  0.31989523  1
  Ti  Ti8  1  0.29788690  0.45123929  0.81989523  1
  Ti  Ti9  1  0.44515877  0.30453768  0.17738638  1
  Ti  Ti10  1  0.95123929  0.79788690  0.31989523  1
  Ti  Ti11  1  0.80453768  0.94515877  0.67738638  1
  Ti  Ti12  1  0.74764075  0.75653446  0.00438144  1
  Ti  Ti13  1  0.25653446  0.24764075  0.50438144  1
  Ti  Ti14  1  0.24346554  0.25235925  0.00438144  1
  Ti  Ti15  1  0.75235925  0.74346554  0.50438144  1
  Ti  Ti16  1  0.07057743  0.42488321  0.15396660  1
  Ti  Ti17  1  0.40846545  0.06059523  0.85365530  1
  Ti  Ti18  1  0.92488321  0.57057743  0.65396660  1
  Ti  Ti19  1  0.56059523  0.90846545  0.35365530  1
  Ti  Ti20  1  0.93940477  0.59153455  0.85365530  1
  Ti  Ti21  1  0.57511679  0.92942257  0.15396660  1
  Ti  Ti22  1  0.09153455  0.43940477  0.35365530  1
  Ti  Ti23  1  0.42942257  0.07511679  0.65396660  1
  Ti  Ti24  1  0.50792650  0.49207350  0.00559715  1
  Ti  Ti25  1  0.99207350  0.00792650  0.50559715  1
  Ti  Ti26  1  0.82966120  0.17033880  0.16332240  1
  Ti  Ti27  1  0.67033880  0.32966120  0.66332240  1
  O  O28  1  0.87532003  0.37901959  0.24441482  1
  O  O29  1  0.40675798  0.87946586  0.75292366  1
  O  O30  1  0.87901959  0.37532003  0.74441482  1
  O  O31  1  0.37946586  0.90675798  0.25292366  1
  O  O32  1  0.12053414  0.59324202  0.75292366  1
  O  O33  1  0.62098041  0.12467997  0.24441482  1
  O  O34  1  0.09324202  0.62053414  0.25292366  1
  O  O35  1  0.62467997  0.12098041  0.74441482  1
  O  O36  1  0.89502347  0.59684824  0.09098778  1
  O  O37  1  0.59305035  0.89756631  0.90963642  1
  O  O38  1  0.09684824  0.39502347  0.59098778  1
  O  O39  1  0.39756631  0.09305035  0.40963642  1
  O  O40  1  0.10243369  0.40694965  0.90963642  1
  O  O41  1  0.40315176  0.10497653  0.09098778  1
  O  O42  1  0.90694965  0.60243369  0.40963642  1
  O  O43  1  0.60497653  0.90315176  0.59098778  1
  O  O44  1  0.53257392  0.71309099  0.08179851  1
  O  O45  1  0.72015296  0.54373557  0.91730988  1
  O  O46  1  0.21309099  0.03257392  0.58179851  1
  O  O47  1  0.04373557  0.22015296  0.41730988  1
  O  O48  1  0.45626443  0.27984704  0.91730988  1
  O  O49  1  0.28690901  0.46742608  0.08179851  1
  O  O50  1  0.77984704  0.95626443  0.41730988  1
  O  O51  1  0.96742608  0.78690901  0.58179851  1
  O  O52  1  0.99914724  0.00085276  0.24416315  1
  O  O53  1  0.98848329  0.01151671  0.74673088  1
  O  O54  1  0.50085276  0.49914724  0.74416315  1
  O  O55  1  0.51151671  0.48848329  0.24673088  1
  O  O56  1  0.95677948  0.78020444  0.92643945  1
  O  O57  1  0.78567342  0.96788357  0.07986039  1
  O  O58  1  0.28020444  0.45677948  0.42643945  1
  O  O59  1  0.46788357  0.28567342  0.57986039  1
  O  O60  1  0.03211643  0.21432658  0.07986039  1
  O  O61  1  0.21979556  0.04322052  0.92643945  1
  O  O62  1  0.71432658  0.53211643  0.57986039  1
  O  O63  1  0.54322052  0.71979556  0.42643945  1
  O  O64  1  0.66465540  0.33534460  0.09016862  1
  O  O65  1  0.37017518  0.62982482  0.90261897  1
  O  O66  1  0.83534460  0.16465540  0.59016862  1
  O  O67  1  0.12982482  0.87017518  0.40261897  1
  O  O68  1  0.72286515  0.77516397  0.25219692  1
  O  O69  1  0.77713485  0.72483603  0.75219692  1
  O  O70  1  0.27516397  0.22286515  0.75219692  1
  O  O71  1  0.22483603  0.27713485  0.25219692  1
