# generated using pymatgen
data_BaGa2SiSe6
_symmetry_space_group_name_H-M   'P 1'
_cell_length_a   6.53101916
_cell_length_b   6.74245415
_cell_length_c   6.65539795
_cell_angle_alpha   99.86620780
_cell_angle_beta   98.49434519
_cell_angle_gamma   102.60490171
_symmetry_Int_Tables_number   1
_chemical_formula_structural   BaGa2SiSe6
_chemical_formula_sum   'Ba1 Ga2 Si1 Se6'
_cell_volume   276.50624420
_cell_formula_units_Z   1
loop_
 _symmetry_equiv_pos_site_id
 _symmetry_equiv_pos_as_xyz
  1  'x, y, z'
loop_
 _atom_site_type_symbol
 _atom_site_label
 _atom_site_symmetry_multiplicity
 _atom_site_fract_x
 _atom_site_fract_y
 _atom_site_fract_z
 _atom_site_occupancy
  Ba  Ba0  1  0.02056802  0.03102611  0.02525140  1
  Ga  Ga1  1  0.46859756  0.20238894  0.62413424  1
  Ga  Ga2  1  0.20060661  0.61153640  0.47792531  1
  Si  Si3  1  0.62113109  0.47173912  0.19576045  1
  Se  Se4  1  0.30044144  0.55995263  0.13420952  1
  Se  Se5  1  0.57304827  0.15123195  0.28066567  1
  Se  Se6  1  0.11982221  0.27026191  0.55937256  1
  Se  Se7  1  0.87510900  0.74261628  0.41849695  1
  Se  Se8  1  0.75980549  0.44145510  0.89561517  1
  Se  Se9  1  0.42856031  0.88548156  0.75615873  1
