# generated using pymatgen
data_Ca2ZnSb2
_symmetry_space_group_name_H-M   'P 1'
_cell_length_a   4.64438321
_cell_length_b   12.47616799
_cell_length_c   21.87262854
_cell_angle_alpha   89.76368307
_cell_angle_beta   90.00000000
_cell_angle_gamma   90.00000000
_symmetry_Int_Tables_number   1
_chemical_formula_structural   Ca2ZnSb2
_chemical_formula_sum   'Ca18 Zn9 Sb18'
_cell_volume   1267.37910742
_cell_formula_units_Z   9
loop_
 _symmetry_equiv_pos_site_id
 _symmetry_equiv_pos_as_xyz
  1  'x, y, z'
loop_
 _atom_site_type_symbol
 _atom_site_label
 _atom_site_symmetry_multiplicity
 _atom_site_fract_x
 _atom_site_fract_y
 _atom_site_fract_z
 _atom_site_occupancy
  Ca  Ca0  1  -0.00000000  0.93567813  0.41135325  1
  Ca  Ca1  1  -0.00000000  0.06356877  0.59058816  1
  Ca  Ca2  1  -0.00000000  0.55829902  0.90773867  1
  Ca  Ca3  1  -0.00000000  0.43607291  0.09005451  1
  Ca  Ca4  1  -0.00000000  0.63256891  0.36358553  1
  Ca  Ca5  1  0.00000000  0.36601917  0.63808184  1
  Ca  Ca6  1  -0.00000000  0.86815119  0.85754018  1
  Ca  Ca7  1  -0.00000000  0.14687387  0.13955280  1
  Ca  Ca8  1  -0.00000000  0.87434910  0.24528412  1
  Ca  Ca9  1  -0.00000000  0.12175226  0.76345313  1
  Ca  Ca10  1  -0.00000000  0.61980895  0.73614597  1
  Ca  Ca11  1  -0.00000000  0.38106375  0.26457197  1
  Ca  Ca12  1  0.50000000  0.50038197  0.50028176  1
  Ca  Ca13  1  0.50000000  0.00550552  0.99553580  1
  Ca  Ca14  1  0.50000000  0.70068355  0.10170568  1
  Ca  Ca15  1  0.50000000  0.28551464  0.89678562  1
  Ca  Ca16  1  0.50000000  0.78561520  0.60216711  1
  Ca  Ca17  1  0.50000000  0.21463172  0.39918736  1
  Zn  Zn18  1  0.50000000  0.77767609  0.45449469  1
  Zn  Zn19  1  0.50000000  0.22214515  0.54674705  1
  Zn  Zn20  1  0.50000000  0.71543807  0.95468349  1
  Zn  Zn21  1  0.50000000  0.27702450  0.04637183  1
  Zn  Zn22  1  0.50000000  0.61938676  0.26218989  1
  Zn  Zn23  1  0.50000000  0.38143553  0.73767127  1
  Zn  Zn24  1  0.50000000  0.88341961  0.76155362  1
  Zn  Zn25  1  0.50000000  0.12706663  0.24001481  1
  Zn  Zn26  1  -0.00000000  0.89568922  0.10288865  1
  Sb  Sb27  1  -0.00000000  0.80228674  0.99803334  1
  Sb  Sb28  1  -0.00000000  0.19598839  0.99529652  1
  Sb  Sb29  1  -0.00000000  0.69602464  0.50595629  1
  Sb  Sb30  1  -0.00000000  0.30446330  0.49386557  1
  Sb  Sb31  1  -0.00000000  0.62535825  0.19369451  1
  Sb  Sb32  1  -0.00000000  0.37722493  0.80496155  1
  Sb  Sb33  1  -0.00000000  0.87751393  0.69538514  1
  Sb  Sb34  1  -0.00000000  0.11802281  0.30310880  1
  Sb  Sb35  1  0.50000000  0.80995254  0.33306835  1
  Sb  Sb36  1  0.50000000  0.18819819  0.66807881  1
  Sb  Sb37  1  0.50000000  0.69000809  0.83377151  1
  Sb  Sb38  1  0.50000000  0.31336584  0.16825930  1
  Sb  Sb39  1  0.50000000  0.95827561  0.14780537  1
  Sb  Sb40  1  0.50000000  0.04069071  0.85242249  1
  Sb  Sb41  1  0.50000000  0.53983711  0.64742619  1
  Sb  Sb42  1  0.50000000  0.46054053  0.35195902  1
  Sb  Sb43  1  0.50000000  0.00050676  0.49953296  1
  Sb  Sb44  1  0.50000000  0.50042147  0.00044550  1
