# generated using pymatgen
data_BaAlGaO4
_symmetry_space_group_name_H-M   'P 1'
_cell_length_a   5.30524913
_cell_length_b   5.35129662
_cell_length_c   9.09050922
_cell_angle_alpha   90.87034960
_cell_angle_beta   90.00000005
_cell_angle_gamma   60.28424084
_symmetry_Int_Tables_number   1
_chemical_formula_structural   BaAlGaO4
_chemical_formula_sum   'Ba2 Al2 Ga2 O8'
_cell_volume   224.10627120
_cell_formula_units_Z   2
loop_
 _symmetry_equiv_pos_site_id
 _symmetry_equiv_pos_as_xyz
  1  'x, y, z'
loop_
 _atom_site_type_symbol
 _atom_site_label
 _atom_site_symmetry_multiplicity
 _atom_site_fract_x
 _atom_site_fract_y
 _atom_site_fract_z
 _atom_site_occupancy
  Ba  Ba0  1  0.00296880  0.00074160  0.24628321  1
  Ba  Ba1  1  0.00371040  0.99925840  0.75371679  1
  Al  Al2  1  0.67722928  0.66867495  0.05278201  1
  Al  Al3  1  0.34590423  0.33132505  0.94721799  1
  Ga  Ga4  1  0.34171642  0.33018954  0.55242083  1
  Ga  Ga5  1  0.67190596  0.66981046  0.44757917  1
  O  O6  1  0.38342642  0.31627286  0.75392477  1
  O  O7  1  0.69969928  0.68372714  0.24607523  1
  O  O8  1  0.33003961  0.00000000  0.50000000  1
  O  O9  1  0.00173144  0.66787661  0.51607586  1
  O  O10  1  0.66960805  0.33212339  0.48392414  1
  O  O11  1  0.64576448  0.00000000  1.00000000  1
  O  O12  1  0.00329569  0.36470425  0.98885350  1
  O  O13  1  0.36799994  0.63529575  0.01114650  1
