# generated using pymatgen
data_Ta5Si3
_symmetry_space_group_name_H-M   'P 1'
_cell_length_a   7.52935679
_cell_length_b   7.52935678
_cell_length_c   5.27979711
_cell_angle_alpha   90.00000000
_cell_angle_beta   90.00000000
_cell_angle_gamma   119.99999998
_symmetry_Int_Tables_number   1
_chemical_formula_structural   Ta5Si3
_chemical_formula_sum   'Ta10 Si6'
_cell_volume   259.21708353
_cell_formula_units_Z   2
loop_
 _symmetry_equiv_pos_site_id
 _symmetry_equiv_pos_as_xyz
  1  'x, y, z'
loop_
 _atom_site_type_symbol
 _atom_site_label
 _atom_site_symmetry_multiplicity
 _atom_site_fract_x
 _atom_site_fract_y
 _atom_site_fract_z
 _atom_site_occupancy
  Si  Si0  1  0.39543135  0.00000000  0.75000000  1
  Si  Si1  1  0.39543135  0.39543135  0.25000000  1
  Si  Si2  1  0.00000000  0.60456865  0.25000000  1
  Si  Si3  1  0.00000000  0.39543135  0.75000000  1
  Si  Si4  1  0.60456865  0.60456865  0.75000000  1
  Si  Si5  1  0.60456865  0.00000000  0.25000000  1
  Ta  Ta6  1  0.00000000  0.75420665  0.75000000  1
  Ta  Ta7  1  0.00000000  0.24579335  0.25000000  1
  Ta  Ta8  1  0.75420665  0.75420665  0.25000000  1
  Ta  Ta9  1  0.75420665  0.00000000  0.75000000  1
  Ta  Ta10  1  0.24579335  0.24579335  0.75000000  1
  Ta  Ta11  1  0.24579335  0.00000000  0.25000000  1
  Ta  Ta12  1  0.33333333  0.66666667  0.50000000  1
  Ta  Ta13  1  0.66666667  0.33333333  0.00000000  1
  Ta  Ta14  1  0.66666667  0.33333333  0.50000000  1
  Ta  Ta15  1  0.33333333  0.66666667  0.00000000  1
