# generated using pymatgen
data_Ba4Ge2Te5Se3
_symmetry_space_group_name_H-M   'P 1'
_cell_length_a   7.42259150
_cell_length_b   7.63570093
_cell_length_c   9.54909705
_cell_angle_alpha   108.31597413
_cell_angle_beta   89.97414778
_cell_angle_gamma   89.90179863
_symmetry_Int_Tables_number   1
_chemical_formula_structural   Ba4Ge2Te5Se3
_chemical_formula_sum   'Ba4 Ge2 Te5 Se3'
_cell_volume   513.79127130
_cell_formula_units_Z   1
loop_
 _symmetry_equiv_pos_site_id
 _symmetry_equiv_pos_as_xyz
  1  'x, y, z'
loop_
 _atom_site_type_symbol
 _atom_site_label
 _atom_site_symmetry_multiplicity
 _atom_site_fract_x
 _atom_site_fract_y
 _atom_site_fract_z
 _atom_site_occupancy
  Ba  Ba0  1  0.74300436  0.76310084  0.94571989  1
  Ba  Ba1  1  0.25683011  0.23516005  0.06380104  1
  Ba  Ba2  1  0.74333645  0.77703844  0.44134284  1
  Ba  Ba3  1  0.25496540  0.22194921  0.55000390  1
  Ge  Ge4  1  0.75072032  0.21197443  0.29936778  1
  Ge  Ge5  1  0.25710873  0.78230354  0.69961362  1
  Te  Te6  1  0.74965726  0.39723546  0.11119919  1
  Te  Te7  1  0.25221758  0.59940182  0.88869137  1
  Te  Te8  1  0.74871639  0.38540504  0.58144074  1
  Te  Te9  1  0.25202455  0.61479684  0.41606870  1
  Te  Te10  1  0.98629239  0.01046188  0.75976645  1
  Se  Se11  1  0.49815011  0.00526961  0.24387217  1
  Se  Se12  1  0.00212140  0.00451340  0.24360812  1
  Se  Se13  1  0.50485495  0.99138942  0.75550420  1
