# generated using pymatgen
data_Ba2V2BiPO11
_symmetry_space_group_name_H-M   'P 1'
_cell_length_a   7.83060871
_cell_length_b   11.08682233
_cell_length_c   12.45956523
_cell_angle_alpha   102.83217747
_cell_angle_beta   90.00000000
_cell_angle_gamma   90.00000000
_symmetry_Int_Tables_number   1
_chemical_formula_structural   Ba2V2BiPO11
_chemical_formula_sum   'Ba8 V8 Bi4 P4 O44'
_cell_volume   1054.68107115
_cell_formula_units_Z   4
loop_
 _symmetry_equiv_pos_site_id
 _symmetry_equiv_pos_as_xyz
  1  'x, y, z'
loop_
 _atom_site_type_symbol
 _atom_site_label
 _atom_site_symmetry_multiplicity
 _atom_site_fract_x
 _atom_site_fract_y
 _atom_site_fract_z
 _atom_site_occupancy
  Ba  Ba0  1  0.73338292  0.55515855  0.72299306  1
  Ba  Ba1  1  0.23338292  0.94484145  0.27700694  1
  Ba  Ba2  1  0.26661708  0.44484145  0.27700694  1
  Ba  Ba3  1  0.76661708  0.05515855  0.72299306  1
  Ba  Ba4  1  0.25201436  0.61081158  0.94534191  1
  Ba  Ba5  1  0.75201436  0.88918842  0.05465809  1
  Ba  Ba6  1  0.74798564  0.38918842  0.05465809  1
  Ba  Ba7  1  0.24798564  0.11081158  0.94534191  1
  V  V8  1  0.51848247  0.67030336  0.18795923  1
  V  V9  1  0.01848247  0.82969664  0.81204077  1
  V  V10  1  0.48151753  0.32969664  0.81204077  1
  V  V11  1  0.98151753  0.17030336  0.18795923  1
  V  V12  1  0.48213087  0.82542561  0.81501228  1
  V  V13  1  0.98213087  0.67457439  0.18498772  1
  V  V14  1  0.51786913  0.17457439  0.18498772  1
  V  V15  1  0.01786913  0.32542561  0.81501228  1
  Bi  Bi16  1  0.50144615  0.76965528  0.50143317  1
  Bi  Bi17  1  0.00144615  0.73034472  0.49856683  1
  Bi  Bi18  1  0.49855385  0.23034472  0.49856683  1
  Bi  Bi19  1  0.99855385  0.26965528  0.50143317  1
  P  P20  1  0.25219797  0.52326330  0.59469510  1
  P  P21  1  0.75219797  0.97673670  0.40530490  1
  P  P22  1  0.74780203  0.47673670  0.40530490  1
  P  P23  1  0.24780203  0.02326330  0.59469510  1
  O  O24  1  0.43547425  0.69076927  0.32045899  1
  O  O25  1  0.93547425  0.80923073  0.67954101  1
  O  O26  1  0.56452575  0.30923073  0.67954101  1
  O  O27  1  0.06452575  0.19076927  0.32045899  1
  O  O28  1  0.36355135  0.54839513  0.69690178  1
  O  O29  1  0.86355135  0.95160487  0.30309822  1
  O  O30  1  0.63644865  0.45160487  0.30309822  1
  O  O31  1  0.13644865  0.04839513  0.69690178  1
  O  O32  1  0.70981695  0.61024009  0.48349648  1
  O  O33  1  0.20981695  0.88975991  0.51650352  1
  O  O34  1  0.29018305  0.38975991  0.51650352  1
  O  O35  1  0.79018305  0.11024009  0.48349648  1
  O  O36  1  0.25027896  0.83132707  0.83042053  1
  O  O37  1  0.75027896  0.66867293  0.16957947  1
  O  O38  1  0.74972104  0.16867293  0.16957947  1
  O  O39  1  0.24972104  0.33132707  0.83042053  1
  O  O40  1  0.56015918  0.46519797  0.88711065  1
  O  O41  1  0.06015918  0.03480203  0.11288935  1
  O  O42  1  0.43984082  0.53480203  0.11288935  1
  O  O43  1  0.93984082  0.96519797  0.88711065  1
  O  O44  1  0.55839956  0.72755491  0.89120040  1
  O  O45  1  0.05839956  0.77244509  0.10879960  1
  O  O46  1  0.44160044  0.27244509  0.10879960  1
  O  O47  1  0.94160044  0.22755491  0.89120040  1
  O  O48  1  0.94479858  0.46809101  0.87601696  1
  O  O49  1  0.44479858  0.03190899  0.12398304  1
  O  O50  1  0.05520142  0.53190899  0.12398304  1
  O  O51  1  0.55520142  0.96809101  0.87601696  1
  O  O52  1  0.05867300  0.52724196  0.61757848  1
  O  O53  1  0.55867300  0.97275804  0.38242152  1
  O  O54  1  0.94132700  0.47275804  0.38242152  1
  O  O55  1  0.44132700  0.02724196  0.61757848  1
  O  O56  1  0.56856329  0.78055102  0.68329907  1
  O  O57  1  0.06856329  0.71944898  0.31670093  1
  O  O58  1  0.43143671  0.21944898  0.31670093  1
  O  O59  1  0.93143671  0.28055102  0.68329907  1
  O  O60  1  0.28762372  0.62088487  0.51898520  1
  O  O61  1  0.78762372  0.87911513  0.48101480  1
  O  O62  1  0.71237628  0.37911513  0.48101480  1
  O  O63  1  0.21237628  0.12088487  0.51898520  1
  O  O64  1  0.94230544  0.71737697  0.87159771  1
  O  O65  1  0.44230544  0.78262303  0.12840229  1
  O  O66  1  0.05769456  0.28262303  0.12840229  1
  O  O67  1  0.55769456  0.21737697  0.87159771  1
