# generated using pymatgen
data_Ca4Al5FeSi6(HO13)2
_symmetry_space_group_name_H-M   'P 1'
_cell_length_a   5.68003031
_cell_length_b   16.43443652
_cell_length_c   10.26443965
_cell_angle_alpha   80.93556501
_cell_angle_beta   90.00000000
_cell_angle_gamma   90.00000000
_symmetry_Int_Tables_number   1
_chemical_formula_structural   Ca4Al5FeSi6(HO13)2
_chemical_formula_sum   'Ca8 Al10 Fe2 Si12 H4 O52'
_cell_volume   946.20013609
_cell_formula_units_Z   2
loop_
 _symmetry_equiv_pos_site_id
 _symmetry_equiv_pos_as_xyz
  1  'x, y, z'
loop_
 _atom_site_type_symbol
 _atom_site_label
 _atom_site_symmetry_multiplicity
 _atom_site_fract_x
 _atom_site_fract_y
 _atom_site_fract_z
 _atom_site_occupancy
  Ca  Ca0  1  0.25000000  0.11990526  0.72344464  1
  Ca  Ca1  1  0.25000000  0.61990526  0.22344464  1
  Ca  Ca2  1  0.75000000  0.37964190  0.77397627  1
  Ca  Ca3  1  0.75000000  0.87964190  0.27397627  1
  Ca  Ca4  1  0.25000000  0.19529546  0.38169345  1
  Ca  Ca5  1  0.25000000  0.69529546  0.88169345  1
  Ca  Ca6  1  0.75000000  0.30399167  0.11793948  1
  Ca  Ca7  1  0.75000000  0.80399167  0.61793948  1
  Al  Al8  1  0.50014925  0.49826606  0.50006855  1
  Al  Al9  1  0.50014925  0.99826606  0.00006855  1
  Al  Al10  1  0.99985075  0.99826606  0.00006855  1
  Al  Al11  1  0.99985075  0.49826606  0.50006855  1
  Al  Al12  1  0.50056117  0.50046435  -0.00002427  1
  Al  Al13  1  0.50056117  0.00046435  0.49997573  1
  Al  Al14  1  0.99943883  0.00046435  0.49997573  1
  Al  Al15  1  0.99943883  0.50046435  -0.00002427  1
  Al  Al16  1  0.75000000  0.35545545  0.41905035  1
  Al  Al17  1  0.75000000  0.85545545  0.91905035  1
  Fe  Fe18  1  0.25000000  0.14533418  0.07551393  1
  Fe  Fe19  1  0.25000000  0.64533418  0.57551393  1
  Si  Si20  1  0.75000000  0.16120285  0.56486747  1
  Si  Si21  1  0.75000000  0.66120285  0.06486747  1
  Si  Si22  1  0.25000000  0.34278681  0.93268266  1
  Si  Si23  1  0.25000000  0.84278681  0.43268266  1
  Si  Si24  1  0.25000000  0.40845332  0.27572253  1
  Si  Si25  1  0.25000000  0.90845332  0.77572253  1
  Si  Si26  1  0.75000000  0.09069225  0.22626611  1
  Si  Si27  1  0.75000000  0.59069225  0.72626611  1
  Si  Si28  1  0.25000000  0.33031329  0.62088752  1
  Si  Si29  1  0.25000000  0.83031329  0.12088752  1
  Si  Si30  1  0.75000000  0.16862466  0.87834814  1
  Si  Si31  1  0.75000000  0.66862466  0.37834814  1
  H  H32  1  0.75000000  0.46973860  0.20434570  1
  H  H33  1  0.75000000  0.96973860  0.70434570  1
  H  H34  1  0.25000000  0.03066488  0.29602708  1
  H  H35  1  0.25000000  0.53066488  0.79602708  1
  O  O36  1  0.25000000  0.24117287  0.57888940  1
  O  O37  1  0.25000000  0.74117287  0.07888940  1
  O  O38  1  0.75000000  0.25742206  0.92162521  1
  O  O39  1  0.75000000  0.75742206  0.42162521  1
  O  O40  1  0.48726859  0.35031335  0.30007309  1
  O  O41  1  0.48726859  0.85031335  0.80007309  1
  O  O42  1  0.98153534  0.15116276  0.20524536  1
  O  O43  1  0.98153534  0.65116276  0.70524536  1
  O  O44  1  0.51846466  0.15116276  0.20524536  1
  O  O45  1  0.51846466  0.65116276  0.70524536  1
  O  O46  1  0.01273141  0.35031335  0.30007309  1
  O  O47  1  0.01273141  0.85031335  0.80007309  1
  O  O48  1  0.49687694  0.38160956  0.57323439  1
  O  O49  1  0.49687694  0.88160956  0.07323439  1
  O  O50  1  0.99411383  0.11539258  0.92462016  1
  O  O51  1  0.99411383  0.61539258  0.42462016  1
  O  O52  1  0.50588617  0.11539258  0.92462016  1
  O  O53  1  0.50588617  0.61539258  0.42462016  1
  O  O54  1  0.00312306  0.38160956  0.57323439  1
  O  O55  1  0.00312306  0.88160956  0.07323439  1
  O  O56  1  0.75000000  0.46989789  0.39815580  1
  O  O57  1  0.75000000  0.96989789  0.89815580  1
  O  O58  1  0.25000000  0.02311056  0.10460617  1
  O  O59  1  0.25000000  0.52311056  0.60460617  1
  O  O60  1  0.75000000  0.18291682  0.71593973  1
  O  O61  1  0.75000000  0.68291682  0.21593973  1
  O  O62  1  0.25000000  0.31653383  0.78421798  1
  O  O63  1  0.25000000  0.81653383  0.28421798  1
  O  O64  1  0.75000000  0.24519118  0.46006555  1
  O  O65  1  0.75000000  0.74519118  0.96006555  1
  O  O66  1  0.25000000  0.26276694  0.04570260  1
  O  O67  1  0.25000000  0.76276694  0.54570260  1
  O  O68  1  0.25000000  0.48017296  0.37575329  1
  O  O69  1  0.25000000  0.98017296  0.87575329  1
  O  O70  1  0.75000000  0.01991648  0.12398768  1
  O  O71  1  0.75000000  0.51991648  0.62398768  1
  O  O72  1  0.25000000  0.46834375  0.12823625  1
  O  O73  1  0.25000000  0.96834375  0.62823625  1
  O  O74  1  0.75000000  0.03084842  0.37245218  1
  O  O75  1  0.75000000  0.53084842  0.87245218  1
  O  O76  1  0.75000000  0.45961198  0.11264599  1
  O  O77  1  0.75000000  0.95961198  0.61264599  1
  O  O78  1  0.25000000  0.04093756  0.38781934  1
  O  O79  1  0.25000000  0.54093756  0.88781934  1
  O  O80  1  0.51500152  0.10518951  0.55104965  1
  O  O81  1  0.51500152  0.60518951  0.05104965  1
  O  O82  1  0.01228549  0.39712989  0.94530181  1
  O  O83  1  0.01228549  0.89712989  0.44530181  1
  O  O84  1  0.48771451  0.39712989  0.94530181  1
  O  O85  1  0.48771451  0.89712989  0.44530181  1
  O  O86  1  0.98499848  0.10518951  0.55104965  1
  O  O87  1  0.98499848  0.60518951  0.05104965  1
