# generated using pymatgen
data_Ba3Sr5Tl5Cu3O19
_symmetry_space_group_name_H-M   'P 1'
_cell_length_a   3.76788489
_cell_length_b   9.40827479
_cell_length_c   16.11143136
_cell_angle_alpha   73.03006933
_cell_angle_beta   90.00000000
_cell_angle_gamma   90.00000000
_symmetry_Int_Tables_number   1
_chemical_formula_structural   Ba3Sr5Tl5Cu3O19
_chemical_formula_sum   'Ba3 Sr5 Tl5 Cu3 O19'
_cell_volume   546.27041213
_cell_formula_units_Z   1
loop_
 _symmetry_equiv_pos_site_id
 _symmetry_equiv_pos_as_xyz
  1  'x, y, z'
loop_
 _atom_site_type_symbol
 _atom_site_label
 _atom_site_symmetry_multiplicity
 _atom_site_fract_x
 _atom_site_fract_y
 _atom_site_fract_z
 _atom_site_occupancy
  Ba  Ba0  1  0.50000000  0.27101018  0.87201240  1
  Ba  Ba1  1  0.50000000  0.72688265  0.12596747  1
  Ba  Ba2  1  0.50000000  0.14696526  0.12577933  1
  Sr  Sr3  1  0.50000000  0.85828884  0.87289111  1
  Sr  Sr4  1  0.50000000  0.39374788  0.62955170  1
  Sr  Sr5  1  0.50000000  0.60429690  0.37212863  1
  Sr  Sr6  1  0.50000000  0.02286313  0.37221066  1
  Sr  Sr7  1  0.50000000  0.97503641  0.63011385  1
  Tl  Tl8  1  0.00000000  0.62024975  0.76906963  1
  Tl  Tl9  1  0.00000000  0.38399023  0.23246819  1
  Tl  Tl10  1  0.00000000  0.73676099  0.52549235  1
  Tl  Tl11  1  -0.00000000  0.26092253  0.47605581  1
  Tl  Tl12  1  0.00000000  0.50724225  0.99497219  1
  Cu  Cu13  1  0.00000000  0.11723502  0.74795865  1
  Cu  Cu14  1  0.00000000  0.87234646  0.25258065  1
  Cu  Cu15  1  -0.00000000  0.99221551  0.99908810  1
  O  O16  1  0.00000000  0.28905999  0.99757803  1
  O  O17  1  0.00000000  0.72612456  0.99137273  1
  O  O18  1  0.00000000  0.41651692  0.73996869  1
  O  O19  1  0.00000000  0.58784818  0.26143525  1
  O  O20  1  0.00000000  0.15138799  0.26171174  1
  O  O21  1  0.00000000  0.85184802  0.74563078  1
  O  O22  1  0.50000000  0.12613989  0.74152498  1
  O  O23  1  0.50000000  0.86894747  0.26067514  1
  O  O24  1  0.50000000  0.57653917  0.86789901  1
  O  O25  1  0.50000000  0.43457367  0.13342411  1
  O  O26  1  0.00000000  0.05027872  0.87185601  1
  O  O27  1  -0.00000000  0.93641543  0.12652952  1
  O  O28  1  0.00000000  0.49857349  0.50123500  1
  O  O29  1  0.00000000  0.99954208  0.50151026  1
  O  O30  1  0.00000000  0.18872663  0.62088132  1
  O  O31  1  -0.00000000  0.81011939  0.38116517  1
  O  O32  1  0.50000000  0.69992504  0.60356804  1
  O  O33  1  0.50000000  0.30090953  0.39837301  1
  O  O34  1  0.50000000  0.99646981  0.99532053  1
