# generated using pymatgen
data_Ba2TiFeO6
_symmetry_space_group_name_H-M   'P 1'
_cell_length_a   5.76233955
_cell_length_b   5.76233955
_cell_length_c   14.19783722
_cell_angle_alpha   89.97980881
_cell_angle_beta   90.02019119
_cell_angle_gamma   120.00761538
_symmetry_Int_Tables_number   1
_chemical_formula_structural   Ba2TiFeO6
_chemical_formula_sum   'Ba6 Ti3 Fe3 O18'
_cell_volume   408.24149792
_cell_formula_units_Z   3
loop_
 _symmetry_equiv_pos_site_id
 _symmetry_equiv_pos_as_xyz
  1  'x, y, z'
loop_
 _atom_site_type_symbol
 _atom_site_label
 _atom_site_symmetry_multiplicity
 _atom_site_fract_x
 _atom_site_fract_y
 _atom_site_fract_z
 _atom_site_occupancy
  Ba  Ba0  1  0.66658396  0.33341604  0.59111387  1
  Ba  Ba1  1  0.33331295  0.66668705  0.40810556  1
  Ba  Ba2  1  0.33341296  0.66658704  0.09051030  1
  Ba  Ba3  1  0.66675128  0.33324872  0.90604011  1
  Ba  Ba4  1  0.00000868  -0.00000868  0.74676053  1
  Ba  Ba5  1  0.99996378  0.00003622  0.25173917  1
  Ti  Ti6  1  0.66620469  0.33379531  0.14964519  1
  Ti  Ti7  1  0.99832279  0.00167721  0.49972683  1
  Ti  Ti8  1  -0.00003579  0.00003579  0.99406030  1
  Fe  Fe9  1  0.66626122  0.33373878  0.34473978  1
  Fe  Fe10  1  0.33309213  0.66690787  0.65516105  1
  Fe  Fe11  1  0.33293769  0.66706231  0.84622675  1
  O  O12  1  0.16443550  0.32822321  0.58015241  1
  O  O13  1  0.16676218  0.83323782  0.58100835  1
  O  O14  1  0.67177679  0.83556450  0.58015241  1
  O  O15  1  0.83526113  0.66955686  0.41987938  1
  O  O16  1  0.83676201  0.16323799  0.42022149  1
  O  O17  1  0.33044314  0.16473887  0.41987938  1
  O  O18  1  0.83282980  0.66558770  0.08294797  1
  O  O19  1  0.83254406  0.16745594  0.08309191  1
  O  O20  1  0.33441230  0.16717020  0.08294797  1
  O  O21  1  0.16294997  0.32578283  0.92254057  1
  O  O22  1  0.16258560  0.83741440  0.92262307  1
  O  O23  1  0.67421717  0.83705003  0.92254057  1
  O  O24  1  0.48464601  0.96907113  0.74775129  1
  O  O25  1  0.48359520  0.51640480  0.74612681  1
  O  O26  1  0.03092887  0.51535399  0.74775129  1
  O  O27  1  0.51798652  0.03616053  0.25250296  1
  O  O28  1  0.51720793  0.48279207  0.25154974  1
  O  O29  1  0.96383947  0.48201348  0.25250296  1
