# generated using pymatgen
data_Ba10Ti8NbNiO30
_symmetry_space_group_name_H-M   'P 1'
_cell_length_a   5.70194974
_cell_length_b   5.70194974
_cell_length_c   21.13695197
_cell_angle_alpha   82.24825672
_cell_angle_beta   82.24825672
_cell_angle_gamma   90.00000000
_symmetry_Int_Tables_number   1
_chemical_formula_structural   Ba10Ti8NbNiO30
_chemical_formula_sum   'Ba10 Ti8 Nb1 Ni1 O30'
_cell_volume   674.59128180
_cell_formula_units_Z   1
loop_
 _symmetry_equiv_pos_site_id
 _symmetry_equiv_pos_as_xyz
  1  'x, y, z'
loop_
 _atom_site_type_symbol
 _atom_site_label
 _atom_site_symmetry_multiplicity
 _atom_site_fract_x
 _atom_site_fract_y
 _atom_site_fract_z
 _atom_site_occupancy
  Ba  Ba0  1  0.15032726  0.65032726  0.69934548  1
  Ba  Ba1  1  0.55018137  0.05018137  0.89963726  1
  Ba  Ba2  1  0.94981863  0.44981863  0.10036274  1
  Ba  Ba3  1  0.34967274  0.84967274  0.30065452  1
  Ba  Ba4  1  0.75000000  0.25000000  0.50000000  1
  Ba  Ba5  1  0.05018137  0.55018137  0.89963726  1
  Ba  Ba6  1  0.44981863  0.94981863  0.10036274  1
  Ba  Ba7  1  0.84967274  0.34967274  0.30065452  1
  Ba  Ba8  1  0.25000000  0.75000000  0.50000000  1
  Ba  Ba9  1  0.65032726  0.15032726  0.69934548  1
  Ti  Ti10  1  0.90260427  0.90260427  0.19479146  1
  Ti  Ti11  1  0.29690444  0.29690444  0.40619112  1
  Ti  Ti12  1  0.70309556  0.70309556  0.59380888  1
  Ti  Ti13  1  0.09739573  0.09739573  0.80520854  1
  Ti  Ti14  1  0.39697128  0.39697128  0.20605743  1
  Ti  Ti15  1  0.80288803  0.80288803  0.39422393  1
  Ti  Ti16  1  0.19711197  0.19711197  0.60577607  1
  Ti  Ti17  1  0.60302872  0.60302872  0.79394257  1
  Nb  Nb18  1  0.50000000  0.50000000  0.00000000  1
  Ni  Ni19  1  -0.00000000  -0.00000000  0.00000000  1
  O  O20  1  0.15289845  0.15289845  0.69420310  1
  O  O21  1  0.55009087  0.55009087  0.89981826  1
  O  O22  1  0.94632791  0.94632791  0.10734418  1
  O  O23  1  0.35164092  0.35164092  0.29671816  1
  O  O24  1  0.74766395  0.74766395  0.50467209  1
  O  O25  1  0.35054625  0.35054625  0.79790815  1
  O  O26  1  0.74895808  0.74895808  0.00000000  1
  O  O27  1  0.14845440  0.14845440  0.20209185  1
  O  O28  1  0.54982149  0.54982149  0.40070228  1
  O  O29  1  0.95052377  0.95052377  0.59929772  1
  O  O30  1  0.85154560  0.35054625  0.79790815  1
  O  O31  1  0.25104192  0.74895808  0.00000000  1
  O  O32  1  0.64945375  0.14845440  0.20209185  1
  O  O33  1  0.04947623  0.54982149  0.40070228  1
  O  O34  1  0.45017851  0.95052377  0.59929772  1
  O  O35  1  0.05367209  0.05367209  0.89265582  1
  O  O36  1  0.44990913  0.44990913  0.10018174  1
  O  O37  1  0.84710155  0.84710155  0.30579690  1
  O  O38  1  0.25233605  0.25233605  0.49532791  1
  O  O39  1  0.64835908  0.64835908  0.70328184  1
  O  O40  1  0.85154560  0.85154560  0.79790815  1
  O  O41  1  0.25104192  0.25104192  0.00000000  1
  O  O42  1  0.64945375  0.64945375  0.20209185  1
  O  O43  1  0.04947623  0.04947623  0.40070228  1
  O  O44  1  0.45017851  0.45017851  0.59929772  1
  O  O45  1  0.35054625  0.85154560  0.79790815  1
  O  O46  1  0.74895808  0.25104192  0.00000000  1
  O  O47  1  0.14845440  0.64945375  0.20209185  1
  O  O48  1  0.54982149  0.04947623  0.40070228  1
  O  O49  1  0.95052377  0.45017851  0.59929772  1
