# generated using pymatgen
data_Ba2LaNb5O15
_symmetry_space_group_name_H-M   'P 1'
_cell_length_a   4.04453902
_cell_length_b   12.74891656
_cell_length_c   12.74891656
_cell_angle_alpha   90.00000000
_cell_angle_beta   90.00000000
_cell_angle_gamma   90.00000000
_symmetry_Int_Tables_number   1
_chemical_formula_structural   Ba2LaNb5O15
_chemical_formula_sum   'Ba4 La2 Nb10 O30'
_cell_volume   657.37863779
_cell_formula_units_Z   2
loop_
 _symmetry_equiv_pos_site_id
 _symmetry_equiv_pos_as_xyz
  1  'x, y, z'
loop_
 _atom_site_type_symbol
 _atom_site_label
 _atom_site_symmetry_multiplicity
 _atom_site_fract_x
 _atom_site_fract_y
 _atom_site_fract_z
 _atom_site_occupancy
  Ba  Ba0  1  0.00000000  0.16810936  0.66810936  1
  Ba  Ba1  1  -0.00000000  0.83189064  0.33189064  1
  Ba  Ba2  1  -0.00000000  0.33189064  0.16810936  1
  Ba  Ba3  1  0.00000000  0.66810936  0.83189064  1
  La  La4  1  0.00000000  0.50000000  0.50000000  1
  La  La5  1  -0.00000000  -0.00000000  0.00000000  1
  Nb  Nb6  1  0.50000000  0.71199075  0.57683098  1
  Nb  Nb7  1  0.50000000  0.28800925  0.42316902  1
  Nb  Nb8  1  0.50000000  0.78800925  0.07683098  1
  Nb  Nb9  1  0.50000000  0.21199075  0.92316902  1
  Nb  Nb10  1  0.50000000  0.57683098  0.28800925  1
  Nb  Nb11  1  0.50000000  0.42316902  0.71199075  1
  Nb  Nb12  1  0.50000000  0.07683098  0.21199075  1
  Nb  Nb13  1  0.50000000  0.92316902  0.78800925  1
  Nb  Nb14  1  0.50000000  -0.00000000  0.50000000  1
  Nb  Nb15  1  0.50000000  0.50000000  0.00000000  1
  O  O16  1  0.00000000  0.70023592  0.57589602  1
  O  O17  1  -0.00000000  0.29976408  0.42410398  1
  O  O18  1  -0.00000000  0.79976408  0.07589602  1
  O  O19  1  0.00000000  0.20023592  0.92410398  1
  O  O20  1  -0.00000000  0.57589602  0.29976408  1
  O  O21  1  0.00000000  0.42410398  0.70023592  1
  O  O22  1  -0.00000000  0.07589602  0.20023592  1
  O  O23  1  0.00000000  0.92410398  0.79976408  1
  O  O24  1  0.50000000  0.56331101  0.63098941  1
  O  O25  1  0.50000000  0.43668899  0.36901059  1
  O  O26  1  0.50000000  0.93668899  0.13098941  1
  O  O27  1  0.50000000  0.06331101  0.86901059  1
  O  O28  1  0.50000000  0.63098941  0.43668899  1
  O  O29  1  0.50000000  0.36901059  0.56331101  1
  O  O30  1  0.50000000  0.13098941  0.06331101  1
  O  O31  1  0.50000000  0.86901059  0.93668899  1
  O  O32  1  0.50000000  0.27867004  0.77867004  1
  O  O33  1  0.50000000  0.72132996  0.22132996  1
  O  O34  1  0.50000000  0.22132996  0.27867004  1
  O  O35  1  0.50000000  0.77867004  0.72132996  1
  O  O36  1  0.50000000  0.50911548  0.84127008  1
  O  O37  1  0.50000000  0.49088452  0.15872992  1
  O  O38  1  0.50000000  0.99088452  0.34127008  1
  O  O39  1  0.50000000  0.00911548  0.65872992  1
  O  O40  1  0.50000000  0.84127008  0.49088452  1
  O  O41  1  0.50000000  0.15872992  0.50911548  1
  O  O42  1  0.50000000  0.34127008  0.00911548  1
  O  O43  1  0.50000000  0.65872992  0.99088452  1
  O  O44  1  0.00000000  -0.00000000  0.50000000  1
  O  O45  1  0.00000000  0.50000000  0.00000000  1
