# generated using pymatgen
data_Zn2SiO4
_symmetry_space_group_name_H-M   'P 1'
_cell_length_a   5.54990770
_cell_length_b   8.08492336
_cell_length_c   7.77647020
_cell_angle_alpha   90.00000000
_cell_angle_beta   96.24871408
_cell_angle_gamma   90.00000000
_symmetry_Int_Tables_number   1
_chemical_formula_structural   Zn2SiO4
_chemical_formula_sum   'Zn8 Si4 O16'
_cell_volume   346.86161851
_cell_formula_units_Z   4
loop_
 _symmetry_equiv_pos_site_id
 _symmetry_equiv_pos_as_xyz
  1  'x, y, z'
loop_
 _atom_site_type_symbol
 _atom_site_label
 _atom_site_symmetry_multiplicity
 _atom_site_fract_x
 _atom_site_fract_y
 _atom_site_fract_z
 _atom_site_occupancy
  Zn  Zn0  1  0.14562480  0.88119963  0.90254290  1
  Zn  Zn1  1  0.64562480  0.61880037  0.40254290  1
  Zn  Zn2  1  0.85437520  0.11880037  0.09745710  1
  Zn  Zn3  1  0.35437520  0.38119963  0.59745710  1
  Zn  Zn4  1  0.05075131  0.49162946  0.19072277  1
  Zn  Zn5  1  0.55075131  0.00837054  0.69072277  1
  Zn  Zn6  1  0.94924869  0.50837054  0.80927723  1
  Zn  Zn7  1  0.44924869  0.99162946  0.30927723  1
  Si  Si8  1  0.32451391  0.23800355  0.95951044  1
  Si  Si9  1  0.82451391  0.26199645  0.45951044  1
  Si  Si10  1  0.67548609  0.76199645  0.04048956  1
  Si  Si11  1  0.17548609  0.73800355  0.54048956  1
  O  O12  1  0.22964682  0.42731872  0.99508818  1
  O  O13  1  0.72964682  0.07268128  0.49508818  1
  O  O14  1  0.77035318  0.57268128  0.00491182  1
  O  O15  1  0.27035318  0.92731872  0.50491182  1
  O  O16  1  0.48485370  0.23494861  0.79124655  1
  O  O17  1  0.98485370  0.26505139  0.29124655  1
  O  O18  1  0.51514630  0.76505139  0.20875345  1
  O  O19  1  0.01514630  0.73494861  0.70875345  1
  O  O20  1  0.07867857  0.12473380  0.91474515  1
  O  O21  1  0.57867857  0.37526620  0.41474515  1
  O  O22  1  0.92132143  0.87526620  0.08525485  1
  O  O23  1  0.42132143  0.62473380  0.58525485  1
  O  O24  1  0.49886410  0.14717833  0.11922957  1
  O  O25  1  0.99886410  0.35282167  0.61922957  1
  O  O26  1  0.50113590  0.85282167  0.88077043  1
  O  O27  1  0.00113590  0.64717833  0.38077043  1
