# generated using pymatgen
data_Al2Zn2S5
_symmetry_space_group_name_H-M   'P 1'
_cell_length_a   6.19710724
_cell_length_b   6.57636957
_cell_length_c   9.99316690
_cell_angle_alpha   70.81608265
_cell_angle_beta   90.00000000
_cell_angle_gamma   90.00000000
_symmetry_Int_Tables_number   1
_chemical_formula_structural   Al2Zn2S5
_chemical_formula_sum   'Al4 Zn4 S10'
_cell_volume   384.65015151
_cell_formula_units_Z   2
loop_
 _symmetry_equiv_pos_site_id
 _symmetry_equiv_pos_as_xyz
  1  'x, y, z'
loop_
 _atom_site_type_symbol
 _atom_site_label
 _atom_site_symmetry_multiplicity
 _atom_site_fract_x
 _atom_site_fract_y
 _atom_site_fract_z
 _atom_site_occupancy
  Al  Al0  1  0.12202804  0.14032204  0.39977728  1
  Al  Al1  1  0.12569044  0.92821740  0.79677891  1
  Al  Al2  1  0.62569044  0.67178260  0.00322109  1
  Al  Al3  1  0.62202804  0.45967796  0.40022272  1
  Zn  Zn4  1  0.11947926  0.33265117  0.00946128  1
  Zn  Zn5  1  0.13371698  0.53729974  0.59360422  1
  Zn  Zn6  1  0.61947926  0.26734883  0.79053872  1
  Zn  Zn7  1  0.63371698  0.06270026  0.20639578  1
  S  S8  1  0.50504363  0.34314688  0.99867530  1
  S  S9  1  0.50136555  0.72659685  0.20194161  1
  S  S10  1  0.49067916  0.13692714  0.40285646  1
  S  S11  1  0.50862517  0.53972807  0.59096784  1
  S  S12  1  0.49337177  0.92222706  0.80597555  1
  S  S13  1  0.00504363  0.25685312  0.80132470  1
  S  S14  1  0.99337177  0.67777294  0.99402445  1
  S  S15  1  0.00862517  0.06027193  0.20903216  1
  S  S16  1  0.99067916  0.46307286  0.39714354  1
  S  S17  1  0.00136555  0.87340315  0.59805839  1
