# generated using pymatgen
data_Ca24Mg8B16C8O73
_symmetry_space_group_name_H-M   'P 1'
_cell_length_a   10.52028238
_cell_length_b   14.87384415
_cell_length_c   10.52028238
_cell_angle_alpha   90.00000000
_cell_angle_beta   89.97710445
_cell_angle_gamma   90.00000000
_symmetry_Int_Tables_number   1
_chemical_formula_structural   Ca24Mg8B16C8O73
_chemical_formula_sum   'Ca24 Mg8 B16 C8 O73'
_cell_volume   1646.18252212
_cell_formula_units_Z   1
loop_
 _symmetry_equiv_pos_site_id
 _symmetry_equiv_pos_as_xyz
  1  'x, y, z'
loop_
 _atom_site_type_symbol
 _atom_site_label
 _atom_site_symmetry_multiplicity
 _atom_site_fract_x
 _atom_site_fract_y
 _atom_site_fract_z
 _atom_site_occupancy
  Ca  Ca0  1  0.50000000  0.98796607  0.00000000  1
  Ca  Ca1  1  -0.00000000  0.48783162  0.50000000  1
  Ca  Ca2  1  0.26226416  0.74995320  0.76208054  1
  Ca  Ca3  1  0.76208054  0.25004680  0.26226416  1
  Ca  Ca4  1  0.26209195  0.75005255  0.23786867  1
  Ca  Ca5  1  0.76213133  0.24994745  0.73790805  1
  Ca  Ca6  1  -0.00000000  0.76197170  0.00000000  1
  Ca  Ca7  1  0.50000000  0.26214619  0.50000000  1
  Ca  Ca8  1  0.73782954  0.50000000  0.73782954  1
  Ca  Ca9  1  0.23769713  -0.00000000  0.23769713  1
  Ca  Ca10  1  0.73781925  0.50000000  0.26218075  1
  Ca  Ca11  1  0.23802973  -0.00000000  0.76197027  1
  Ca  Ca12  1  0.50000000  0.51216838  0.00000000  1
  Ca  Ca13  1  -0.00000000  0.01203393  0.50000000  1
  Ca  Ca14  1  0.73790805  0.75005255  0.76213133  1
  Ca  Ca15  1  0.23786867  0.24994745  0.26209195  1
  Ca  Ca16  1  -0.00000000  0.23802830  0.00000000  1
  Ca  Ca17  1  0.50000000  0.73785381  0.50000000  1
  Ca  Ca18  1  0.26218075  0.50000000  0.73781925  1
  Ca  Ca19  1  0.76197027  -0.00000000  0.23802973  1
  Ca  Ca20  1  0.73773584  0.74995320  0.23791946  1
  Ca  Ca21  1  0.23791946  0.25004680  0.73773584  1
  Ca  Ca22  1  0.26217046  0.50000000  0.26217046  1
  Ca  Ca23  1  0.76230287  -0.00000000  0.76230287  1
  Mg  Mg24  1  0.24987101  0.87520115  0.00019988  1
  Mg  Mg25  1  0.74999980  0.37498749  0.50000687  1
  Mg  Mg26  1  0.50000687  0.62501251  0.74999980  1
  Mg  Mg27  1  0.00019988  0.12479885  0.24987101  1
  Mg  Mg28  1  0.49999313  0.62501251  0.25000020  1
  Mg  Mg29  1  0.99980012  0.12479885  0.75012899  1
  Mg  Mg30  1  0.75012899  0.87520115  0.99980012  1
  Mg  Mg31  1  0.25000020  0.37498749  0.49999313  1
  B  B32  1  0.81805544  0.09062690  0.99931921  1
  B  B33  1  0.31699067  0.59150314  0.49999615  1
  B  B34  1  0.68301571  0.65847732  0.99998540  1
  B  B35  1  0.18301835  0.15848653  0.49999385  1
  B  B36  1  0.49999615  0.40849686  0.31699067  1
  B  B37  1  0.99931921  0.90937310  0.81805544  1
  B  B38  1  0.99998540  0.34152268  0.68301571  1
  B  B39  1  0.49999385  0.84151347  0.18301835  1
  B  B40  1  0.50000385  0.40849686  0.68300933  1
  B  B41  1  0.00068079  0.90937310  0.18194456  1
  B  B42  1  0.00001460  0.34152268  0.31698429  1
  B  B43  1  0.50000615  0.84151347  0.81698165  1
  B  B44  1  0.18194456  0.09062690  0.00068079  1
  B  B45  1  0.68300933  0.59150314  0.50000385  1
  B  B46  1  0.31698429  0.65847732  0.00001460  1
  B  B47  1  0.81698165  0.15848653  0.50000615  1
  C  C48  1  0.24998152  0.37502070  -0.00002835  1
  C  C49  1  0.75002402  0.87510271  0.50002057  1
  C  C50  1  -0.00002835  0.62497930  0.24998152  1
  C  C51  1  0.50002057  0.12489729  0.75002402  1
  C  C52  1  0.00002835  0.62497930  0.75001848  1
  C  C53  1  0.49997943  0.12489729  0.24997598  1
  C  C54  1  0.75001848  0.37502070  0.00002835  1
  C  C55  1  0.24997598  0.87510271  0.49997943  1
  O  O56  1  0.31148097  0.43646634  0.06142813  1
  O  O57  1  0.81119635  0.93643670  0.56131765  1
  O  O58  1  0.25002619  0.37502990  0.87707958  1
  O  O59  1  0.74982491  0.87496149  0.37707134  1
  O  O60  1  0.18849450  0.31367859  0.06141376  1
  O  O61  1  0.68846411  0.81347163  0.56142920  1
  O  O62  1  0.06142813  0.56353366  0.31148097  1
  O  O63  1  0.56131765  0.06356330  0.81119635  1
  O  O64  1  0.87707958  0.62497010  0.25002619  1
  O  O65  1  0.37707134  0.12503851  0.74982491  1
  O  O66  1  0.06141376  0.68632141  0.18849450  1
  O  O67  1  0.56142920  0.18652837  0.68846411  1
  O  O68  1  0.93857187  0.56353366  0.68851903  1
  O  O69  1  0.43868235  0.06356330  0.18880365  1
  O  O70  1  0.12292042  0.62497010  0.74997381  1
  O  O71  1  0.62292866  0.12503851  0.25017509  1
  O  O72  1  0.93858624  0.68632141  0.81150550  1
  O  O73  1  0.43857080  0.18652837  0.31153589  1
  O  O74  1  0.68851903  0.43646634  0.93857187  1
  O  O75  1  0.18880365  0.93643670  0.43868235  1
  O  O76  1  0.74997381  0.37502990  0.12292042  1
  O  O77  1  0.25017509  0.87496149  0.62292866  1
  O  O78  1  0.81150550  0.31367859  0.93858624  1
  O  O79  1  0.31153589  0.81347163  0.43857080  1
  O  O80  1  -0.00000000  -0.00000000  0.00000000  1
  O  O81  1  0.26092242  0.01550867  0.99161209  1
  O  O82  1  0.75864223  0.51491985  0.49189435  1
  O  O83  1  0.61033578  0.36663721  0.35981304  1
  O  O84  1  0.11045556  0.86619236  0.85902232  1
  O  O85  1  0.61843831  0.37474486  0.64826224  1
  O  O86  1  0.11895091  0.87359901  0.14984207  1
  O  O87  1  0.24137007  0.73505257  0.99188291  1
  O  O88  1  0.74128715  0.23512558  0.49190386  1
  O  O89  1  0.88156188  0.37531455  0.64825513  1
  O  O90  1  0.38158858  0.87522831  0.14831989  1
  O  O91  1  0.88965306  0.38341232  0.35981983  1
  O  O92  1  0.38960113  0.88329131  0.85973540  1
  O  O93  1  0.49189435  0.48508015  0.75864223  1
  O  O94  1  0.99161209  0.98449133  0.26092242  1
  O  O95  1  0.85902232  0.13380764  0.11045556  1
  O  O96  1  0.35981304  0.63336279  0.61033578  1
  O  O97  1  0.14984207  0.12640099  0.11895091  1
  O  O98  1  0.64826224  0.62525514  0.61843831  1
  O  O99  1  0.99188291  0.26494743  0.24137007  1
  O  O100  1  0.49190386  0.76487442  0.74128715  1
  O  O101  1  0.64825513  0.62468545  0.88156188  1
  O  O102  1  0.14831989  0.12477169  0.38158858  1
  O  O103  1  0.35981983  0.61658768  0.88965306  1
  O  O104  1  0.85973540  0.11670869  0.38960113  1
  O  O105  1  0.50810565  0.48508015  0.24135777  1
  O  O106  1  0.00838791  0.98449133  0.73907758  1
  O  O107  1  0.14097768  0.13380764  0.88954444  1
  O  O108  1  0.64018696  0.63336279  0.38966422  1
  O  O109  1  0.85015793  0.12640099  0.88104909  1
  O  O110  1  0.35173776  0.62525514  0.38156169  1
  O  O111  1  0.00811709  0.26494743  0.75862993  1
  O  O112  1  0.50809614  0.76487442  0.25871285  1
  O  O113  1  0.35174487  0.62468545  0.11843812  1
  O  O114  1  0.85168011  0.12477169  0.61841142  1
  O  O115  1  0.64018017  0.61658768  0.11034694  1
  O  O116  1  0.14026460  0.11670869  0.61039887  1
  O  O117  1  0.73907758  0.01550867  0.00838791  1
  O  O118  1  0.24135777  0.51491985  0.50810565  1
  O  O119  1  0.38966422  0.36663721  0.64018696  1
  O  O120  1  0.88954444  0.86619236  0.14097768  1
  O  O121  1  0.38156169  0.37474486  0.35173776  1
  O  O122  1  0.88104909  0.87359901  0.85015793  1
  O  O123  1  0.75862993  0.73505257  0.00811709  1
  O  O124  1  0.25871285  0.23512558  0.50809614  1
  O  O125  1  0.11843812  0.37531455  0.35174487  1
  O  O126  1  0.61841142  0.87522831  0.85168011  1
  O  O127  1  0.11034694  0.38341232  0.64018017  1
  O  O128  1  0.61039887  0.88329131  0.14026460  1
