# generated using pymatgen
data_Ba8Si43Au3
_symmetry_space_group_name_H-M   'P 1'
_cell_length_a   10.45568112
_cell_length_b   10.45568112
_cell_length_c   10.45568112
_cell_angle_alpha   90.01099757
_cell_angle_beta   89.98900243
_cell_angle_gamma   89.98900243
_symmetry_Int_Tables_number   1
_chemical_formula_structural   Ba8Si43Au3
_chemical_formula_sum   'Ba8 Si43 Au3'
_cell_volume   1143.02825014
_cell_formula_units_Z   1
loop_
 _symmetry_equiv_pos_site_id
 _symmetry_equiv_pos_as_xyz
  1  'x, y, z'
loop_
 _atom_site_type_symbol
 _atom_site_label
 _atom_site_symmetry_multiplicity
 _atom_site_fract_x
 _atom_site_fract_y
 _atom_site_fract_z
 _atom_site_occupancy
  Ba  Ba0  1  0.49826501  0.50173499  0.50173499  1
  Ba  Ba1  1  0.00173499  0.99826501  0.99826501  1
  Ba  Ba2  1  0.48837024  0.75000000  0.98837024  1
  Ba  Ba3  1  0.25000000  0.98837024  0.51162976  1
  Ba  Ba4  1  0.01162976  0.51162976  0.75000000  1
  Ba  Ba5  1  0.48869072  0.25000000  0.98869072  1
  Ba  Ba6  1  0.75000000  0.98869072  0.51130928  1
  Ba  Ba7  1  0.01130928  0.51130928  0.25000000  1
  Si  Si8  1  0.31654223  0.68345777  0.68345777  1
  Si  Si9  1  0.68529554  0.31470446  0.31470446  1
  Si  Si10  1  0.68683086  0.31363823  0.68224708  1
  Si  Si11  1  0.31716956  0.68426709  0.31400617  1
  Si  Si12  1  0.68636177  0.68224708  0.31316914  1
  Si  Si13  1  0.31573291  0.31400617  0.68283044  1
  Si  Si14  1  0.31775292  0.31316914  0.31363823  1
  Si  Si15  1  0.68599383  0.68283044  0.68426709  1
  Si  Si16  1  0.18426709  0.81716956  0.18599383  1
  Si  Si17  1  0.81363823  0.18683086  0.81775292  1
  Si  Si18  1  0.81470446  0.18529554  0.18529554  1
  Si  Si19  1  0.18345777  0.81654223  0.81654223  1
  Si  Si20  1  0.18283044  0.18599383  0.81573291  1
  Si  Si21  1  0.81316914  0.81775292  0.18636177  1
  Si  Si22  1  0.81400617  0.81573291  0.81716956  1
  Si  Si23  1  0.18224708  0.18636177  0.18683086  1
  Si  Si24  1  0.38113928  0.49847988  0.80313187  1
  Si  Si25  1  0.50152012  0.80313187  0.61886072  1
  Si  Si26  1  0.19686813  0.61886072  0.49847988  1
  Si  Si27  1  0.61900022  0.49749527  0.19248991  1
  Si  Si28  1  0.50250473  0.19248991  0.38099978  1
  Si  Si29  1  0.80751009  0.38099978  0.49749527  1
  Si  Si30  1  0.62020472  0.49826876  0.80432742  1
  Si  Si31  1  0.50190182  0.19461256  0.61638553  1
  Si  Si32  1  0.38361447  0.49809818  0.19461256  1
  Si  Si33  1  0.50173124  0.80432742  0.37979528  1
  Si  Si34  1  0.80538744  0.61638553  0.49809818  1
  Si  Si35  1  0.19567258  0.37979528  0.49826876  1
  Si  Si36  1  0.99809818  0.88361447  0.30538744  1
  Si  Si37  1  0.30432742  0.00173124  0.12020472  1
  Si  Si38  1  0.11886072  0.69686813  0.00152012  1
  Si  Si39  1  0.99826876  0.12020472  0.69567258  1
  Si  Si40  1  0.69461256  0.00190182  0.88361447  1
  Si  Si41  1  0.88099978  0.30751009  0.00250473  1
  Si  Si42  1  0.99749527  0.11900022  0.30751009  1
  Si  Si43  1  0.69248991  0.00250473  0.11900022  1
  Si  Si44  1  0.99847988  0.88113928  0.69686813  1
  Si  Si45  1  0.30313187  0.00152012  0.88113928  1
  Si  Si46  1  0.11638553  0.30538744  0.00190182  1
  Si  Si47  1  0.87979528  0.69567258  0.00173124  1
  Si  Si48  1  0.00210912  0.25000000  0.50210912  1
  Si  Si49  1  0.75000000  0.50210912  0.99789088  1
  Si  Si50  1  0.49789088  0.99789088  0.25000000  1
  Au  Au51  1  0.00032597  0.75000000  0.50032597  1
  Au  Au52  1  0.25000000  0.50032597  0.99967403  1
  Au  Au53  1  0.49967403  0.99967403  0.75000000  1
