# generated using pymatgen
data_BaMn3Fe3O11
_symmetry_space_group_name_H-M   'P 1'
_cell_length_a   5.96190442
_cell_length_b   5.96190442
_cell_length_c   13.48834409
_cell_angle_alpha   90.00000000
_cell_angle_beta   90.00000000
_cell_angle_gamma   121.15781496
_symmetry_Int_Tables_number   1
_chemical_formula_structural   BaMn3Fe3O11
_chemical_formula_sum   'Ba2 Mn6 Fe6 O22'
_cell_volume   410.27329109
_cell_formula_units_Z   2
loop_
 _symmetry_equiv_pos_site_id
 _symmetry_equiv_pos_as_xyz
  1  'x, y, z'
loop_
 _atom_site_type_symbol
 _atom_site_label
 _atom_site_symmetry_multiplicity
 _atom_site_fract_x
 _atom_site_fract_y
 _atom_site_fract_z
 _atom_site_occupancy
  Ba  Ba0  1  0.66615907  0.33384093  0.74920165  1
  Ba  Ba1  1  0.33384093  0.66615907  0.24920165  1
  Mn  Mn2  1  0.49876092  0.99883864  0.50060534  1
  Mn  Mn3  1  0.49911528  0.50088472  0.50105206  1
  Mn  Mn4  1  0.00116136  0.50123908  0.50060534  1
  Mn  Mn5  1  0.50123908  0.00116136  0.00060534  1
  Mn  Mn6  1  0.50088472  0.49911528  0.00105206  1
  Mn  Mn7  1  0.99883864  0.49876092  0.00060534  1
  Fe  Fe8  1  0.00228978  0.99771022  0.64445128  1
  Fe  Fe9  1  0.99703146  0.00296854  0.35704578  1
  Fe  Fe10  1  0.99771022  0.00228978  0.14445128  1
  Fe  Fe11  1  0.00296854  0.99703146  0.85704578  1
  Fe  Fe12  1  0.67059367  0.32940633  0.25964838  1
  Fe  Fe13  1  0.32940633  0.67059367  0.75964838  1
  O  O14  1  0.84700395  0.69891932  0.25149300  1
  O  O15  1  0.85362736  0.14637264  0.25062041  1
  O  O16  1  0.30108068  0.15299605  0.25149300  1
  O  O17  1  0.15299605  0.30108068  0.75149300  1
  O  O18  1  0.14637264  0.85362736  0.75062041  1
  O  O19  1  0.69891932  0.84700395  0.75149300  1
  O  O20  1  0.82836388  0.64773662  0.57607440  1
  O  O21  1  0.82373919  0.17626081  0.57799281  1
  O  O22  1  0.35226338  0.17163612  0.57607440  1
  O  O23  1  0.17139250  0.35344495  0.42504582  1
  O  O24  1  0.17658779  0.82341221  0.42259318  1
  O  O25  1  0.64655505  0.82860750  0.42504582  1
  O  O26  1  0.17163612  0.35226338  0.07607440  1
  O  O27  1  0.17626081  0.82373919  0.07799281  1
  O  O28  1  0.64773662  0.82836388  0.07607440  1
  O  O29  1  0.82860750  0.64655505  0.92504582  1
  O  O30  1  0.82341221  0.17658779  0.92259318  1
  O  O31  1  0.35344495  0.17139250  0.92504582  1
  O  O32  1  0.68315948  0.31684052  0.08183738  1
  O  O33  1  0.31887624  0.68112376  0.91761995  1
  O  O34  1  0.31684052  0.68315948  0.58183738  1
  O  O35  1  0.68112376  0.31887624  0.41761995  1
