# generated using pymatgen
data_Er(BRh)4
_symmetry_space_group_name_H-M   'P 1'
_cell_length_a   7.54246206
_cell_length_b   7.54246207
_cell_length_c   9.16373770
_cell_angle_alpha   114.30151879
_cell_angle_beta   114.30151881
_cell_angle_gamma   90.00000000
_symmetry_Int_Tables_number   1
_chemical_formula_structural   Er(BRh)4
_chemical_formula_sum   'Er4 B16 Rh16'
_cell_volume   423.92498887
_cell_formula_units_Z   4
loop_
 _symmetry_equiv_pos_site_id
 _symmetry_equiv_pos_as_xyz
  1  'x, y, z'
loop_
 _atom_site_type_symbol
 _atom_site_label
 _atom_site_symmetry_multiplicity
 _atom_site_fract_x
 _atom_site_fract_y
 _atom_site_fract_z
 _atom_site_occupancy
  B  B0  1  0.87243783  0.65479687  0.08572009  1
  B  B1  1  0.56907677  0.28671774  0.41427991  1
  B  B2  1  0.84520313  0.62756217  0.41427991  1
  B  B3  1  0.28671774  0.84520313  0.91427991  1
  B  B4  1  0.65479687  0.21328226  0.58572009  1
  B  B5  1  0.21328226  0.93092323  0.08572009  1
  B  B6  1  0.12756217  0.34520313  0.91427991  1
  B  B7  1  0.43092323  0.71328226  0.58572009  1
  B  B8  1  0.15479687  0.37243783  0.58572009  1
  B  B9  1  0.71328226  0.15479687  0.08572009  1
  B  B10  1  0.37243783  0.43092323  0.08572009  1
  B  B11  1  0.06907677  0.12756217  0.41427991  1
  B  B12  1  0.34520313  0.78671774  0.41427991  1
  B  B13  1  0.78671774  0.06907677  0.91427991  1
  B  B14  1  0.62756217  0.56907677  0.91427991  1
  B  B15  1  0.93092323  0.87243783  0.58572009  1
  Rh  Rh16  1  0.55442974  0.84206016  0.87706461  1
  Rh  Rh17  1  0.84206016  0.32263487  0.37706461  1
  Rh  Rh18  1  0.53500445  0.55442974  0.37706461  1
  Rh  Rh19  1  0.17736513  0.65793984  0.12293539  1
  Rh  Rh20  1  0.65793984  0.94557026  0.62293539  1
  Rh  Rh21  1  0.94557026  0.96499555  0.12293539  1
  Rh  Rh22  1  0.82263487  0.34206016  0.87706461  1
  Rh  Rh23  1  0.46499555  0.44557026  0.62293539  1
  Rh  Rh24  1  0.15793984  0.67736513  0.62293539  1
  Rh  Rh25  1  0.44557026  0.15793984  0.12293539  1
  Rh  Rh26  1  0.67736513  0.46499555  0.12293539  1
  Rh  Rh27  1  0.03500445  0.82263487  0.37706461  1
  Rh  Rh28  1  0.34206016  0.05442974  0.37706461  1
  Rh  Rh29  1  0.05442974  0.03500445  0.87706461  1
  Rh  Rh30  1  0.32263487  0.53500445  0.87706461  1
  Rh  Rh31  1  0.96499555  0.17736513  0.62293539  1
  Er  Er32  1  0.62500000  0.87500000  0.25000000  1
  Er  Er33  1  0.87500000  0.62500000  0.75000000  1
  Er  Er34  1  0.37500000  0.12500000  0.75000000  1
  Er  Er35  1  0.12500000  0.37500000  0.25000000  1
