# generated using pymatgen
data_Nb12O29
_symmetry_space_group_name_H-M   'P 1'
_cell_length_a   3.86369550
_cell_length_b   10.75310962
_cell_length_c   29.50085670
_cell_angle_alpha   90.00000000
_cell_angle_beta   90.00000000
_cell_angle_gamma   100.34965349
_symmetry_Int_Tables_number   1
_chemical_formula_structural   Nb12O29
_chemical_formula_sum   'Nb24 O58'
_cell_volume   1205.72255081
_cell_formula_units_Z   2
loop_
 _symmetry_equiv_pos_site_id
 _symmetry_equiv_pos_as_xyz
  1  'x, y, z'
loop_
 _atom_site_type_symbol
 _atom_site_label
 _atom_site_symmetry_multiplicity
 _atom_site_fract_x
 _atom_site_fract_y
 _atom_site_fract_z
 _atom_site_occupancy
  O  O0  1  0.54196428  0.08392857  0.75000000  1
  O  O1  1  0.45803572  0.91607143  0.25000000  1
  O  O2  1  0.55212555  0.10425111  0.18431657  1
  O  O3  1  0.44787445  0.89574889  0.81568343  1
  O  O4  1  0.44787445  0.89574889  0.68431657  1
  O  O5  1  0.55212555  0.10425111  0.31568343  1
  O  O6  1  0.34935361  0.69870721  0.75000000  1
  O  O7  1  0.65064639  0.30129279  0.25000000  1
  O  O8  1  0.14847374  0.29694749  0.17552193  1
  O  O9  1  0.85152626  0.70305251  0.82447807  1
  O  O10  1  0.85152626  0.70305251  0.67552193  1
  O  O11  1  0.14847374  0.29694749  0.32447807  1
  O  O12  1  0.74422529  0.48845058  0.18030195  1
  O  O13  1  0.25577471  0.51154942  0.81969805  1
  O  O14  1  0.25577471  0.51154942  0.68030195  1
  O  O15  1  0.74422529  0.48845058  0.31969805  1
  O  O16  1  0.16556375  0.33112750  0.75000000  1
  O  O17  1  0.83443625  0.66887250  0.25000000  1
  O  O18  1  0.93963243  0.87926485  0.18013193  1
  O  O19  1  0.06036757  0.12073515  0.81986807  1
  O  O20  1  0.06036757  0.12073515  0.68013193  1
  O  O21  1  0.93963243  0.87926485  0.31986807  1
  O  O22  1  0.35655422  0.71310844  0.17980293  1
  O  O23  1  0.64344578  0.28689156  0.82019707  1
  O  O24  1  0.35571690  0.71143381  0.46331756  1
  O  O25  1  0.64428310  0.28856619  0.53668244  1
  O  O26  1  0.64428310  0.28856619  0.96331756  1
  O  O27  1  0.35571690  0.71143381  0.03668244  1
  O  O28  1  0.93865410  0.87730820  0.45634671  1
  O  O29  1  0.06134590  0.12269180  0.54365329  1
  O  O30  1  0.06134590  0.12269180  0.95634671  1
  O  O31  1  0.93865410  0.87730820  0.04365329  1
  O  O32  1  0.54931873  0.09863745  0.46892694  1
  O  O33  1  0.45068127  0.90136255  0.53107306  1
  O  O34  1  0.45068127  0.90136255  0.96892694  1
  O  O35  1  0.54931873  0.09863745  0.03107306  1
  O  O36  1  0.46780015  0.93560030  0.38820073  1
  O  O37  1  0.53219985  0.06439970  0.61179927  1
  O  O38  1  0.53219985  0.06439970  0.88820073  1
  O  O39  1  0.46780015  0.93560030  0.11179927  1
  O  O40  1  0.15038569  0.30077138  0.47162883  1
  O  O41  1  0.84961431  0.69922862  0.52837117  1
  O  O42  1  0.84961431  0.69922862  0.97162883  1
  O  O43  1  0.15038569  0.30077138  0.02837117  1
  O  O44  1  0.74329579  0.48659158  0.45764439  1
  O  O45  1  0.25670421  0.51340842  0.54235561  1
  O  O46  1  0.25670421  0.51340842  0.95764439  1
  O  O47  1  0.74329579  0.48659158  0.04235561  1
  O  O48  1  0.64136741  0.28273481  0.39153199  1
  O  O49  1  0.35863259  0.71726519  0.60846801  1
  O  O50  1  0.35863259  0.71726519  0.89153199  1
  O  O51  1  0.64136741  0.28273481  0.10846801  1
  O  O52  1  0.83563904  0.67127807  0.38830025  1
  O  O53  1  0.16436096  0.32872193  0.61169975  1
  O  O54  1  0.16436096  0.32872193  0.88830025  1
  O  O55  1  0.83563904  0.67127807  0.11169975  1
  O  O56  1  0.35655422  0.71310844  0.32019707  1
  O  O57  1  0.64344578  0.28689156  0.67980293  1
  Nb  Nb58  1  0.46496047  0.92992094  0.18494784  1
  Nb  Nb59  1  0.53503953  0.07007906  0.81505216  1
  Nb  Nb60  1  0.53503953  0.07007906  0.68494784  1
  Nb  Nb61  1  0.46496047  0.92992094  0.31505216  1
  Nb  Nb62  1  0.64780335  0.29560670  0.18481930  1
  Nb  Nb63  1  0.35219665  0.70439330  0.81518070  1
  Nb  Nb64  1  0.35219665  0.70439330  0.68481930  1
  Nb  Nb65  1  0.64780335  0.29560670  0.31518070  1
  Nb  Nb66  1  0.83104605  0.66209210  0.18453298  1
  Nb  Nb67  1  0.16895395  0.33790790  0.81546702  1
  Nb  Nb68  1  0.16895395  0.33790790  0.68453298  1
  Nb  Nb69  1  0.83104605  0.66209210  0.31546702  1
  Nb  Nb70  1  0.83082645  0.66165290  0.05046599  1
  Nb  Nb71  1  0.16917355  0.33834710  0.94953401  1
  Nb  Nb72  1  0.16917355  0.33834710  0.55046599  1
  Nb  Nb73  1  0.83082645  0.66165290  0.44953401  1
  Nb  Nb74  1  0.64799035  0.29598070  0.04830375  1
  Nb  Nb75  1  0.35200965  0.70401930  0.95169625  1
  Nb  Nb76  1  0.35200965  0.70401930  0.54830375  1
  Nb  Nb77  1  0.64799035  0.29598070  0.45169625  1
  Nb  Nb78  1  0.46344854  0.92689708  0.05071430  1
  Nb  Nb79  1  0.53655146  0.07310292  0.94928570  1
  Nb  Nb80  1  0.53655146  0.07310292  0.55071430  1
  Nb  Nb81  1  0.46344854  0.92689708  0.44928570  1
