# generated using pymatgen
data_Ba4Zr3S10
_symmetry_space_group_name_H-M   'P 1'
_cell_length_a   5.04886995
_cell_length_b   5.04886995
_cell_length_c   18.31448284
_cell_angle_alpha   97.92406505
_cell_angle_beta   97.92406506
_cell_angle_gamma   89.99069630
_symmetry_Int_Tables_number   1
_chemical_formula_structural   Ba4Zr3S10
_chemical_formula_sum   'Ba4 Zr3 S10'
_cell_volume   457.89874468
_cell_formula_units_Z   1
loop_
 _symmetry_equiv_pos_site_id
 _symmetry_equiv_pos_as_xyz
  1  'x, y, z'
loop_
 _atom_site_type_symbol
 _atom_site_label
 _atom_site_symmetry_multiplicity
 _atom_site_fract_x
 _atom_site_fract_y
 _atom_site_fract_z
 _atom_site_occupancy
  S  S0  1  0.86059602  0.36059602  0.72119204  1
  S  S1  1  0.63940398  0.13940398  0.27880796  1
  S  S2  1  0.13940398  0.63940398  0.27880796  1
  S  S3  1  0.36059602  0.86059602  0.72119204  1
  S  S4  1  0.00000000  0.50000000  0.00000000  1
  S  S5  1  0.50000000  0.00000000  0.00000000  1
  S  S6  1  0.21310872  0.21310872  0.42621743  1
  S  S7  1  0.92950331  0.92950331  0.85900662  1
  S  S8  1  0.07049669  0.07049669  0.14099338  1
  S  S9  1  0.78689128  0.78689128  0.57378257  1
  Zr  Zr10  1  0.00000000  0.00000000  0.00000000  1
  Zr  Zr11  1  0.85682898  0.85682898  0.71365795  1
  Zr  Zr12  1  0.14317102  0.14317102  0.28634205  1
  Ba  Ba13  1  0.43263595  0.43263595  0.86527190  1
  Ba  Ba14  1  0.56736405  0.56736405  0.13472810  1
  Ba  Ba15  1  0.30028068  0.30028068  0.60056136  1
  Ba  Ba16  1  0.69971932  0.69971932  0.39943864  1
