# generated using pymatgen
data_Ba14U2Fe4S25O
_symmetry_space_group_name_H-M   'P 1'
_cell_length_a   9.68837357
_cell_length_b   16.18726665
_cell_length_c   16.18726665
_cell_angle_alpha   90.00000000
_cell_angle_beta   90.00000000
_cell_angle_gamma   90.00000000
_symmetry_Int_Tables_number   1
_chemical_formula_structural   Ba14U2Fe4S25O
_chemical_formula_sum   'Ba28 U4 Fe8 S50 O2'
_cell_volume   2538.62128993
_cell_formula_units_Z   2
loop_
 _symmetry_equiv_pos_site_id
 _symmetry_equiv_pos_as_xyz
  1  'x, y, z'
loop_
 _atom_site_type_symbol
 _atom_site_label
 _atom_site_symmetry_multiplicity
 _atom_site_fract_x
 _atom_site_fract_y
 _atom_site_fract_z
 _atom_site_occupancy
  Ba  Ba0  1  0.78234130  0.00000000  0.50000000  1
  Ba  Ba1  1  0.78234130  0.50000000  0.00000000  1
  Ba  Ba2  1  0.21756310  0.00000000  0.50000000  1
  Ba  Ba3  1  0.21756310  0.50000000  0.00000000  1
  Ba  Ba4  1  0.00067930  0.20283325  0.70251981  1
  Ba  Ba5  1  0.00067930  0.79716675  0.29748019  1
  Ba  Ba6  1  0.00067930  0.29748019  0.20283325  1
  Ba  Ba7  1  0.00067930  0.70251981  0.79716675  1
  Ba  Ba8  1  0.49924472  0.73790937  0.23779524  1
  Ba  Ba9  1  0.49924472  0.26209063  0.76220476  1
  Ba  Ba10  1  0.49924472  0.76220476  0.73790937  1
  Ba  Ba11  1  0.49924472  0.23779524  0.26209063  1
  Ba  Ba12  1  0.75404102  0.71224113  0.51092086  1
  Ba  Ba13  1  0.75404102  0.28775887  0.48907914  1
  Ba  Ba14  1  0.75616871  0.78801124  0.01105728  1
  Ba  Ba15  1  0.75616871  0.21198876  0.98894272  1
  Ba  Ba16  1  0.75404102  0.51092086  0.28775887  1
  Ba  Ba17  1  0.75404102  0.48907914  0.71224113  1
  Ba  Ba18  1  0.75616871  0.01105728  0.21198876  1
  Ba  Ba19  1  0.75616871  0.98894272  0.78801124  1
  Ba  Ba20  1  0.24515474  0.28172654  0.48902758  1
  Ba  Ba21  1  0.24515474  0.71827346  0.51097242  1
  Ba  Ba22  1  0.24730873  0.21875536  0.98869876  1
  Ba  Ba23  1  0.24730873  0.78124464  0.01130124  1
  Ba  Ba24  1  0.24515474  0.48902758  0.71827346  1
  Ba  Ba25  1  0.24515474  0.51097242  0.28172654  1
  Ba  Ba26  1  0.24730873  0.98869876  0.78124464  1
  Ba  Ba27  1  0.24730873  0.01130124  0.21875536  1
  U  U28  1  0.02457297  0.50000000  0.50000000  1
  U  U29  1  0.02827506  0.00000000  0.00000000  1
  U  U30  1  0.47457011  0.00000000  0.00000000  1
  U  U31  1  0.47106242  0.50000000  0.50000000  1
  Fe  Fe32  1  0.50029852  0.10314019  0.60323873  1
  Fe  Fe33  1  0.50029852  0.89685981  0.39676127  1
  Fe  Fe34  1  0.50029852  0.39676127  0.10314019  1
  Fe  Fe35  1  0.50029852  0.60323873  0.89685981  1
  Fe  Fe36  1  0.99960095  0.63631877  0.13640858  1
  Fe  Fe37  1  0.99960095  0.36368123  0.86359142  1
  Fe  Fe38  1  0.99960095  0.86359142  0.63631877  1
  Fe  Fe39  1  0.99960095  0.13640858  0.36368123  1
  S  S40  1  0.70365773  0.15270650  0.65304539  1
  S  S41  1  0.70365773  0.84729350  0.34695461  1
  S  S42  1  0.70365773  0.34695461  0.15270650  1
  S  S43  1  0.70365773  0.65304539  0.84729350  1
  S  S44  1  0.29635071  0.84757024  0.34772294  1
  S  S45  1  0.29635071  0.15242976  0.65227706  1
  S  S46  1  0.29635071  0.65227706  0.84757024  1
  S  S47  1  0.29635071  0.34772294  0.15242976  1
  S  S48  1  0.99846977  0.50296468  0.84299133  1
  S  S49  1  0.99846977  0.49703532  0.15700867  1
  S  S50  1  0.99939240  0.99712281  0.34312551  1
  S  S51  1  0.99939240  0.00287719  0.65687449  1
  S  S52  1  0.99846977  0.84299133  0.49703532  1
  S  S53  1  0.99846977  0.15700867  0.50296468  1
  S  S54  1  0.99939240  0.34312551  0.00287719  1
  S  S55  1  0.99939240  0.65687449  0.99712281  1
  S  S56  1  0.48673441  0.61009148  0.61767773  1
  S  S57  1  0.48673441  0.38990852  0.38232227  1
  S  S58  1  0.49238172  0.89017801  0.11751947  1
  S  S59  1  0.49238172  0.10982199  0.88248053  1
  S  S60  1  0.48673441  0.61767773  0.38990852  1
  S  S61  1  0.48673441  0.38232227  0.61009148  1
  S  S62  1  0.49238172  0.11751947  0.10982199  1
  S  S63  1  0.49238172  0.88248053  0.89017801  1
  S  S64  1  0.50042351  0.86589976  0.54188994  1
  S  S65  1  0.50042351  0.13410024  0.45811006  1
  S  S66  1  0.49964419  0.63428520  0.04195706  1
  S  S67  1  0.49964419  0.36571480  0.95804294  1
  S  S68  1  0.50042351  0.54188994  0.13410024  1
  S  S69  1  0.50042351  0.45811006  0.86589976  1
  S  S70  1  0.49964419  0.04195706  0.36571480  1
  S  S71  1  0.49964419  0.95804294  0.63428520  1
  S  S72  1  0.79684617  0.68649578  0.18615007  1
  S  S73  1  0.79684617  0.31350422  0.81384993  1
  S  S74  1  0.79684617  0.81384993  0.68649578  1
  S  S75  1  0.79684617  0.18615007  0.31350422  1
  S  S76  1  0.20277808  0.31434972  0.81408307  1
  S  S77  1  0.20277808  0.68565028  0.18591693  1
  S  S78  1  0.20277808  0.18591693  0.31434972  1
  S  S79  1  0.20277808  0.81408307  0.68565028  1
  S  S80  1  0.00744410  0.60498120  0.62137593  1
  S  S81  1  0.00744410  0.39501880  0.37862407  1
  S  S82  1  0.01351651  0.89518557  0.12126787  1
  S  S83  1  0.01351651  0.10481443  0.87873213  1
  S  S84  1  0.00744410  0.62137593  0.39501880  1
  S  S85  1  0.00744410  0.37862407  0.60498120  1
  S  S86  1  0.01351651  0.12126787  0.10481443  1
  S  S87  1  0.01351651  0.87873213  0.89518557  1
  S  S88  1  0.74747751  0.50000000  0.50000000  1
  S  S89  1  0.75165776  0.00000000  0.00000000  1
  O  O90  1  0.24780956  0.50000000  0.50000000  1
  O  O91  1  0.25422190  0.00000000  0.00000000  1
