# generated using pymatgen
data_Ag8Sb5As3S16
_symmetry_space_group_name_H-M   'P 1'
_cell_length_a   5.97363299
_cell_length_b   8.81196742
_cell_length_c   13.71536928
_cell_angle_alpha   95.73033215
_cell_angle_beta   89.64782118
_cell_angle_gamma   89.91371006
_symmetry_Int_Tables_number   1
_chemical_formula_structural   Ag8Sb5As3S16
_chemical_formula_sum   'Ag8 Sb5 As3 S16'
_cell_volume   718.34663198
_cell_formula_units_Z   1
loop_
 _symmetry_equiv_pos_site_id
 _symmetry_equiv_pos_as_xyz
  1  'x, y, z'
loop_
 _atom_site_type_symbol
 _atom_site_label
 _atom_site_symmetry_multiplicity
 _atom_site_fract_x
 _atom_site_fract_y
 _atom_site_fract_z
 _atom_site_occupancy
  Ag  Ag0  1  0.26860196  0.02360322  0.42356503  1
  Ag  Ag1  1  0.23117111  0.52390142  0.92488472  1
  Ag  Ag2  1  0.73065591  0.97679268  0.57599913  1
  Ag  Ag3  1  0.77180596  0.47839252  0.07648875  1
  Ag  Ag4  1  0.75148624  0.07049587  0.21084314  1
  Ag  Ag5  1  0.75141331  0.57276335  0.70943153  1
  Ag  Ag6  1  0.25101692  0.92459918  0.78767189  1
  Ag  Ag7  1  0.24833763  0.42473388  0.28829459  1
  Sb  Sb8  1  0.28714740  0.77764650  0.14809180  1
  Sb  Sb9  1  0.22296940  0.28431077  0.63973291  1
  Sb  Sb10  1  0.71500337  0.21646468  0.85728743  1
  Sb  Sb11  1  0.78268504  0.71400218  0.35657951  1
  Sb  Sb12  1  0.27248209  0.16506646  0.03760600  1
  As  As13  1  0.24106383  0.67366591  0.54721482  1
  As  As14  1  0.73903294  0.82615670  0.95255586  1
  As  As15  1  0.75949088  0.32662006  0.45369315  1
  S  S16  1  0.36529942  0.75137145  0.33393289  1
  S  S17  1  0.13025570  0.25810341  0.83047114  1
  S  S18  1  0.63470904  0.24281546  0.66680945  1
  S  S19  1  0.86760371  0.74201982  0.16935464  1
  S  S20  1  0.12338185  0.81384893  0.94397786  1
  S  S21  1  0.37495549  0.31377137  0.44475247  1
  S  S22  1  0.85861973  0.18502699  0.05086053  1
  S  S23  1  0.62512502  0.68796626  0.55511724  1
  S  S24  1  0.83883738  0.08202728  0.39483573  1
  S  S25  1  0.66178938  0.58240980  0.89281734  1
  S  S26  1  0.16007200  0.91831292  0.60542437  1
  S  S27  1  0.34111318  0.43147308  0.10623636  1
  S  S28  1  0.30945373  0.05746878  0.20112185  1
  S  S29  1  0.18972395  0.56449413  0.69423386  1
  S  S30  1  0.68829368  0.93590904  0.80552199  1
  S  S31  1  0.81080275  0.43306588  0.30539202  1
