# generated using pymatgen
data_Y3(Si3Os)4
_symmetry_space_group_name_H-M   'P 1'
_cell_length_a   8.16885491
_cell_length_b   8.17151501
_cell_length_c   10.15447343
_cell_angle_alpha   90.00000000
_cell_angle_beta   113.71762143
_cell_angle_gamma   90.00000000
_symmetry_Int_Tables_number   1
_chemical_formula_structural   Y3(Si3Os)4
_chemical_formula_sum   'Y6 Si24 Os8'
_cell_volume   620.58030577
_cell_formula_units_Z   2
loop_
 _symmetry_equiv_pos_site_id
 _symmetry_equiv_pos_as_xyz
  1  'x, y, z'
loop_
 _atom_site_type_symbol
 _atom_site_label
 _atom_site_symmetry_multiplicity
 _atom_site_fract_x
 _atom_site_fract_y
 _atom_site_fract_z
 _atom_site_occupancy
  Si  Si0  1  0.20476558  0.50000000  0.40953116  1
  Si  Si1  1  0.29523442  0.00000000  0.59046884  1
  Si  Si2  1  0.79523442  0.50000000  0.59046884  1
  Si  Si3  1  0.70476558  0.00000000  0.40953116  1
  Si  Si4  1  0.66747682  0.16698793  0.00000000  1
  Si  Si5  1  0.16747682  0.33301207  0.00000000  1
  Si  Si6  1  0.83252318  0.66698793  0.00000000  1
  Si  Si7  1  0.33252318  0.83301207  0.00000000  1
  Si  Si8  1  0.61075130  0.99522100  0.76581615  1
  Si  Si9  1  0.34493515  0.50477900  0.23418385  1
  Si  Si10  1  0.88924870  0.49522100  0.23418385  1
  Si  Si11  1  0.15506485  0.00477900  0.76581615  1
  Si  Si12  1  0.38924870  0.00477900  0.23418385  1
  Si  Si13  1  0.65506485  0.49522100  0.76581615  1
  Si  Si14  1  0.88605604  0.72775978  0.76584279  1
  Si  Si15  1  0.62021325  0.77224022  0.23415721  1
  Si  Si16  1  0.61394396  0.22775978  0.23415721  1
  Si  Si17  1  0.87978675  0.27224022  0.76584279  1
  Si  Si18  1  0.11394396  0.27224022  0.23415721  1
  Si  Si19  1  0.37978675  0.22775978  0.76584279  1
  Si  Si20  1  0.38605604  0.77224022  0.76584279  1
  Si  Si21  1  0.12021325  0.72775978  0.23415721  1
  Si  Si22  1  0.84493515  0.99522100  0.23418385  1
  Si  Si23  1  0.11075130  0.50477900  0.76581615  1
  Y  Y24  1  0.00199726  0.75000000  0.50000000  1
  Y  Y25  1  0.49800274  0.25000000  0.50000000  1
  Y  Y26  1  0.99800274  0.25000000  0.50000000  1
  Y  Y27  1  0.50199726  0.75000000  0.50000000  1
  Y  Y28  1  0.00000000  0.00000000  0.00000000  1
  Y  Y29  1  0.50000000  0.50000000  0.00000000  1
  Os  Os30  1  0.62709891  0.87249943  0.00000000  1
  Os  Os31  1  0.12709891  0.62750057  0.00000000  1
  Os  Os32  1  0.37290109  0.12750057  0.00000000  1
  Os  Os33  1  0.87290109  0.37249943  0.00000000  1
  Os  Os34  1  0.83085475  0.00000000  0.66170949  1
  Os  Os35  1  0.66914525  0.50000000  0.33829051  1
  Os  Os36  1  0.16914525  0.00000000  0.33829051  1
  Os  Os37  1  0.33085475  0.50000000  0.66170949  1
