# generated using pymatgen
data_Ba3Y4O9
_symmetry_space_group_name_H-M   'P 1'
_cell_length_a   9.27691149
_cell_length_b   9.27691148
_cell_length_c   9.27691149
_cell_angle_alpha   38.78605335
_cell_angle_beta   38.78605333
_cell_angle_gamma   38.78605332
_symmetry_Int_Tables_number   1
_chemical_formula_structural   Ba3Y4O9
_chemical_formula_sum   'Ba3 Y4 O9'
_cell_volume   281.62495380
_cell_formula_units_Z   1
loop_
 _symmetry_equiv_pos_site_id
 _symmetry_equiv_pos_as_xyz
  1  'x, y, z'
loop_
 _atom_site_type_symbol
 _atom_site_label
 _atom_site_symmetry_multiplicity
 _atom_site_fract_x
 _atom_site_fract_y
 _atom_site_fract_z
 _atom_site_occupancy
  O  O0  1  0.45594282  0.58040563  0.03836500  1
  O  O1  1  0.58040563  0.03836500  0.45594282  1
  O  O2  1  0.03836500  0.45594282  0.58040563  1
  O  O3  1  0.57963527  0.70955243  0.12240916  1
  O  O4  1  0.70955243  0.12240916  0.57963527  1
  O  O5  1  0.12240916  0.57963527  0.70955243  1
  O  O6  1  0.01650403  0.58190133  0.14592214  1
  O  O7  1  0.14592214  0.01650403  0.58190133  1
  O  O8  1  0.58190133  0.14592214  0.01650403  1
  Y  Y9  1  0.29961878  0.29961878  0.29961878  1
  Y  Y10  1  0.73772341  0.73772341  0.73772341  1
  Y  Y11  1  0.86313616  0.86313616  0.86313616  1
  Y  Y12  1  0.42526979  0.42526979  0.42526979  1
  Ba  Ba13  1  0.58354591  0.58354591  0.58354591  1
  Ba  Ba14  1  0.16478821  0.16478821  0.16478821  1
  Ba  Ba15  1  0.99827994  0.99827994  0.99827994  1
