# generated using pymatgen
data_Ca7Ge6
_symmetry_space_group_name_H-M   'P 1'
_cell_length_a   7.44057827
_cell_length_b   8.11037253
_cell_length_c   22.45828905
_cell_angle_alpha   90.00000000
_cell_angle_beta   90.00000000
_cell_angle_gamma   90.00000000
_symmetry_Int_Tables_number   1
_chemical_formula_structural   Ca7Ge6
_chemical_formula_sum   'Ca28 Ge24'
_cell_volume   1355.26480297
_cell_formula_units_Z   4
loop_
 _symmetry_equiv_pos_site_id
 _symmetry_equiv_pos_as_xyz
  1  'x, y, z'
loop_
 _atom_site_type_symbol
 _atom_site_label
 _atom_site_symmetry_multiplicity
 _atom_site_fract_x
 _atom_site_fract_y
 _atom_site_fract_z
 _atom_site_occupancy
  Ca  Ca0  1  0.01603841  0.17862911  0.83721303  1
  Ca  Ca1  1  0.51603841  0.32137089  0.66278697  1
  Ca  Ca2  1  0.48396159  0.67862911  0.16278697  1
  Ca  Ca3  1  0.98396159  0.82137089  0.33721303  1
  Ca  Ca4  1  0.98396159  0.82137089  0.16278697  1
  Ca  Ca5  1  0.48396159  0.67862911  0.33721303  1
  Ca  Ca6  1  0.51603841  0.32137089  0.83721303  1
  Ca  Ca7  1  0.01603841  0.17862911  0.66278697  1
  Ca  Ca8  1  0.85225817  0.68215803  0.85626649  1
  Ca  Ca9  1  0.35225817  0.81784197  0.64373351  1
  Ca  Ca10  1  0.64774183  0.18215803  0.14373351  1
  Ca  Ca11  1  0.14774183  0.31784197  0.35626649  1
  Ca  Ca12  1  0.14774183  0.31784197  0.14373351  1
  Ca  Ca13  1  0.64774183  0.18215803  0.35626649  1
  Ca  Ca14  1  0.35225817  0.81784197  0.85626649  1
  Ca  Ca15  1  0.85225817  0.68215803  0.64373351  1
  Ca  Ca16  1  0.66571244  0.82181836  0.48127073  1
  Ca  Ca17  1  0.16571244  0.67818164  0.01872927  1
  Ca  Ca18  1  0.83428756  0.32181836  0.51872927  1
  Ca  Ca19  1  0.33428756  0.17818164  0.98127073  1
  Ca  Ca20  1  0.33428756  0.17818164  0.51872927  1
  Ca  Ca21  1  0.83428756  0.32181836  0.98127073  1
  Ca  Ca22  1  0.16571244  0.67818164  0.48127073  1
  Ca  Ca23  1  0.66571244  0.82181836  0.01872927  1
  Ca  Ca24  1  0.68452555  0.98286336  0.75000000  1
  Ca  Ca25  1  0.18452555  0.51713664  0.75000000  1
  Ca  Ca26  1  0.81547445  0.48286336  0.25000000  1
  Ca  Ca27  1  0.31547445  0.01713664  0.25000000  1
  Ge  Ge28  1  0.99689375  0.95805158  0.94519628  1
  Ge  Ge29  1  0.49689375  0.54194842  0.55480372  1
  Ge  Ge30  1  0.50310625  0.45805158  0.05480372  1
  Ge  Ge31  1  0.00310625  0.04194842  0.44519628  1
  Ge  Ge32  1  0.00310625  0.04194842  0.05480372  1
  Ge  Ge33  1  0.50310625  0.45805158  0.44519628  1
  Ge  Ge34  1  0.49689375  0.54194842  0.94519628  1
  Ge  Ge35  1  0.99689375  0.95805158  0.55480372  1
  Ge  Ge36  1  0.81718112  0.52689518  0.40212362  1
  Ge  Ge37  1  0.31718112  0.97310482  0.09787638  1
  Ge  Ge38  1  0.68281888  0.02689518  0.59787638  1
  Ge  Ge39  1  0.18281888  0.47310482  0.90212362  1
  Ge  Ge40  1  0.18281888  0.47310482  0.59787638  1
  Ge  Ge41  1  0.68281888  0.02689518  0.90212362  1
  Ge  Ge42  1  0.31718112  0.97310482  0.40212362  1
  Ge  Ge43  1  0.81718112  0.52689518  0.09787638  1
  Ge  Ge44  1  0.80930715  0.39530853  0.75000000  1
  Ge  Ge45  1  0.30930715  0.10469147  0.75000000  1
  Ge  Ge46  1  0.69069285  0.89530853  0.25000000  1
  Ge  Ge47  1  0.19069285  0.60469147  0.25000000  1
  Ge  Ge48  1  0.57500406  0.62421733  0.75000000  1
  Ge  Ge49  1  0.07500406  0.87578267  0.75000000  1
  Ge  Ge50  1  0.92499594  0.12421733  0.25000000  1
  Ge  Ge51  1  0.42499594  0.37578267  0.25000000  1
