# generated using pymatgen
data_Ba2NaNb5O15
_symmetry_space_group_name_H-M   'P 1'
_cell_length_a   4.14390326
_cell_length_b   12.64543682
_cell_length_c   12.64543682
_cell_angle_alpha   90.00000000
_cell_angle_beta   90.00000000
_cell_angle_gamma   90.00000000
_symmetry_Int_Tables_number   1
_chemical_formula_structural   Ba2NaNb5O15
_chemical_formula_sum   'Ba4 Na2 Nb10 O30'
_cell_volume   662.63943849
_cell_formula_units_Z   2
loop_
 _symmetry_equiv_pos_site_id
 _symmetry_equiv_pos_as_xyz
  1  'x, y, z'
loop_
 _atom_site_type_symbol
 _atom_site_label
 _atom_site_symmetry_multiplicity
 _atom_site_fract_x
 _atom_site_fract_y
 _atom_site_fract_z
 _atom_site_occupancy
  O  O0  1  0.22498791  0.50000000  0.00000000  1
  O  O1  1  0.22498791  0.00000000  0.50000000  1
  O  O2  1  0.23126892  0.42208000  0.70423381  1
  O  O3  1  0.23126892  0.57792000  0.29576619  1
  O  O4  1  0.23126892  0.70423381  0.57792000  1
  O  O5  1  0.23126892  0.29576619  0.42208000  1
  O  O6  1  0.23126892  0.79576619  0.07792000  1
  O  O7  1  0.23126892  0.92208000  0.79576619  1
  O  O8  1  0.23126892  0.07792000  0.20423381  1
  O  O9  1  0.23126892  0.20423381  0.92208000  1
  O  O10  1  0.74202034  0.06834486  0.85861276  1
  O  O11  1  0.74202034  0.93165514  0.14138724  1
  O  O12  1  0.74202034  0.85861276  0.93165514  1
  O  O13  1  0.74202034  0.14138724  0.06834486  1
  O  O14  1  0.74202034  0.64138724  0.43165514  1
  O  O15  1  0.74202034  0.56834486  0.64138724  1
  O  O16  1  0.73127379  0.15676941  0.50598688  1
  O  O17  1  0.73127379  0.49401312  0.15676941  1
  O  O18  1  0.73127379  0.50598688  0.84323059  1
  O  O19  1  0.73127379  0.84323059  0.49401312  1
  O  O20  1  0.73127379  0.34323059  0.00598688  1
  O  O21  1  0.73127379  0.65676941  0.99401312  1
  O  O22  1  0.73127379  0.99401312  0.34323059  1
  O  O23  1  0.73127379  0.00598688  0.65676941  1
  O  O24  1  0.72356126  0.28119406  0.78119406  1
  O  O25  1  0.72356126  0.21880594  0.28119406  1
  O  O26  1  0.72356126  0.78119406  0.71880594  1
  O  O27  1  0.72356126  0.71880594  0.21880594  1
  O  O28  1  0.74202034  0.35861276  0.56834486  1
  O  O29  1  0.74202034  0.43165514  0.35861276  1
  Na  Na30  1  0.13578122  0.50000000  0.50000000  1
  Na  Na31  1  0.13578122  0.00000000  0.00000000  1
  Nb  Nb32  1  0.67161003  0.50000000  0.00000000  1
  Nb  Nb33  1  0.67161003  0.00000000  0.50000000  1
  Nb  Nb34  1  0.67732961  0.92422173  0.79173222  1
  Nb  Nb35  1  0.67732961  0.07577827  0.20826778  1
  Nb  Nb36  1  0.67732961  0.79173222  0.07577827  1
  Nb  Nb37  1  0.67732961  0.20826778  0.92422173  1
  Nb  Nb38  1  0.67732961  0.70826778  0.57577827  1
  Nb  Nb39  1  0.67732961  0.42422173  0.70826778  1
  Nb  Nb40  1  0.67732961  0.57577827  0.29173222  1
  Nb  Nb41  1  0.67732961  0.29173222  0.42422173  1
  Ba  Ba42  1  0.18301384  0.82943146  0.32943146  1
  Ba  Ba43  1  0.18301384  0.67056854  0.82943146  1
  Ba  Ba44  1  0.18301384  0.32943146  0.17056854  1
  Ba  Ba45  1  0.18301384  0.17056854  0.67056854  1
