# generated using pymatgen
data_K2Si3SnO9
_symmetry_space_group_name_H-M   'P 1'
_cell_length_a   6.96851205
_cell_length_b   6.96851205
_cell_length_c   10.17068260
_cell_angle_alpha   90.00000000
_cell_angle_beta   90.00000000
_cell_angle_gamma   119.99999997
_symmetry_Int_Tables_number   1
_chemical_formula_structural   K2Si3SnO9
_chemical_formula_sum   'K4 Si6 Sn2 O18'
_cell_volume   427.72126602
_cell_formula_units_Z   2
loop_
 _symmetry_equiv_pos_site_id
 _symmetry_equiv_pos_as_xyz
  1  'x, y, z'
loop_
 _atom_site_type_symbol
 _atom_site_label
 _atom_site_symmetry_multiplicity
 _atom_site_fract_x
 _atom_site_fract_y
 _atom_site_fract_z
 _atom_site_occupancy
  O  O0  1  0.25553695  0.23669165  0.38643654  1
  O  O1  1  0.01884531  0.25553695  0.88643654  1
  O  O2  1  0.23669165  0.98115469  0.88643654  1
  O  O3  1  0.76330835  0.01884531  0.38643654  1
  O  O4  1  0.98115469  0.74446305  0.38643654  1
  O  O5  1  0.74446305  0.76330835  0.88643654  1
  O  O6  1  0.74446305  0.76330835  0.61356346  1
  O  O7  1  0.98115469  0.74446305  0.11356346  1
  O  O8  1  0.76330835  0.01884531  0.11356346  1
  O  O9  1  0.23669165  0.98115469  0.61356346  1
  O  O10  1  0.01884531  0.25553695  0.61356346  1
  O  O11  1  0.25553695  0.23669165  0.11356346  1
  O  O12  1  0.48745021  0.08614524  0.25000000  1
  O  O13  1  0.40130496  0.48745021  0.75000000  1
  O  O14  1  0.08614524  0.59869504  0.75000000  1
  O  O15  1  0.91385476  0.40130496  0.25000000  1
  O  O16  1  0.59869504  0.51254979  0.25000000  1
  O  O17  1  0.51254979  0.91385476  0.75000000  1
  Si  Si18  1  0.61715267  0.74588289  0.75000000  1
  Si  Si19  1  0.87126978  0.61715267  0.25000000  1
  Si  Si20  1  0.74588289  0.12873022  0.25000000  1
  Si  Si21  1  0.25411711  0.87126978  0.75000000  1
  Si  Si22  1  0.12873022  0.38284733  0.75000000  1
  Si  Si23  1  0.38284733  0.25411711  0.25000000  1
  K  K24  1  0.33333333  0.66666667  0.05675278  1
  K  K25  1  0.66666667  0.33333333  0.55675278  1
  K  K26  1  0.33333333  0.66666667  0.44324722  1
  K  K27  1  0.66666667  0.33333333  0.94324722  1
  Sn  Sn28  1  0.00000000  0.00000000  0.00000000  1
  Sn  Sn29  1  0.00000000  0.00000000  0.50000000  1
