# generated using pymatgen
data_SiO2
_symmetry_space_group_name_H-M   'P 1'
_cell_length_a   7.74834033
_cell_length_b   11.65287538
_cell_length_c   11.65287537
_cell_angle_alpha   71.69414112
_cell_angle_beta   80.45049168
_cell_angle_gamma   80.45049166
_symmetry_Int_Tables_number   1
_chemical_formula_structural   SiO2
_chemical_formula_sum   'Si16 O32'
_cell_volume   977.75280418
_cell_formula_units_Z   16
loop_
 _symmetry_equiv_pos_site_id
 _symmetry_equiv_pos_as_xyz
  1  'x, y, z'
loop_
 _atom_site_type_symbol
 _atom_site_label
 _atom_site_symmetry_multiplicity
 _atom_site_fract_x
 _atom_site_fract_y
 _atom_site_fract_z
 _atom_site_occupancy
  O  O0  1  0.75093114  0.33277148  0.04801694  1
  O  O1  1  0.24906886  0.95198306  0.66722852  1
  O  O2  1  0.24906886  0.66722852  0.95198306  1
  O  O3  1  0.75093114  0.04801694  0.33277148  1
  O  O4  1  0.76686598  0.11107173  0.73793295  1
  O  O5  1  0.23313402  0.26206705  0.88892827  1
  O  O6  1  0.23313402  0.88892827  0.26206705  1
  O  O7  1  0.76686598  0.73793295  0.11107173  1
  O  O8  1  0.91976900  0.65808354  0.92281254  1
  O  O9  1  0.08023100  0.07718746  0.34191646  1
  O  O10  1  0.08023100  0.34191646  0.07718746  1
  O  O11  1  0.91976900  0.92281254  0.65808354  1
  O  O12  1  0.18012801  0.49842585  0.86246534  1
  O  O13  1  0.81987199  0.13753466  0.50157415  1
  O  O14  1  0.81987199  0.50157415  0.13753466  1
  O  O15  1  0.18012801  0.86246534  0.49842585  1
  O  O16  1  0.54647606  0.15762977  0.15762977  1
  O  O17  1  0.45352394  0.84237023  0.84237023  1
  O  O18  1  0.00000000  0.87126127  0.12873873  1
  O  O19  1  0.00000000  0.12873873  0.87126127  1
  O  O20  1  0.42016288  0.99964619  0.35822602  1
  O  O21  1  0.57983712  0.64177398  0.00035381  1
  O  O22  1  0.57983712  0.00035381  0.64177398  1
  O  O23  1  0.42016288  0.35822602  0.99964619  1
  O  O24  1  0.66232401  0.92077317  0.20303096  1
  O  O25  1  0.33767599  0.79696904  0.07922683  1
  O  O26  1  0.33767599  0.07922683  0.79696904  1
  O  O27  1  0.66232401  0.20303096  0.92077317  1
  O  O28  1  0.77339115  0.96482858  0.96482858  1
  O  O29  1  0.22660885  0.03517142  0.03517142  1
  O  O30  1  0.15164232  0.72788580  0.72788580  1
  O  O31  1  0.84835768  0.27211420  0.27211420  1
  Si  Si32  1  0.22769094  0.36458436  0.95750622  1
  Si  Si33  1  0.77230906  0.04249378  0.63541564  1
  Si  Si34  1  0.77230906  0.63541564  0.04249378  1
  Si  Si35  1  0.22769094  0.95750622  0.36458436  1
  Si  Si36  1  0.12546191  0.63832777  0.86633328  1
  Si  Si37  1  0.87453809  0.13366672  0.36167223  1
  Si  Si38  1  0.87453809  0.36167223  0.13366672  1
  Si  Si39  1  0.12546191  0.86633328  0.63832777  1
  Si  Si40  1  0.80097391  0.10153466  0.87410180  1
  Si  Si41  1  0.19902609  0.12589820  0.89846534  1
  Si  Si42  1  0.19902609  0.89846534  0.12589820  1
  Si  Si43  1  0.80097391  0.87410180  0.10153466  1
  Si  Si44  1  0.59580443  0.26288766  0.03178703  1
  Si  Si45  1  0.40419557  0.96821297  0.73711234  1
  Si  Si46  1  0.40419557  0.73711234  0.96821297  1
  Si  Si47  1  0.59580443  0.03178703  0.26288766  1
