# generated using pymatgen
data_Ta3Ge
_symmetry_space_group_name_H-M   'P 1'
_cell_length_a   5.19770902
_cell_length_b   7.80412902
_cell_length_c   7.80412902
_cell_angle_alpha   83.63304359
_cell_angle_beta   70.54841588
_cell_angle_gamma   70.54841584
_symmetry_Int_Tables_number   1
_chemical_formula_structural   Ta3Ge
_chemical_formula_sum   'Ta12 Ge4'
_cell_volume   281.45794478
_cell_formula_units_Z   4
loop_
 _symmetry_equiv_pos_site_id
 _symmetry_equiv_pos_as_xyz
  1  'x, y, z'
loop_
 _atom_site_type_symbol
 _atom_site_label
 _atom_site_symmetry_multiplicity
 _atom_site_fract_x
 _atom_site_fract_y
 _atom_site_fract_z
 _atom_site_occupancy
  Ge  Ge0  1  0.19229100  0.26518082  0.31650244  1
  Ge  Ge1  1  0.49120656  0.31650244  0.73481918  1
  Ge  Ge2  1  0.54252819  0.68349756  0.26518082  1
  Ge  Ge3  1  0.77397425  0.73481918  0.68349756  1
  Ta  Ta4  1  0.33970576  0.65870480  0.63233287  1
  Ta  Ta5  1  0.02796137  0.63233287  0.34129520  1
  Ta  Ta6  1  0.00158944  0.36766713  0.65870480  1
  Ta  Ta7  1  0.63074343  0.34129520  0.36766713  1
  Ta  Ta8  1  0.95149196  0.02359308  0.59495915  1
  Ta  Ta9  1  0.45354889  0.59495915  0.97640692  1
  Ta  Ta10  1  0.02491496  0.40504085  0.02359308  1
  Ta  Ta11  1  0.57004419  0.97640692  0.40504085  1
  Ta  Ta12  1  0.14427233  0.98450879  0.18242449  1
  Ta  Ta13  1  0.67330318  0.18242449  0.01549121  1
  Ta  Ta14  1  0.87121888  0.81757551  0.98450879  1
  Ta  Ta15  1  0.31120561  0.01549121  0.81757551  1
