# generated using pymatgen
data_Mn(FeO2)2
_symmetry_space_group_name_H-M   'P 1'
_cell_length_a   6.14464236
_cell_length_b   6.14464236
_cell_length_c   6.14464236
_cell_angle_alpha   60.00000001
_cell_angle_beta   60.00000000
_cell_angle_gamma   60.00000001
_symmetry_Int_Tables_number   1
_chemical_formula_structural   Mn(FeO2)2
_chemical_formula_sum   'Mn2 Fe4 O8'
_cell_volume   164.04947078
_cell_formula_units_Z   2
loop_
 _symmetry_equiv_pos_site_id
 _symmetry_equiv_pos_as_xyz
  1  'x, y, z'
loop_
 _atom_site_type_symbol
 _atom_site_label
 _atom_site_symmetry_multiplicity
 _atom_site_fract_x
 _atom_site_fract_y
 _atom_site_fract_z
 _atom_site_occupancy
  O  O0  1  0.73635322  0.73635355  0.73635444  1
  O  O1  1  0.26364523  0.26364643  0.70906216  1
  O  O2  1  0.26364650  0.70906172  0.26364564  1
  O  O3  1  0.70906235  0.26364643  0.26364536  1
  O  O4  1  0.73635393  0.29093826  0.73635349  1
  O  O5  1  0.29093809  0.73635355  0.73635377  1
  O  O6  1  0.26364523  0.26364643  0.26364568  1
  O  O7  1  0.73635322  0.73635355  0.29093796  1
  Mn  Mn8  1  0.12500071  0.12500026  0.12499943  1
  Mn  Mn9  1  0.87499972  0.87499972  0.87499970  1
  Fe  Fe10  1  0.49999888  0.50000104  0.49999971  1
  Fe  Fe11  1  0.49999888  0.50000104  0.99999988  1
  Fe  Fe12  1  0.00000045  0.50000104  0.49999901  1
  Fe  Fe13  1  0.50000041  0.00000000  0.49999955  1
