# generated using pymatgen
data_Pr5Ge4
_symmetry_space_group_name_H-M   'P 1'
_cell_length_a   8.01725113
_cell_length_b   8.11065605
_cell_length_c   15.35813518
_cell_angle_alpha   90.00000000
_cell_angle_beta   90.00000000
_cell_angle_gamma   90.00000000
_symmetry_Int_Tables_number   1
_chemical_formula_structural   Pr5Ge4
_chemical_formula_sum   'Pr20 Ge16'
_cell_volume   998.66529540
_cell_formula_units_Z   4
loop_
 _symmetry_equiv_pos_site_id
 _symmetry_equiv_pos_as_xyz
  1  'x, y, z'
loop_
 _atom_site_type_symbol
 _atom_site_label
 _atom_site_symmetry_multiplicity
 _atom_site_fract_x
 _atom_site_fract_y
 _atom_site_fract_z
 _atom_site_occupancy
  Ge  Ge0  1  0.77757420  0.53193508  0.45495788  1
  Ge  Ge1  1  0.27757420  0.96806492  0.04504212  1
  Ge  Ge2  1  0.72242580  0.03193508  0.54504212  1
  Ge  Ge3  1  0.22242580  0.46806492  0.95495788  1
  Ge  Ge4  1  0.22242580  0.46806492  0.54504212  1
  Ge  Ge5  1  0.72242580  0.03193508  0.95495788  1
  Ge  Ge6  1  0.27757420  0.96806492  0.45495788  1
  Ge  Ge7  1  0.77757420  0.53193508  0.04504212  1
  Ge  Ge8  1  0.91044688  0.89139181  0.25000000  1
  Ge  Ge9  1  0.41044688  0.60860819  0.25000000  1
  Ge  Ge10  1  0.58955312  0.39139181  0.75000000  1
  Ge  Ge11  1  0.08955312  0.10860819  0.75000000  1
  Ge  Ge12  1  0.17532421  0.36767557  0.25000000  1
  Ge  Ge13  1  0.67532421  0.13232443  0.25000000  1
  Ge  Ge14  1  0.32467579  0.86767557  0.75000000  1
  Ge  Ge15  1  0.82467579  0.63232443  0.75000000  1
  Pr  Pr16  1  0.38029794  0.16005833  0.88566855  1
  Pr  Pr17  1  0.88029794  0.33994167  0.61433145  1
  Pr  Pr18  1  0.11970206  0.66005833  0.11433145  1
  Pr  Pr19  1  0.61970206  0.83994167  0.38566855  1
  Pr  Pr20  1  0.38029794  0.16005833  0.61433145  1
  Pr  Pr21  1  0.88029794  0.33994167  0.88566855  1
  Pr  Pr22  1  0.11970206  0.66005833  0.38566855  1
  Pr  Pr23  1  0.61970206  0.83994167  0.11433145  1
  Pr  Pr24  1  0.02464736  0.82099809  0.60276677  1
  Pr  Pr25  1  0.52464736  0.67900191  0.89723323  1
  Pr  Pr26  1  0.47535264  0.32099809  0.39723323  1
  Pr  Pr27  1  0.97535264  0.17900191  0.10276677  1
  Pr  Pr28  1  0.97535264  0.17900191  0.39723323  1
  Pr  Pr29  1  0.47535264  0.32099809  0.10276677  1
  Pr  Pr30  1  0.52464736  0.67900191  0.60276677  1
  Pr  Pr31  1  0.02464736  0.82099809  0.89723323  1
  Pr  Pr32  1  0.28505779  0.99725201  0.25000000  1
  Pr  Pr33  1  0.78505779  0.50274799  0.25000000  1
  Pr  Pr34  1  0.21494221  0.49725201  0.75000000  1
  Pr  Pr35  1  0.71494221  0.00274799  0.75000000  1
