# generated using pymatgen
data_Na3MoNO3
_symmetry_space_group_name_H-M   'P 1'
_cell_length_a   5.70763581
_cell_length_b   6.29386040
_cell_length_c   7.35565022
_cell_angle_alpha   90.00000000
_cell_angle_beta   90.00000000
_cell_angle_gamma   90.00000000
_symmetry_Int_Tables_number   1
_chemical_formula_structural   Na3MoNO3
_chemical_formula_sum   'Na6 Mo2 N2 O6'
_cell_volume   264.23748628
_cell_formula_units_Z   2
loop_
 _symmetry_equiv_pos_site_id
 _symmetry_equiv_pos_as_xyz
  1  'x, y, z'
loop_
 _atom_site_type_symbol
 _atom_site_label
 _atom_site_symmetry_multiplicity
 _atom_site_fract_x
 _atom_site_fract_y
 _atom_site_fract_z
 _atom_site_occupancy
  N  N0  1  0.69570476  0.17627534  0.00000000  1
  N  N1  1  0.19570476  0.82372466  0.50000000  1
  O  O2  1  0.60348038  0.68646380  0.70924538  1
  O  O3  1  0.10348038  0.31353620  0.79075462  1
  O  O4  1  0.10348038  0.31353620  0.20924538  1
  O  O5  1  0.60348038  0.68646380  0.29075462  1
  O  O6  1  0.10128472  0.89046635  0.00000000  1
  O  O7  1  0.60128472  0.10953365  0.50000000  1
  Na  Na8  1  0.51221328  0.83533537  0.00000000  1
  Na  Na9  1  0.51016897  0.32831695  0.25542198  1
  Na  Na10  1  0.51016897  0.32831695  0.74457802  1
  Na  Na11  1  0.01016897  0.67168305  0.75542198  1
  Na  Na12  1  0.01221328  0.16466463  0.50000000  1
  Na  Na13  1  0.01016897  0.67168305  0.24457802  1
  Mo  Mo14  1  0.50259855  0.82714463  0.50000000  1
  Mo  Mo15  1  0.00259855  0.17285537  0.00000000  1
