# generated using pymatgen
data_VFeO4
_symmetry_space_group_name_H-M   'P 1'
_cell_length_a   5.09648635
_cell_length_b   5.09648635
_cell_length_c   6.25164842
_cell_angle_alpha   90.00000000
_cell_angle_beta   90.00000000
_cell_angle_gamma   112.09375672
_symmetry_Int_Tables_number   1
_chemical_formula_structural   VFeO4
_chemical_formula_sum   'V2 Fe2 O8'
_cell_volume   150.45767075
_cell_formula_units_Z   2
loop_
 _symmetry_equiv_pos_site_id
 _symmetry_equiv_pos_as_xyz
  1  'x, y, z'
loop_
 _atom_site_type_symbol
 _atom_site_label
 _atom_site_symmetry_multiplicity
 _atom_site_fract_x
 _atom_site_fract_y
 _atom_site_fract_z
 _atom_site_occupancy
  O  O0  1  0.73938445  0.78847099  0.74999953  1
  O  O1  1  0.26061532  0.21152978  0.25000041  1
  O  O2  1  0.78847240  0.73938529  0.25000041  1
  O  O3  1  0.21152939  0.26061551  0.74999953  1
  O  O4  1  0.23525863  0.76474380  0.96626676  1
  O  O5  1  0.76474316  0.23525700  0.46626764  1
  O  O6  1  0.23525863  0.76474380  0.53373230  1
  O  O7  1  0.76474316  0.23525700  0.03373317  1
  V  V8  1  0.64440128  0.35559752  0.25000041  1
  V  V9  1  0.35559766  0.64440107  0.74999953  1
  Fe  Fe10  1  0.00000000  0.00000000  0.50000081  1
  Fe  Fe11  1  0.00000000  0.00000000  0.00000000  1
