# generated using pymatgen
data_Ba2Co(BO2)6
_symmetry_space_group_name_H-M   'P 1'
_cell_length_a   7.02122125
_cell_length_b   7.03606694
_cell_length_c   7.03273517
_cell_angle_alpha   61.16995898
_cell_angle_beta   61.12668545
_cell_angle_gamma   61.14301761
_symmetry_Int_Tables_number   1
_chemical_formula_structural   Ba2Co(BO2)6
_chemical_formula_sum   'Ba2 Co1 B6 O12'
_cell_volume   252.00813756
_cell_formula_units_Z   1
loop_
 _symmetry_equiv_pos_site_id
 _symmetry_equiv_pos_as_xyz
  1  'x, y, z'
loop_
 _atom_site_type_symbol
 _atom_site_label
 _atom_site_symmetry_multiplicity
 _atom_site_fract_x
 _atom_site_fract_y
 _atom_site_fract_z
 _atom_site_occupancy
  Ba  Ba0  1  0.20848725  0.20849012  0.20867135  1
  O  O1  1  0.80446642  0.42723120  0.53579538  1
  O  O2  1  0.08402298  0.31464140  0.84044849  1
  B  B3  1  0.75696205  0.64450855  0.36553365  1
  O  O4  1  0.19553382  0.57276902  0.46420442  1
  O  O5  1  0.31354422  0.84011217  0.08529826  1
  O  O6  1  0.53635837  0.80371696  0.42744956  1
  O  O7  1  0.46364147  0.19628302  0.57255055  1
  B  B8  1  0.24303820  0.35549181  0.63446621  1
  B  B9  1  0.35483050  0.63423925  0.24379965  1
  O  O10  1  0.84049602  0.08462450  0.31442709  1
  B  B11  1  0.64516953  0.36576078  0.75620064  1
  B  B12  1  0.63444933  0.24379447  0.35507544  1
  O  O13  1  0.68645541  0.15988746  0.91470232  1
  Co  Co14  1  0.99999969  0.00000028  0.99999989  1
  O  O15  1  0.91597722  0.68535855  0.15955160  1
  O  O16  1  0.42747653  0.53611942  0.80405551  1
  Ba  Ba17  1  0.79151274  0.79150863  0.79132755  1
  B  B18  1  0.36555069  0.75620572  0.64492450  1
  O  O19  1  0.15950451  0.91537543  0.68557333  1
  O  O20  1  0.57252304  0.46388125  0.19594463  1
