# generated using pymatgen
data_LiFePO4
_symmetry_space_group_name_H-M   'P 1'
_cell_length_a   18.71739696
_cell_length_b   5.61588570
_cell_length_c   8.38131139
_cell_angle_alpha   90.00000000
_cell_angle_beta   90.00000000
_cell_angle_gamma   90.00000000
_symmetry_Int_Tables_number   1
_chemical_formula_structural   LiFePO4
_chemical_formula_sum   'Li12 Fe12 P12 O48'
_cell_volume   880.99955141
_cell_formula_units_Z   12
loop_
 _symmetry_equiv_pos_site_id
 _symmetry_equiv_pos_as_xyz
  1  'x, y, z'
loop_
 _atom_site_type_symbol
 _atom_site_label
 _atom_site_symmetry_multiplicity
 _atom_site_fract_x
 _atom_site_fract_y
 _atom_site_fract_z
 _atom_site_occupancy
  Li  Li0  1  0.08314546  0.23804825  0.08573037  1
  Li  Li1  1  0.08355779  0.73462470  0.58615884  1
  Li  Li2  1  0.24978968  0.23479108  0.41243545  1
  Li  Li3  1  0.25021032  0.73479108  0.91243545  1
  Li  Li4  1  0.41644121  0.23462470  0.08615884  1
  Li  Li5  1  0.41685454  0.73804825  0.58573037  1
  Li  Li6  1  0.58314546  0.23804825  0.41426963  1
  Li  Li7  1  0.58355879  0.73462470  0.91384116  1
  Li  Li8  1  0.74978968  0.23479108  0.08756455  1
  Li  Li9  1  0.75021032  0.73479108  0.58756455  1
  Li  Li10  1  0.91644121  0.23462470  0.41384116  1
  Li  Li11  1  0.91685454  0.73804825  0.91426963  1
  Fe  Fe12  1  0.00001954  0.73596824  0.25025120  1
  Fe  Fe13  1  0.16668901  0.73622650  0.24894547  1
  Fe  Fe14  1  0.16666209  0.23566315  0.74919226  1
  Fe  Fe15  1  0.33333791  0.73566315  0.24919226  1
  Fe  Fe16  1  0.33331099  0.23622650  0.74894547  1
  Fe  Fe17  1  0.49998046  0.23596824  0.75025120  1
  Fe  Fe18  1  0.50001954  0.73596824  0.24974880  1
  Fe  Fe19  1  0.66668901  0.73622650  0.25105453  1
  Fe  Fe20  1  0.66666209  0.23566315  0.75080774  1
  Fe  Fe21  1  0.83333791  0.73566315  0.25080774  1
  Fe  Fe22  1  0.83331099  0.23622650  0.75105453  1
  Fe  Fe23  1  0.99998046  0.23596824  0.74974880  1
  P  P24  1  0.08317347  0.23581514  0.39998049  1
  P  P25  1  0.08341458  0.73588413  0.90017363  1
  P  P26  1  0.24992387  0.23602312  0.09839665  1
  P  P27  1  0.25007613  0.73602312  0.59839665  1
  P  P28  1  0.41658542  0.23588413  0.40017363  1
  P  P29  1  0.41682653  0.73581514  0.89998049  1
  P  P30  1  0.58317347  0.23581514  0.10001951  1
  P  P31  1  0.58341458  0.73588413  0.59982637  1
  P  P32  1  0.74992387  0.23602312  0.40160335  1
  P  P33  1  0.75007613  0.73602312  0.90160335  1
  P  P34  1  0.91658542  0.23588413  0.09982637  1
  P  P35  1  0.91682653  0.73581514  0.60001951  1
  O  O36  1  0.01528334  0.23555797  0.50382963  1
  O  O37  1  0.01564790  0.73574758  0.00441077  1
  O  O38  1  0.08322341  0.45885964  0.28607152  1
  O  O39  1  0.08329953  0.95837760  0.78590189  1
  O  O40  1  0.08333443  0.51287081  0.78621053  1
  O  O41  1  0.08325124  0.01340455  0.28562816  1
  O  O42  1  0.15112402  0.23587276  0.50370757  1
  O  O43  1  0.15149178  0.73589329  0.00345511  1
  O  O44  1  0.18195605  0.23623862  0.99478724  1
  O  O45  1  0.18218420  0.73607858  0.49453414  1
  O  O46  1  0.24998264  0.01322700  0.21246461  1
  O  O47  1  0.24997756  0.45866928  0.21259330  1
  O  O48  1  0.25002244  0.95866928  0.71259330  1
  O  O49  1  0.25001736  0.51322700  0.71246461  1
  O  O50  1  0.31781580  0.23607858  0.99453414  1
  O  O51  1  0.31804395  0.73623862  0.49478724  1
  O  O52  1  0.34850822  0.23589329  0.50345511  1
  O  O53  1  0.34887598  0.73587276  0.00370757  1
  O  O54  1  0.41674876  0.51340455  0.78562816  1
  O  O55  1  0.41666557  0.01287081  0.28621053  1
  O  O56  1  0.41670047  0.45837760  0.28590189  1
  O  O57  1  0.41677659  0.95885964  0.78607152  1
  O  O58  1  0.48435210  0.23574758  0.50441077  1
  O  O59  1  0.48471666  0.73555797  0.00382963  1
  O  O60  1  0.51528334  0.23555797  0.99617037  1
  O  O61  1  0.51564790  0.73574758  0.49558923  1
  O  O62  1  0.58322341  0.45885964  0.21392848  1
  O  O63  1  0.58329953  0.95837760  0.71409811  1
  O  O64  1  0.58333443  0.51287081  0.71378947  1
  O  O65  1  0.58325124  0.01340455  0.21437184  1
  O  O66  1  0.65112402  0.23587276  0.99629243  1
  O  O67  1  0.65149178  0.73589329  0.49654489  1
  O  O68  1  0.68195605  0.23623862  0.50521276  1
  O  O69  1  0.68218420  0.73607858  0.00546586  1
  O  O70  1  0.74998264  0.01322700  0.28753539  1
  O  O71  1  0.74997756  0.45866928  0.28740670  1
  O  O72  1  0.75002244  0.95866928  0.78740670  1
  O  O73  1  0.75001736  0.51322700  0.78753539  1
  O  O74  1  0.81781580  0.23607858  0.50546586  1
  O  O75  1  0.81804395  0.73623862  0.00521276  1
  O  O76  1  0.84850822  0.23589329  0.99654489  1
  O  O77  1  0.84887598  0.73587276  0.49629243  1
  O  O78  1  0.91674876  0.51340455  0.71437184  1
  O  O79  1  0.91666557  0.01287081  0.21378947  1
  O  O80  1  0.91670047  0.45837760  0.21409811  1
  O  O81  1  0.91677659  0.95885964  0.71392848  1
  O  O82  1  0.98435210  0.23574758  0.99558923  1
  O  O83  1  0.98471666  0.73555797  0.49617037  1
