# generated using pymatgen
data_CsZnPO4
_symmetry_space_group_name_H-M   'P 1'
_cell_length_a   5.58651977
_cell_length_b   9.19528566
_cell_length_c   9.77019215
_cell_angle_alpha   90.00000000
_cell_angle_beta   90.00000000
_cell_angle_gamma   90.00000000
_symmetry_Int_Tables_number   1
_chemical_formula_structural   CsZnPO4
_chemical_formula_sum   'Cs4 Zn4 P4 O16'
_cell_volume   501.89130360
_cell_formula_units_Z   4
loop_
 _symmetry_equiv_pos_site_id
 _symmetry_equiv_pos_as_xyz
  1  'x, y, z'
loop_
 _atom_site_type_symbol
 _atom_site_label
 _atom_site_symmetry_multiplicity
 _atom_site_fract_x
 _atom_site_fract_y
 _atom_site_fract_z
 _atom_site_occupancy
  O  O0  1  0.97452173  0.75768099  0.98753098  1
  O  O1  1  0.47452173  0.24231901  0.01246902  1
  O  O2  1  0.52547827  0.25768099  0.51246902  1
  O  O3  1  0.02547827  0.74231901  0.48753098  1
  O  O4  1  0.02547827  0.24231901  0.01246902  1
  O  O5  1  0.52547827  0.75768099  0.98753098  1
  O  O6  1  0.47452173  0.74231901  0.48753098  1
  O  O7  1  0.97452173  0.25768099  0.51246902  1
  O  O8  1  0.25000000  0.19580940  0.79485766  1
  O  O9  1  0.75000000  0.80419060  0.20514234  1
  O  O10  1  0.25000000  0.69580940  0.70514234  1
  O  O11  1  0.75000000  0.30419060  0.29485766  1
  O  O12  1  0.75000000  0.04896845  0.39472233  1
  O  O13  1  0.25000000  0.95103155  0.60527767  1
  O  O14  1  0.75000000  0.54896845  0.10527767  1
  O  O15  1  0.25000000  0.45103155  0.89472233  1
  P  P16  1  0.25000000  0.28745391  0.92737609  1
  P  P17  1  0.75000000  0.71254609  0.07262391  1
  P  P18  1  0.25000000  0.78745391  0.57262391  1
  P  P19  1  0.75000000  0.21254609  0.42737609  1
  Zn  Zn20  1  0.25000000  0.66241887  0.90431238  1
  Zn  Zn21  1  0.75000000  0.33758113  0.09568762  1
  Zn  Zn22  1  0.25000000  0.16241887  0.59568762  1
  Zn  Zn23  1  0.75000000  0.83758113  0.40431238  1
  Cs  Cs24  1  0.25000000  0.48776747  0.30939727  1
  Cs  Cs25  1  0.75000000  0.51223253  0.69060273  1
  Cs  Cs26  1  0.25000000  0.98776747  0.19060273  1
  Cs  Cs27  1  0.75000000  0.01223253  0.80939727  1
