# generated using pymatgen
data_LiAl(MoO4)2
_symmetry_space_group_name_H-M   'P 1'
_cell_length_a   6.72594906
_cell_length_b   7.13332693
_cell_length_c   7.36219545
_cell_angle_alpha   90.98247518
_cell_angle_beta   110.85626970
_cell_angle_gamma   105.00336430
_symmetry_Int_Tables_number   1
_chemical_formula_structural   LiAl(MoO4)2
_chemical_formula_sum   'Li2 Al2 Mo4 O16'
_cell_volume   316.48268329
_cell_formula_units_Z   2
loop_
 _symmetry_equiv_pos_site_id
 _symmetry_equiv_pos_as_xyz
  1  'x, y, z'
loop_
 _atom_site_type_symbol
 _atom_site_label
 _atom_site_symmetry_multiplicity
 _atom_site_fract_x
 _atom_site_fract_y
 _atom_site_fract_z
 _atom_site_occupancy
  Li  Li0  1  0.73480426  0.55455632  0.25216910  1
  Li  Li1  1  0.26519574  0.44544368  0.74783090  1
  O  O2  1  0.81236780  0.86795006  0.21945701  1
  O  O3  1  0.18763220  0.13204994  0.78054299  1
  O  O4  1  0.92586200  0.84885132  0.89267137  1
  O  O5  1  0.07413800  0.15114868  0.10732863  1
  O  O6  1  0.58904816  0.48678382  0.83079937  1
  O  O7  1  0.41095184  0.51321618  0.16920063  1
  O  O8  1  0.24277033  0.42129036  0.45877172  1
  O  O9  1  0.75722967  0.57870964  0.54122828  1
  O  O10  1  0.75837318  0.04072683  0.55051645  1
  O  O11  1  0.24162682  0.95927317  0.44948355  1
  O  O12  1  0.77399803  0.27146654  0.23930286  1
  O  O13  1  0.22600197  0.72853346  0.76069714  1
  O  O14  1  0.02140940  0.62425013  0.15112884  1
  O  O15  1  0.97859060  0.37574987  0.84887116  1
  O  O16  1  0.37833245  0.94323725  0.16467156  1
  O  O17  1  0.62166755  0.05676275  0.83532844  1
  Al  Al18  1  0.08861922  0.90042051  0.17570986  1
  Al  Al19  1  0.91138078  0.09957949  0.82429014  1
  Mo  Mo20  1  0.83573753  0.57868090  0.79316185  1
  Mo  Mo21  1  0.16426247  0.42131910  0.20683815  1
  Mo  Mo22  1  0.32331045  0.96929907  0.71079876  1
  Mo  Mo23  1  0.67668955  0.03070093  0.28920124  1
