# generated using pymatgen
data_Ce3Al
_symmetry_space_group_name_H-M   'P 1'
_cell_length_a   6.71115235
_cell_length_b   6.71115236
_cell_length_c   5.27843590
_cell_angle_alpha   90.00000000
_cell_angle_beta   90.00000000
_cell_angle_gamma   120.00000001
_symmetry_Int_Tables_number   1
_chemical_formula_structural   Ce3Al
_chemical_formula_sum   'Ce6 Al2'
_cell_volume   205.88754723
_cell_formula_units_Z   2
loop_
 _symmetry_equiv_pos_site_id
 _symmetry_equiv_pos_as_xyz
  1  'x, y, z'
loop_
 _atom_site_type_symbol
 _atom_site_label
 _atom_site_symmetry_multiplicity
 _atom_site_fract_x
 _atom_site_fract_y
 _atom_site_fract_z
 _atom_site_occupancy
  Al  Al0  1  0.33333333  0.66666667  0.25000000  1
  Al  Al1  1  0.66666667  0.33333333  0.75000000  1
  Ce  Ce2  1  0.81628326  0.63256653  0.25000000  1
  Ce  Ce3  1  0.18371674  0.81628326  0.75000000  1
  Ce  Ce4  1  0.63256653  0.81628326  0.75000000  1
  Ce  Ce5  1  0.36743347  0.18371674  0.25000000  1
  Ce  Ce6  1  0.81628326  0.18371674  0.25000000  1
  Ce  Ce7  1  0.18371674  0.36743347  0.75000000  1
