# generated using pymatgen
data_LiLa4CuO8
_symmetry_space_group_name_H-M   'P 1'
_cell_length_a   5.31234475
_cell_length_b   5.30500339
_cell_length_c   7.11242345
_cell_angle_alpha   90.00000000
_cell_angle_beta   111.92887440
_cell_angle_gamma   90.00000000
_symmetry_Int_Tables_number   1
_chemical_formula_structural   LiLa4CuO8
_chemical_formula_sum   'Li1 La4 Cu1 O8'
_cell_volume   185.93999439
_cell_formula_units_Z   1
loop_
 _symmetry_equiv_pos_site_id
 _symmetry_equiv_pos_as_xyz
  1  'x, y, z'
loop_
 _atom_site_type_symbol
 _atom_site_label
 _atom_site_symmetry_multiplicity
 _atom_site_fract_x
 _atom_site_fract_y
 _atom_site_fract_z
 _atom_site_occupancy
  Li  Li0  1  0.50000000  0.50000000  0.00000000  1
  O  O1  1  0.75702605  0.75509082  0.00000000  1
  O  O2  1  0.18618473  0.00000000  0.37236945  1
  O  O3  1  0.81381527  0.00000000  0.62763055  1
  O  O4  1  0.32055629  0.50000000  0.64111259  1
  O  O5  1  0.67944371  0.50000000  0.35888741  1
  O  O6  1  0.24297395  0.24490918  0.00000000  1
  O  O7  1  0.24297395  0.75509082  0.00000000  1
  O  O8  1  0.75702605  0.24490918  0.00000000  1
  Cu  Cu9  1  0.00000000  0.00000000  0.00000000  1
  La  La10  1  0.86058234  0.50000000  0.72116468  1
  La  La11  1  0.13941766  0.50000000  0.27883532  1
  La  La12  1  0.36205168  0.00000000  0.72410337  1
  La  La13  1  0.63794832  0.00000000  0.27589663  1
