# generated using pymatgen
data_EuTa2O6
_symmetry_space_group_name_H-M   'P 1'
_cell_length_a   3.96742613
_cell_length_b   3.96665802
_cell_length_c   8.01652252
_cell_angle_alpha   90.00000000
_cell_angle_beta   90.00000000
_cell_angle_gamma   90.00000000
_symmetry_Int_Tables_number   1
_chemical_formula_structural   EuTa2O6
_chemical_formula_sum   'Eu1 Ta2 O6'
_cell_volume   126.15940330
_cell_formula_units_Z   1
loop_
 _symmetry_equiv_pos_site_id
 _symmetry_equiv_pos_as_xyz
  1  'x, y, z'
loop_
 _atom_site_type_symbol
 _atom_site_label
 _atom_site_symmetry_multiplicity
 _atom_site_fract_x
 _atom_site_fract_y
 _atom_site_fract_z
 _atom_site_occupancy
  O  O0  1  0.50000000  0.50000000  0.50000000  1
  O  O1  1  0.50000000  0.50000000  0.00000000  1
  O  O2  1  0.00000000  0.50000000  0.76977114  1
  O  O3  1  0.50000000  0.00000000  0.23070185  1
  O  O4  1  0.50000000  0.00000000  0.76929815  1
  O  O5  1  0.00000000  0.50000000  0.23022886  1
  Eu  Eu6  1  0.00000000  0.00000000  0.00000000  1
  Ta  Ta7  1  0.50000000  0.50000000  0.25984002  1
  Ta  Ta8  1  0.50000000  0.50000000  0.74015998  1
