# generated using pymatgen
data_URe2
_symmetry_space_group_name_H-M   'P 1'
_cell_length_a   5.50723312
_cell_length_b   5.50723312
_cell_length_c   8.26491897
_cell_angle_alpha   90.00000000
_cell_angle_beta   90.00000000
_cell_angle_gamma   119.56418409
_symmetry_Int_Tables_number   1
_chemical_formula_structural   URe2
_chemical_formula_sum   'U4 Re8'
_cell_volume   218.03523587
_cell_formula_units_Z   4
loop_
 _symmetry_equiv_pos_site_id
 _symmetry_equiv_pos_as_xyz
  1  'x, y, z'
loop_
 _atom_site_type_symbol
 _atom_site_label
 _atom_site_symmetry_multiplicity
 _atom_site_fract_x
 _atom_site_fract_y
 _atom_site_fract_z
 _atom_site_occupancy
  U  U0  1  0.66655759  0.33344241  0.58926302  1
  U  U1  1  0.33344241  0.66655759  0.41073698  1
  U  U2  1  0.33344241  0.66655759  0.08926302  1
  U  U3  1  0.66655759  0.33344241  0.91073698  1
  Re  Re4  1  -0.00000000  -0.00000000  0.50000000  1
  Re  Re5  1  -0.00000000  -0.00000000  -0.00000000  1
  Re  Re6  1  0.17120446  0.34306529  0.75000000  1
  Re  Re7  1  0.17179965  0.82820035  0.75000000  1
  Re  Re8  1  0.65693471  0.82879554  0.75000000  1
  Re  Re9  1  0.82879554  0.65693471  0.25000000  1
  Re  Re10  1  0.82820035  0.17179965  0.25000000  1
  Re  Re11  1  0.34306529  0.17120446  0.25000000  1
