# generated using pymatgen
data_CeAl
_symmetry_space_group_name_H-M   'P 1'
_cell_length_a   5.37226805
_cell_length_b   5.99084343
_cell_length_c   5.99084343
_cell_angle_alpha   102.72998772
_cell_angle_beta   90.00000000
_cell_angle_gamma   90.00000000
_symmetry_Int_Tables_number   1
_chemical_formula_structural   CeAl
_chemical_formula_sum   'Ce4 Al4'
_cell_volume   188.07236140
_cell_formula_units_Z   4
loop_
 _symmetry_equiv_pos_site_id
 _symmetry_equiv_pos_as_xyz
  1  'x, y, z'
loop_
 _atom_site_type_symbol
 _atom_site_label
 _atom_site_symmetry_multiplicity
 _atom_site_fract_x
 _atom_site_fract_y
 _atom_site_fract_z
 _atom_site_occupancy
  Al  Al0  1  0.25000000  0.82640992  0.82640992  1
  Al  Al1  1  0.75000000  0.17359008  0.17359008  1
  Al  Al2  1  0.00000000  0.50000000  0.50000000  1
  Al  Al3  1  0.50000000  0.50000000  0.50000000  1
  Ce  Ce4  1  0.25000000  0.36862615  0.98631017  1
  Ce  Ce5  1  0.75000000  0.63137385  0.01368983  1
  Ce  Ce6  1  0.25000000  0.98631017  0.36862615  1
  Ce  Ce7  1  0.75000000  0.01368983  0.63137385  1
