# generated using pymatgen
data_Ca2RuO4
_symmetry_space_group_name_H-M   'P 1'
_cell_length_a   5.41167959
_cell_length_b   5.59427603
_cell_length_c   12.03622416
_cell_angle_alpha   90.00000000
_cell_angle_beta   90.00000000
_cell_angle_gamma   90.00000000
_symmetry_Int_Tables_number   1
_chemical_formula_structural   Ca2RuO4
_chemical_formula_sum   'Ca8 Ru4 O16'
_cell_volume   364.38981872
_cell_formula_units_Z   4
loop_
 _symmetry_equiv_pos_site_id
 _symmetry_equiv_pos_as_xyz
  1  'x, y, z'
loop_
 _atom_site_type_symbol
 _atom_site_label
 _atom_site_symmetry_multiplicity
 _atom_site_fract_x
 _atom_site_fract_y
 _atom_site_fract_z
 _atom_site_occupancy
  Ca  Ca0  1  0.50748836  0.05770010  0.15040740  1
  Ca  Ca1  1  0.00748836  0.44229990  0.84959260  1
  Ca  Ca2  1  0.49251164  0.55770010  0.34959260  1
  Ca  Ca3  1  0.99251164  0.94229990  0.65040740  1
  Ca  Ca4  1  0.49251164  0.94229990  0.84959260  1
  Ca  Ca5  1  0.99251164  0.55770010  0.15040740  1
  Ca  Ca6  1  0.50748836  0.44229990  0.65040740  1
  Ca  Ca7  1  0.00748836  0.05770010  0.34959260  1
  Ru  Ru8  1  0.50000000  -0.00000000  0.50000000  1
  Ru  Ru9  1  0.00000000  0.50000000  0.50000000  1
  Ru  Ru10  1  0.50000000  0.50000000  0.00000000  1
  Ru  Ru11  1  0.00000000  -0.00000000  0.00000000  1
  O  O12  1  0.69620504  0.29946498  0.47258157  1
  O  O13  1  0.19620504  0.20053502  0.52741843  1
  O  O14  1  0.30379496  0.79946498  0.02741843  1
  O  O15  1  0.80379496  0.70053502  0.97258157  1
  O  O16  1  0.30379496  0.70053502  0.52741843  1
  O  O17  1  0.80379496  0.79946498  0.47258157  1
  O  O18  1  0.69620504  0.20053502  0.97258157  1
  O  O19  1  0.19620504  0.29946498  0.02741843  1
  O  O20  1  0.43049597  0.97742811  0.33321809  1
  O  O21  1  0.93049597  0.52257189  0.66678191  1
  O  O22  1  0.56950403  0.47742811  0.16678191  1
  O  O23  1  0.06950403  0.02257189  0.83321809  1
  O  O24  1  0.56950403  0.02257189  0.66678191  1
  O  O25  1  0.06950403  0.47742811  0.33321809  1
  O  O26  1  0.43049597  0.52257189  0.83321809  1
  O  O27  1  0.93049597  0.97742811  0.16678191  1
