# generated using pymatgen
data_LuMnSi
_symmetry_space_group_name_H-M   'P 1'
_cell_length_a   4.01378188
_cell_length_b   6.79917375
_cell_length_c   7.53280286
_cell_angle_alpha   90.00000000
_cell_angle_beta   90.00000000
_cell_angle_gamma   90.00000000
_symmetry_Int_Tables_number   1
_chemical_formula_structural   LuMnSi
_chemical_formula_sum   'Lu4 Mn4 Si4'
_cell_volume   205.57320616
_cell_formula_units_Z   4
loop_
 _symmetry_equiv_pos_site_id
 _symmetry_equiv_pos_as_xyz
  1  'x, y, z'
loop_
 _atom_site_type_symbol
 _atom_site_label
 _atom_site_symmetry_multiplicity
 _atom_site_fract_x
 _atom_site_fract_y
 _atom_site_fract_z
 _atom_site_occupancy
  Si  Si0  1  0.25000000  0.78447170  0.11459363  1
  Si  Si1  1  0.75000000  0.21552830  0.88540637  1
  Si  Si2  1  0.25000000  0.28447170  0.38540637  1
  Si  Si3  1  0.75000000  0.71552830  0.61459363  1
  Mn  Mn4  1  0.75000000  0.85937714  0.94163894  1
  Mn  Mn5  1  0.25000000  0.14062286  0.05836106  1
  Mn  Mn6  1  0.75000000  0.35937714  0.55836106  1
  Mn  Mn7  1  0.25000000  0.64062286  0.44163894  1
  Lu  Lu8  1  0.25000000  0.51498438  0.81508447  1
  Lu  Lu9  1  0.75000000  0.48501562  0.18491553  1
  Lu  Lu10  1  0.25000000  0.01498438  0.68491553  1
  Lu  Lu11  1  0.75000000  0.98501562  0.31508447  1
