# generated using pymatgen
data_Na3Ir(NO2)6
_symmetry_space_group_name_H-M   'P 1'
_cell_length_a   6.84927280
_cell_length_b   6.84927280
_cell_length_c   6.84927280
_cell_angle_alpha   72.37387524
_cell_angle_beta   72.37387522
_cell_angle_gamma   72.37387522
_symmetry_Int_Tables_number   1
_chemical_formula_structural   Na3Ir(NO2)6
_chemical_formula_sum   'Na3 Ir1 N6 O12'
_cell_volume   283.86240080
_cell_formula_units_Z   1
loop_
 _symmetry_equiv_pos_site_id
 _symmetry_equiv_pos_as_xyz
  1  'x, y, z'
loop_
 _atom_site_type_symbol
 _atom_site_label
 _atom_site_symmetry_multiplicity
 _atom_site_fract_x
 _atom_site_fract_y
 _atom_site_fract_z
 _atom_site_occupancy
  N  N0  1  0.79906988  0.17337559  0.79906988  1
  N  N1  1  0.79906988  0.79906988  0.17337559  1
  N  N2  1  0.17337559  0.79906988  0.79906988  1
  N  N3  1  0.82662441  0.20093012  0.20093012  1
  N  N4  1  0.20093012  0.82662441  0.20093012  1
  N  N5  1  0.20093012  0.20093012  0.82662441  1
  O  O6  1  0.91244909  0.28223916  0.28223916  1
  O  O7  1  0.08755091  0.71776084  0.71776084  1
  O  O8  1  0.71776084  0.71776084  0.08755091  1
  O  O9  1  0.71776084  0.08755091  0.71776084  1
  O  O10  1  0.24097971  0.62923701  0.24097971  1
  O  O11  1  0.24097971  0.24097971  0.62923701  1
  O  O12  1  0.62923701  0.24097971  0.24097971  1
  O  O13  1  0.37076299  0.75902029  0.75902029  1
  O  O14  1  0.75902029  0.37076299  0.75902029  1
  O  O15  1  0.75902029  0.75902029  0.37076299  1
  O  O16  1  0.28223916  0.91244909  0.28223916  1
  O  O17  1  0.28223916  0.28223916  0.91244909  1
  Na  Na18  1  0.73409666  0.73409666  0.73409666  1
  Na  Na19  1  0.26590334  0.26590334  0.26590334  1
  Na  Na20  1  0.50000000  0.50000000  0.50000000  1
  Ir  Ir21  1  0.00000000  0.00000000  0.00000000  1
