# generated using pymatgen
data_Sm2Si2O7
_symmetry_space_group_name_H-M   'P 1'
_cell_length_a   6.75389718
_cell_length_b   6.75389718
_cell_length_c   24.62441641
_cell_angle_alpha   90.00000000
_cell_angle_beta   90.00000000
_cell_angle_gamma   90.00000000
_symmetry_Int_Tables_number   1
_chemical_formula_structural   Sm2Si2O7
_chemical_formula_sum   'Sm16 Si16 O56'
_cell_volume   1123.24588475
_cell_formula_units_Z   8
loop_
 _symmetry_equiv_pos_site_id
 _symmetry_equiv_pos_as_xyz
  1  'x, y, z'
loop_
 _atom_site_type_symbol
 _atom_site_label
 _atom_site_symmetry_multiplicity
 _atom_site_fract_x
 _atom_site_fract_y
 _atom_site_fract_z
 _atom_site_occupancy
  Sm  Sm0  1  0.28390588  0.21788154  0.75113544  1
  Sm  Sm1  1  0.83854455  0.52092912  0.39747402  1
  Sm  Sm2  1  0.47907088  0.83854455  0.64747402  1
  Sm  Sm3  1  0.65371304  0.08469364  0.50183428  1
  Sm  Sm4  1  0.71609412  0.78211846  0.25113544  1
  Sm  Sm5  1  0.75225561  0.86618476  0.88842463  1
  Sm  Sm6  1  0.78211846  0.28390588  0.00113544  1
  Sm  Sm7  1  0.86618476  0.24774439  0.63842463  1
  Sm  Sm8  1  0.16145545  0.47907088  0.89747402  1
  Sm  Sm9  1  0.34628696  0.91530636  0.00183428  1
  Sm  Sm10  1  0.08469364  0.34628696  0.25183428  1
  Sm  Sm11  1  0.52092912  0.16145545  0.14747402  1
  Sm  Sm12  1  0.91530636  0.65371304  0.75183428  1
  Sm  Sm13  1  0.21788154  0.71609412  0.50113544  1
  Sm  Sm14  1  0.13381524  0.75225561  0.13842463  1
  Sm  Sm15  1  0.24774439  0.13381524  0.38842463  1
  Si  Si16  1  0.24775423  0.85893293  0.26386714  1
  Si  Si17  1  0.27887657  0.98206407  0.87018431  1
  Si  Si18  1  0.31492818  0.60560365  0.36338533  1
  Si  Si19  1  0.85893293  0.75224577  0.01386714  1
  Si  Si20  1  0.39439635  0.31492818  0.61338533  1
  Si  Si21  1  0.62742119  0.26985408  0.26828319  1
  Si  Si22  1  0.98206407  0.72112343  0.62018431  1
  Si  Si23  1  0.73014592  0.62742119  0.51828319  1
  Si  Si24  1  0.68507182  0.39439635  0.86338533  1
  Si  Si25  1  0.26985408  0.37257881  0.01828319  1
  Si  Si26  1  0.14106707  0.24775423  0.51386714  1
  Si  Si27  1  0.01793593  0.27887657  0.12018431  1
  Si  Si28  1  0.37257881  0.73014592  0.76828319  1
  Si  Si29  1  0.75224577  0.14106707  0.76386714  1
  Si  Si30  1  0.72112343  0.01793593  0.37018431  1
  Si  Si31  1  0.60560365  0.68507182  0.11338533  1
  O  O32  1  0.72592186  0.93353670  0.98867432  1
  O  O33  1  0.13444101  0.23237061  0.97735581  1
  O  O34  1  0.94863563  0.16366061  0.54605871  1
  O  O35  1  0.81204853  0.19804356  0.09478094  1
  O  O36  1  0.93353670  0.27407814  0.73867432  1
  O  O37  1  0.89149159  0.16573457  0.39350016  1
  O  O38  1  0.12172535  0.41775899  0.07076097  1
  O  O39  1  0.10766029  0.40395660  0.46349145  1
  O  O40  1  0.44487429  0.85803195  0.09399810  1
  O  O41  1  0.83426543  0.89149159  0.64350016  1
  O  O42  1  0.42580838  0.32823767  0.23695620  1
  O  O43  1  0.23323750  0.54339833  0.78683176  1
  O  O44  1  0.41775899  0.87827465  0.82076097  1
  O  O45  1  0.86555899  0.76762939  0.47735581  1
  O  O46  1  0.52557379  0.49490105  0.63696066  1
  O  O47  1  0.27543942  0.38635663  0.55648747  1
  O  O48  1  0.50509895  0.52557379  0.88696066  1
  O  O49  1  0.59604340  0.10766029  0.71349145  1
  O  O50  1  0.72456058  0.61364337  0.05648747  1
  O  O51  1  0.32823767  0.57419162  0.98695620  1
  O  O52  1  0.06646330  0.72592186  0.23867432  1
  O  O53  1  0.10850841  0.83426543  0.89350016  1
  O  O54  1  0.67176233  0.42580838  0.48695620  1
  O  O55  1  0.79107445  0.23384606  0.90397323  1
  O  O56  1  0.57419162  0.67176233  0.73695620  1
  O  O57  1  0.16573457  0.10850841  0.14350016  1
  O  O58  1  0.49490105  0.47442621  0.38696066  1
  O  O59  1  0.23237061  0.86555899  0.72735581  1
  O  O60  1  0.55512571  0.14196805  0.59399810  1
  O  O61  1  0.85803195  0.55512571  0.84399810  1
  O  O62  1  0.47442621  0.50509895  0.13696066  1
  O  O63  1  0.19804356  0.18795147  0.84478094  1
  O  O64  1  0.87827465  0.58224101  0.57076097  1
  O  O65  1  0.58224101  0.12172535  0.32076097  1
  O  O66  1  0.61364337  0.27543942  0.80648747  1
  O  O67  1  0.80195644  0.81204853  0.34478094  1
  O  O68  1  0.55248998  0.99477673  0.41676188  1
  O  O69  1  0.45660167  0.23323750  0.03683176  1
  O  O70  1  0.05136437  0.83633939  0.04605871  1
  O  O71  1  0.99477673  0.44751002  0.16676188  1
  O  O72  1  0.16366061  0.05136437  0.29605871  1
  O  O73  1  0.00522327  0.55248998  0.66676188  1
  O  O74  1  0.38635663  0.72456058  0.30648747  1
  O  O75  1  0.18795147  0.80195644  0.59478094  1
  O  O76  1  0.14196805  0.44487429  0.34399810  1
  O  O77  1  0.83633939  0.94863563  0.79605871  1
  O  O78  1  0.76762939  0.13444101  0.22735581  1
  O  O79  1  0.89233971  0.59604340  0.96349145  1
  O  O80  1  0.27407814  0.06646330  0.48867432  1
  O  O81  1  0.54339833  0.76676250  0.53683176  1
  O  O82  1  0.20892555  0.76615394  0.40397323  1
  O  O83  1  0.76676250  0.45660167  0.28683176  1
  O  O84  1  0.44751002  0.00522327  0.91676188  1
  O  O85  1  0.23384606  0.20892555  0.65397323  1
  O  O86  1  0.76615394  0.79107445  0.15397323  1
  O  O87  1  0.40395660  0.89233971  0.21349145  1
