# generated using pymatgen
data_SrH2I2O7
_symmetry_space_group_name_H-M   'P 1'
_cell_length_a   7.87759989
_cell_length_b   7.87759989
_cell_length_c   7.66337241
_cell_angle_alpha   100.63330605
_cell_angle_beta   109.32426039
_cell_angle_gamma   119.90612162
_symmetry_Int_Tables_number   1
_chemical_formula_structural   SrH2I2O7
_chemical_formula_sum   'Sr2 H4 I4 O14'
_cell_volume   351.71619257
_cell_formula_units_Z   2
loop_
 _symmetry_equiv_pos_site_id
 _symmetry_equiv_pos_as_xyz
  1  'x, y, z'
loop_
 _atom_site_type_symbol
 _atom_site_label
 _atom_site_symmetry_multiplicity
 _atom_site_fract_x
 _atom_site_fract_y
 _atom_site_fract_z
 _atom_site_occupancy
  H  H0  1  0.10163284  0.29372673  0.36273808  1
  H  H1  1  0.93098865  0.23889476  0.13726192  1
  H  H2  1  0.89836716  0.70627327  0.63726192  1
  H  H3  1  0.06901135  0.76110524  0.86273808  1
  O  O4  1  0.08863105  0.33863105  0.25000000  1
  O  O5  1  0.91136895  0.66136895  0.75000000  1
  O  O6  1  0.73078209  0.09400294  0.49483250  1
  O  O7  1  0.59917044  0.73594959  0.00516750  1
  O  O8  1  0.26921791  0.90599706  0.50516750  1
  O  O9  1  0.40082956  0.26405041  0.99483250  1
  O  O10  1  0.17225007  0.24257815  0.58596821  1
  O  O11  1  0.65660995  0.08628186  0.91403179  1
  O  O12  1  0.82774993  0.75742185  0.41403179  1
  O  O13  1  0.34339005  0.91371814  0.08596821  1
  O  O14  1  0.09440927  0.42241428  0.87480719  1
  O  O15  1  0.54760710  0.71960209  0.62519281  1
  O  O16  1  0.90559073  0.57758572  0.12519281  1
  O  O17  1  0.45239290  0.28039791  0.37480719  1
  Sr  Sr18  1  0.58998990  0.33998990  0.75000000  1
  Sr  Sr19  1  0.41001010  0.66001010  0.25000000  1
  I  I20  1  0.45871517  0.78615492  0.80042898  1
  I  I21  1  0.98572594  0.15828619  0.69957102  1
  I  I22  1  0.01427406  0.84171381  0.30042898  1
  I  I23  1  0.54128483  0.21384508  0.19957102  1
