# generated using pymatgen
data_SrI2
_symmetry_space_group_name_H-M   'P 1'
_cell_length_a   8.03764652
_cell_length_b   8.32082581
_cell_length_c   15.58277479
_cell_angle_alpha   90.00000000
_cell_angle_beta   90.00000000
_cell_angle_gamma   90.00000000
_symmetry_Int_Tables_number   1
_chemical_formula_structural   SrI2
_chemical_formula_sum   'Sr8 I16'
_cell_volume   1042.17374362
_cell_formula_units_Z   8
loop_
 _symmetry_equiv_pos_site_id
 _symmetry_equiv_pos_as_xyz
  1  'x, y, z'
loop_
 _atom_site_type_symbol
 _atom_site_label
 _atom_site_symmetry_multiplicity
 _atom_site_fract_x
 _atom_site_fract_y
 _atom_site_fract_z
 _atom_site_occupancy
  Sr  Sr0  1  0.72306487  0.55026575  0.88905457  1
  Sr  Sr1  1  0.22306487  0.44973425  0.61094543  1
  Sr  Sr2  1  0.77693513  0.05026575  0.11094543  1
  Sr  Sr3  1  0.27693513  0.94973425  0.38905457  1
  Sr  Sr4  1  0.27693513  0.44973425  0.11094543  1
  Sr  Sr5  1  0.77693513  0.55026575  0.38905457  1
  Sr  Sr6  1  0.22306487  0.94973425  0.88905457  1
  Sr  Sr7  1  0.72306487  0.05026575  0.61094543  1
  I  I8  1  0.84084821  0.89177924  0.79680308  1
  I  I9  1  0.34084821  0.10822076  0.70319692  1
  I  I10  1  0.65915179  0.39177924  0.20319692  1
  I  I11  1  0.15915179  0.60822076  0.29680308  1
  I  I12  1  0.15915179  0.10822076  0.20319692  1
  I  I13  1  0.65915179  0.89177924  0.29680308  1
  I  I14  1  0.34084821  0.60822076  0.79680308  1
  I  I15  1  0.84084821  0.39177924  0.70319692  1
  I  I16  1  0.99470012  0.73246302  0.03189993  1
  I  I17  1  0.49470012  0.26753698  0.46810007  1
  I  I18  1  0.50529988  0.23246302  0.96810007  1
  I  I19  1  0.00529988  0.76753698  0.53189993  1
  I  I20  1  0.00529988  0.26753698  0.96810007  1
  I  I21  1  0.50529988  0.73246302  0.53189993  1
  I  I22  1  0.49470012  0.76753698  0.03189993  1
  I  I23  1  0.99470012  0.23246302  0.46810007  1
