# generated using pymatgen
data_KHSeO3
_symmetry_space_group_name_H-M   'P 1'
_cell_length_a   5.20416070
_cell_length_b   5.85244955
_cell_length_c   6.82114040
_cell_angle_alpha   109.06023378
_cell_angle_beta   107.93427095
_cell_angle_gamma   91.28789911
_symmetry_Int_Tables_number   1
_chemical_formula_structural   KHSeO3
_chemical_formula_sum   'K2 H2 Se2 O6'
_cell_volume   185.06425451
_cell_formula_units_Z   2
loop_
 _symmetry_equiv_pos_site_id
 _symmetry_equiv_pos_as_xyz
  1  'x, y, z'
loop_
 _atom_site_type_symbol
 _atom_site_label
 _atom_site_symmetry_multiplicity
 _atom_site_fract_x
 _atom_site_fract_y
 _atom_site_fract_z
 _atom_site_occupancy
  H  H0  1  0.25801008  0.10095674  0.04740806  1
  H  H1  1  0.74198992  0.89904326  0.95259194  1
  O  O2  1  0.23789301  0.10736446  0.89675792  1
  O  O3  1  0.76210699  0.89263554  0.10324208  1
  O  O4  1  0.84881486  0.39854949  0.21672215  1
  O  O5  1  0.15118514  0.60145051  0.78327785  1
  O  O6  1  0.27294947  0.15261112  0.31404026  1
  O  O7  1  0.72705053  0.84738888  0.68595974  1
  K  K8  1  0.36287305  0.64322208  0.22588753  1
  K  K9  1  0.63712695  0.35677792  0.77411247  1
  Se  Se10  1  0.94858051  0.17847923  0.32195571  1
  Se  Se11  1  0.05141949  0.82152077  0.67804429  1
