# generated using pymatgen
data_BaH2I2O7
_symmetry_space_group_name_H-M   'P 1'
_cell_length_a   7.90404390
_cell_length_b   7.90404389
_cell_length_c   8.01078220
_cell_angle_alpha   101.23981908
_cell_angle_beta   109.80331675
_cell_angle_gamma   117.32803040
_symmetry_Int_Tables_number   1
_chemical_formula_structural   BaH2I2O7
_chemical_formula_sum   'Ba2 H4 I4 O14'
_cell_volume   379.77235873
_cell_formula_units_Z   2
loop_
 _symmetry_equiv_pos_site_id
 _symmetry_equiv_pos_as_xyz
  1  'x, y, z'
loop_
 _atom_site_type_symbol
 _atom_site_label
 _atom_site_symmetry_multiplicity
 _atom_site_fract_x
 _atom_site_fract_y
 _atom_site_fract_z
 _atom_site_occupancy
  H  H0  1  0.07074952  0.27264240  0.36234779  1
  H  H1  1  0.91029461  0.20840173  0.13765221  1
  H  H2  1  0.92925048  0.72735760  0.63765221  1
  H  H3  1  0.08970539  0.79159827  0.86234779  1
  O  O4  1  0.05916911  0.30916911  0.25000000  1
  O  O5  1  0.94083089  0.69083089  0.75000000  1
  O  O6  1  0.72427901  0.09261591  0.50005790  1
  O  O7  1  0.59255801  0.72422111  0.99994210  1
  O  O8  1  0.27572099  0.90738409  0.49994210  1
  O  O9  1  0.40744199  0.27577889  0.00005790  1
  O  O10  1  0.15863668  0.24204077  0.58669410  1
  O  O11  1  0.65534667  0.07194258  0.91330590  1
  O  O12  1  0.84136332  0.75795923  0.41330590  1
  O  O13  1  0.34465333  0.92805742  0.08669410  1
  O  O14  1  0.06608872  0.40310977  0.86592410  1
  O  O15  1  0.53718567  0.70016462  0.63407590  1
  O  O16  1  0.93391128  0.59689023  0.13407590  1
  O  O17  1  0.46281433  0.29983538  0.36592410  1
  I  I18  1  0.53946723  0.21600762  0.19306179  1
  I  I19  1  0.02294582  0.84640544  0.30693821  1
  I  I20  1  0.46053277  0.78399238  0.80693821  1
  I  I21  1  0.97705418  0.15359456  0.69306179  1
  Ba  Ba22  1  0.39065750  0.64065750  0.25000000  1
  Ba  Ba23  1  0.60934250  0.35934250  0.75000000  1
