# generated using pymatgen
data_K2Zr2O5
_symmetry_space_group_name_H-M   'P 1'
_cell_length_a   5.93262396
_cell_length_b   8.88578585
_cell_length_c   10.91006503
_cell_angle_alpha   90.00000000
_cell_angle_beta   90.00000000
_cell_angle_gamma   90.00000000
_symmetry_Int_Tables_number   1
_chemical_formula_structural   K2Zr2O5
_chemical_formula_sum   'K8 Zr8 O20'
_cell_volume   575.13527219
_cell_formula_units_Z   4
loop_
 _symmetry_equiv_pos_site_id
 _symmetry_equiv_pos_as_xyz
  1  'x, y, z'
loop_
 _atom_site_type_symbol
 _atom_site_label
 _atom_site_symmetry_multiplicity
 _atom_site_fract_x
 _atom_site_fract_y
 _atom_site_fract_z
 _atom_site_occupancy
  O  O0  1  0.49168047  0.25000000  0.75000000  1
  O  O1  1  0.00831953  0.25000000  0.25000000  1
  O  O2  1  0.50831953  0.75000000  0.25000000  1
  O  O3  1  0.99168047  0.75000000  0.75000000  1
  O  O4  1  0.25000000  0.82269524  0.50000000  1
  O  O5  1  0.25000000  0.67730476  0.00000000  1
  O  O6  1  0.75000000  0.17730476  0.50000000  1
  O  O7  1  0.75000000  0.32269524  0.00000000  1
  O  O8  1  0.25000000  0.24499955  0.50000000  1
  O  O9  1  0.25000000  0.25500045  0.00000000  1
  O  O10  1  0.75000000  0.75500045  0.50000000  1
  O  O11  1  0.75000000  0.74499955  0.00000000  1
  O  O12  1  0.37345223  0.94957851  0.89302356  1
  O  O13  1  0.37345223  0.55042149  0.60697644  1
  O  O14  1  0.12654777  0.94957851  0.10697644  1
  O  O15  1  0.12654777  0.55042149  0.39302356  1
  O  O16  1  0.87345223  0.44957851  0.60697644  1
  O  O17  1  0.87345223  0.05042149  0.89302356  1
  O  O18  1  0.62654777  0.44957851  0.39302356  1
  O  O19  1  0.62654777  0.05042149  0.10697644  1
  K  K20  1  0.06357175  0.42166083  0.83394083  1
  K  K21  1  0.06357175  0.07833917  0.66605917  1
  K  K22  1  0.43642825  0.42166083  0.16605917  1
  K  K23  1  0.43642825  0.07833917  0.33394083  1
  K  K24  1  0.93642825  0.57833917  0.16605917  1
  K  K25  1  0.93642825  0.92166083  0.33394083  1
  K  K26  1  0.56357175  0.57833917  0.83394083  1
  K  K27  1  0.56357175  0.92166083  0.66605917  1
  Zr  Zr28  1  0.53161173  0.34079101  0.57661822  1
  Zr  Zr29  1  0.53161173  0.15920899  0.92338178  1
  Zr  Zr30  1  0.96838827  0.34079101  0.42338178  1
  Zr  Zr31  1  0.96838827  0.15920899  0.07661822  1
  Zr  Zr32  1  0.46838827  0.65920899  0.42338178  1
  Zr  Zr33  1  0.46838827  0.84079101  0.07661822  1
  Zr  Zr34  1  0.03161173  0.65920899  0.57661822  1
  Zr  Zr35  1  0.03161173  0.84079101  0.92338178  1
