# generated using pymatgen
data_Ho6(Ga3Co)7
_symmetry_space_group_name_H-M   'P 1'
_cell_length_a   4.13139471
_cell_length_b   16.66509146
_cell_length_c   16.66509146
_cell_angle_alpha   90.00000000
_cell_angle_beta   90.00000000
_cell_angle_gamma   90.00000000
_symmetry_Int_Tables_number   1
_chemical_formula_structural   Ho6(Ga3Co)7
_chemical_formula_sum   'Ho12 Ga42 Co14'
_cell_volume   1147.39272523
_cell_formula_units_Z   2
loop_
 _symmetry_equiv_pos_site_id
 _symmetry_equiv_pos_as_xyz
  1  'x, y, z'
loop_
 _atom_site_type_symbol
 _atom_site_label
 _atom_site_symmetry_multiplicity
 _atom_site_fract_x
 _atom_site_fract_y
 _atom_site_fract_z
 _atom_site_occupancy
  Co  Co0  1  0.00000000  0.21889722  0.71889722  1
  Co  Co1  1  0.00000000  0.28110278  0.21889722  1
  Co  Co2  1  0.00000000  0.71889722  0.78110278  1
  Co  Co3  1  0.00000000  0.78110278  0.28110278  1
  Co  Co4  1  0.00000000  0.14857480  0.46380237  1
  Co  Co5  1  0.00000000  0.53619763  0.14857480  1
  Co  Co6  1  0.00000000  0.46380237  0.85142520  1
  Co  Co7  1  0.00000000  0.85142520  0.53619763  1
  Co  Co8  1  0.00000000  0.64857480  0.03619763  1
  Co  Co9  1  0.00000000  0.35142520  0.96380237  1
  Co  Co10  1  0.00000000  0.96380237  0.64857480  1
  Co  Co11  1  0.00000000  0.03619763  0.35142520  1
  Co  Co12  1  0.00000000  0.00000000  0.00000000  1
  Co  Co13  1  0.00000000  0.50000000  0.50000000  1
  Ga  Ga14  1  0.00000000  0.00000000  0.50000000  1
  Ga  Ga15  1  0.00000000  0.50000000  0.00000000  1
  Ga  Ga16  1  0.00000000  0.32049076  0.82049076  1
  Ga  Ga17  1  0.00000000  0.17950924  0.32049076  1
  Ga  Ga18  1  0.00000000  0.82049076  0.67950924  1
  Ga  Ga19  1  0.00000000  0.67950924  0.17950924  1
  Ga  Ga20  1  0.50000000  0.42441320  0.92441320  1
  Ga  Ga21  1  0.50000000  0.07558680  0.42441320  1
  Ga  Ga22  1  0.50000000  0.92441320  0.57558680  1
  Ga  Ga23  1  0.50000000  0.57558680  0.07558680  1
  Ga  Ga24  1  0.00000000  0.25984381  0.07547404  1
  Ga  Ga25  1  0.00000000  0.92452596  0.25984381  1
  Ga  Ga26  1  0.00000000  0.07547404  0.74015619  1
  Ga  Ga27  1  0.00000000  0.74015619  0.92452596  1
  Ga  Ga28  1  0.00000000  0.75984381  0.42452596  1
  Ga  Ga29  1  0.00000000  0.24015619  0.57547404  1
  Ga  Ga30  1  0.00000000  0.57547404  0.75984381  1
  Ga  Ga31  1  0.00000000  0.42452596  0.24015619  1
  Ga  Ga32  1  0.50000000  0.10970177  0.03132915  1
  Ga  Ga33  1  0.50000000  0.96867085  0.10970177  1
  Ga  Ga34  1  0.50000000  0.03132915  0.89029823  1
  Ga  Ga35  1  0.50000000  0.89029823  0.96867085  1
  Ga  Ga36  1  0.50000000  0.60970177  0.46867085  1
  Ga  Ga37  1  0.50000000  0.39029823  0.53132915  1
  Ga  Ga38  1  0.50000000  0.53132915  0.60970177  1
  Ga  Ga39  1  0.50000000  0.46867085  0.39029823  1
  Ga  Ga40  1  0.50000000  0.21044858  0.17859201  1
  Ga  Ga41  1  0.50000000  0.82140799  0.21044858  1
  Ga  Ga42  1  0.50000000  0.17859201  0.78955142  1
  Ga  Ga43  1  0.50000000  0.78955142  0.82140799  1
  Ga  Ga44  1  0.50000000  0.71044858  0.32140799  1
  Ga  Ga45  1  0.50000000  0.28955142  0.67859201  1
  Ga  Ga46  1  0.50000000  0.67859201  0.71044858  1
  Ga  Ga47  1  0.50000000  0.32140799  0.28955142  1
  Ga  Ga48  1  0.50000000  0.04136348  0.27085569  1
  Ga  Ga49  1  0.50000000  0.72914431  0.04136348  1
  Ga  Ga50  1  0.50000000  0.27085569  0.95863652  1
  Ga  Ga51  1  0.50000000  0.95863652  0.72914431  1
  Ga  Ga52  1  0.50000000  0.54136348  0.22914431  1
  Ga  Ga53  1  0.50000000  0.45863652  0.77085569  1
  Ga  Ga54  1  0.50000000  0.77085569  0.54136348  1
  Ga  Ga55  1  0.50000000  0.22914431  0.45863652  1
  Ho  Ho56  1  0.50000000  0.10669877  0.60669877  1
  Ho  Ho57  1  0.50000000  0.39330123  0.10669877  1
  Ho  Ho58  1  0.50000000  0.60669877  0.89330123  1
  Ho  Ho59  1  0.50000000  0.89330123  0.39330123  1
  Ho  Ho60  1  0.00000000  0.08767455  0.15753614  1
  Ho  Ho61  1  0.00000000  0.84246386  0.08767455  1
  Ho  Ho62  1  0.00000000  0.15753614  0.91232545  1
  Ho  Ho63  1  0.00000000  0.91232545  0.84246386  1
  Ho  Ho64  1  0.00000000  0.58767455  0.34246386  1
  Ho  Ho65  1  0.00000000  0.41232545  0.65753614  1
  Ho  Ho66  1  0.00000000  0.65753614  0.58767455  1
  Ho  Ho67  1  0.00000000  0.34246386  0.41232545  1
