# generated using pymatgen
data_KMnPH2O5
_symmetry_space_group_name_H-M   'P 1'
_cell_length_a   4.92579078
_cell_length_b   5.76213043
_cell_length_c   8.49265752
_cell_angle_alpha   90.00000000
_cell_angle_beta   90.00000000
_cell_angle_gamma   90.00000000
_symmetry_Int_Tables_number   1
_chemical_formula_structural   KMnPH2O5
_chemical_formula_sum   'K2 Mn2 P2 H4 O10'
_cell_volume   241.04751407
_cell_formula_units_Z   2
loop_
 _symmetry_equiv_pos_site_id
 _symmetry_equiv_pos_as_xyz
  1  'x, y, z'
loop_
 _atom_site_type_symbol
 _atom_site_label
 _atom_site_symmetry_multiplicity
 _atom_site_fract_x
 _atom_site_fract_y
 _atom_site_fract_z
 _atom_site_occupancy
  H  H0  1  0.07688979  0.63635260  0.20302427  1
  H  H1  1  0.57688979  0.86364740  0.79697573  1
  H  H2  1  0.07688979  0.36364740  0.20302427  1
  H  H3  1  0.57688979  0.13635260  0.79697573  1
  O  O4  1  0.19627743  0.50000000  0.21669367  1
  O  O5  1  0.69627743  0.00000000  0.78330633  1
  O  O6  1  0.27561141  0.00000000  0.18206523  1
  O  O7  1  0.77561141  0.50000000  0.81793477  1
  O  O8  1  0.63395747  0.00000000  0.39540218  1
  O  O9  1  0.13395747  0.50000000  0.60459782  1
  O  O10  1  0.72405663  0.21650332  0.13585190  1
  O  O11  1  0.22405663  0.28349668  0.86414810  1
  O  O12  1  0.72405663  0.78349668  0.13585190  1
  O  O13  1  0.22405663  0.71650332  0.86414810  1
  P  P14  1  0.08313852  0.50000000  0.78267866  1
  P  P15  1  0.58313852  0.00000000  0.21732134  1
  K  K16  1  0.62431992  0.50000000  0.46418677  1
  K  K17  1  0.12431992  0.00000000  0.53581323  1
  Mn  Mn18  1  0.51780242  0.50000000  0.01904444  1
  Mn  Mn19  1  0.01780242  0.00000000  0.98095556  1
