# generated using pymatgen
data_V2O5
_symmetry_space_group_name_H-M   'P 1'
_cell_length_a   3.61865761
_cell_length_b   4.79729330
_cell_length_c   11.55150817
_cell_angle_alpha   89.99932751
_cell_angle_beta   89.99994522
_cell_angle_gamma   89.99992834
_symmetry_Int_Tables_number   1
_chemical_formula_structural   V2O5
_chemical_formula_sum   'V4 O10'
_cell_volume   200.53143150
_cell_formula_units_Z   2
loop_
 _symmetry_equiv_pos_site_id
 _symmetry_equiv_pos_as_xyz
  1  'x, y, z'
loop_
 _atom_site_type_symbol
 _atom_site_label
 _atom_site_symmetry_multiplicity
 _atom_site_fract_x
 _atom_site_fract_y
 _atom_site_fract_z
 _atom_site_occupancy
  V  V0  1  0.01856962  0.88831357  0.14949426  1
  V  V1  1  0.51856796  0.11177971  0.35049835  1
  V  V2  1  0.51856928  0.11171617  0.64949850  1
  V  V3  1  0.01857085  0.88817724  0.85050138  1
  O  O4  1  0.51857322  0.98832957  0.18183379  1
  O  O5  1  0.01857346  0.01181228  0.31815246  1
  O  O6  1  0.01857482  0.01170341  0.68183853  1
  O  O7  1  0.51857537  0.98813773  0.81814931  1
  O  O8  1  0.01857166  0.55291410  0.85497389  1
  O  O9  1  0.51857001  0.44699637  0.64506967  1
  O  O10  1  0.51856632  0.44705289  0.35493965  1
  O  O11  1  0.51856808  0.00131667  0.49999730  1
  O  O12  1  0.01857105  0.99870939  0.99998792  1
  O  O13  1  0.01856931  0.55304191  0.14506499  1
