# generated using pymatgen
data_Fe(PO3)3
_symmetry_space_group_name_H-M   'P 1'
_cell_length_a   8.51401596
_cell_length_b   8.59456903
_cell_length_c   8.66485433
_cell_angle_alpha   90.00000000
_cell_angle_beta   90.00000000
_cell_angle_gamma   90.00000000
_symmetry_Int_Tables_number   1
_chemical_formula_structural   Fe(PO3)3
_chemical_formula_sum   'Fe4 P12 O36'
_cell_volume   634.04463192
_cell_formula_units_Z   4
loop_
 _symmetry_equiv_pos_site_id
 _symmetry_equiv_pos_as_xyz
  1  'x, y, z'
loop_
 _atom_site_type_symbol
 _atom_site_label
 _atom_site_symmetry_multiplicity
 _atom_site_fract_x
 _atom_site_fract_y
 _atom_site_fract_z
 _atom_site_occupancy
  O  O0  1  0.63671506  0.68871753  0.35850240  1
  O  O1  1  0.95768717  0.71966116  0.85312512  1
  O  O2  1  0.89802006  0.87512886  0.38185921  1
  O  O3  1  0.90939555  0.62424228  0.58081825  1
  O  O4  1  0.04231274  0.21966040  0.64687568  1
  O  O5  1  0.10197985  0.37512811  0.11813990  1
  O  O6  1  0.09060436  0.12424153  0.91918139  1
  O  O7  1  0.09957032  0.59669543  0.31759390  1
  O  O8  1  0.13671451  0.81128240  0.64149813  1
  O  O9  1  0.14390586  0.53246622  0.74348358  1
  O  O10  1  0.15333201  0.16113293  0.38682877  1
  O  O11  1  0.19134230  0.91734561  0.13444601  1
  O  O12  1  0.22149632  0.63646877  0.05219993  1
  O  O13  1  0.27850422  0.36353041  0.55220019  1
  O  O14  1  0.30865707  0.08265357  0.63444512  1
  O  O15  1  0.34666736  0.83886741  0.88682789  1
  O  O16  1  0.35609468  0.46753295  0.24348446  1
  O  O17  1  0.36328486  0.18871677  0.14149787  1
  O  O18  1  0.40043023  0.40330491  0.81759417  1
  O  O19  1  0.40939501  0.87575765  0.41918228  1
  O  O20  1  0.39802069  0.62487107  0.61814017  1
  O  O21  1  0.45768663  0.78033877  0.14687541  1
  O  O22  1  0.54231328  0.28033918  0.35312485  1
  O  O23  1  0.86328540  0.31128281  0.85850267  1
  O  O24  1  0.59060490  0.37575806  0.08081799  1
  O  O25  1  0.59956969  0.90330450  0.68240663  1
  O  O26  1  0.90043077  0.09669584  0.18240637  1
  O  O27  1  0.64390523  0.96753370  0.25651580  1
  O  O28  1  0.65333255  0.33886782  0.61317176  1
  O  O29  1  0.69134284  0.58265432  0.86555453  1
  O  O30  1  0.72149569  0.86353116  0.94779945  1
  O  O31  1  0.77850359  0.13646918  0.44780034  1
  O  O32  1  0.80865762  0.41734602  0.36555426  1
  O  O33  1  0.84666791  0.66113252  0.11317149  1
  O  O34  1  0.85609405  0.03246664  0.75651607  1
  O  O35  1  0.60197922  0.12487148  0.88185948  1
  P  P36  1  0.68195508  0.98558794  0.81279109  1
  P  P37  1  0.70127102  0.30806825  0.45004654  1
  P  P38  1  0.79872943  0.69193209  0.95004681  1
  P  P39  1  0.81804537  0.01441240  0.31279083  1
  P  P40  1  0.03466611  0.67731787  0.69039929  1
  P  P41  1  0.18195454  0.51441199  0.18720829  1
  P  P42  1  0.20127048  0.19193133  0.54995284  1
  P  P43  1  0.29872889  0.80806784  0.04995372  1
  P  P44  1  0.31804483  0.48558835  0.68720855  1
  P  P45  1  0.46533443  0.32268131  0.19039902  1
  P  P46  1  0.53466548  0.82268206  0.30960009  1
  P  P47  1  0.96533380  0.17731828  0.80960036  1
  Fe  Fe48  1  0.86789615  0.64277124  0.35149276  1
  Fe  Fe49  1  0.63210313  0.35722794  0.85149302  1
  Fe  Fe50  1  0.36789678  0.85722869  0.64850662  1
  Fe  Fe51  1  0.13210376  0.14277165  0.14850636  1
