# generated using pymatgen
data_In6WO12
_symmetry_space_group_name_H-M   'P 1'
_cell_length_a   6.34693685
_cell_length_b   6.34693685
_cell_length_c   6.34693686
_cell_angle_alpha   99.12455810
_cell_angle_beta   99.12455800
_cell_angle_gamma   99.12455808
_symmetry_Int_Tables_number   1
_chemical_formula_structural   In6WO12
_chemical_formula_sum   'In6 W1 O12'
_cell_volume   244.78099930
_cell_formula_units_Z   1
loop_
 _symmetry_equiv_pos_site_id
 _symmetry_equiv_pos_as_xyz
  1  'x, y, z'
loop_
 _atom_site_type_symbol
 _atom_site_label
 _atom_site_symmetry_multiplicity
 _atom_site_fract_x
 _atom_site_fract_y
 _atom_site_fract_z
 _atom_site_occupancy
  O  O0  1  0.17596292  0.59522122  0.41397437  1
  O  O1  1  0.59522122  0.41397437  0.17596292  1
  O  O2  1  0.41397437  0.17596292  0.59522122  1
  O  O3  1  0.82403708  0.40477878  0.58602563  1
  O  O4  1  0.40477878  0.58602563  0.82403708  1
  O  O5  1  0.58602563  0.82403708  0.40477878  1
  O  O6  1  0.70419059  0.04162556  0.89713956  1
  O  O7  1  0.10286044  0.29580941  0.95837444  1
  O  O8  1  0.95837444  0.10286044  0.29580941  1
  O  O9  1  0.29580941  0.95837444  0.10286044  1
  O  O10  1  0.89713956  0.70419059  0.04162556  1
  O  O11  1  0.04162556  0.89713956  0.70419059  1
  In  In12  1  0.39557247  0.85978845  0.67623806  1
  In  In13  1  0.85978845  0.67623806  0.39557247  1
  In  In14  1  0.67623806  0.39557247  0.85978845  1
  In  In15  1  0.60442753  0.14021155  0.32376194  1
  In  In16  1  0.14021155  0.32376194  0.60442753  1
  In  In17  1  0.32376194  0.60442753  0.14021155  1
  W  W18  1  0.00000000  0.00000000  0.00000000  1
