# generated using pymatgen
data_Li4Ge9O20
_symmetry_space_group_name_H-M   'P 1'
_cell_length_a   7.49721621
_cell_length_b   7.49721621
_cell_length_c   7.60146434
_cell_angle_alpha   89.49195695
_cell_angle_beta   89.49195697
_cell_angle_gamma   65.48828653
_symmetry_Int_Tables_number   1
_chemical_formula_structural   Li4Ge9O20
_chemical_formula_sum   'Li4 Ge9 O20'
_cell_volume   388.73678099
_cell_formula_units_Z   1
loop_
 _symmetry_equiv_pos_site_id
 _symmetry_equiv_pos_as_xyz
  1  'x, y, z'
loop_
 _atom_site_type_symbol
 _atom_site_label
 _atom_site_symmetry_multiplicity
 _atom_site_fract_x
 _atom_site_fract_y
 _atom_site_fract_z
 _atom_site_occupancy
  Li  Li0  1  0.65352210  0.93250788  0.61801323  1
  Li  Li1  1  0.06749212  0.34647790  0.38198677  1
  Li  Li2  1  0.67198585  0.32801415  0.00000000  1
  Li  Li3  1  0.29038324  0.70961676  0.00000000  1
  O  O4  1  0.78178516  0.44196908  0.45501769  1
  O  O5  1  0.55803092  0.21821484  0.54498231  1
  O  O6  1  0.85163448  0.49655114  0.12952115  1
  O  O7  1  0.50344886  0.14836552  0.87047885  1
  O  O8  1  0.54340552  0.83918152  0.11597474  1
  O  O9  1  0.08529189  0.89302379  0.68131525  1
  O  O10  1  0.10697621  0.91470811  0.31868475  1
  O  O11  1  0.47931413  0.53350749  0.21467579  1
  O  O12  1  0.46649251  0.52068587  0.78532421  1
  O  O13  1  0.84333239  0.29119954  0.79883332  1
  O  O14  1  0.70880046  0.15666761  0.20116668  1
  O  O15  1  0.19084718  0.03563664  0.96970502  1
  O  O16  1  0.96436336  0.80915282  0.03029498  1
  O  O17  1  0.47548758  0.75917831  0.50130062  1
  O  O18  1  0.24082169  0.52451242  0.49869938  1
  O  O19  1  0.20967768  0.20660044  0.61277434  1
  O  O20  1  0.79339956  0.79032232  0.38722566  1
  O  O21  1  0.75291981  0.68713929  0.76968197  1
  O  O22  1  0.31286071  0.24708019  0.23031803  1
  O  O23  1  0.16081848  0.45659448  0.88402526  1
  Ge  Ge24  1  0.65234563  0.65070738  0.29102263  1
  Ge  Ge25  1  0.34929262  0.34765437  0.70897737  1
  Ge  Ge26  1  0.39263491  0.07903445  0.04957884  1
  Ge  Ge27  1  0.92096555  0.60736509  0.95042116  1
  Ge  Ge28  1  0.88328835  0.91601429  0.24014329  1
  Ge  Ge29  1  0.08398571  0.11671165  0.75985671  1
  Ge  Ge30  1  0.49191120  0.31840302  0.33043022  1
  Ge  Ge31  1  0.68159698  0.50808880  0.66956978  1
  Ge  Ge32  1  0.23358717  0.76641283  0.50000000  1
