# generated using pymatgen
data_CClF3
_symmetry_space_group_name_H-M   'P 1'
_cell_length_a   4.89407544
_cell_length_b   6.19318692
_cell_length_c   6.19318692
_cell_angle_alpha   105.54520625
_cell_angle_beta   90.00000000
_cell_angle_gamma   90.00000000
_symmetry_Int_Tables_number   1
_chemical_formula_structural   CClF3
_chemical_formula_sum   'C2 Cl2 F6'
_cell_volume   180.84827845
_cell_formula_units_Z   2
loop_
 _symmetry_equiv_pos_site_id
 _symmetry_equiv_pos_as_xyz
  1  'x, y, z'
loop_
 _atom_site_type_symbol
 _atom_site_label
 _atom_site_symmetry_multiplicity
 _atom_site_fract_x
 _atom_site_fract_y
 _atom_site_fract_z
 _atom_site_occupancy
  C  C0  1  0.00155748  0.31036341  0.68963659  1
  C  C1  1  0.50155748  0.68963659  0.31036341  1
  F  F2  1  0.72702204  0.32456764  0.67543236  1
  F  F3  1  0.22702204  0.67543236  0.32456764  1
  F  F4  1  0.10209680  0.22719141  0.48048509  1
  F  F5  1  0.60209680  0.77280859  0.51951491  1
  F  F6  1  0.10209680  0.51951491  0.77280859  1
  F  F7  1  0.60209680  0.48048509  0.22719141  1
  Cl  Cl8  1  0.09272688  0.13833024  0.86166976  1
  Cl  Cl9  1  0.59272688  0.86166976  0.13833024  1
