# generated using pymatgen
data_PbBr2
_symmetry_space_group_name_H-M   'P 1'
_cell_length_a   4.79416389
_cell_length_b   8.27027786
_cell_length_c   10.08771025
_cell_angle_alpha   90.00000000
_cell_angle_beta   90.00000000
_cell_angle_gamma   90.00000000
_symmetry_Int_Tables_number   1
_chemical_formula_structural   PbBr2
_chemical_formula_sum   'Pb4 Br8'
_cell_volume   399.96830439
_cell_formula_units_Z   4
loop_
 _symmetry_equiv_pos_site_id
 _symmetry_equiv_pos_as_xyz
  1  'x, y, z'
loop_
 _atom_site_type_symbol
 _atom_site_label
 _atom_site_symmetry_multiplicity
 _atom_site_fract_x
 _atom_site_fract_y
 _atom_site_fract_z
 _atom_site_occupancy
  Pb  Pb0  1  0.75000000  0.22973292  0.56803386  1
  Pb  Pb1  1  0.25000000  0.27026708  0.06803386  1
  Pb  Pb2  1  0.25000000  0.77026708  0.43196614  1
  Pb  Pb3  1  0.75000000  0.72973292  0.93196614  1
  Br  Br4  1  0.75000000  0.00639407  0.34502720  1
  Br  Br5  1  0.25000000  0.85842105  0.08496407  1
  Br  Br6  1  0.25000000  0.99360593  0.65497280  1
  Br  Br7  1  0.25000000  0.49360593  0.84502720  1
  Br  Br8  1  0.25000000  0.35842105  0.41503593  1
  Br  Br9  1  0.75000000  0.50639407  0.15497280  1
  Br  Br10  1  0.75000000  0.64157895  0.58496407  1
  Br  Br11  1  0.75000000  0.14157895  0.91503593  1
