# generated using pymatgen
data_Na3YBr6
_symmetry_space_group_name_H-M   'P 1'
_cell_length_a   7.30558208
_cell_length_b   7.76749609
_cell_length_c   10.93136337
_cell_angle_alpha   90.00000000
_cell_angle_beta   90.59147719
_cell_angle_gamma   90.00000000
_symmetry_Int_Tables_number   1
_chemical_formula_structural   Na3YBr6
_chemical_formula_sum   'Na6 Y2 Br12'
_cell_volume   620.27897074
_cell_formula_units_Z   2
loop_
 _symmetry_equiv_pos_site_id
 _symmetry_equiv_pos_as_xyz
  1  'x, y, z'
loop_
 _atom_site_type_symbol
 _atom_site_label
 _atom_site_symmetry_multiplicity
 _atom_site_fract_x
 _atom_site_fract_y
 _atom_site_fract_z
 _atom_site_occupancy
  Na  Na0  1  0.50000000  0.50000000  0.00000000  1
  Na  Na1  1  0.02803093  0.58509964  0.73516634  1
  Na  Na2  1  0.47196907  0.08509964  0.76483366  1
  Na  Na3  1  0.00000000  0.00000000  0.50000000  1
  Na  Na4  1  0.52803093  0.91490036  0.23516634  1
  Na  Na5  1  0.97196907  0.41490036  0.26483366  1
  Br  Br6  1  0.81611468  0.67892339  0.43470041  1
  Br  Br7  1  0.68388532  0.17892339  0.06529959  1
  Br  Br8  1  0.16836600  0.30611586  0.91980608  1
  Br  Br9  1  0.33163400  0.80611586  0.58019392  1
  Br  Br10  1  0.83163400  0.69388414  0.08019392  1
  Br  Br11  1  0.66836600  0.19388414  0.41980608  1
  Br  Br12  1  0.14130173  0.06289926  0.23797620  1
  Br  Br13  1  0.35869827  0.56289926  0.26202380  1
  Br  Br14  1  0.85869827  0.93710074  0.76202380  1
  Br  Br15  1  0.64130173  0.43710074  0.73797620  1
  Br  Br16  1  0.31611468  0.82107661  0.93470041  1
  Br  Br17  1  0.18388532  0.32107661  0.56529959  1
  Y  Y18  1  0.50000000  0.50000000  0.50000000  1
  Y  Y19  1  0.00000000  0.00000000  0.00000000  1
