# generated using pymatgen
data_Li6Si2O7
_symmetry_space_group_name_H-M   'P 1'
_cell_length_a   4.91555678
_cell_length_b   7.80200150
_cell_length_c   7.80200150
_cell_angle_alpha   90.00000000
_cell_angle_beta   90.00000000
_cell_angle_gamma   90.00000000
_symmetry_Int_Tables_number   1
_chemical_formula_structural   Li6Si2O7
_chemical_formula_sum   'Li12 Si4 O14'
_cell_volume   299.21597458
_cell_formula_units_Z   2
loop_
 _symmetry_equiv_pos_site_id
 _symmetry_equiv_pos_as_xyz
  1  'x, y, z'
loop_
 _atom_site_type_symbol
 _atom_site_label
 _atom_site_symmetry_multiplicity
 _atom_site_fract_x
 _atom_site_fract_y
 _atom_site_fract_z
 _atom_site_occupancy
  Li  Li0  1  0.70354416  0.63695546  0.58263954  1
  Li  Li1  1  0.70354416  0.36304454  0.41736046  1
  Li  Li2  1  0.29645584  0.41736046  0.63695546  1
  Li  Li3  1  0.29645584  0.58263954  0.36304454  1
  Li  Li4  1  0.29645584  0.13695546  0.91736046  1
  Li  Li5  1  0.70354416  0.08263954  0.13695546  1
  Li  Li6  1  0.68476579  0.88875452  0.38875452  1
  Li  Li7  1  0.31523421  0.38875452  0.11124548  1
  Li  Li8  1  0.31523421  0.61124548  0.88875452  1
  Li  Li9  1  0.68476579  0.11124548  0.61124548  1
  Li  Li10  1  0.70354416  0.91736046  0.86304454  1
  Li  Li11  1  0.29645584  0.86304454  0.08263954  1
  O  O12  1  0.70931660  0.16511126  0.90223730  1
  O  O13  1  0.29068340  0.90223730  0.83488874  1
  O  O14  1  0.70931660  0.59776270  0.33488874  1
  O  O15  1  0.70931660  0.40223730  0.66511126  1
  O  O16  1  0.29068340  0.33488874  0.40223730  1
  O  O17  1  0.29068340  0.66511126  0.59776270  1
  O  O18  1  0.15307872  0.63078369  0.13078369  1
  O  O19  1  0.84692128  0.13078369  0.36921631  1
  O  O20  1  0.84692128  0.86921631  0.63078369  1
  O  O21  1  0.15307872  0.36921631  0.86921631  1
  O  O22  1  0.68410189  0.50000000  0.00000000  1
  O  O23  1  0.31589811  0.00000000  0.50000000  1
  O  O24  1  0.70931660  0.83488874  0.09776270  1
  O  O25  1  0.29068340  0.09776270  0.16511126  1
  Si  Si26  1  0.82070744  0.64372882  0.14372882  1
  Si  Si27  1  0.17929256  0.14372882  0.35627118  1
  Si  Si28  1  0.17929256  0.85627118  0.64372882  1
  Si  Si29  1  0.82070744  0.35627118  0.85627118  1
