# generated using pymatgen
data_P4(SO2)3
_symmetry_space_group_name_H-M   'P 1'
_cell_length_a   8.68306379
_cell_length_b   10.18478069
_cell_length_c   12.95302576
_cell_angle_alpha   91.10393759
_cell_angle_beta   90.00000000
_cell_angle_gamma   90.00000000
_symmetry_Int_Tables_number   1
_chemical_formula_structural   P4(SO2)3
_chemical_formula_sum   'P16 S12 O24'
_cell_volume   1145.28951724
_cell_formula_units_Z   4
loop_
 _symmetry_equiv_pos_site_id
 _symmetry_equiv_pos_as_xyz
  1  'x, y, z'
loop_
 _atom_site_type_symbol
 _atom_site_label
 _atom_site_symmetry_multiplicity
 _atom_site_fract_x
 _atom_site_fract_y
 _atom_site_fract_z
 _atom_site_occupancy
  O  O0  1  0.42396453  0.52180627  0.88038386  1
  O  O1  1  0.90423098  0.78838985  0.24187758  1
  O  O2  1  0.59576902  0.28838985  0.24187758  1
  O  O3  1  0.09576902  0.21161015  0.75812242  1
  O  O4  1  0.36553909  0.48021500  0.68911048  1
  O  O5  1  0.86553909  0.01978500  0.31088952  1
  O  O6  1  0.63446091  0.51978500  0.31088952  1
  O  O7  1  0.13446091  0.98021500  0.68911048  1
  O  O8  1  0.66365291  0.64677846  0.83114043  1
  O  O9  1  0.16365291  0.85322154  0.16885957  1
  O  O10  1  0.33634709  0.35322154  0.16885957  1
  O  O11  1  0.83634709  0.14677846  0.83114043  1
  O  O12  1  0.87267815  0.91498378  0.76250512  1
  O  O13  1  0.40423098  0.71161015  0.75812242  1
  O  O14  1  0.37267815  0.58501622  0.23749488  1
  O  O15  1  0.12732185  0.08501622  0.23749488  1
  O  O16  1  0.92396453  0.97819373  0.11961614  1
  O  O17  1  0.57603547  0.47819373  0.11961614  1
  O  O18  1  0.07603547  0.02180627  0.88038386  1
  O  O19  1  0.60552223  0.60662507  0.64165855  1
  O  O20  1  0.10552223  0.89337493  0.35834145  1
  O  O21  1  0.39447777  0.39337493  0.35834145  1
  O  O22  1  0.89447777  0.10662507  0.64165855  1
  O  O23  1  0.62732185  0.41498378  0.76250512  1
  P  P24  1  0.48495189  0.67085767  0.86700277  1
  P  P25  1  0.98495189  0.82914233  0.13299723  1
  P  P26  1  0.78584235  0.05043320  0.73413831  1
  P  P27  1  0.01504811  0.17085767  0.86700277  1
  P  P28  1  0.43919843  0.40099343  0.79044558  1
  P  P29  1  0.93919843  0.09900657  0.20955442  1
  P  P30  1  0.56080157  0.59900657  0.20955442  1
  P  P31  1  0.06080157  0.90099343  0.79044558  1
  P  P32  1  0.41836863  0.62401146  0.65074953  1
  P  P33  1  0.91836863  0.87598854  0.34925047  1
  P  P34  1  0.58163137  0.37598854  0.34925047  1
  P  P35  1  0.08163137  0.12401146  0.65074953  1
  P  P36  1  0.71415765  0.55043320  0.73413831  1
  P  P37  1  0.21415765  0.94956680  0.26586169  1
  P  P38  1  0.28584235  0.44956680  0.26586169  1
  P  P39  1  0.51504811  0.32914233  0.13299723  1
  S  S40  1  0.31779291  0.69325739  0.53583728  1
  S  S41  1  0.68220709  0.30674261  0.46416272  1
  S  S42  1  0.18220709  0.19325739  0.53583728  1
  S  S43  1  0.45472143  0.78976265  0.97812287  1
  S  S44  1  0.95472143  0.71023735  0.02187713  1
  S  S45  1  0.54527857  0.21023735  0.02187713  1
  S  S46  1  0.04527857  0.28976265  0.97812287  1
  S  S47  1  0.92591429  0.54070599  0.70520021  1
  S  S48  1  0.42591429  0.95929401  0.29479979  1
  S  S49  1  0.07408571  0.45929401  0.29479979  1
  S  S50  1  0.57408571  0.04070599  0.70520021  1
  S  S51  1  0.81779291  0.80674261  0.46416272  1
