# generated using pymatgen
data_HgTeO3
_symmetry_space_group_name_H-M   'P 1'
_cell_length_a   6.31405151
_cell_length_b   7.62245892
_cell_length_c   7.74039702
_cell_angle_alpha   84.05775586
_cell_angle_beta   65.36805299
_cell_angle_gamma   87.81756472
_symmetry_Int_Tables_number   1
_chemical_formula_structural   HgTeO3
_chemical_formula_sum   'Hg4 Te4 O12'
_cell_volume   336.81040163
_cell_formula_units_Z   4
loop_
 _symmetry_equiv_pos_site_id
 _symmetry_equiv_pos_as_xyz
  1  'x, y, z'
loop_
 _atom_site_type_symbol
 _atom_site_label
 _atom_site_symmetry_multiplicity
 _atom_site_fract_x
 _atom_site_fract_y
 _atom_site_fract_z
 _atom_site_occupancy
  O  O0  1  0.27246514  0.54347269  0.98187534  1
  O  O1  1  0.72753486  0.45652731  0.01812466  1
  O  O2  1  0.91375777  0.56101632  0.34996997  1
  O  O3  1  0.08624223  0.43898368  0.65003003  1
  O  O4  1  0.35894980  0.69885900  0.27591410  1
  O  O5  1  0.64105020  0.30114100  0.72408590  1
  O  O6  1  0.97002912  0.82123589  0.80281049  1
  O  O7  1  0.02997088  0.17876411  0.19718951  1
  O  O8  1  0.66681852  0.00894761  0.13648759  1
  O  O9  1  0.33318148  0.99105239  0.86351241  1
  O  O10  1  0.28226445  0.04539252  0.51497265  1
  O  O11  1  0.71773555  0.95460748  0.48502735  1
  Te  Te12  1  0.77027562  0.51568530  0.76117508  1
  Te  Te13  1  0.22972438  0.48431470  0.23882492  1
  Te  Te14  1  0.31654745  0.85213147  0.67841465  1
  Te  Te15  1  0.68345255  0.14786853  0.32158535  1
  Hg  Hg16  1  0.79374895  0.71935548  0.15143894  1
  Hg  Hg17  1  0.20625105  0.28064452  0.84856106  1
  Hg  Hg18  1  0.20359651  0.94085746  0.23362409  1
  Hg  Hg19  1  0.79640349  0.05914254  0.76637591  1
