# generated using pymatgen
data_Cr2P
_symmetry_space_group_name_H-M   'P 1'
_cell_length_a   6.33367566
_cell_length_b   6.55129880
_cell_length_c   6.84341012
_cell_angle_alpha   118.59775615
_cell_angle_beta   117.56517320
_cell_angle_gamma   90.00000003
_symmetry_Int_Tables_number   1
_chemical_formula_structural   Cr2P
_chemical_formula_sum   'Cr12 P6'
_cell_volume   211.87663662
_cell_formula_units_Z   6
loop_
 _symmetry_equiv_pos_site_id
 _symmetry_equiv_pos_as_xyz
  1  'x, y, z'
loop_
 _atom_site_type_symbol
 _atom_site_label
 _atom_site_symmetry_multiplicity
 _atom_site_fract_x
 _atom_site_fract_y
 _atom_site_fract_z
 _atom_site_occupancy
  P  P0  1  0.66423543  0.93742484  0.33000212  1
  P  P1  1  0.33423331  0.06257516  0.66999788  1
  P  P2  1  0.66423543  0.39257728  0.33000212  1
  P  P3  1  0.33423331  0.60742272  0.66999788  1
  P  P4  1  0.92007741  0.50000000  0.00000000  1
  P  P5  1  0.02639932  0.00000000  0.00000000  1
  Cr  Cr6  1  0.74215984  0.20490873  0.00000000  1
  Cr  Cr7  1  0.74215984  0.79509127  0.00000000  1
  Cr  Cr8  1  0.25287876  0.41682601  0.25043084  1
  Cr  Cr9  1  0.00244792  0.58317399  0.74956916  1
  Cr  Cr10  1  0.25287876  0.83360482  0.25043084  1
  Cr  Cr11  1  0.00244792  0.16639518  0.74956916  1
  Cr  Cr12  1  0.97904292  0.71209423  0.42418847  1
  Cr  Cr13  1  0.55485446  0.28790577  0.57581153  1
  Cr  Cr14  1  0.06585509  0.21492306  0.42984611  1
  Cr  Cr15  1  0.63600898  0.78507694  0.57015389  1
  Cr  Cr16  1  0.45118514  0.50000000  0.00000000  1
  Cr  Cr17  1  0.37296615  0.00000000  0.00000000  1
