# generated using pymatgen
data_Ca2Sn3S8
_symmetry_space_group_name_H-M   'P 1'
_cell_length_a   5.72651844
_cell_length_b   15.77172516
_cell_length_c   16.49716394
_cell_angle_alpha   96.86927408
_cell_angle_beta   90.00000000
_cell_angle_gamma   90.00000000
_symmetry_Int_Tables_number   1
_chemical_formula_structural   Ca2Sn3S8
_chemical_formula_sum   'Ca8 Sn12 S32'
_cell_volume   1479.27998810
_cell_formula_units_Z   4
loop_
 _symmetry_equiv_pos_site_id
 _symmetry_equiv_pos_as_xyz
  1  'x, y, z'
loop_
 _atom_site_type_symbol
 _atom_site_label
 _atom_site_symmetry_multiplicity
 _atom_site_fract_x
 _atom_site_fract_y
 _atom_site_fract_z
 _atom_site_occupancy
  Ca  Ca0  1  0.29474533  0.41736470  0.41285921  1
  Ca  Ca1  1  0.79474533  0.58263530  0.08714079  1
  Ca  Ca2  1  0.70525467  0.58263530  0.58714079  1
  Ca  Ca3  1  0.20525467  0.41736470  0.91285921  1
  Ca  Ca4  1  0.76247270  0.14427845  0.45480164  1
  Ca  Ca5  1  0.26247270  0.85572155  0.04519836  1
  Ca  Ca6  1  0.23752730  0.85572155  0.54519836  1
  Ca  Ca7  1  0.73752730  0.14427845  0.95480164  1
  Sn  Sn8  1  0.31680033  0.37673986  0.11427242  1
  Sn  Sn9  1  0.81680033  0.62326014  0.38572758  1
  Sn  Sn10  1  0.68319967  0.62326014  0.88572758  1
  Sn  Sn11  1  0.18319967  0.37673986  0.61427242  1
  Sn  Sn12  1  0.81641775  0.28826057  0.23653077  1
  Sn  Sn13  1  0.31641775  0.71173943  0.26346923  1
  Sn  Sn14  1  0.18358225  0.71173943  0.76346923  1
  Sn  Sn15  1  0.68358225  0.28826057  0.73653077  1
  Sn  Sn16  1  0.81229875  0.02290203  0.17208622  1
  Sn  Sn17  1  0.31229875  0.97709797  0.32791378  1
  Sn  Sn18  1  0.18770125  0.97709797  0.82791378  1
  Sn  Sn19  1  0.68770125  0.02290203  0.67208622  1
  S  S20  1  0.26009738  0.51784322  0.07804332  1
  S  S21  1  0.76009738  0.48215678  0.42195668  1
  S  S22  1  0.73990262  0.48215678  0.92195668  1
  S  S23  1  0.23990262  0.51784322  0.57804332  1
  S  S24  1  0.26038127  0.27295852  0.00071026  1
  S  S25  1  0.76038127  0.72704148  0.49928974  1
  S  S26  1  0.73961873  0.72704148  0.99928974  1
  S  S27  1  0.23961873  0.27295852  0.50071026  1
  S  S28  1  0.73271041  0.40027607  0.15125688  1
  S  S29  1  0.23271041  0.59972393  0.34874312  1
  S  S30  1  0.26728959  0.59972393  0.84874312  1
  S  S31  1  0.76728959  0.40027607  0.65125688  1
  S  S32  1  0.23132925  0.32370070  0.24684327  1
  S  S33  1  0.73132925  0.67629930  0.25315673  1
  S  S34  1  0.76867075  0.67629930  0.75315673  1
  S  S35  1  0.26867075  0.32370070  0.74684327  1
  S  S36  1  0.66004610  0.27500860  0.36641097  1
  S  S37  1  0.16004610  0.72499140  0.13358903  1
  S  S38  1  0.33995390  0.72499140  0.63358903  1
  S  S39  1  0.83995390  0.27500860  0.86641097  1
  S  S40  1  0.72770564  0.16399097  0.13331730  1
  S  S41  1  0.22770564  0.83600903  0.36668270  1
  S  S42  1  0.27229436  0.83600903  0.86668270  1
  S  S43  1  0.77229436  0.16399097  0.63331730  1
  S  S44  1  0.74899981  0.92489763  0.05477526  1
  S  S45  1  0.24899981  0.07510237  0.44522474  1
  S  S46  1  0.25100019  0.07510237  0.94522474  1
  S  S47  1  0.75100019  0.92489763  0.55477526  1
  S  S48  1  0.24214928  0.00013905  0.18544174  1
  S  S49  1  0.74214928  0.99986095  0.31455826  1
  S  S50  1  0.75785072  0.99986095  0.81455826  1
  S  S51  1  0.25785072  0.00013905  0.68544174  1
