# generated using pymatgen
data_Ag(W3Br7)2
_symmetry_space_group_name_H-M   'P 1'
_cell_length_a   13.76100270
_cell_length_b   13.76100270
_cell_length_c   13.76100270
_cell_angle_alpha   90.00000000
_cell_angle_beta   90.00000000
_cell_angle_gamma   90.00000000
_symmetry_Int_Tables_number   1
_chemical_formula_structural   Ag(W3Br7)2
_chemical_formula_sum   'Ag4 W24 Br56'
_cell_volume   2605.85496394
_cell_formula_units_Z   4
loop_
 _symmetry_equiv_pos_site_id
 _symmetry_equiv_pos_as_xyz
  1  'x, y, z'
loop_
 _atom_site_type_symbol
 _atom_site_label
 _atom_site_symmetry_multiplicity
 _atom_site_fract_x
 _atom_site_fract_y
 _atom_site_fract_z
 _atom_site_occupancy
  Br  Br0  1  0.13736773  0.13736773  0.13736773  1
  Br  Br1  1  0.36263227  0.36263227  0.13736773  1
  Br  Br2  1  0.13736773  0.36263227  0.36263227  1
  Br  Br3  1  0.36263227  0.13736773  0.36263227  1
  Br  Br4  1  0.86263227  0.86263227  0.86263227  1
  Br  Br5  1  0.63736773  0.63736773  0.86263227  1
  Br  Br6  1  0.86263227  0.63736773  0.63736773  1
  Br  Br7  1  0.63736773  0.86263227  0.63736773  1
  Br  Br8  1  0.18328262  0.07474417  0.87320006  1
  Br  Br9  1  0.87320006  0.18328262  0.07474417  1
  Br  Br10  1  0.07474417  0.87320006  0.18328262  1
  Br  Br11  1  0.42525583  0.62679994  0.18328262  1
  Br  Br12  1  0.87320006  0.31671738  0.42525583  1
  Br  Br13  1  0.42525583  0.87320006  0.31671738  1
  Br  Br14  1  0.62679994  0.31671738  0.07474417  1
  Br  Br15  1  0.62679994  0.18328262  0.42525583  1
  Br  Br16  1  0.07474417  0.62679994  0.31671738  1
  Br  Br17  1  0.18328262  0.42525583  0.62679994  1
  Br  Br18  1  0.31671738  0.07474417  0.62679994  1
  Br  Br19  1  0.31671738  0.42525583  0.87320006  1
  Br  Br20  1  0.81671738  0.92525583  0.12679994  1
  Br  Br21  1  0.12679994  0.81671738  0.92525583  1
  Br  Br22  1  0.92525583  0.12679994  0.81671738  1
  Br  Br23  1  0.57474417  0.37320006  0.81671738  1
  Br  Br24  1  0.12679994  0.68328262  0.57474417  1
  Br  Br25  1  0.57474417  0.12679994  0.68328262  1
  Br  Br26  1  0.37320006  0.68328262  0.92525583  1
  Br  Br27  1  0.37320006  0.81671738  0.57474417  1
  Br  Br28  1  0.92525583  0.37320006  0.68328262  1
  Br  Br29  1  0.81671738  0.57474417  0.37320006  1
  Br  Br30  1  0.68328262  0.92525583  0.37320006  1
  Br  Br31  1  0.68328262  0.57474417  0.12679994  1
  Br  Br32  1  0.31189676  0.94250942  0.07788994  1
  Br  Br33  1  0.07788994  0.31189676  0.94250942  1
  Br  Br34  1  0.94250942  0.07788994  0.31189676  1
  Br  Br35  1  0.55749058  0.42211006  0.31189676  1
  Br  Br36  1  0.07788994  0.18810324  0.55749058  1
  Br  Br37  1  0.55749058  0.07788994  0.18810324  1
  Br  Br38  1  0.42211006  0.18810324  0.94250942  1
  Br  Br39  1  0.42211006  0.31189676  0.55749058  1
  Br  Br40  1  0.94250942  0.42211006  0.18810324  1
  Br  Br41  1  0.31189676  0.55749058  0.42211006  1
  Br  Br42  1  0.18810324  0.94250942  0.42211006  1
  Br  Br43  1  0.18810324  0.55749058  0.07788994  1
  Br  Br44  1  0.68810324  0.05749058  0.92211006  1
  Br  Br45  1  0.92211006  0.68810324  0.05749058  1
  Br  Br46  1  0.05749058  0.92211006  0.68810324  1
  Br  Br47  1  0.44250942  0.57788994  0.68810324  1
  Br  Br48  1  0.92211006  0.81189676  0.44250942  1
  Br  Br49  1  0.44250942  0.92211006  0.81189676  1
  Br  Br50  1  0.57788994  0.81189676  0.05749058  1
  Br  Br51  1  0.57788994  0.68810324  0.44250942  1
  Br  Br52  1  0.05749058  0.57788994  0.81189676  1
  Br  Br53  1  0.68810324  0.44250942  0.57788994  1
  Br  Br54  1  0.81189676  0.05749058  0.57788994  1
  Br  Br55  1  0.81189676  0.44250942  0.92211006  1
  Ag  Ag56  1  0.50000000  0.00000000  0.00000000  1
  Ag  Ag57  1  0.00000000  0.50000000  0.00000000  1
  Ag  Ag58  1  0.00000000  0.00000000  0.50000000  1
  Ag  Ag59  1  0.50000000  0.50000000  0.50000000  1
  W  W60  1  0.13171652  0.97709808  0.03083763  1
  W  W61  1  0.03083763  0.13171652  0.97709808  1
  W  W62  1  0.97709808  0.03083763  0.13171652  1
  W  W63  1  0.52290192  0.46916237  0.13171652  1
  W  W64  1  0.03083763  0.36828348  0.52290192  1
  W  W65  1  0.52290192  0.03083763  0.36828348  1
  W  W66  1  0.46916237  0.36828348  0.97709808  1
  W  W67  1  0.46916237  0.13171652  0.52290192  1
  W  W68  1  0.97709808  0.46916237  0.36828348  1
  W  W69  1  0.13171652  0.52290192  0.46916237  1
  W  W70  1  0.36828348  0.97709808  0.46916237  1
  W  W71  1  0.36828348  0.52290192  0.03083763  1
  W  W72  1  0.86828348  0.02290192  0.96916237  1
  W  W73  1  0.96916237  0.86828348  0.02290192  1
  W  W74  1  0.02290192  0.96916237  0.86828348  1
  W  W75  1  0.47709808  0.53083763  0.86828348  1
  W  W76  1  0.96916237  0.63171652  0.47709808  1
  W  W77  1  0.47709808  0.96916237  0.63171652  1
  W  W78  1  0.53083763  0.63171652  0.02290192  1
  W  W79  1  0.53083763  0.86828348  0.47709808  1
  W  W80  1  0.02290192  0.53083763  0.63171652  1
  W  W81  1  0.86828348  0.47709808  0.53083763  1
  W  W82  1  0.63171652  0.02290192  0.53083763  1
  W  W83  1  0.63171652  0.47709808  0.96916237  1
