# generated using pymatgen
data_Mg5(HO3)2
_symmetry_space_group_name_H-M   'P 1'
_cell_length_a   3.04730214
_cell_length_b   3.04730214
_cell_length_c   14.81210124
_cell_angle_alpha   90.00000000
_cell_angle_beta   90.00000000
_cell_angle_gamma   119.99999996
_symmetry_Int_Tables_number   1
_chemical_formula_structural   Mg5(HO3)2
_chemical_formula_sum   'Mg5 H2 O6'
_cell_volume   119.11825904
_cell_formula_units_Z   1
loop_
 _symmetry_equiv_pos_site_id
 _symmetry_equiv_pos_as_xyz
  1  'x, y, z'
loop_
 _atom_site_type_symbol
 _atom_site_label
 _atom_site_symmetry_multiplicity
 _atom_site_fract_x
 _atom_site_fract_y
 _atom_site_fract_z
 _atom_site_occupancy
  H  H0  1  0.33333333  0.66666667  0.53120540  1
  H  H1  1  0.66666667  0.33333333  0.46879460  1
  O  O2  1  0.33333333  0.66666667  0.08271962  1
  O  O3  1  0.66666667  0.33333333  0.91728038  1
  O  O4  1  0.00000000  0.00000000  0.24819097  1
  O  O5  1  0.66666667  0.33333333  0.40344351  1
  O  O6  1  0.33333333  0.66666667  0.59655649  1
  O  O7  1  0.00000000  0.00000000  0.75180903  1
  Mg  Mg8  1  0.66666667  0.33333333  0.66876162  1
  Mg  Mg9  1  0.33333333  0.66666667  0.33123838  1
  Mg  Mg10  1  0.33333333  0.66666667  0.83460622  1
  Mg  Mg11  1  0.66666667  0.33333333  0.16539378  1
  Mg  Mg12  1  0.00000000  0.00000000  0.00000000  1
