# generated using pymatgen
data_TlGeI3
_symmetry_space_group_name_H-M   'P 1'
_cell_length_a   4.45466547
_cell_length_b   10.41024071
_cell_length_c   16.56718102
_cell_angle_alpha   90.00000000
_cell_angle_beta   90.00000000
_cell_angle_gamma   90.00000000
_symmetry_Int_Tables_number   1
_chemical_formula_structural   TlGeI3
_chemical_formula_sum   'Tl4 Ge4 I12'
_cell_volume   768.28876913
_cell_formula_units_Z   4
loop_
 _symmetry_equiv_pos_site_id
 _symmetry_equiv_pos_as_xyz
  1  'x, y, z'
loop_
 _atom_site_type_symbol
 _atom_site_label
 _atom_site_symmetry_multiplicity
 _atom_site_fract_x
 _atom_site_fract_y
 _atom_site_fract_z
 _atom_site_occupancy
  Ge  Ge0  1  0.25000000  0.66495536  0.44193713  1
  Ge  Ge1  1  0.75000000  0.33504464  0.55806287  1
  Ge  Ge2  1  0.25000000  0.16495536  0.05806287  1
  Ge  Ge3  1  0.75000000  0.83504464  0.94193713  1
  I  I4  1  0.75000000  0.98502157  0.11129965  1
  I  I5  1  0.25000000  0.01497843  0.88870035  1
  I  I6  1  0.75000000  0.48502157  0.38870035  1
  I  I7  1  0.25000000  0.51497843  0.61129965  1
  I  I8  1  0.75000000  0.83518502  0.50851395  1
  I  I9  1  0.25000000  0.16481498  0.49148605  1
  I  I10  1  0.75000000  0.33518502  0.99148605  1
  I  I11  1  0.25000000  0.66481498  0.00851395  1
  I  I12  1  0.75000000  0.70609691  0.78833028  1
  I  I13  1  0.25000000  0.29390309  0.21166972  1
  I  I14  1  0.75000000  0.20609691  0.71166972  1
  I  I15  1  0.25000000  0.79390309  0.28833028  1
  Tl  Tl16  1  0.25000000  0.93447992  0.67369499  1
  Tl  Tl17  1  0.75000000  0.06552008  0.32630501  1
  Tl  Tl18  1  0.25000000  0.43447992  0.82630501  1
  Tl  Tl19  1  0.75000000  0.56552008  0.17369499  1
