# generated using pymatgen
data_Hg4As2O7
_symmetry_space_group_name_H-M   'P 1'
_cell_length_a   7.53944721
_cell_length_b   10.27488904
_cell_length_c   12.48559563
_cell_angle_alpha   90.00000000
_cell_angle_beta   90.00000000
_cell_angle_gamma   90.00000000
_symmetry_Int_Tables_number   1
_chemical_formula_structural   Hg4As2O7
_chemical_formula_sum   'Hg16 As8 O28'
_cell_volume   967.22143073
_cell_formula_units_Z   4
loop_
 _symmetry_equiv_pos_site_id
 _symmetry_equiv_pos_as_xyz
  1  'x, y, z'
loop_
 _atom_site_type_symbol
 _atom_site_label
 _atom_site_symmetry_multiplicity
 _atom_site_fract_x
 _atom_site_fract_y
 _atom_site_fract_z
 _atom_site_occupancy
  O  O0  1  0.21468147  0.54536929  0.75000000  1
  O  O1  1  0.71468147  0.95463071  0.25000000  1
  O  O2  1  0.28531853  0.04536929  0.75000000  1
  O  O3  1  0.78531853  0.45463071  0.25000000  1
  O  O4  1  0.55102806  0.64188221  0.75000000  1
  O  O5  1  0.05102806  0.85811779  0.25000000  1
  O  O6  1  0.94897194  0.14188221  0.75000000  1
  O  O7  1  0.44897194  0.35811779  0.25000000  1
  O  O8  1  0.63475850  0.91478636  0.75000000  1
  O  O9  1  0.13475850  0.58521364  0.25000000  1
  O  O10  1  0.86524150  0.41478636  0.75000000  1
  O  O11  1  0.36524150  0.08521364  0.25000000  1
  O  O12  1  0.15668372  0.27095501  0.36426508  1
  O  O13  1  0.65668372  0.22904499  0.63573492  1
  O  O14  1  0.34331628  0.77095501  0.13573492  1
  O  O15  1  0.84331628  0.72904499  0.86426508  1
  O  O16  1  0.84331628  0.72904499  0.63573492  1
  O  O17  1  0.34331628  0.77095501  0.36426508  1
  O  O18  1  0.65668372  0.22904499  0.86426508  1
  O  O19  1  0.15668372  0.27095501  0.13573492  1
  O  O20  1  0.21364108  0.27186704  0.86948704  1
  O  O21  1  0.71364108  0.22813296  0.13051296  1
  O  O22  1  0.28635892  0.77186704  0.63051296  1
  O  O23  1  0.78635892  0.72813296  0.36948704  1
  O  O24  1  0.21364108  0.27186704  0.63051296  1
  O  O25  1  0.71364108  0.22813296  0.36948704  1
  O  O26  1  0.28635892  0.77186704  0.86948704  1
  O  O27  1  0.78635892  0.72813296  0.13051296  1
  As  As28  1  0.31857379  0.69676622  0.75000000  1
  As  As29  1  0.81857379  0.80323378  0.25000000  1
  As  As30  1  0.18142621  0.19676622  0.75000000  1
  As  As31  1  0.68142621  0.30323378  0.25000000  1
  As  As32  1  0.72277752  0.76193314  0.75000000  1
  As  As33  1  0.22277752  0.73806686  0.25000000  1
  As  As34  1  0.77722248  0.26193314  0.75000000  1
  As  As35  1  0.27722248  0.23806686  0.25000000  1
  Hg  Hg36  1  0.05378875  0.10463257  0.45115458  1
  Hg  Hg37  1  0.55378875  0.39536743  0.54884542  1
  Hg  Hg38  1  0.44621125  0.60463257  0.04884542  1
  Hg  Hg39  1  0.94621125  0.89536743  0.95115458  1
  Hg  Hg40  1  0.94621125  0.89536743  0.54884542  1
  Hg  Hg41  1  0.44621125  0.60463257  0.45115458  1
  Hg  Hg42  1  0.55378875  0.39536743  0.95115458  1
  Hg  Hg43  1  0.05378875  0.10463257  0.04884542  1
  Hg  Hg44  1  0.55808982  0.01013121  0.40219496  1
  Hg  Hg45  1  0.05808982  0.48986879  0.59780504  1
  Hg  Hg46  1  0.94191018  0.51013121  0.09780504  1
  Hg  Hg47  1  0.44191018  0.98986879  0.90219496  1
  Hg  Hg48  1  0.44191018  0.98986879  0.59780504  1
  Hg  Hg49  1  0.94191018  0.51013121  0.40219496  1
  Hg  Hg50  1  0.05808982  0.48986879  0.90219496  1
  Hg  Hg51  1  0.55808982  0.01013121  0.09780504  1
