# generated using pymatgen
data_Tl3PdCl5
_symmetry_space_group_name_H-M   'P 1'
_cell_length_a   7.78994799
_cell_length_b   16.70955892
_cell_length_c   16.76956367
_cell_angle_alpha   90.00000000
_cell_angle_beta   90.00000000
_cell_angle_gamma   90.00000000
_symmetry_Int_Tables_number   1
_chemical_formula_structural   Tl3PdCl5
_chemical_formula_sum   'Tl24 Pd8 Cl40'
_cell_volume   2182.83700126
_cell_formula_units_Z   8
loop_
 _symmetry_equiv_pos_site_id
 _symmetry_equiv_pos_as_xyz
  1  'x, y, z'
loop_
 _atom_site_type_symbol
 _atom_site_label
 _atom_site_symmetry_multiplicity
 _atom_site_fract_x
 _atom_site_fract_y
 _atom_site_fract_z
 _atom_site_occupancy
  Cl  Cl0  1  0.37432617  0.42740201  0.23773329  1
  Cl  Cl1  1  0.87432617  0.07259799  0.76226671  1
  Cl  Cl2  1  0.62567383  0.92740201  0.26226671  1
  Cl  Cl3  1  0.12567383  0.57259799  0.73773329  1
  Cl  Cl4  1  0.62567383  0.57259799  0.76226671  1
  Cl  Cl5  1  0.12567383  0.92740201  0.23773329  1
  Cl  Cl6  1  0.37432617  0.07259799  0.73773329  1
  Cl  Cl7  1  0.87432617  0.42740201  0.26226671  1
  Cl  Cl8  1  0.93314443  0.19611056  0.02619358  1
  Cl  Cl9  1  0.43314443  0.30388944  0.97380642  1
  Cl  Cl10  1  0.06685557  0.69611056  0.47380642  1
  Cl  Cl11  1  0.56685557  0.80388944  0.52619358  1
  Cl  Cl12  1  0.06685557  0.80388944  0.97380642  1
  Cl  Cl13  1  0.56685557  0.69611056  0.02619358  1
  Cl  Cl14  1  0.93314443  0.30388944  0.52619358  1
  Cl  Cl15  1  0.43314443  0.19611056  0.47380642  1
  Cl  Cl16  1  0.70846485  0.44321390  0.03849857  1
  Cl  Cl17  1  0.20846485  0.05678610  0.96150143  1
  Cl  Cl18  1  0.29153515  0.94321390  0.46150143  1
  Cl  Cl19  1  0.79153515  0.55678610  0.53849857  1
  Cl  Cl20  1  0.29153515  0.55678610  0.96150143  1
  Cl  Cl21  1  0.79153515  0.94321390  0.03849857  1
  Cl  Cl22  1  0.70846485  0.05678610  0.53849857  1
  Cl  Cl23  1  0.20846485  0.44321390  0.46150143  1
  Cl  Cl24  1  0.18414320  0.22611945  0.18144287  1
  Cl  Cl25  1  0.68414320  0.27388055  0.81855713  1
  Cl  Cl26  1  0.81585680  0.72611945  0.31855713  1
  Cl  Cl27  1  0.31585680  0.77388055  0.68144287  1
  Cl  Cl28  1  0.81585680  0.77388055  0.81855713  1
  Cl  Cl29  1  0.31585680  0.72611945  0.18144287  1
  Cl  Cl30  1  0.18414320  0.27388055  0.68144287  1
  Cl  Cl31  1  0.68414320  0.22611945  0.31855713  1
  Cl  Cl32  1  0.45476713  0.09188213  0.11654992  1
  Cl  Cl33  1  0.95476713  0.40811787  0.88345008  1
  Cl  Cl34  1  0.54523287  0.59188213  0.38345008  1
  Cl  Cl35  1  0.04523287  0.90811787  0.61654992  1
  Cl  Cl36  1  0.54523287  0.90811787  0.88345008  1
  Cl  Cl37  1  0.04523287  0.59188213  0.11654992  1
  Cl  Cl38  1  0.45476713  0.40811787  0.61654992  1
  Cl  Cl39  1  0.95476713  0.09188213  0.38345008  1
  Pd  Pd40  1  0.19156982  0.14173693  0.07159492  1
  Pd  Pd41  1  0.69156982  0.35826307  0.92840508  1
  Pd  Pd42  1  0.80843018  0.64173693  0.42840508  1
  Pd  Pd43  1  0.30843018  0.85826307  0.57159492  1
  Pd  Pd44  1  0.80843018  0.85826307  0.92840508  1
  Pd  Pd45  1  0.30843018  0.64173693  0.07159492  1
  Pd  Pd46  1  0.19156982  0.35826307  0.57159492  1
  Pd  Pd47  1  0.69156982  0.14173693  0.42840508  1
  Tl  Tl48  1  0.87429021  0.05876543  0.19422807  1
  Tl  Tl49  1  0.37429021  0.44123457  0.80577193  1
  Tl  Tl50  1  0.12570979  0.55876543  0.30577193  1
  Tl  Tl51  1  0.62570979  0.94123457  0.69422807  1
  Tl  Tl52  1  0.12570979  0.94123457  0.80577193  1
  Tl  Tl53  1  0.62570979  0.55876543  0.19422807  1
  Tl  Tl54  1  0.87429021  0.44123457  0.69422807  1
  Tl  Tl55  1  0.37429021  0.05876543  0.30577193  1
  Tl  Tl56  1  0.11097074  0.40321005  0.08552387  1
  Tl  Tl57  1  0.61097074  0.09678995  0.91447613  1
  Tl  Tl58  1  0.88902926  0.90321005  0.41447613  1
  Tl  Tl59  1  0.38902926  0.59678995  0.58552387  1
  Tl  Tl60  1  0.88902926  0.59678995  0.91447613  1
  Tl  Tl61  1  0.38902926  0.90321005  0.08552387  1
  Tl  Tl62  1  0.11097074  0.09678995  0.58552387  1
  Tl  Tl63  1  0.61097074  0.40321005  0.41447613  1
  Tl  Tl64  1  0.58921236  0.29565522  0.14963772  1
  Tl  Tl65  1  0.08921236  0.20434478  0.85036228  1
  Tl  Tl66  1  0.41078764  0.79565522  0.35036228  1
  Tl  Tl67  1  0.91078764  0.70434478  0.64963772  1
  Tl  Tl68  1  0.41078764  0.70434478  0.85036228  1
  Tl  Tl69  1  0.91078764  0.79565522  0.14963772  1
  Tl  Tl70  1  0.58921236  0.20434478  0.64963772  1
  Tl  Tl71  1  0.08921236  0.29565522  0.35036228  1
