# generated using pymatgen
data_Mg3H4O5
_symmetry_space_group_name_H-M   'P 1'
_cell_length_a   3.13004311
_cell_length_b   3.13004311
_cell_length_c   12.41955794
_cell_angle_alpha   90.00000000
_cell_angle_beta   90.00000000
_cell_angle_gamma   119.99999990
_symmetry_Int_Tables_number   1
_chemical_formula_structural   Mg3H4O5
_chemical_formula_sum   'Mg3 H4 O5'
_cell_volume   105.37495644
_cell_formula_units_Z   1
loop_
 _symmetry_equiv_pos_site_id
 _symmetry_equiv_pos_as_xyz
  1  'x, y, z'
loop_
 _atom_site_type_symbol
 _atom_site_label
 _atom_site_symmetry_multiplicity
 _atom_site_fract_x
 _atom_site_fract_y
 _atom_site_fract_z
 _atom_site_occupancy
  H  H0  1  0.66666667  0.33333333  0.26105500  1
  H  H1  1  0.33333333  0.66666667  0.73894500  1
  H  H2  1  0.33333333  0.66666667  0.33711502  1
  H  H3  1  0.66666667  0.33333333  0.66288498  1
  O  O4  1  0.66666667  0.33333333  0.58487089  1
  O  O5  1  0.33333333  0.66666667  0.41512911  1
  O  O6  1  0.33333333  0.66666667  0.81705923  1
  O  O7  1  0.00000000  0.00000000  0.00000000  1
  O  O8  1  0.66666667  0.33333333  0.18294077  1
  Mg  Mg9  1  0.33333333  0.66666667  0.09856696  1
  Mg  Mg10  1  0.66666667  0.33333333  0.90143304  1
  Mg  Mg11  1  0.00000000  0.00000000  0.50000000  1
