# generated using pymatgen
data_Cd2PCl2
_symmetry_space_group_name_H-M   'P 1'
_cell_length_a   7.85369772
_cell_length_b   8.04464919
_cell_length_c   9.11777327
_cell_angle_alpha   90.00000000
_cell_angle_beta   90.00000000
_cell_angle_gamma   118.40765969
_symmetry_Int_Tables_number   1
_chemical_formula_structural   Cd2PCl2
_chemical_formula_sum   'Cd8 P4 Cl8'
_cell_volume   506.69647770
_cell_formula_units_Z   4
loop_
 _symmetry_equiv_pos_site_id
 _symmetry_equiv_pos_as_xyz
  1  'x, y, z'
loop_
 _atom_site_type_symbol
 _atom_site_label
 _atom_site_symmetry_multiplicity
 _atom_site_fract_x
 _atom_site_fract_y
 _atom_site_fract_z
 _atom_site_occupancy
  P  P0  1  0.01006479  0.94473389  0.10863152  1
  P  P1  1  0.98993521  0.05526611  0.89136848  1
  P  P2  1  0.51006479  0.44473389  0.39136848  1
  P  P3  1  0.48993521  0.55526611  0.60863152  1
  Cl  Cl4  1  0.45118570  0.69444465  0.97329916  1
  Cl  Cl5  1  0.95118570  0.19444465  0.52670084  1
  Cl  Cl6  1  0.04881430  0.80555535  0.47329916  1
  Cl  Cl7  1  0.54881430  0.30555535  0.02670084  1
  Cl  Cl8  1  0.99886082  0.57770759  0.80402890  1
  Cl  Cl9  1  0.50113918  0.92229241  0.30402890  1
  Cl  Cl10  1  0.00113918  0.42229241  0.19597110  1
  Cl  Cl11  1  0.49886082  0.07770759  0.69597110  1
  Cd  Cd12  1  0.30127987  0.73195381  0.58081645  1
  Cd  Cd13  1  0.19872013  0.76804619  0.08081645  1
  Cd  Cd14  1  0.69872013  0.26804619  0.41918355  1
  Cd  Cd15  1  0.80127987  0.23195381  0.91918355  1
  Cd  Cd16  1  0.82215087  0.79091493  0.70487044  1
  Cd  Cd17  1  0.67784913  0.70908507  0.20487044  1
  Cd  Cd18  1  0.17784913  0.20908507  0.29512956  1
  Cd  Cd19  1  0.32215087  0.29091493  0.79512956  1
