# generated using pymatgen
data_LiCoP2O7
_symmetry_space_group_name_H-M   'P 1'
_cell_length_a   6.46254217
_cell_length_b   6.23385993
_cell_length_c   6.87294822
_cell_angle_alpha   112.51715457
_cell_angle_beta   94.98229041
_cell_angle_gamma   81.58562534
_symmetry_Int_Tables_number   1
_chemical_formula_structural   LiCoP2O7
_chemical_formula_sum   'Li2 Co2 P4 O14'
_cell_volume   252.88191036
_cell_formula_units_Z   2
loop_
 _symmetry_equiv_pos_site_id
 _symmetry_equiv_pos_as_xyz
  1  'x, y, z'
loop_
 _atom_site_type_symbol
 _atom_site_label
 _atom_site_symmetry_multiplicity
 _atom_site_fract_x
 _atom_site_fract_y
 _atom_site_fract_z
 _atom_site_occupancy
  Li  Li0  1  0.00301117  0.71102899  0.16652537  1
  Li  Li1  1  0.99698812  0.28897099  0.83347415  1
  O  O2  1  0.31653128  0.21381897  0.77058865  1
  O  O3  1  0.94932982  0.60796563  0.85761737  1
  O  O4  1  0.05067130  0.39203384  0.14238194  1
  O  O5  1  0.02940801  0.94050881  0.75569024  1
  O  O6  1  0.20931585  0.34973037  0.47166615  1
  O  O7  1  0.59649506  0.22656479  0.53231802  1
  O  O8  1  0.33209110  0.05122406  0.11802106  1
  O  O9  1  0.79068415  0.65026967  0.52833408  1
  O  O10  1  0.40350527  0.77343473  0.46768191  1
  O  O11  1  0.97059236  0.05949133  0.24431007  1
  O  O12  1  0.60251167  0.39971276  0.21170815  1
  O  O13  1  0.66790930  0.94877604  0.88197916  1
  O  O14  1  0.68346837  0.78618084  0.22941066  1
  O  O15  1  0.39749028  0.60028758  0.78829244  1
  P  P16  1  0.39193597  0.34145421  0.64258291  1
  P  P17  1  0.60806424  0.65854619  0.35741706  1
  P  P18  1  0.13277486  0.21054389  0.23237143  1
  P  P19  1  0.86722530  0.78945624  0.76762861  1
  Co  Co20  1  0.64141510  0.09580263  0.21453682  1
  Co  Co21  1  0.35858509  0.90419805  0.78546345  1
