# generated using pymatgen
data_Cr2P3O11
_symmetry_space_group_name_H-M   'P 1'
_cell_length_a   7.22284930
_cell_length_b   7.22284955
_cell_length_c   8.79583973
_cell_angle_alpha   70.87712362
_cell_angle_beta   109.12287707
_cell_angle_gamma   107.05408629
_symmetry_Int_Tables_number   1
_chemical_formula_structural   Cr2P3O11
_chemical_formula_sum   'Cr4 P6 O22'
_cell_volume   400.64299196
_cell_formula_units_Z   2
loop_
 _symmetry_equiv_pos_site_id
 _symmetry_equiv_pos_as_xyz
  1  'x, y, z'
loop_
 _atom_site_type_symbol
 _atom_site_label
 _atom_site_symmetry_multiplicity
 _atom_site_fract_x
 _atom_site_fract_y
 _atom_site_fract_z
 _atom_site_occupancy
  Cr  Cr0  1  0.88422058  0.63262485  0.04303353  1
  Cr  Cr1  1  0.36701632  0.11567329  0.54305735  1
  Cr  Cr2  1  0.11567329  0.36701632  0.95694265  1
  Cr  Cr3  1  0.63262485  0.88422058  0.45696647  1
  P  P4  1  0.95952897  0.95952897  0.25000000  1
  P  P5  1  0.32553588  0.54460115  0.28954564  1
  P  P6  1  0.45522752  0.67431449  0.78949133  1
  P  P7  1  0.54460115  0.32553588  0.21045436  1
  P  P8  1  0.04020994  0.04020994  0.75000000  1
  P  P9  1  0.67431449  0.45522752  0.71050867  1
  O  O10  1  0.05296319  0.24738004  0.77550677  1
  O  O11  1  0.37321773  0.28262879  0.06141080  1
  O  O12  1  0.94701788  0.75238081  0.22456254  1
  O  O13  1  0.24793758  0.62080975  0.81761234  1
  O  O14  1  0.14980029  0.52799127  0.12890243  1
  O  O15  1  0.87495277  0.01532376  0.59266444  1
  O  O16  1  0.28262879  0.37321773  0.43858920  1
  O  O17  1  0.48431796  0.48431796  0.75000000  1
  O  O18  1  0.84999870  0.47148225  0.87125551  1
  O  O19  1  0.52799127  0.14980029  0.37109757  1
  O  O20  1  0.75208453  0.37903296  0.18264252  1
  O  O21  1  0.75238081  0.94701788  0.27543746  1
  O  O22  1  0.24738004  0.05296319  0.72449323  1
  O  O23  1  0.47148225  0.84999870  0.62874449  1
  O  O24  1  0.98466655  0.12466175  0.09263467  1
  O  O25  1  0.12466175  0.98466655  0.40736533  1
  O  O26  1  0.51552083  0.51552083  0.25000000  1
  O  O27  1  0.37903296  0.75208453  0.31735748  1
  O  O28  1  0.62692571  0.71737092  0.93830489  1
  O  O29  1  0.62080975  0.24793758  0.68238766  1
  O  O30  1  0.71737092  0.62692571  0.56169511  1
  O  O31  1  0.01532376  0.87495277  0.90733556  1
