# generated using pymatgen
data_Cr2P5O16
_symmetry_space_group_name_H-M   'P 1'
_cell_length_a   18.81527756
_cell_length_b   6.76677584
_cell_length_c   5.06529285
_cell_angle_alpha   90.00000000
_cell_angle_beta   89.95667017
_cell_angle_gamma   90.00000000
_symmetry_Int_Tables_number   1
_chemical_formula_structural   Cr2P5O16
_chemical_formula_sum   'Cr4 P10 O32'
_cell_volume   644.90664889
_cell_formula_units_Z   2
loop_
 _symmetry_equiv_pos_site_id
 _symmetry_equiv_pos_as_xyz
  1  'x, y, z'
loop_
 _atom_site_type_symbol
 _atom_site_label
 _atom_site_symmetry_multiplicity
 _atom_site_fract_x
 _atom_site_fract_y
 _atom_site_fract_z
 _atom_site_occupancy
  Cr  Cr0  1  0.40671340  0.81973835  0.74380200  1
  Cr  Cr1  1  0.90671340  0.18026165  0.74380200  1
  Cr  Cr2  1  0.59328660  0.18026165  0.25619800  1
  Cr  Cr3  1  0.09328660  0.81973835  0.25619800  1
  P  P4  1  0.75000000  0.25919174  0.00000000  1
  P  P5  1  0.57787598  0.87639984  0.76263767  1
  P  P6  1  0.25000000  0.74080826  0.00000000  1
  P  P7  1  0.37088388  0.54014732  0.25186226  1
  P  P8  1  0.62911612  0.45985268  0.74813774  1
  P  P9  1  0.42212402  0.12360016  0.23736233  1
  P  P10  1  0.12911612  0.54014732  0.74813774  1
  P  P11  1  0.92212402  0.87639984  0.23736233  1
  P  P12  1  0.07787598  0.12360016  0.76263767  1
  P  P13  1  0.87088388  0.45985268  0.25186226  1
  O  O14  1  0.49254116  0.20571345  0.33702499  1
  O  O15  1  0.61411592  0.02314270  0.58073586  1
  O  O16  1  0.13275914  0.30782044  0.78757684  1
  O  O17  1  0.38588408  0.97685730  0.41926414  1
  O  O18  1  0.41852830  0.63894685  0.05247619  1
  O  O19  1  0.88588408  0.02314270  0.41926414  1
  O  O20  1  0.11434886  0.57787060  0.45942592  1
  O  O21  1  0.57191934  0.94609457  0.05151636  1
  O  O22  1  0.38565114  0.57787060  0.54057408  1
  O  O23  1  0.80410707  0.14391848  0.84520917  1
  O  O24  1  0.36724086  0.30782044  0.21242316  1
  O  O25  1  0.28863571  0.59082538  0.19875154  1
  O  O26  1  0.42808066  0.05390543  0.94848364  1
  O  O27  1  0.07191934  0.05390543  0.05151636  1
  O  O28  1  0.50745884  0.79428655  0.66297501  1
  O  O29  1  0.11411592  0.97685730  0.58073586  1
  O  O30  1  0.99254116  0.79428655  0.33702499  1
  O  O31  1  0.30410707  0.85608152  0.84520917  1
  O  O32  1  0.63275914  0.69217956  0.78757684  1
  O  O33  1  0.69589293  0.14391848  0.15479083  1
  O  O34  1  0.88565114  0.42212940  0.54057408  1
  O  O35  1  0.71136429  0.40917462  0.80124846  1
  O  O36  1  0.21136429  0.59082538  0.80124846  1
  O  O37  1  0.92808066  0.94609457  0.94848364  1
  O  O38  1  0.91852830  0.36105315  0.05247619  1
  O  O39  1  0.08147170  0.63894685  0.94752381  1
  O  O40  1  0.61434886  0.42212940  0.45942592  1
  O  O41  1  0.86724086  0.69217956  0.21242316  1
  O  O42  1  0.19589293  0.85608152  0.15479083  1
  O  O43  1  0.58147170  0.36105315  0.94752381  1
  O  O44  1  0.00745884  0.20571345  0.66297501  1
  O  O45  1  0.78863571  0.40917462  0.19875154  1
