# generated using pymatgen
data_Li2Fe(PO3)4
_symmetry_space_group_name_H-M   'P 1'
_cell_length_a   8.68270971
_cell_length_b   8.68270971
_cell_length_c   7.69276196
_cell_angle_alpha   82.82647308
_cell_angle_beta   97.17352695
_cell_angle_gamma   64.73975516
_symmetry_Int_Tables_number   1
_chemical_formula_structural   Li2Fe(PO3)4
_chemical_formula_sum   'Li4 Fe2 P8 O24'
_cell_volume   510.03074604
_cell_formula_units_Z   2
loop_
 _symmetry_equiv_pos_site_id
 _symmetry_equiv_pos_as_xyz
  1  'x, y, z'
loop_
 _atom_site_type_symbol
 _atom_site_label
 _atom_site_symmetry_multiplicity
 _atom_site_fract_x
 _atom_site_fract_y
 _atom_site_fract_z
 _atom_site_occupancy
  Li  Li0  1  0.49625926  0.81554257  0.74885497  1
  Li  Li1  1  0.50374084  0.18445723  0.25114508  1
  Li  Li2  1  0.81554230  0.49625942  0.75114568  1
  Li  Li3  1  0.18445781  0.50374039  0.24885437  1
  O  O4  1  0.61393714  0.92436783  0.31014899  1
  O  O5  1  0.82594949  0.11168927  0.33235307  1
  O  O6  1  0.17405062  0.88831054  0.66764698  1
  O  O7  1  0.11168879  0.82595045  0.16764746  1
  O  O8  1  0.01511117  0.73349102  0.50956569  1
  O  O9  1  0.26650822  0.98488895  0.00956493  1
  O  O10  1  0.16575210  0.62943753  0.83831473  1
  O  O11  1  0.37056193  0.83424802  0.33831400  1
  O  O12  1  0.07563353  0.38606244  0.81014984  1
  O  O13  1  0.10698445  0.10698503  0.25000028  1
  O  O14  1  0.63629042  0.68914115  0.56833399  1
  O  O15  1  0.36587681  0.36587585  0.74999978  1
  O  O16  1  0.89301510  0.89301608  0.74999959  1
  O  O17  1  0.98488893  0.26650879  0.49043436  1
  O  O18  1  0.31085993  0.36370838  0.06833486  1
  O  O19  1  0.88831076  0.17405066  0.83235241  1
  O  O20  1  0.63412329  0.63412396  0.25000027  1
  O  O21  1  0.36370967  0.31085868  0.43166474  1
  O  O22  1  0.38606241  0.07563327  0.68985088  1
  O  O23  1  0.92436658  0.61393737  0.18985021  1
  O  O24  1  0.62943818  0.16575179  0.66168606  1
  O  O25  1  0.83424800  0.37056228  0.16168532  1
  O  O26  1  0.73349189  0.01511086  0.99043512  1
  O  O27  1  0.68914018  0.63629143  0.93166519  1
  P  P28  1  0.77626752  0.57389016  0.12507995  1
  P  P29  1  0.79254498  0.06501171  0.82662325  1
  P  P30  1  0.06501196  0.79254546  0.67337611  1
  P  P31  1  0.20745513  0.93498810  0.17337681  1
  P  P32  1  0.22373258  0.42610965  0.87492010  1
  P  P33  1  0.57389023  0.77626800  0.37492068  1
  P  P34  1  0.42610932  0.22373311  0.62507919  1
  P  P35  1  0.93498759  0.20745564  0.32662376  1
  Fe  Fe36  1  0.87199898  0.87199866  0.25000037  1
  Fe  Fe37  1  0.12800112  0.12800114  0.74999969  1
