# generated using pymatgen
data_Er3Al2
_symmetry_space_group_name_H-M   'P 1'
_cell_length_a   7.53665444
_cell_length_b   8.15944410
_cell_length_c   8.15944410
_cell_angle_alpha   90.00000000
_cell_angle_beta   90.00000000
_cell_angle_gamma   90.00000000
_symmetry_Int_Tables_number   1
_chemical_formula_structural   Er3Al2
_chemical_formula_sum   'Er12 Al8'
_cell_volume   501.76428551
_cell_formula_units_Z   4
loop_
 _symmetry_equiv_pos_site_id
 _symmetry_equiv_pos_as_xyz
  1  'x, y, z'
loop_
 _atom_site_type_symbol
 _atom_site_label
 _atom_site_symmetry_multiplicity
 _atom_site_fract_x
 _atom_site_fract_y
 _atom_site_fract_z
 _atom_site_occupancy
  Al  Al0  1  0.19697674  0.38066496  0.38066496  1
  Al  Al1  1  0.69697674  0.11933504  0.88066496  1
  Al  Al2  1  0.69697674  0.88066496  0.11933504  1
  Al  Al3  1  0.19697674  0.61933504  0.61933504  1
  Al  Al4  1  0.30302326  0.88066496  0.11933504  1
  Al  Al5  1  0.30302326  0.11933504  0.88066496  1
  Al  Al6  1  0.80302326  0.38066496  0.38066496  1
  Al  Al7  1  0.80302326  0.61933504  0.61933504  1
  Er  Er8  1  0.25000000  0.00000000  0.50000000  1
  Er  Er9  1  0.75000000  0.00000000  0.50000000  1
  Er  Er10  1  0.25000000  0.50000000  0.00000000  1
  Er  Er11  1  0.75000000  0.50000000  0.00000000  1
  Er  Er12  1  0.00000000  0.15091394  0.15091394  1
  Er  Er13  1  0.50000000  0.34908606  0.65091394  1
  Er  Er14  1  0.50000000  0.65091394  0.34908606  1
  Er  Er15  1  0.00000000  0.84908606  0.84908606  1
  Er  Er16  1  0.00000000  0.70136003  0.29863997  1
  Er  Er17  1  0.50000000  0.20136003  0.20136003  1
  Er  Er18  1  0.50000000  0.79863997  0.79863997  1
  Er  Er19  1  0.00000000  0.29863997  0.70136003  1
