# generated using pymatgen
data_Li3Co2(PO4)3
_symmetry_space_group_name_H-M   'P 1'
_cell_length_a   8.69966876
_cell_length_b   12.10635567
_cell_length_c   8.68160813
_cell_angle_alpha   90.00000000
_cell_angle_beta   90.00000000
_cell_angle_gamma   91.45901004
_symmetry_Int_Tables_number   1
_chemical_formula_structural   Li3Co2(PO4)3
_chemical_formula_sum   'Li12 Co8 P12 O48'
_cell_volume   914.06167986
_cell_formula_units_Z   4
loop_
 _symmetry_equiv_pos_site_id
 _symmetry_equiv_pos_as_xyz
  1  'x, y, z'
loop_
 _atom_site_type_symbol
 _atom_site_label
 _atom_site_symmetry_multiplicity
 _atom_site_fract_x
 _atom_site_fract_y
 _atom_site_fract_z
 _atom_site_occupancy
  Li  Li0  1  0.07733312  0.70389102  0.06980167  1
  Li  Li1  1  0.92266721  0.29610898  0.93019835  1
  Li  Li2  1  0.91758945  0.24124080  0.30239469  1
  Li  Li3  1  0.79113885  0.82199489  0.22384664  1
  Li  Li4  1  0.70886163  0.67800510  0.72384665  1
  Li  Li5  1  0.58241091  0.25875877  0.80239470  1
  Li  Li6  1  0.57733318  0.20389142  0.43019834  1
  Li  Li7  1  0.42266714  0.79610857  0.56980168  1
  Li  Li8  1  0.41758941  0.74124122  0.19760532  1
  Li  Li9  1  0.08241087  0.75875919  0.69760533  1
  Li  Li10  1  0.20886147  0.17800510  0.77615338  1
  Li  Li11  1  0.29113869  0.32199490  0.27615337  1
  O  O12  1  0.17447163  0.43623068  0.16881544  1
  O  O13  1  0.85415086  0.17976279  0.78593577  1
  O  O14  1  0.85050632  0.02230989  0.59398677  1
  O  O15  1  0.89433734  0.43077071  0.62275435  1
  O  O16  1  0.93049797  0.83536736  0.40255336  1
  O  O17  1  0.92924991  0.40347263  0.31169882  1
  O  O18  1  0.92387343  0.15542718  0.10494064  1
  O  O19  1  0.95776350  0.57341619  0.13473646  1
  O  O20  1  0.04223567  0.42658381  0.86526356  1
  O  O21  1  0.07612689  0.84457282  0.89505938  1
  O  O22  1  0.07074927  0.59652736  0.68830120  1
  O  O23  1  0.06950235  0.16463263  0.59744665  1
  O  O24  1  0.10566298  0.56922928  0.37724566  1
  O  O25  1  0.14949286  0.97769011  0.40601325  1
  O  O26  1  0.14584946  0.82023721  0.21406425  1
  O  O27  1  0.15390108  0.24006174  0.97984726  1
  O  O28  1  0.15337842  0.18894675  0.26560992  1
  O  O29  1  0.84609924  0.75993826  0.02015161  1
  O  O30  1  0.16508458  0.04051217  0.05180205  1
  O  O31  1  0.19462879  0.78663519  0.50383316  1
  O  O32  1  0.30537035  0.71336523  0.00383315  1
  O  O33  1  0.33491558  0.45948783  0.55180206  1
  O  O34  1  0.32552853  0.06376932  0.66881545  1
  O  O35  1  0.34662174  0.31105324  0.76560993  1
  O  O36  1  0.35415079  0.67976238  0.71406426  1
  O  O37  1  0.35050628  0.52231031  0.90601326  1
  O  O38  1  0.34609908  0.25993826  0.47984725  1
  O  O39  1  0.39433728  0.93077031  0.87724567  1
  O  O40  1  0.42925099  0.90347223  0.18830119  1
  O  O41  1  0.42387339  0.65542760  0.39505937  1
  O  O42  1  0.43049781  0.33536736  0.09744665  1
  O  O43  1  0.45776449  0.07341619  0.36526355  1
  O  O44  1  0.54223583  0.92658381  0.63473647  1
  O  O45  1  0.56950251  0.66463263  0.90255337  1
  O  O46  1  0.57612694  0.34457239  0.60493950  1
  O  O47  1  0.57074933  0.09652777  0.81169883  1
  O  O48  1  0.60566304  0.06922969  0.12275435  1
  O  O49  1  0.65390009  0.74006174  0.52015162  1
  O  O50  1  0.64949290  0.47768969  0.09398676  1
  O  O51  1  0.64584953  0.32023761  0.28593576  1
  O  O52  1  0.84662190  0.81105324  0.73439010  1
  O  O53  1  0.67447179  0.93623067  0.33118457  1
  O  O54  1  0.66508475  0.54051217  0.44819796  1
  O  O55  1  0.69462883  0.28663477  0.99616687  1
  O  O56  1  0.80537039  0.21336481  0.49616686  1
  O  O57  1  0.83491574  0.95948782  0.94819796  1
  O  O58  1  0.82552754  0.56376932  0.83118458  1
  O  O59  1  0.65337858  0.68894675  0.23439009  1
  P  P60  1  0.39499903  0.64674127  0.88203325  1
  P  P61  1  0.39634690  0.34930600  0.60220714  1
  P  P62  1  0.46231760  0.00568641  0.74589571  1
  P  P63  1  0.53768272  0.99431358  0.25410431  1
  P  P64  1  0.60365342  0.65069400  0.39779288  1
  P  P65  1  0.60500130  0.35325872  0.11796677  1
  P  P66  1  0.89634707  0.84930599  0.89779289  1
  P  P67  1  0.89499909  0.14674168  0.61796677  1
  P  P68  1  0.03768256  0.49431358  0.24589570  1
  P  P69  1  0.10500123  0.85325832  0.38203324  1
  P  P70  1  0.10365326  0.15069400  0.10220713  1
  P  P71  1  0.96231776  0.50568641  0.75410432  1
  Co  Co72  1  0.75465875  0.39664671  0.47109694  1
  Co  Co73  1  0.74534164  0.10335369  0.97109695  1
  Co  Co74  1  0.75454849  0.89251652  0.53975279  1
  Co  Co75  1  0.74545199  0.60748348  0.03975278  1
  Co  Co76  1  0.25454833  0.39251652  0.96024724  1
  Co  Co77  1  0.24545183  0.10748348  0.46024723  1
  Co  Co78  1  0.25465868  0.89664631  0.02890307  1
  Co  Co79  1  0.24534158  0.60335328  0.52890308  1
