# generated using pymatgen
data_Mg6GaNi
_symmetry_space_group_name_H-M   'P 1'
_cell_length_a   6.02125627
_cell_length_b   6.02125583
_cell_length_c   4.78253119
_cell_angle_alpha   90.00000000
_cell_angle_beta   90.00000000
_cell_angle_gamma   118.31076757
_symmetry_Int_Tables_number   1
_chemical_formula_structural   Mg6GaNi
_chemical_formula_sum   'Mg6 Ga1 Ni1'
_cell_volume   152.65331372
_cell_formula_units_Z   1
loop_
 _symmetry_equiv_pos_site_id
 _symmetry_equiv_pos_as_xyz
  1  'x, y, z'
loop_
 _atom_site_type_symbol
 _atom_site_label
 _atom_site_symmetry_multiplicity
 _atom_site_fract_x
 _atom_site_fract_y
 _atom_site_fract_z
 _atom_site_occupancy
  Mg  Mg0  1  0.16527298  0.84915178  0.25000000  1
  Mg  Mg1  1  0.65084822  0.33472702  0.25000000  1
  Mg  Mg2  1  0.66238621  0.83761379  0.25000000  1
  Mg  Mg3  1  0.32918845  0.64086249  0.75000000  1
  Mg  Mg4  1  0.85913751  0.17081155  0.75000000  1
  Mg  Mg5  1  0.83570164  0.66429836  0.75000000  1
  Ga  Ga6  1  0.33120059  0.16879941  0.75000000  1
  Ni  Ni7  1  0.16626440  0.33373560  0.25000000  1
