# generated using pymatgen
data_Ta2CrO6
_symmetry_space_group_name_H-M   'P 1'
_cell_length_a   4.85240380
_cell_length_b   4.85240380
_cell_length_c   9.22948345
_cell_angle_alpha   90.00000000
_cell_angle_beta   90.00000000
_cell_angle_gamma   90.00000000
_symmetry_Int_Tables_number   1
_chemical_formula_structural   Ta2CrO6
_chemical_formula_sum   'Ta4 Cr2 O12'
_cell_volume   217.31578036
_cell_formula_units_Z   2
loop_
 _symmetry_equiv_pos_site_id
 _symmetry_equiv_pos_as_xyz
  1  'x, y, z'
loop_
 _atom_site_type_symbol
 _atom_site_label
 _atom_site_symmetry_multiplicity
 _atom_site_fract_x
 _atom_site_fract_y
 _atom_site_fract_z
 _atom_site_occupancy
  O  O0  1  0.29606241  0.29606241  0.32328288  1
  O  O1  1  0.20393759  0.79606241  0.82328288  1
  O  O2  1  0.79606241  0.20393759  0.82328288  1
  O  O3  1  0.79606241  0.20393759  0.17671712  1
  O  O4  1  0.20393759  0.79606241  0.17671712  1
  O  O5  1  0.70393759  0.70393759  0.32328288  1
  O  O6  1  0.29606241  0.29606241  0.67671712  1
  O  O7  1  0.70393759  0.70393759  0.67671712  1
  O  O8  1  0.31720301  0.31720301  0.00000000  1
  O  O9  1  0.18279699  0.81720301  0.50000000  1
  O  O10  1  0.81720301  0.18279699  0.50000000  1
  O  O11  1  0.68279699  0.68279699  0.00000000  1
  Cr  Cr12  1  0.50000000  0.50000000  0.50000000  1
  Cr  Cr13  1  0.00000000  0.00000000  0.00000000  1
  Ta  Ta14  1  0.50000000  0.50000000  0.16763157  1
  Ta  Ta15  1  0.00000000  0.00000000  0.66763157  1
  Ta  Ta16  1  0.50000000  0.50000000  0.83236843  1
  Ta  Ta17  1  0.00000000  0.00000000  0.33236843  1
