# generated using pymatgen
data_Li3Mn2P5O16
_symmetry_space_group_name_H-M   'P 1'
_cell_length_a   18.33459660
_cell_length_b   7.08651731
_cell_length_c   5.10734218
_cell_angle_alpha   90.00000000
_cell_angle_beta   93.05275891
_cell_angle_gamma   90.00000000
_symmetry_Int_Tables_number   1
_chemical_formula_structural   Li3Mn2P5O16
_chemical_formula_sum   'Li6 Mn4 P10 O32'
_cell_volume   662.64729605
_cell_formula_units_Z   2
loop_
 _symmetry_equiv_pos_site_id
 _symmetry_equiv_pos_as_xyz
  1  'x, y, z'
loop_
 _atom_site_type_symbol
 _atom_site_label
 _atom_site_symmetry_multiplicity
 _atom_site_fract_x
 _atom_site_fract_y
 _atom_site_fract_z
 _atom_site_occupancy
  Li  Li0  1  0.03599534  0.33547746  0.25641300  1
  Li  Li1  1  0.25000019  0.97855835  0.49999918  1
  Li  Li2  1  0.46400449  0.33547746  0.74358724  1
  Li  Li3  1  0.53599518  0.66452322  0.25641184  1
  Li  Li4  1  0.75000003  0.02144232  0.49999998  1
  Li  Li5  1  0.96400488  0.66452322  0.74358813  1
  O  O6  1  0.29755828  0.86400913  0.82166801  1
  O  O7  1  0.93143976  0.38926237  0.08183091  1
  O  O8  1  0.92884081  0.90815524  0.94794828  1
  O  O9  1  0.89254397  0.44850817  0.55038451  1
  O  O10  1  0.02255189  0.20597107  0.60464568  1
  O  O11  1  0.06856045  0.61073830  0.91816826  1
  O  O12  1  0.07115941  0.09184543  0.05205089  1
  O  O13  1  0.10745624  0.55149109  0.44961465  1
  O  O14  1  0.13354262  0.98620796  0.62771179  1
  O  O15  1  0.14526709  0.31626916  0.80354596  1
  O  O16  1  0.20429830  0.61587021  0.81061405  1
  O  O17  1  0.20244154  0.86400913  0.17833223  1
  O  O18  1  0.97744833  0.79402960  0.39535348  1
  O  O19  1  0.29570153  0.61587021  0.18938618  1
  O  O20  1  0.35473274  0.31626916  0.19645428  1
  O  O21  1  0.36645776  0.98620796  0.37228854  1
  O  O22  1  0.39254413  0.55149109  0.55038371  1
  O  O23  1  0.42884042  0.09184543  0.94794935  1
  O  O24  1  0.43143937  0.61073830  0.08183198  1
  O  O25  1  0.47744794  0.20597107  0.39535455  1
  O  O26  1  0.86645760  0.01379272  0.37228737  1
  O  O27  1  0.56856030  0.38926237  0.91816906  1
  O  O28  1  0.57115925  0.90815524  0.05205169  1
  O  O29  1  0.60745609  0.44850817  0.44961545  1
  O  O30  1  0.63354246  0.01379272  0.62771259  1
  O  O31  1  0.64526748  0.68373151  0.80354685  1
  O  O32  1  0.70429814  0.38413047  0.81061289  1
  O  O33  1  0.70244194  0.13599154  0.17833312  1
  O  O34  1  0.79755812  0.13599154  0.82166685  1
  O  O35  1  0.79570192  0.38413047  0.18938708  1
  O  O36  1  0.85473258  0.68373151  0.19645312  1
  O  O37  1  0.52255173  0.79402960  0.60464648  1
  P  P38  1  0.91048507  0.86627969  0.23063067  1
  P  P39  1  0.87527004  0.46923811  0.25915940  1
  P  P40  1  0.74999977  0.24407681  0.00000022  1
  P  P41  1  0.62473002  0.46923811  0.74084057  1
  P  P42  1  0.08951515  0.13371957  0.76936850  1
  P  P43  1  0.12473018  0.53076257  0.74084173  1
  P  P44  1  0.24999992  0.75592245  0.99999942  1
  P  P45  1  0.58951499  0.86627969  0.76936930  1
  P  P46  1  0.41048523  0.13371957  0.23063183  1
  P  P47  1  0.37526965  0.53076257  0.25915851  1
  Mn  Mn48  1  0.08722948  0.83232317  0.26857436  1
  Mn  Mn49  1  0.41277034  0.83232317  0.73142392  1
  Mn  Mn50  1  0.58722932  0.16767609  0.26857516  1
  Mn  Mn51  1  0.91277074  0.16767609  0.73142481  1
