# generated using pymatgen
data_V3(PO4)4
_symmetry_space_group_name_H-M   'P 1'
_cell_length_a   14.37860093
_cell_length_b   5.11003515
_cell_length_c   8.36216432
_cell_angle_alpha   90.00000000
_cell_angle_beta   98.12560844
_cell_angle_gamma   90.00000000
_symmetry_Int_Tables_number   1
_chemical_formula_structural   V3(PO4)4
_chemical_formula_sum   'V6 P8 O32'
_cell_volume   608.24299781
_cell_formula_units_Z   2
loop_
 _symmetry_equiv_pos_site_id
 _symmetry_equiv_pos_as_xyz
  1  'x, y, z'
loop_
 _atom_site_type_symbol
 _atom_site_label
 _atom_site_symmetry_multiplicity
 _atom_site_fract_x
 _atom_site_fract_y
 _atom_site_fract_z
 _atom_site_occupancy
  V  V0  1  0.69782257  0.59382066  0.51619159  1
  V  V1  1  0.80217743  0.09382066  0.98380841  1
  V  V2  1  0.19782257  0.90617934  0.01619159  1
  V  V3  1  0.30217743  0.40617934  0.48380841  1
  V  V4  1  0.00000000  0.50000000  0.50000000  1
  V  V5  1  0.50000000  0.00000000  0.00000000  1
  P  P6  1  0.85446358  0.99801661  0.38301533  1
  P  P7  1  0.64553642  0.49801661  0.11698467  1
  P  P8  1  0.35446358  0.50198339  0.88301533  1
  P  P9  1  0.88259543  0.56556365  0.80757953  1
  P  P10  1  0.14553642  0.00198339  0.61698467  1
  P  P11  1  0.11740457  0.43443635  0.19242047  1
  P  P12  1  0.61740457  0.06556365  0.69242047  1
  P  P13  1  0.38259543  0.93443635  0.30757953  1
  O  O14  1  0.60826594  0.81994260  0.58099723  1
  O  O15  1  0.82899414  0.98873523  0.19357041  1
  O  O16  1  0.03264742  0.43293992  0.28347616  1
  O  O17  1  0.32899414  0.51126477  0.69357041  1
  O  O18  1  0.46735258  0.93293992  0.21652384  1
  O  O19  1  0.23194829  0.09390958  0.54378099  1
  O  O20  1  0.39173406  0.18005740  0.41900277  1
  O  O21  1  0.89173406  0.31994260  0.91900277  1
  O  O22  1  0.10826594  0.68005740  0.08099723  1
  O  O23  1  0.62240293  0.31511804  0.59485419  1
  O  O24  1  0.87759707  0.81511804  0.90514581  1
  O  O25  1  0.78899137  0.52717619  0.68795633  1
  O  O26  1  0.61678093  0.77521305  0.06240506  1
  O  O27  1  0.88321907  0.27521305  0.43759494  1
  O  O28  1  0.17100586  0.01126477  0.80642959  1
  O  O29  1  0.28899137  0.97282381  0.18795633  1
  O  O30  1  0.37759707  0.68488196  0.40514581  1
  O  O31  1  0.67100586  0.48873523  0.30642959  1
  O  O32  1  0.56370933  0.30260108  0.07680215  1
  O  O33  1  0.38321907  0.22478695  0.93759494  1
  O  O34  1  0.26805171  0.59390958  0.95621901  1
  O  O35  1  0.73194829  0.40609042  0.04378099  1
  O  O36  1  0.93629067  0.80260108  0.42319785  1
  O  O37  1  0.53264742  0.06706008  0.78347616  1
  O  O38  1  0.12240293  0.18488196  0.09485419  1
  O  O39  1  0.06370933  0.19739892  0.57680215  1
  O  O40  1  0.96735258  0.56706008  0.71652384  1
  O  O41  1  0.43629067  0.69739892  0.92319785  1
  O  O42  1  0.11678093  0.72478695  0.56240506  1
  O  O43  1  0.71100863  0.02717619  0.81204367  1
  O  O44  1  0.76805171  0.90609042  0.45621901  1
  O  O45  1  0.21100863  0.47282381  0.31204367  1
