# generated using pymatgen
data_Ca(LaTe2)2
_symmetry_space_group_name_H-M   'P 1'
_cell_length_a   8.38272576
_cell_length_b   8.38272536
_cell_length_c   8.38272562
_cell_angle_alpha   109.78790759
_cell_angle_beta   109.78790474
_cell_angle_gamma   108.83968661
_symmetry_Int_Tables_number   1
_chemical_formula_structural   Ca(LaTe2)2
_chemical_formula_sum   'Ca2 La4 Te8'
_cell_volume   453.41339919
_cell_formula_units_Z   2
loop_
 _symmetry_equiv_pos_site_id
 _symmetry_equiv_pos_as_xyz
  1  'x, y, z'
loop_
 _atom_site_type_symbol
 _atom_site_label
 _atom_site_symmetry_multiplicity
 _atom_site_fract_x
 _atom_site_fract_y
 _atom_site_fract_z
 _atom_site_occupancy
  Ca  Ca0  1  0.62500000  0.37500000  0.25000000  1
  Ca  Ca1  1  0.87500000  0.12500000  0.75000000  1
  La  La2  1  0.12306161  0.75000000  0.87306161  1
  La  La3  1  0.25000000  0.62306161  0.37306161  1
  La  La4  1  0.37693839  0.25000000  0.62693839  1
  La  La5  1  0.75000000  0.87693839  0.12693839  1
  Te  Te6  1  0.14571088  0.14823949  0.14681977  1
  Te  Te7  1  0.35428912  0.50110889  0.00252861  1
  Te  Te8  1  0.64823949  0.64571088  0.64681977  1
  Te  Te9  1  0.49889111  0.00141972  0.85318023  1
  Te  Te10  1  0.50141972  0.99889111  0.35318023  1
  Te  Te11  1  0.00110889  0.85428912  0.50252861  1
  Te  Te12  1  0.85176051  0.49858028  0.99747139  1
  Te  Te13  1  0.99858028  0.35176051  0.49747139  1
