# generated using pymatgen
data_V3(P3O10)2
_symmetry_space_group_name_H-M   'P 1'
_cell_length_a   8.45549538
_cell_length_b   8.45549538
_cell_length_c   12.42540187
_cell_angle_alpha   90.00000000
_cell_angle_beta   90.00000000
_cell_angle_gamma   74.91789622
_symmetry_Int_Tables_number   1
_chemical_formula_structural   V3(P3O10)2
_chemical_formula_sum   'V6 P12 O40'
_cell_volume   857.75864300
_cell_formula_units_Z   2
loop_
 _symmetry_equiv_pos_site_id
 _symmetry_equiv_pos_as_xyz
  1  'x, y, z'
loop_
 _atom_site_type_symbol
 _atom_site_label
 _atom_site_symmetry_multiplicity
 _atom_site_fract_x
 _atom_site_fract_y
 _atom_site_fract_z
 _atom_site_occupancy
  O  O0  1  0.00130127  0.26325181  0.78909269  1
  O  O1  1  0.07662361  0.15087746  0.02848960  1
  O  O2  1  0.05455106  0.32528550  0.24515320  1
  O  O3  1  0.15087774  0.07662258  0.47151076  1
  O  O4  1  0.99869972  0.73674744  0.28909315  1
  O  O5  1  0.03322115  0.63973504  0.94165028  1
  O  O6  1  0.16234346  0.31246454  0.59804856  1
  O  O7  1  0.26325290  0.00130052  0.71090676  1
  O  O8  1  0.21813910  0.47322981  0.79763149  1
  O  O9  1  0.32528456  0.05455136  0.25484715  1
  O  O10  1  0.31246338  0.16234390  0.90195170  1
  O  O11  1  0.27123834  0.30639133  0.40749784  1
  O  O12  1  0.18061514  0.77900193  0.81469485  1
  O  O13  1  0.30639191  0.27123802  0.09250171  1
  O  O14  1  0.26087046  0.52458041  0.23321292  1
  O  O15  1  0.22099736  0.81938574  0.18530505  1
  O  O16  1  0.26208706  0.73095053  0.38175888  1
  O  O17  1  0.26905025  0.73791309  0.61824102  1
  O  O18  1  0.47323036  0.21813920  0.70236876  1
  O  O19  1  0.52458050  0.26087060  0.26678743  1
  O  O20  1  0.36026537  0.96677927  0.05834962  1
  O  O21  1  0.63973529  0.03322121  0.55834917  1
  O  O22  1  0.47541898  0.73912987  0.76678698  1
  O  O23  1  0.52676944  0.78186005  0.20236841  1
  O  O24  1  0.73674809  0.99869873  0.21090721  1
  O  O25  1  0.73095042  0.26208739  0.11824147  1
  O  O26  1  0.73791243  0.26904994  0.88175843  1
  O  O27  1  0.77900212  0.18061474  0.68530540  1
  O  O28  1  0.73912935  0.47541884  0.73321247  1
  O  O29  1  0.92337739  0.84912179  0.52848914  1
  O  O30  1  0.81938585  0.22099732  0.31469450  1
  O  O31  1  0.72876146  0.69360792  0.90749819  1
  O  O32  1  0.68753610  0.83765657  0.40195134  1
  O  O33  1  0.67471492  0.94544911  0.75484670  1
  O  O34  1  0.78186070  0.52676944  0.29763195  1
  O  O35  1  0.83765721  0.68753594  0.09804820  1
  O  O36  1  0.96677952  0.36026543  0.44165073  1
  O  O37  1  0.84912206  0.92337667  0.97151031  1
  O  O38  1  0.94544961  0.67471498  0.74515275  1
  O  O39  1  0.69360790  0.72876123  0.59250207  1
  P  P40  1  0.14934963  0.25737653  0.48428395  1
  P  P41  1  0.09447709  0.63130350  0.81946593  1
  P  P42  1  0.25737704  0.14935003  0.01571641  1
  P  P43  1  0.18204700  0.69564972  0.27639018  1
  P  P44  1  0.30434971  0.81795283  0.72361053  1
  P  P45  1  0.36869630  0.90552261  0.18053398  1
  P  P46  1  0.63130351  0.09447664  0.68053433  1
  P  P47  1  0.69564978  0.18204764  0.22361017  1
  P  P48  1  0.81795281  0.30434953  0.77638973  1
  P  P49  1  0.85065018  0.74262272  0.98428350  1
  P  P50  1  0.90552239  0.36869698  0.31946638  1
  P  P51  1  0.74262363  0.85065044  0.51571676  1
  V  V52  1  0.23739557  0.23739519  0.75000013  1
  V  V53  1  0.14353783  0.85646250  0.50000036  1
  V  V54  1  0.29207721  0.29207702  0.24999977  1
  V  V55  1  0.70792260  0.70792223  0.75000013  1
  V  V56  1  0.85646284  0.14353798  0.00000000  1
  V  V57  1  0.76260424  0.76260406  0.24999977  1
