# generated using pymatgen
data_PNO
_symmetry_space_group_name_H-M   'P 1'
_cell_length_a   4.63773557
_cell_length_b   9.72127476
_cell_length_c   7.02471814
_cell_angle_alpha   90.68544884
_cell_angle_beta   90.60339988
_cell_angle_gamma   90.06081468
_symmetry_Int_Tables_number   1
_chemical_formula_structural   PNO
_chemical_formula_sum   'P8 N8 O8'
_cell_volume   316.66687402
_cell_formula_units_Z   8
loop_
 _symmetry_equiv_pos_site_id
 _symmetry_equiv_pos_as_xyz
  1  'x, y, z'
loop_
 _atom_site_type_symbol
 _atom_site_label
 _atom_site_symmetry_multiplicity
 _atom_site_fract_x
 _atom_site_fract_y
 _atom_site_fract_z
 _atom_site_occupancy
  P  P0  1  0.00075603  0.99863172  0.01040329  1
  P  P1  1  0.00077604  0.25025763  0.23981618  1
  P  P2  1  0.99748999  0.49759813  0.01037381  1
  P  P3  1  0.98028815  0.75221592  0.24927458  1
  P  P4  1  0.50057716  0.25063167  0.51653840  1
  P  P5  1  0.51243863  0.74366439  0.50508395  1
  P  P6  1  0.49835901  0.50466540  0.73565268  1
  P  P7  1  0.49989873  0.99812048  0.73302591  1
  N  N8  1  0.12637228  0.12546303  0.12590778  1
  N  N9  1  0.37162864  0.12524269  0.62383720  1
  N  N10  1  0.36151858  0.62957582  0.63373877  1
  N  N11  1  0.62956684  0.37624543  0.63163448  1
  N  N12  1  0.62795075  0.87400019  0.62128985  1
  N  N13  1  0.74953938  0.67722291  0.37032668  1
  N  N14  1  0.87579739  0.37891967  0.13022676  1
  N  N15  1  0.87580110  0.87125113  0.11634955  1
  O  O16  1  0.12571941  0.62772358  0.11722264  1
  O  O17  1  0.25811066  0.44660876  0.88412393  1
  O  O18  1  0.24957018  0.94390878  0.87170212  1
  O  O19  1  0.25011664  0.30984424  0.37838008  1
  O  O20  1  0.25556816  0.80338510  0.36592902  1
  O  O21  1  0.74896513  0.19583224  0.37509296  1
  O  O22  1  0.74891393  0.05778980  0.87477652  1
  O  O23  1  0.75427516  0.56119930  0.87929289  1
