# generated using pymatgen
data_Na3ZrF7
_symmetry_space_group_name_H-M   'P 1'
_cell_length_a   5.49777027
_cell_length_b   5.49777027
_cell_length_c   6.33845064
_cell_angle_alpha   113.55259819
_cell_angle_beta   113.55259819
_cell_angle_gamma   89.80526790
_symmetry_Int_Tables_number   1
_chemical_formula_structural   Na3ZrF7
_chemical_formula_sum   'Na3 Zr1 F7'
_cell_volume   158.18377392
_cell_formula_units_Z   1
loop_
 _symmetry_equiv_pos_site_id
 _symmetry_equiv_pos_as_xyz
  1  'x, y, z'
loop_
 _atom_site_type_symbol
 _atom_site_label
 _atom_site_symmetry_multiplicity
 _atom_site_fract_x
 _atom_site_fract_y
 _atom_site_fract_z
 _atom_site_occupancy
  F  F0  1  0.15604881  0.15604881  0.85537232  1
  F  F1  1  0.10099225  0.64237954  0.75953192  1
  F  F2  1  0.33017335  0.96399927  0.24220516  1
  F  F3  1  0.64237954  0.10099225  0.75953192  1
  F  F4  1  0.62362161  0.62362161  0.71702126  1
  F  F5  1  0.96399927  0.33017335  0.24220516  1
  F  F6  1  0.85133151  0.85133151  0.21931713  1
  Na  Na7  1  0.23936764  0.77340971  0.50871328  1
  Na  Na8  1  0.49219231  0.49219231  0.96713108  1
  Na  Na9  1  0.77340971  0.23936764  0.50871328  1
  Zr  Zr10  1  0.95148400  0.95148400  0.97025748  1
