# generated using pymatgen
data_V2(PO4)3
_symmetry_space_group_name_H-M   'P 1'
_cell_length_a   8.36601655
_cell_length_b   8.36483638
_cell_length_c   8.70500423
_cell_angle_alpha   117.91581646
_cell_angle_beta   90.42694121
_cell_angle_gamma   119.63552145
_symmetry_Int_Tables_number   1
_chemical_formula_structural   V2(PO4)3
_chemical_formula_sum   'V4 P6 O24'
_cell_volume   444.65769885
_cell_formula_units_Z   2
loop_
 _symmetry_equiv_pos_site_id
 _symmetry_equiv_pos_as_xyz
  1  'x, y, z'
loop_
 _atom_site_type_symbol
 _atom_site_label
 _atom_site_symmetry_multiplicity
 _atom_site_fract_x
 _atom_site_fract_y
 _atom_site_fract_z
 _atom_site_occupancy
  V  V0  1  0.13690996  0.78177897  0.91888319  1
  V  V1  1  0.63967147  0.79027660  0.43372128  1
  V  V2  1  0.36032853  0.20972340  0.56627872  1
  V  V3  1  0.86309004  0.21822103  0.08111681  1
  P  P4  1  0.03159134  0.00715013  0.75471567  1
  P  P5  1  0.96840866  0.99284987  0.24528433  1
  P  P6  1  0.75317857  0.28272510  0.74428093  1
  P  P7  1  0.24682143  0.71727490  0.25571907  1
  P  P8  1  0.47084323  0.72343682  0.74827277  1
  P  P9  1  0.52915677  0.27656318  0.25172723  1
  O  O10  1  0.98280264  0.86115925  0.05481611  1
  O  O11  1  0.47738176  0.76616327  0.59433017  1
  O  O12  1  0.01719736  0.13884075  0.94518389  1
  O  O13  1  0.91018301  0.50512046  0.76960287  1
  O  O14  1  0.90180020  0.13226752  0.23264952  1
  O  O15  1  0.55855124  0.26164258  0.73098645  1
  O  O16  1  0.83046437  0.84411211  0.61044201  1
  O  O17  1  0.52261824  0.23383673  0.40566983  1
  O  O18  1  0.81277623  0.29079383  0.91714520  1
  O  O19  1  0.44144876  0.73835742  0.26901355  1
  O  O20  1  0.24967419  0.89509650  0.42857797  1
  O  O21  1  0.27833592  0.68767483  0.78953293  1
  O  O22  1  0.47144872  0.52384564  0.70175788  1
  O  O23  1  0.82102193  0.83385469  0.29130306  1
  O  O24  1  0.09819980  0.86773248  0.76735048  1
  O  O25  1  0.72166408  0.31232517  0.21046707  1
  O  O26  1  0.08981699  0.49487954  0.23039713  1
  O  O27  1  0.63979917  0.92829132  0.92501705  1
  O  O28  1  0.75032581  0.10490350  0.57142203  1
  O  O29  1  0.18722377  0.70920617  0.08285480  1
  O  O30  1  0.16953563  0.15588789  0.38955799  1
  O  O31  1  0.17897807  0.16614531  0.70869694  1
  O  O32  1  0.36020083  0.07170868  0.07498295  1
  O  O33  1  0.52855128  0.47615436  0.29824212  1
