# generated using pymatgen
data_Ta4GaSe8
_symmetry_space_group_name_H-M   'P 1'
_cell_length_a   7.42870336
_cell_length_b   7.42870336
_cell_length_c   7.42870336
_cell_angle_alpha   60.00000000
_cell_angle_beta   60.00000000
_cell_angle_gamma   60.00000000
_symmetry_Int_Tables_number   1
_chemical_formula_structural   Ta4GaSe8
_chemical_formula_sum   'Ta4 Ga1 Se8'
_cell_volume   289.88387075
_cell_formula_units_Z   1
loop_
 _symmetry_equiv_pos_site_id
 _symmetry_equiv_pos_as_xyz
  1  'x, y, z'
loop_
 _atom_site_type_symbol
 _atom_site_label
 _atom_site_symmetry_multiplicity
 _atom_site_fract_x
 _atom_site_fract_y
 _atom_site_fract_z
 _atom_site_occupancy
  Ta  Ta0  1  0.19345609  0.60218130  0.60218130  1
  Ta  Ta1  1  0.60218130  0.19345609  0.60218130  1
  Ta  Ta2  1  0.60218130  0.60218130  0.19345609  1
  Ta  Ta3  1  0.60218130  0.60218130  0.60218130  1
  Ga  Ga4  1  0.00000000  0.00000000  0.00000000  1
  Se  Se5  1  0.90689889  0.36436704  0.36436704  1
  Se  Se6  1  0.36436704  0.90689889  0.36436704  1
  Se  Se7  1  0.36436704  0.36436704  0.90689889  1
  Se  Se8  1  0.36436704  0.36436704  0.36436704  1
  Se  Se9  1  0.40729928  0.86423357  0.86423357  1
  Se  Se10  1  0.86423357  0.40729928  0.86423357  1
  Se  Se11  1  0.86423357  0.86423357  0.40729928  1
  Se  Se12  1  0.86423357  0.86423357  0.86423357  1
