# generated using pymatgen
data_Mg6CuBi
_symmetry_space_group_name_H-M   'P 1'
_cell_length_a   6.51976201
_cell_length_b   6.51976150
_cell_length_c   5.02131360
_cell_angle_alpha   90.00000000
_cell_angle_beta   90.00000000
_cell_angle_gamma   123.17201063
_symmetry_Int_Tables_number   1
_chemical_formula_structural   Mg6CuBi
_chemical_formula_sum   'Mg6 Cu1 Bi1'
_cell_volume   178.65809731
_cell_formula_units_Z   1
loop_
 _symmetry_equiv_pos_site_id
 _symmetry_equiv_pos_as_xyz
  1  'x, y, z'
loop_
 _atom_site_type_symbol
 _atom_site_label
 _atom_site_symmetry_multiplicity
 _atom_site_fract_x
 _atom_site_fract_y
 _atom_site_fract_z
 _atom_site_occupancy
  Mg  Mg0  1  0.17090658  0.81770927  0.25000000  1
  Mg  Mg1  1  0.68229073  0.32909342  0.25000000  1
  Mg  Mg2  1  0.67355884  0.82644116  0.25000000  1
  Mg  Mg3  1  0.33271699  0.64869877  0.75000000  1
  Mg  Mg4  1  0.85130123  0.16728301  0.75000000  1
  Mg  Mg5  1  0.83221930  0.66778070  0.75000000  1
  Cu  Cu6  1  0.11973616  0.38026384  0.25000000  1
  Bi  Bi7  1  0.33727017  0.16272983  0.75000000  1
