# generated using pymatgen
data_Ba(InTe2)2
_symmetry_space_group_name_H-M   'P 1'
_cell_length_a   7.14305661
_cell_length_b   7.14305624
_cell_length_c   7.14305625
_cell_angle_alpha   104.68379105
_cell_angle_beta   104.68379344
_cell_angle_gamma   119.54002104
_symmetry_Int_Tables_number   1
_chemical_formula_structural   Ba(InTe2)2
_chemical_formula_sum   'Ba1 In2 Te4'
_cell_volume   273.96602271
_cell_formula_units_Z   1
loop_
 _symmetry_equiv_pos_site_id
 _symmetry_equiv_pos_as_xyz
  1  'x, y, z'
loop_
 _atom_site_type_symbol
 _atom_site_label
 _atom_site_symmetry_multiplicity
 _atom_site_fract_x
 _atom_site_fract_y
 _atom_site_fract_z
 _atom_site_occupancy
  Ba  Ba0  1  0.75000000  0.75000000  0.00000000  1
  In  In1  1  0.25000000  0.75000000  0.50000000  1
  In  In2  1  0.75000000  0.25000000  0.50000000  1
  Te  Te3  1  0.17900360  0.32099640  0.50000000  1
  Te  Te4  1  0.32099640  0.82099640  0.14199279  1
  Te  Te5  1  0.67900360  0.17900360  0.85800721  1
  Te  Te6  1  0.82099640  0.67900360  0.50000000  1
