# generated using pymatgen
data_NaTi2BiO6
_symmetry_space_group_name_H-M   'P 1'
_cell_length_a   5.60509998
_cell_length_b   5.60509995
_cell_length_c   5.60510043
_cell_angle_alpha   58.92548138
_cell_angle_beta   58.92548490
_cell_angle_gamma   58.92548205
_symmetry_Int_Tables_number   1
_chemical_formula_structural   NaTi2BiO6
_chemical_formula_sum   'Na1 Ti2 Bi1 O6'
_cell_volume   121.46554534
_cell_formula_units_Z   1
loop_
 _symmetry_equiv_pos_site_id
 _symmetry_equiv_pos_as_xyz
  1  'x, y, z'
loop_
 _atom_site_type_symbol
 _atom_site_label
 _atom_site_symmetry_multiplicity
 _atom_site_fract_x
 _atom_site_fract_y
 _atom_site_fract_z
 _atom_site_occupancy
  Bi  Bi0  1  0.78702206  0.78702206  0.78702206  1
  Na  Na1  1  0.27225460  0.27225460  0.27225460  1
  O  O2  1  0.18523568  0.31270897  0.74839353  1
  O  O3  1  0.31270897  0.74839353  0.18523568  1
  O  O4  1  0.74839353  0.18523568  0.31270897  1
  O  O5  1  0.23362623  0.80689620  0.68932569  1
  O  O6  1  0.68932569  0.23362623  0.80689620  1
  O  O7  1  0.80689620  0.68932569  0.23362623  1
  Ti  Ti8  1  0.01759973  0.01759973  0.01759973  1
  Ti  Ti9  1  0.51273731  0.51273731  0.51273731  1
