# generated using pymatgen
data_Mg3Al14O24
_symmetry_space_group_name_H-M   'P 1'
_cell_length_a   5.73843620
_cell_length_b   17.06461929
_cell_length_c   9.93176430
_cell_angle_alpha   29.97639637
_cell_angle_beta   54.70306118
_cell_angle_gamma   59.69824062
_symmetry_Int_Tables_number   1
_chemical_formula_structural   Mg3Al14O24
_chemical_formula_sum   'Mg3 Al14 O24'
_cell_volume   396.58391936
_cell_formula_units_Z   1
loop_
 _symmetry_equiv_pos_site_id
 _symmetry_equiv_pos_as_xyz
  1  'x, y, z'
loop_
 _atom_site_type_symbol
 _atom_site_label
 _atom_site_symmetry_multiplicity
 _atom_site_fract_x
 _atom_site_fract_y
 _atom_site_fract_z
 _atom_site_occupancy
  Al  Al0  1  0.50589488  0.15894966  0.00568700  1
  Al  Al1  1  0.50073270  0.16567274  0.50074292  1
  Al  Al2  1  0.49434635  0.50955049  0.99128716  1
  Al  Al3  1  0.49998570  0.33415704  0.49680005  1
  Al  Al4  1  0.49498060  0.50219704  0.50171879  1
  Al  Al5  1  0.49714902  0.83020986  0.00756097  1
  Al  Al6  1  0.12078747  0.00582172  0.12049153  1
  Al  Al7  1  0.49426377  0.67300452  0.50073033  1
  Al  Al8  1  0.00391699  0.33417211  0.49678807  1
  Al  Al9  1  0.98523462  0.67303424  0.50071140  1
  Al  Al10  1  0.50707483  0.99371987  0.49432188  1
  Al  Al11  1  0.87982375  0.66187661  0.87730040  1
  Al  Al12  1  0.02321276  0.99368466  0.49433227  1
  Al  Al13  1  0.88130590  0.99271954  0.87960996  1
  Mg  Mg14  1  0.12368451  0.33957829  0.11692219  1
  Mg  Mg15  1  0.12006277  0.67142165  0.12283145  1
  Mg  Mg16  1  0.87549983  0.32671794  0.88444627  1
  O  O17  1  0.27046258  0.15313274  0.24979677  1
  O  O18  1  0.26130305  0.32736472  0.27613135  1
  O  O19  1  0.27218258  0.99802279  0.75157661  1
  O  O20  1  0.72925328  0.13925279  0.31184505  1
  O  O21  1  0.26006919  0.48108539  0.26824867  1
  O  O22  1  0.25594284  0.17467243  0.73205920  1
  O  O23  1  0.73060497  0.99797290  0.75164390  1
  O  O24  1  0.70431246  0.32730460  0.27622563  1
  O  O25  1  0.30154239  0.33651848  0.72360007  1
  O  O26  1  0.26424587  0.66849423  0.26402813  1
  O  O27  1  0.75113910  0.17267357  0.73986257  1
  O  O28  1  0.74655447  0.48958864  0.26901125  1
  O  O29  1  0.26498045  0.52225703  0.70169598  1
  O  O30  1  0.24980411  0.83011392  0.25499573  1
  O  O31  1  0.74170901  0.33644837  0.72370449  1
  O  O32  1  0.70227434  0.66842425  0.26411222  1
  O  O33  1  0.25585958  0.64944407  0.76791977  1
  O  O34  1  0.24043172  0.02055636  0.22564208  1
  O  O35  1  0.73180091  0.51957911  0.73888911  1
  O  O36  1  0.76530832  0.81974788  0.25501392  1
  O  O37  1  0.24174071  0.86042179  0.71771483  1
  O  O38  1  0.75988672  0.64937695  0.76802816  1
  O  O39  1  0.74662028  0.02048539  0.22577702  1
  O  O40  1  0.74401460  0.83724061  0.75019482  1
