# generated using pymatgen
data_Er6Ni2Sn
_symmetry_space_group_name_H-M   'P 1'
_cell_length_a   8.34028014
_cell_length_b   8.34028013
_cell_length_c   8.34028014
_cell_angle_alpha   105.67608880
_cell_angle_beta   109.76607356
_cell_angle_gamma   113.05537541
_symmetry_Int_Tables_number   1
_chemical_formula_structural   Er6Ni2Sn
_chemical_formula_sum   'Er12 Ni4 Sn2'
_cell_volume   444.75024022
_cell_formula_units_Z   2
loop_
 _symmetry_equiv_pos_site_id
 _symmetry_equiv_pos_as_xyz
  1  'x, y, z'
loop_
 _atom_site_type_symbol
 _atom_site_label
 _atom_site_symmetry_multiplicity
 _atom_site_fract_x
 _atom_site_fract_y
 _atom_site_fract_z
 _atom_site_occupancy
  Ni  Ni0  1  0.00000000  0.87644596  0.87644596  1
  Ni  Ni1  1  0.00000000  0.12355404  0.12355404  1
  Ni  Ni2  1  0.15054967  0.50000000  0.65054967  1
  Ni  Ni3  1  0.84945033  0.50000000  0.34945033  1
  Sn  Sn4  1  0.50000000  0.00000000  0.50000000  1
  Sn  Sn5  1  0.50000000  0.50000000  0.00000000  1
  Er  Er6  1  0.19063756  0.51610617  0.32546861  1
  Er  Er7  1  0.19063756  0.86516895  0.67453139  1
  Er  Er8  1  0.70444922  0.73334513  0.43779435  1
  Er  Er9  1  0.29555078  0.26665487  0.56220565  1
  Er  Er10  1  0.70444922  0.26665487  0.97110409  1
  Er  Er11  1  0.29555078  0.73334513  0.02889591  1
  Er  Er12  1  0.80936244  0.13483105  0.32546861  1
  Er  Er13  1  0.80936244  0.48389383  0.67453139  1
  Er  Er14  1  0.39055749  0.20801111  0.18254638  1
  Er  Er15  1  0.02546473  0.20801111  0.81745362  1
  Er  Er16  1  0.97453527  0.79198889  0.18254638  1
  Er  Er17  1  0.60944251  0.79198889  0.81745362  1
