# generated using pymatgen
data_Ca(Pr2Se3)4
_symmetry_space_group_name_H-M   'P 1'
_cell_length_a   23.38894971
_cell_length_b   9.01322335
_cell_length_c   9.01322280
_cell_angle_alpha   90.03955475
_cell_angle_beta   54.73414620
_cell_angle_gamma   54.73418838
_symmetry_Int_Tables_number   1
_chemical_formula_structural   Ca(Pr2Se3)4
_chemical_formula_sum   'Ca2 Pr16 Se24'
_cell_volume   1096.17272226
_cell_formula_units_Z   2
loop_
 _symmetry_equiv_pos_site_id
 _symmetry_equiv_pos_as_xyz
  1  'x, y, z'
loop_
 _atom_site_type_symbol
 _atom_site_label
 _atom_site_symmetry_multiplicity
 _atom_site_fract_x
 _atom_site_fract_y
 _atom_site_fract_z
 _atom_site_occupancy
  Ca  Ca0  1  0.16672689  0.25009246  0.62487802  1
  Ca  Ca1  1  0.66672693  0.12487794  0.75009231  1
  Pr  Pr2  1  0.99989781  0.37697248  0.24811072  1
  Pr  Pr3  1  0.00098540  0.12235346  0.74833910  1
  Pr  Pr4  1  0.08301009  0.62450099  0.37668810  1
  Pr  Pr5  1  0.24988085  0.87493201  0.12776812  1
  Pr  Pr6  1  0.33321285  0.37788881  0.25035601  1
  Pr  Pr7  1  0.33256747  0.12612989  0.74915357  1
  Pr  Pr8  1  0.16670637  0.75004311  0.87224321  1
  Pr  Pr9  1  0.41658294  0.62587842  0.37486862  1
  Pr  Pr10  1  0.50098550  0.24833872  0.62235278  1
  Pr  Pr11  1  0.66670671  0.37224229  0.25004302  1
  Pr  Pr12  1  0.58300999  0.87668778  0.12450080  1
  Pr  Pr13  1  0.49989708  0.74811229  0.87697364  1
  Pr  Pr14  1  0.74988055  0.62776823  0.37493254  1
  Pr  Pr15  1  0.83256718  0.24915437  0.62613027  1
  Pr  Pr16  1  0.91658279  0.87486881  0.12587827  1
  Pr  Pr17  1  0.83321196  0.75035723  0.87788982  1
  Se  Se18  1  0.11691890  0.50086604  0.00285973  1
  Se  Se19  1  0.04891538  0.35148118  0.49811888  1
  Se  Se20  1  0.28477085  0.14815117  0.14449710  1
  Se  Se21  1  0.04970415  0.99963089  0.35057981  1
  Se  Se22  1  0.28332753  0.50088799  0.00017079  1
  Se  Se23  1  0.11704482  0.64667692  0.65141105  1
  Se  Se24  1  0.21687578  0.99783158  0.85323687  1
  Se  Se25  1  0.21598610  0.85353870  0.50290401  1
  Se  Se26  1  0.45073340  0.49689593  0.99924043  1
  Se  Se27  1  0.38389297  0.34902862  0.49986823  1
  Se  Se28  1  0.38183774  0.00165904  0.35096716  1
  Se  Se29  1  0.61704476  0.15141095  0.14667678  1
  Se  Se30  1  0.61691869  0.50286026  1.00086682  1
  Se  Se31  1  0.45042286  0.64923713  0.64906091  1
  Se  Se32  1  0.54891571  0.99811826  0.85148072  1
  Se  Se33  1  0.54970416  0.85057989  0.49963083  1
  Se  Se34  1  0.78332768  0.50017069  0.00088773  1
  Se  Se35  1  0.71687534  0.35323689  0.49783287  1
  Se  Se36  1  0.95042268  0.14906140  0.14923737  1
  Se  Se37  1  0.71598598  0.00290388  0.35353875  1
  Se  Se38  1  0.95073321  0.49924077  0.99689618  1
  Se  Se39  1  0.78477110  0.64449698  0.64815054  1
  Se  Se40  1  0.88389307  -0.00013200  0.84902858  1
  Se  Se41  1  0.88183776  0.85096754  0.50165895  1
