# generated using pymatgen
data_Ga2CoO4
_symmetry_space_group_name_H-M   'P 1'
_cell_length_a   5.95230671
_cell_length_b   5.95230740
_cell_length_c   5.86259907
_cell_angle_alpha   60.49730993
_cell_angle_beta   60.49730926
_cell_angle_gamma   60.54741159
_symmetry_Int_Tables_number   1
_chemical_formula_structural   Ga2CoO4
_chemical_formula_sum   'Ga4 Co2 O8'
_cell_volume   148.58025928
_cell_formula_units_Z   2
loop_
 _symmetry_equiv_pos_site_id
 _symmetry_equiv_pos_as_xyz
  1  'x, y, z'
loop_
 _atom_site_type_symbol
 _atom_site_label
 _atom_site_symmetry_multiplicity
 _atom_site_fract_x
 _atom_site_fract_y
 _atom_site_fract_z
 _atom_site_occupancy
  Co  Co0  1  0.62500000  0.62500000  0.12500000  1
  Co  Co1  1  0.62500000  0.62500000  0.62500000  1
  Ga  Ga2  1  0.00962326  0.00962326  0.99037674  1
  Ga  Ga3  1  0.24037674  0.24037674  0.25962326  1
  Ga  Ga4  1  0.12500000  0.62500000  0.62500000  1
  Ga  Ga5  1  0.62500000  0.12500000  0.62500000  1
  O  O6  1  0.37345284  0.37345284  0.39153526  1
  O  O7  1  0.36777557  0.85479725  0.38871359  1
  O  O8  1  0.37345284  0.37345284  0.86155907  1
  O  O9  1  0.85479725  0.36777557  0.38871359  1
  O  O10  1  0.39520275  0.88222443  0.86128641  1
  O  O11  1  0.88222443  0.39520275  0.86128641  1
  O  O12  1  0.87654716  0.87654716  0.38844093  1
  O  O13  1  0.87654716  0.87654716  0.85846474  1
