# generated using pymatgen
data_SmPO4
_symmetry_space_group_name_H-M   'P 1'
_cell_length_a   6.40164888
_cell_length_b   6.78709401
_cell_length_c   6.96476520
_cell_angle_alpha   90.00000000
_cell_angle_beta   90.00000000
_cell_angle_gamma   104.10940699
_symmetry_Int_Tables_number   1
_chemical_formula_structural   SmPO4
_chemical_formula_sum   'Sm4 P4 O16'
_cell_volume   293.48013286
_cell_formula_units_Z   4
loop_
 _symmetry_equiv_pos_site_id
 _symmetry_equiv_pos_as_xyz
  1  'x, y, z'
loop_
 _atom_site_type_symbol
 _atom_site_label
 _atom_site_symmetry_multiplicity
 _atom_site_fract_x
 _atom_site_fract_y
 _atom_site_fract_z
 _atom_site_occupancy
  O  O0  1  0.21077629  0.62253191  0.29044025  1
  O  O1  1  0.28922371  0.87746809  0.79044025  1
  O  O2  1  0.78922371  0.37746809  0.70955975  1
  O  O3  1  0.71077629  0.12253191  0.20955975  1
  O  O4  1  0.31189453  0.97021569  0.39982144  1
  O  O5  1  0.18810547  0.52978431  0.89982144  1
  O  O6  1  0.68810547  0.02978431  0.60017856  1
  O  O7  1  0.81189453  0.47021569  0.10017856  1
  O  O8  1  0.43527589  0.25035738  0.00301398  1
  O  O9  1  0.06472411  0.24964262  0.50301398  1
  O  O10  1  0.56472411  0.74964262  0.99698602  1
  O  O11  1  0.93527589  0.75035738  0.49698602  1
  O  O12  1  0.50070531  0.38259594  0.33359654  1
  O  O13  1  0.99929469  0.11740406  0.83359654  1
  O  O14  1  0.49929469  0.61740406  0.66640346  1
  O  O15  1  0.00070531  0.88259594  0.16640346  1
  P  P16  1  0.11141414  0.80221454  0.33950481  1
  P  P17  1  0.38858586  0.69778546  0.83950481  1
  P  P18  1  0.88858586  0.19778546  0.66049519  1
  P  P19  1  0.61141414  0.30221454  0.16049519  1
  Sm  Sm20  1  0.59603762  0.78441697  0.34478349  1
  Sm  Sm21  1  0.90396238  0.71558303  0.84478349  1
  Sm  Sm22  1  0.40396238  0.21558303  0.65521651  1
  Sm  Sm23  1  0.09603762  0.28441697  0.15521651  1
