# generated using pymatgen
data_Mg(TiS2)8
_symmetry_space_group_name_H-M   'P 1'
_cell_length_a   7.01572606
_cell_length_b   28.02891842
_cell_length_c   12.13825891
_cell_angle_alpha   29.98870315
_cell_angle_beta   54.69108919
_cell_angle_gamma   59.95988181
_symmetry_Int_Tables_number   1
_chemical_formula_structural   Mg(TiS2)8
_chemical_formula_sum   'Mg2 Ti16 S32'
_cell_volume   973.58206990
_cell_formula_units_Z   2
loop_
 _symmetry_equiv_pos_site_id
 _symmetry_equiv_pos_as_xyz
  1  'x, y, z'
loop_
 _atom_site_type_symbol
 _atom_site_label
 _atom_site_symmetry_multiplicity
 _atom_site_fract_x
 _atom_site_fract_y
 _atom_site_fract_z
 _atom_site_occupancy
  Mg  Mg0  1  0.00000000  0.37500000  0.50000000  1
  Mg  Mg1  1  0.00000000  0.87500000  0.00000000  1
  S  S2  1  0.25396844  0.12122592  0.25357972  1
  S  S3  1  0.26083367  0.00122412  0.74379217  1
  S  S4  1  0.25432456  0.25086971  0.25003065  1
  S  S5  1  0.74602010  0.12289820  0.25818351  1
  S  S6  1  0.25396844  0.12877408  0.73848340  1
  S  S7  1  0.25448620  0.37130228  0.25290924  1
  S  S8  1  0.74213530  0.25086971  0.25003065  1
  S  S9  1  0.74668552  0.00122412  0.74379217  1
  S  S10  1  0.26083367  0.24877588  0.74868864  1
  S  S11  1  0.25331448  0.50122412  0.25131136  1
  S  S12  1  0.74716674  0.37111297  0.26060732  1
  S  S13  1  0.74602010  0.12710180  0.74977629  1
  S  S14  1  0.25397990  0.62289820  0.25022371  1
  S  S15  1  0.25283326  0.37888703  0.73939268  1
  S  S16  1  0.73916633  0.50122412  0.25131136  1
  S  S17  1  0.74668552  0.24877588  0.74868864  1
  S  S18  1  0.25786470  0.49913029  0.74996935  1
  S  S19  1  0.25331448  0.74877588  0.25620783  1
  S  S20  1  0.74551380  0.37869772  0.74709076  1
  S  S21  1  0.74603156  0.62122592  0.26151660  1
  S  S22  1  0.25397990  0.62710180  0.74181649  1
  S  S23  1  0.25283326  0.87111297  0.25494079  1
  S  S24  1  0.73916633  0.74877588  0.25620783  1
  S  S25  1  0.74567544  0.49913029  0.74996935  1
  S  S26  1  0.25786470  0.75086971  0.74649051  1
  S  S27  1  0.25432456  0.99913029  0.25350949  1
  S  S28  1  0.74603156  0.62877408  0.74642028  1
  S  S29  1  0.74551380  0.87130228  0.26188165  1
  S  S30  1  0.25448620  0.87869772  0.73811835  1
  S  S31  1  0.74567544  0.75086971  0.74649051  1
  S  S32  1  0.74213530  0.99913029  0.25350949  1
  S  S33  1  0.74716674  0.87888703  0.74505921  1
  Ti  Ti34  1  0.51245374  0.00255994  0.49034276  1
  Ti  Ti35  1  0.49450209  0.13170107  0.49209577  1
  Ti  Ti36  1  0.51245374  0.24744006  0.50058252  1
  Ti  Ti37  1  0.99662099  0.00255994  0.49034276  1
  Ti  Ti38  1  0.49450209  0.11829893  0.01890006  1
  Ti  Ti39  1  0.50000000  0.37500000  0.50000000  1
  Ti  Ti40  1  0.48754626  0.50255994  0.49941748  1
  Ti  Ti41  1  0.99662099  0.24744006  0.50058252  1
  Ti  Ti42  1  0.00337901  0.74744006  0.50965724  1
  Ti  Ti43  1  0.50000000  0.37500000  0.00000000  1
  Ti  Ti44  1  0.50549791  0.61829893  0.50790423  1
  Ti  Ti45  1  0.48754626  0.74744006  0.50965724  1
  Ti  Ti46  1  0.00337901  0.50255994  0.49941748  1
  Ti  Ti47  1  0.50549791  0.63170107  0.98109994  1
  Ti  Ti48  1  0.50000000  0.87500000  0.50000000  1
  Ti  Ti49  1  0.50000000  0.87500000  0.00000000  1
