# generated using pymatgen
data_Mg6ZnSb
_symmetry_space_group_name_H-M   'P 1'
_cell_length_a   6.19030135
_cell_length_b   6.47080293
_cell_length_c   5.19378621
_cell_angle_alpha   90.00000000
_cell_angle_beta   90.00000000
_cell_angle_gamma   121.51062130
_symmetry_Int_Tables_number   1
_chemical_formula_structural   Mg6ZnSb
_chemical_formula_sum   'Mg6 Zn1 Sb1'
_cell_volume   177.36604207
_cell_formula_units_Z   1
loop_
 _symmetry_equiv_pos_site_id
 _symmetry_equiv_pos_as_xyz
  1  'x, y, z'
loop_
 _atom_site_type_symbol
 _atom_site_label
 _atom_site_symmetry_multiplicity
 _atom_site_fract_x
 _atom_site_fract_y
 _atom_site_fract_z
 _atom_site_occupancy
  Mg  Mg0  1  0.66894911  0.33397045  0.25000000  1
  Mg  Mg1  1  0.66894911  0.83497766  0.25000000  1
  Mg  Mg2  1  0.33006625  0.17229970  0.75000000  1
  Mg  Mg3  1  0.33006625  0.65776754  0.75000000  1
  Mg  Mg4  1  0.83686674  0.16843387  0.75000000  1
  Mg  Mg5  1  0.83335168  0.66667634  0.75000000  1
  Zn  Zn6  1  0.16296124  0.33148012  0.25000000  1
  Sb  Sb7  1  0.16878962  0.83439431  0.25000000  1
