# generated using pymatgen
data_U(GePd)2
_symmetry_space_group_name_H-M   'P 1'
_cell_length_a   4.17246678
_cell_length_b   4.17246677
_cell_length_c   6.06520810
_cell_angle_alpha   110.11877006
_cell_angle_beta   110.11877001
_cell_angle_gamma   89.99999998
_symmetry_Int_Tables_number   1
_chemical_formula_structural   U(GePd)2
_chemical_formula_sum   'U1 Ge2 Pd2'
_cell_volume   92.25711459
_cell_formula_units_Z   1
loop_
 _symmetry_equiv_pos_site_id
 _symmetry_equiv_pos_as_xyz
  1  'x, y, z'
loop_
 _atom_site_type_symbol
 _atom_site_label
 _atom_site_symmetry_multiplicity
 _atom_site_fract_x
 _atom_site_fract_y
 _atom_site_fract_z
 _atom_site_occupancy
  Ge  Ge0  1  0.61449787  0.61449787  0.22899573  1
  Ge  Ge1  1  0.38550213  0.38550213  0.77100427  1
  Pd  Pd2  1  0.25000000  0.75000000  0.50000000  1
  Pd  Pd3  1  0.75000000  0.25000000  0.50000000  1
  U  U4  1  0.00000000  0.00000000  0.00000000  1
