# generated using pymatgen
data_Fe4P7O24
_symmetry_space_group_name_H-M   'P 1'
_cell_length_a   10.28635889
_cell_length_b   10.36158242
_cell_length_c   11.01217458
_cell_angle_alpha   112.69071204
_cell_angle_beta   109.44276611
_cell_angle_gamma   104.93879213
_symmetry_Int_Tables_number   1
_chemical_formula_structural   Fe4P7O24
_chemical_formula_sum   'Fe8 P14 O48'
_cell_volume   914.99448633
_cell_formula_units_Z   2
loop_
 _symmetry_equiv_pos_site_id
 _symmetry_equiv_pos_as_xyz
  1  'x, y, z'
loop_
 _atom_site_type_symbol
 _atom_site_label
 _atom_site_symmetry_multiplicity
 _atom_site_fract_x
 _atom_site_fract_y
 _atom_site_fract_z
 _atom_site_occupancy
  O  O0  1  0.98507180  0.12647181  0.86756371  1
  O  O1  1  1.00076778  0.32852744  0.12045257  1
  O  O2  1  0.96383047  0.31950938  0.33441425  1
  O  O3  1  0.68706157  0.10948398  0.04832759  1
  O  O4  1  0.82430321  0.18326303  0.46015501  1
  O  O5  1  0.88700086  0.28774443  0.73034891  1
  O  O6  1  0.73038603  0.64545989  0.07704935  1
  O  O7  1  0.83500352  0.98211381  0.19960779  1
  O  O8  1  -0.00076678  0.67147356  0.87954843  1
  O  O9  1  0.03617053  0.68049062  0.66558575  1
  O  O10  1  0.31293743  0.89051602  0.95167241  1
  O  O11  1  0.01492720  0.87352819  0.13243629  1
  O  O12  1  0.17569579  0.81673697  0.53984499  1
  O  O13  1  0.11300014  0.71225657  0.26965109  1
  O  O14  1  0.26961297  0.35454111  0.92295065  1
  O  O15  1  0.16499648  0.01788619  0.80039221  1
  O  O16  1  0.31498414  0.99001920  0.46701971  1
  O  O17  1  0.33206982  0.69772078  0.70163895  1
  O  O18  1  0.09407205  0.06628710  0.40464831  1
  O  O19  1  0.07173648  0.14990484  0.20889593  1
  O  O20  1  0.22952371  0.44309084  0.37151229  1
  O  O21  1  0.28092176  0.17500783  0.67371057  1
  O  O22  1  0.13720211  0.51091341  0.01073428  1
  O  O23  1  0.37279070  0.76674308  0.46011546  1
  O  O24  1  0.29241198  0.83912572  0.15523632  1
  O  O25  1  0.56679038  0.73103557  0.90669879  1
  O  O26  1  0.59977901  0.89063535  0.78620011  1
  O  O27  1  0.36420299  0.26005914  0.51133380  1
  O  O28  1  0.51292658  0.60586481  0.63042676  1
  O  O29  1  0.44428621  0.04164563  0.82488171  1
  O  O30  1  0.58630724  0.35986729  0.94886006  1
  O  O31  1  0.36459611  0.52702976  0.20453885  1
  O  O32  1  0.63540489  0.47297124  0.79546115  1
  O  O33  1  0.41369276  0.64013271  0.05113994  1
  O  O34  1  0.55571379  0.95835437  0.17511729  1
  O  O35  1  0.48707442  0.39413619  0.36957424  1
  O  O36  1  0.63579801  0.73994086  0.48866620  1
  O  O37  1  0.40022099  0.10936465  0.21380089  1
  O  O38  1  0.43320862  0.26896543  0.09330121  1
  O  O39  1  0.70758802  0.16087428  0.84476268  1
  O  O40  1  0.62720930  0.23325592  0.53988354  1
  O  O41  1  0.86279689  0.48908759  0.98926572  1
  O  O42  1  0.71907724  0.82499217  0.32628843  1
  O  O43  1  0.77047729  0.55690916  0.62848771  1
  O  O44  1  0.92826452  0.85009616  0.79110407  1
  O  O45  1  0.68501586  0.00998080  0.53298029  1
  O  O46  1  0.66793018  0.30227922  0.29836105  1
  O  O47  1  0.90592795  0.93371190  0.59535069  1
  P  P48  1  0.29823870  0.50952242  0.04915665  1
  P  P49  1  0.70176230  0.49047858  0.95084335  1
  P  P50  1  0.61376344  0.06130268  0.88454296  1
  P  P51  1  0.72738610  0.86847072  0.47624584  1
  P  P52  1  0.38623756  0.93869832  0.11545804  1
  P  P53  1  0.50140343  0.27633060  0.24172798  1
  P  P54  1  0.93464229  0.67989693  0.73928883  1
  P  P55  1  0.75989276  0.18903807  0.56691968  1
  P  P56  1  0.00052685  0.99048025  0.77059061  1
  P  P57  1  0.24010724  0.81096193  0.43308132  1
  P  P58  1  0.06535671  0.32010407  0.26071117  1
  P  P59  1  0.49859557  0.72366840  0.75827202  1
  P  P60  1  0.27261390  0.13152928  0.52375516  1
  P  P61  1  0.99947415  0.00951975  0.22940939  1
  Fe  Fe62  1  0.76055980  0.16118157  0.26011632  1
  Fe  Fe63  1  0.92350101  0.30379790  0.92276090  1
  Fe  Fe64  1  0.62651367  0.77869713  0.11515451  1
  Fe  Fe65  1  0.57504542  0.41336168  0.58746588  1
  Fe  Fe66  1  0.42495358  0.58663832  0.41253412  1
  Fe  Fe67  1  0.37348633  0.22130287  0.88484549  1
  Fe  Fe68  1  0.07649899  0.69620310  0.07723910  1
  Fe  Fe69  1  0.23944020  0.83881843  0.73988268  1
