# generated using pymatgen
data_CoCuP2O7
_symmetry_space_group_name_H-M   'P 1'
_cell_length_a   4.58433910
_cell_length_b   5.34911055
_cell_length_c   5.38827625
_cell_angle_alpha   101.71388719
_cell_angle_beta   100.74258138
_cell_angle_gamma   100.74528752
_symmetry_Int_Tables_number   1
_chemical_formula_structural   CoCuP2O7
_chemical_formula_sum   'Co1 Cu1 P2 O7'
_cell_volume   123.60986110
_cell_formula_units_Z   1
loop_
 _symmetry_equiv_pos_site_id
 _symmetry_equiv_pos_as_xyz
  1  'x, y, z'
loop_
 _atom_site_type_symbol
 _atom_site_label
 _atom_site_symmetry_multiplicity
 _atom_site_fract_x
 _atom_site_fract_y
 _atom_site_fract_z
 _atom_site_occupancy
  O  O0  1  0.93880594  0.85929719  0.97413900  1
  O  O1  1  0.96425167  0.13304322  0.64000456  1
  O  O2  1  0.44058445  0.17480036  0.97483939  1
  O  O3  1  0.23270449  0.74862141  0.64375392  1
  O  O4  1  0.00342984  0.41868839  0.21893511  1
  O  O5  1  0.48427047  0.75027720  0.25296616  1
  O  O6  1  0.51102231  0.41120258  0.52353396  1
  P  P7  1  0.13371825  0.98832036  0.80912246  1
  P  P8  1  0.31549881  0.58067216  0.39754648  1
  Co  Co9  1  0.71778908  0.11565425  0.29399952  1
  Cu  Cu10  1  0.71802468  0.48652288  0.90735946  1
