# generated using pymatgen
data_Cr2CuO4
_symmetry_space_group_name_H-M   'P 1'
_cell_length_a   5.97285292
_cell_length_b   5.97285337
_cell_length_c   5.97285305
_cell_angle_alpha   90.17504416
_cell_angle_beta   119.89899613
_cell_angle_gamma   119.89898579
_symmetry_Int_Tables_number   1
_chemical_formula_structural   Cr2CuO4
_chemical_formula_sum   'Cr4 Cu2 O8'
_cell_volume   150.90056164
_cell_formula_units_Z   2
loop_
 _symmetry_equiv_pos_site_id
 _symmetry_equiv_pos_as_xyz
  1  'x, y, z'
loop_
 _atom_site_type_symbol
 _atom_site_label
 _atom_site_symmetry_multiplicity
 _atom_site_fract_x
 _atom_site_fract_y
 _atom_site_fract_z
 _atom_site_occupancy
  O  O0  1  0.47546709  0.73844712  0.71391421  1
  O  O1  1  0.02453391  0.73844712  0.26298003  1
  O  O2  1  0.02453291  0.28608579  0.26155388  1
  O  O3  1  0.52453291  0.26298003  0.73844712  1
  O  O4  1  0.97546709  0.71391321  0.73844612  1
  O  O5  1  0.97546809  0.26155388  0.73702097  1
  O  O6  1  0.47546709  0.73701997  0.26155288  1
  O  O7  1  0.52453291  0.26155388  0.28608579  1
  Cr  Cr8  1  0.00000000  0.50000000  0.50000000  1
  Cr  Cr9  1  0.99999900  0.49999900  0.00000000  1
  Cr  Cr10  1  0.49999900  0.49999900  0.49999900  1
  Cr  Cr11  1  0.50000000  0.00000000  0.50000000  1
  Cu  Cu12  1  0.75000000  0.87500000  0.12500000  1
  Cu  Cu13  1  0.25000100  0.12500100  0.87500000  1
