# generated using pymatgen
data_Yb2Si2O7
_symmetry_space_group_name_H-M   'P 1'
_cell_length_a   4.91147764
_cell_length_b   5.77562453
_cell_length_c   5.77562453
_cell_angle_alpha   107.12880281
_cell_angle_beta   97.23184255
_cell_angle_gamma   97.23184253
_symmetry_Int_Tables_number   1
_chemical_formula_structural   Yb2Si2O7
_chemical_formula_sum   'Yb2 Si2 O7'
_cell_volume   153.01195922
_cell_formula_units_Z   1
loop_
 _symmetry_equiv_pos_site_id
 _symmetry_equiv_pos_as_xyz
  1  'x, y, z'
loop_
 _atom_site_type_symbol
 _atom_site_label
 _atom_site_symmetry_multiplicity
 _atom_site_fract_x
 _atom_site_fract_y
 _atom_site_fract_z
 _atom_site_occupancy
  O  O0  1  0.21358252  0.36826462  0.09228857  1
  O  O1  1  0.78641748  0.90771143  0.63173538  1
  O  O2  1  0.21353656  0.08130342  0.37918564  1
  O  O3  1  0.78646344  0.62081436  0.91869658  1
  O  O4  1  0.50000000  0.99453240  0.00546760  1
  O  O5  1  0.30169882  0.61948884  0.63048547  1
  O  O6  1  0.69830118  0.36951453  0.38051116  1
  Si  Si7  1  0.39858191  0.20972774  0.22068413  1
  Si  Si8  1  0.60141809  0.77931587  0.79027226  1
  Yb  Yb9  1  0.00000000  0.30447155  0.69552845  1
  Yb  Yb10  1  0.00000000  0.68455524  0.31544476  1
