# generated using pymatgen
data_CeMg6Zr
_symmetry_space_group_name_H-M   'P 1'
_cell_length_a   6.67434473
_cell_length_b   6.67434416
_cell_length_c   5.04312179
_cell_angle_alpha   90.00000000
_cell_angle_beta   90.00000000
_cell_angle_gamma   121.43604796
_symmetry_Int_Tables_number   1
_chemical_formula_structural   CeMg6Zr
_chemical_formula_sum   'Ce1 Mg6 Zr1'
_cell_volume   191.68103953
_cell_formula_units_Z   1
loop_
 _symmetry_equiv_pos_site_id
 _symmetry_equiv_pos_as_xyz
  1  'x, y, z'
loop_
 _atom_site_type_symbol
 _atom_site_label
 _atom_site_symmetry_multiplicity
 _atom_site_fract_x
 _atom_site_fract_y
 _atom_site_fract_z
 _atom_site_occupancy
  Ce  Ce0  1  0.30892290  0.19107710  0.75000000  1
  Mg  Mg1  1  0.16947933  0.81698632  0.25000000  1
  Mg  Mg2  1  0.68301368  0.33052067  0.25000000  1
  Mg  Mg3  1  0.67069972  0.82930028  0.25000000  1
  Mg  Mg4  1  0.31397537  0.66644632  0.75000000  1
  Mg  Mg5  1  0.83355368  0.18602463  0.75000000  1
  Mg  Mg6  1  0.83082067  0.66917933  0.75000000  1
  Zr  Zr7  1  0.18953465  0.31046535  0.25000000  1
