# generated using pymatgen
data_Ag3BiO3
_symmetry_space_group_name_H-M   'P 1'
_cell_length_a   8.90957034
_cell_length_b   11.15556520
_cell_length_c   11.15601990
_cell_angle_alpha   80.80620283
_cell_angle_beta   66.44890916
_cell_angle_gamma   66.46405982
_symmetry_Int_Tables_number   1
_chemical_formula_structural   Ag3BiO3
_chemical_formula_sum   'Ag24 Bi8 O24'
_cell_volume   931.89296311
_cell_formula_units_Z   8
loop_
 _symmetry_equiv_pos_site_id
 _symmetry_equiv_pos_as_xyz
  1  'x, y, z'
loop_
 _atom_site_type_symbol
 _atom_site_label
 _atom_site_symmetry_multiplicity
 _atom_site_fract_x
 _atom_site_fract_y
 _atom_site_fract_z
 _atom_site_occupancy
  Ag  Ag0  1  0.98615113  0.36488710  0.93538601  1
  Ag  Ag1  1  0.54681768  0.96220956  0.14491780  1
  Ag  Ag2  1  0.98996973  0.85536956  0.97762728  1
  Ag  Ag3  1  0.76649192  0.15448090  0.55029941  1
  Ag  Ag4  1  0.90510844  0.22751308  0.22919973  1
  Ag  Ag5  1  0.28657988  0.63504002  0.06466410  1
  Ag  Ag6  1  0.09513905  0.47773154  0.64455670  1
  Ag  Ag7  1  0.24412198  0.11361357  0.93465458  1
  Ag  Ag8  1  0.21770388  0.52240459  0.35547999  1
  Ag  Ag9  1  0.56689108  0.94974913  0.65442857  1
  Ag  Ag10  1  0.38250023  0.72919246  0.27252480  1
  Ag  Ag11  1  0.42886611  0.56531939  0.61367515  1
  Ag  Ag12  1  0.82313037  0.14444836  0.02243707  1
  Ag  Ag13  1  0.29259429  0.88633997  0.06525874  1
  Ag  Ag14  1  0.38400793  0.27092464  0.72750845  1
  Ag  Ag15  1  0.94161413  0.35492724  0.46233055  1
  Ag  Ag16  1  0.60115319  0.43532397  0.13510168  1
  Ag  Ag17  1  0.65378902  0.03787853  0.85497133  1
  Ag  Ag18  1  0.36185080  0.77263681  0.77077805  1
  Ag  Ag19  1  0.75930722  0.64488862  0.53777531  1
  Ag  Ag20  1  0.47144354  0.84547953  0.44972831  1
  Ag  Ag21  1  0.17156573  0.56462514  0.86493319  1
  Ag  Ag22  1  0.17128534  0.05024164  0.34528467  1
  Ag  Ag23  1  0.60772984  0.43475625  0.38641697  1
  Bi  Bi24  1  0.28440076  0.31845776  0.12101216  1
  Bi  Bi25  1  0.48209406  0.17349952  0.37119578  1
  Bi  Bi26  1  0.65540754  0.37897026  0.81851482  1
  Bi  Bi27  1  0.90563676  0.87122000  0.32647655  1
  Bi  Bi28  1  0.10330710  0.12877876  0.67345020  1
  Bi  Bi29  1  0.02683722  0.82651427  0.62877794  1
  Bi  Bi30  1  0.85287170  0.62104153  0.18159870  1
  Bi  Bi31  1  0.72391204  0.68152235  0.87902119  1
  O  O32  1  0.97266225  0.34082263  0.75120973  1
  O  O33  1  0.76008324  0.11359326  0.36961111  1
  O  O34  1  0.00936789  0.37537406  0.11886907  1
  O  O35  1  0.78222762  0.17109893  0.73563488  1
  O  O36  1  0.37968052  0.13040186  0.61359048  1
  O  O37  1  0.68257958  0.44536901  0.62697333  1
  O  O38  1  0.20326394  0.23568197  0.32892724  1
  O  O39  1  0.97395200  0.74878755  0.84081610  1
  O  O40  1  0.24335897  0.88644063  0.63034649  1
  O  O41  1  0.50362112  0.62467936  0.88110713  1
  O  O42  1  0.56360157  0.25114552  0.15915867  1
  O  O43  1  0.39569605  0.36620595  0.43506483  1
  O  O44  1  0.01199352  0.93499759  0.13369004  1
  O  O45  1  0.12368474  0.86964093  0.38639529  1
  O  O46  1  0.37781030  0.12692698  0.05468504  1
  O  O47  1  0.68900363  0.82894892  0.26434283  1
  O  O48  1  0.55955770  0.87309016  0.94531506  1
  O  O49  1  0.76797116  0.76438160  0.67107579  1
  O  O50  1  0.08071290  0.06489086  0.86618665  1
  O  O51  1  0.06479826  0.65914317  0.24883393  1
  O  O52  1  0.19693853  0.63376166  0.56498184  1
  O  O53  1  0.75485866  0.55465818  0.37314831  1
  O  O54  1  0.63471246  0.61888612  0.12468448  1
  O  O55  1  0.37822371  0.38108705  0.87536592  1
