# generated using pymatgen
data_Eu(BS2)2
_symmetry_space_group_name_H-M   'P 1'
_cell_length_a   6.12167481
_cell_length_b   6.45761485
_cell_length_c   14.15225515
_cell_angle_alpha   90.00000000
_cell_angle_beta   90.00000000
_cell_angle_gamma   109.77381434
_symmetry_Int_Tables_number   1
_chemical_formula_structural   Eu(BS2)2
_chemical_formula_sum   'Eu4 B8 S16'
_cell_volume   526.47050297
_cell_formula_units_Z   4
loop_
 _symmetry_equiv_pos_site_id
 _symmetry_equiv_pos_as_xyz
  1  'x, y, z'
loop_
 _atom_site_type_symbol
 _atom_site_label
 _atom_site_symmetry_multiplicity
 _atom_site_fract_x
 _atom_site_fract_y
 _atom_site_fract_z
 _atom_site_occupancy
  Eu  Eu0  1  0.30185068  0.19200298  0.39689508  1
  Eu  Eu1  1  0.19814932  0.80799702  0.89689508  1
  Eu  Eu2  1  0.69814932  0.80799702  0.60310492  1
  Eu  Eu3  1  0.80185068  0.19200298  0.10310492  1
  S  S4  1  0.66709314  0.62771818  0.40085321  1
  S  S5  1  0.83290686  0.37228182  0.90085321  1
  S  S6  1  0.33290686  0.37228182  0.59914679  1
  S  S7  1  0.16709314  0.62771818  0.09914679  1
  S  S8  1  0.49369350  0.91909721  0.26063657  1
  S  S9  1  0.00630650  0.08090279  0.76063657  1
  S  S10  1  0.50630650  0.08090279  0.73936343  1
  S  S11  1  0.99369350  0.91909721  0.23936343  1
  S  S12  1  0.85970519  0.26461523  0.49243021  1
  S  S13  1  0.64029481  0.73538477  0.99243021  1
  S  S14  1  0.14029481  0.73538477  0.50756979  1
  S  S15  1  0.35970519  0.26461523  0.00756979  1
  S  S16  1  0.56102581  0.47213807  0.19620810  1
  S  S17  1  0.93897419  0.52786193  0.69620810  1
  S  S18  1  0.43897419  0.52786193  0.80379190  1
  S  S19  1  0.06102581  0.47213807  0.30379190  1
  B  B20  1  0.68030438  0.73197824  0.27244358  1
  B  B21  1  0.81969562  0.26802176  0.77244358  1
  B  B22  1  0.31969562  0.26802176  0.72755642  1
  B  B23  1  0.18030438  0.73197824  0.22755642  1
  B  B24  1  0.93037926  0.53401036  0.41628763  1
  B  B25  1  0.56962074  0.46598964  0.91628763  1
  B  B26  1  0.06962074  0.46598964  0.58371237  1
  B  B27  1  0.43037926  0.53401036  0.08371237  1
