# generated using pymatgen
data_Sb2Pb2S5
_symmetry_space_group_name_H-M   'P 1'
_cell_length_a   4.00703610
_cell_length_b   11.37815609
_cell_length_c   20.45866725
_cell_angle_alpha   90.00000000
_cell_angle_beta   90.00000000
_cell_angle_gamma   90.00000000
_symmetry_Int_Tables_number   1
_chemical_formula_structural   Sb2Pb2S5
_chemical_formula_sum   'Sb8 Pb8 S20'
_cell_volume   932.76551425
_cell_formula_units_Z   4
loop_
 _symmetry_equiv_pos_site_id
 _symmetry_equiv_pos_as_xyz
  1  'x, y, z'
loop_
 _atom_site_type_symbol
 _atom_site_label
 _atom_site_symmetry_multiplicity
 _atom_site_fract_x
 _atom_site_fract_y
 _atom_site_fract_z
 _atom_site_occupancy
  Pb  Pb0  1  0.25000000  0.16882560  0.20687769  1
  Pb  Pb1  1  0.75000000  0.83117440  0.79312231  1
  Pb  Pb2  1  0.75000000  0.66882560  0.29312231  1
  Pb  Pb3  1  0.25000000  0.33117440  0.70687769  1
  Pb  Pb4  1  0.25000000  0.49879741  0.09551605  1
  Pb  Pb5  1  0.75000000  0.50120259  0.90448395  1
  Pb  Pb6  1  0.75000000  0.99879741  0.40448395  1
  Pb  Pb7  1  0.25000000  0.00120259  0.59551605  1
  Sb  Sb8  1  0.25000000  0.37880849  0.36860538  1
  Sb  Sb9  1  0.75000000  0.62119151  0.63139462  1
  Sb  Sb10  1  0.75000000  0.87880849  0.13139462  1
  Sb  Sb11  1  0.25000000  0.12119151  0.86860538  1
  Sb  Sb12  1  0.25000000  0.70290505  0.47316298  1
  Sb  Sb13  1  0.75000000  0.29709495  0.52683702  1
  Sb  Sb14  1  0.75000000  0.20290505  0.02683702  1
  Sb  Sb15  1  0.25000000  0.79709495  0.97316298  1
  S  S16  1  0.25000000  0.49221640  0.26738323  1
  S  S17  1  0.75000000  0.50778360  0.73261677  1
  S  S18  1  0.75000000  0.99221640  0.23261677  1
  S  S19  1  0.25000000  0.00778360  0.76738323  1
  S  S20  1  0.25000000  0.68522388  0.87030551  1
  S  S21  1  0.75000000  0.31477612  0.12969449  1
  S  S22  1  0.75000000  0.18522388  0.62969449  1
  S  S23  1  0.25000000  0.81477612  0.37030551  1
  S  S24  1  0.25000000  0.74866456  0.16880291  1
  S  S25  1  0.75000000  0.25133544  0.83119709  1
  S  S26  1  0.75000000  0.24866456  0.33119709  1
  S  S27  1  0.25000000  0.75133544  0.66880291  1
  S  S28  1  0.25000000  0.13835692  0.47960320  1
  S  S29  1  0.75000000  0.86164308  0.52039680  1
  S  S30  1  0.75000000  0.63835692  0.02039680  1
  S  S31  1  0.25000000  0.36164308  0.97960320  1
  S  S32  1  0.25000000  0.06806250  0.07642272  1
  S  S33  1  0.75000000  0.93193750  0.92357728  1
  S  S34  1  0.75000000  0.56806250  0.42357728  1
  S  S35  1  0.25000000  0.43193750  0.57642272  1
