# generated using pymatgen
data_Li17Nb18O54
_symmetry_space_group_name_H-M   'P 1'
_cell_length_a   16.79176206
_cell_length_b   20.47449614
_cell_length_c   9.89748953
_cell_angle_alpha   25.92447448
_cell_angle_beta   50.40967157
_cell_angle_gamma   42.65396887
_symmetry_Int_Tables_number   1
_chemical_formula_structural   Li17Nb18O54
_chemical_formula_sum   'Li17 Nb18 O54'
_cell_volume   1004.62833944
_cell_formula_units_Z   1
loop_
 _symmetry_equiv_pos_site_id
 _symmetry_equiv_pos_as_xyz
  1  'x, y, z'
loop_
 _atom_site_type_symbol
 _atom_site_label
 _atom_site_symmetry_multiplicity
 _atom_site_fract_x
 _atom_site_fract_y
 _atom_site_fract_z
 _atom_site_occupancy
  Li  Li0  1  0.42730467  0.99996027  0.28257537  1
  Li  Li1  1  0.31548953  0.33339696  0.28337098  1
  Li  Li2  1  0.15014277  0.33558012  0.77732117  1
  Li  Li3  1  0.76075638  1.00003954  0.28189648  1
  Li  Li4  1  0.20498611  0.66643012  0.28275862  1
  Li  Li5  1  0.03931695  0.66600408  0.78270695  1
  Li  Li6  1  0.65021517  0.33380934  0.28033911  1
  Li  Li7  1  0.48295762  0.33341753  0.78233894  1
  Li  Li8  1  0.53817968  0.66814273  0.28037314  1
  Li  Li9  1  0.37289030  0.66464291  0.78647722  1
  Li  Li10  1  0.98335299  0.33306105  0.28212927  1
  Li  Li11  1  0.81585102  0.33334475  0.78328893  1
  Li  Li12  1  0.26064550  0.00070613  0.78158729  1
  Li  Li13  1  0.87258907  0.66528418  0.28481418  1
  Li  Li14  1  0.70574037  0.66595482  0.78189930  1
  Li  Li15  1  0.59320555  0.99999995  0.78265493  1
  Li  Li16  1  0.92668151  0.00060101  0.78406877  1
  Nb  Nb17  1  0.00062442  -0.00031745  0.00149355  1
  Nb  Nb18  1  0.32973696  0.99937641  0.00835602  1
  Nb  Nb19  1  0.16672435  0.99988798  0.50075761  1
  Nb  Nb20  1  0.22288465  0.33241952  0.00142135  1
  Nb  Nb21  1  0.05578520  0.33265487  0.50176411  1
  Nb  Nb22  1  0.66709473  0.00009899  -0.00025215  1
  Nb  Nb23  1  0.50080344  0.99963890  0.50089509  1
  Nb  Nb24  1  0.11084592  0.67299355  0.98936590  1
  Nb  Nb25  1  0.55522536  0.33348377  0.00042268  1
  Nb  Nb26  1  0.38884632  0.33334751  0.50067986  1
  Nb  Nb27  1  0.83331846  0.00067391  0.49895278  1
  Nb  Nb28  1  0.44439175  0.66695389  0.00082499  1
  Nb  Nb29  1  0.27756305  0.66650691  0.50110043  1
  Nb  Nb30  1  0.89344399  0.32816141  0.00514677  1
  Nb  Nb31  1  0.72285945  0.33343454  0.49973807  1
  Nb  Nb32  1  0.77809789  0.66689642  -0.00005623  1
  Nb  Nb33  1  0.61029862  0.66850609  0.49792727  1
  Nb  Nb34  1  0.94483991  0.66540764  0.50149200  1
  O  O35  1  0.05279136  0.20829855  0.10839222  1
  O  O36  1  0.04674423  0.08213134  0.61356039  1
  O  O37  1  0.24357674  0.12971831  0.22229997  1
  O  O38  1  0.15594131  0.25112050  0.35787403  1
  O  O39  1  0.17055170  0.12339195  0.84034049  1
  O  O40  1  0.38582971  0.20304142  0.11089601  1
  O  O41  1  0.13085283  0.46284108  0.22460068  1
  O  O42  1  0.38210507  0.08238291  0.60924730  1
  O  O43  1  0.04541774  0.58452380  0.35710474  1
  O  O44  1  0.29925086  0.21231578  0.72251942  1
  O  O45  1  0.57746247  0.12952294  0.21977669  1
  O  O46  1  0.05243745  0.45391851  0.85885849  1
  O  O47  1  0.27394407  0.53735862  0.11014293  1
  O  O48  1  0.02024866  0.79650323  0.22284239  1
  O  O49  1  0.48974506  0.25068578  0.35924566  1
  O  O50  1  0.26776034  0.41637244  0.61043701  1
  O  O51  1  0.49624561  0.12079298  0.85937136  1
  O  O52  1  0.71811247  0.20279315  0.11057781  1
  O  O53  1  0.18845488  0.54604962  0.71878761  1
  O  O54  1  0.46513816  0.46363023  0.22005741  1
  O  O55  1  0.16359829  0.86926285  0.11225327  1
  O  O56  1  0.71141545  0.08208311  0.61296716  1
  O  O57  1  0.37946924  0.58256224  0.36107527  1
  O  O58  1  0.15915141  0.73443122  0.63547036  1
  O  O59  1  0.63263527  0.21319181  0.71994713  1
  O  O60  1  0.89874498  0.14178412  0.21126485  1
  O  O61  1  0.38724346  0.45218754  0.85916655  1
  O  O62  1  0.60766312  0.53637852  0.11124436  1
  O  O63  1  0.07669928  0.87826610  0.73253905  1
  O  O64  1  0.35350109  0.79674025  0.22280773  1
  O  O65  1  0.82397125  0.25026664  0.35929063  1
  O  O66  1  0.60201356  0.41657331  0.60932922  1
  O  O67  1  0.27300733  0.91350595  0.36768471  1
  O  O68  1  0.83045596  0.12025356  0.85943756  1
  O  O69  1  0.52142146  0.54609350  0.72110987  1
  O  O70  1  0.79935456  0.46280624  0.22089210  1
  O  O71  1  0.27478780  0.78732569  0.86067774  1
  O  O72  1  0.49560248  0.87021747  0.10940228  1
  O  O73  1  0.71250161  0.58360037  0.35924349  1
  O  O74  1  0.49020537  0.75025373  0.61036431  1
  O  O75  1  0.96549252  0.21303061  0.72123595  1
  O  O76  1  0.71689873  0.45808762  0.85495474  1
  O  O77  1  0.94114315  0.53722255  0.10922324  1
  O  O78  1  0.41041085  0.87954425  0.72143430  1
  O  O79  1  0.68739149  0.79776419  0.21813073  1
  O  O80  1  0.93524745  0.41456469  0.61439959  1
  O  O81  1  0.60139209  0.91660001  0.35907288  1
  O  O82  1  0.85480819  0.54606754  0.71932864  1
  O  O83  1  0.60876562  0.78576300  0.86025297  1
  O  O84  1  0.82972142  0.87077843  0.10926397  1
  O  O85  1  0.82375029  0.74890817  0.61111692  1
  O  O86  1  0.74305422  0.87996284  0.72028462  1
  O  O87  1  0.93420035  0.91703931  0.36053560  1
  O  O88  1  0.94131329  0.78898911  0.85703487  1
