# generated using pymatgen
data_CaMg2TiAl2SiO10
_symmetry_space_group_name_H-M   'P 1'
_cell_length_a   9.02116576
_cell_length_b   9.91280126
_cell_length_c   10.48400340
_cell_angle_alpha   64.55437633
_cell_angle_beta   84.28916743
_cell_angle_gamma   65.74214155
_symmetry_Int_Tables_number   1
_chemical_formula_structural   CaMg2TiAl2SiO10
_chemical_formula_sum   'Ca4 Mg8 Ti4 Al8 Si4 O40'
_cell_volume   768.45228509
_cell_formula_units_Z   4
loop_
 _symmetry_equiv_pos_site_id
 _symmetry_equiv_pos_as_xyz
  1  'x, y, z'
loop_
 _atom_site_type_symbol
 _atom_site_label
 _atom_site_symmetry_multiplicity
 _atom_site_fract_x
 _atom_site_fract_y
 _atom_site_fract_z
 _atom_site_occupancy
  Al  Al0  1  0.04712476  0.43317137  0.20362170  1
  Al  Al1  1  0.43977750  0.05104638  0.30192491  1
  Al  Al2  1  0.34604657  0.77092319  0.25548071  1
  Al  Al3  1  0.32828360  0.76823301  0.76028496  1
  Al  Al4  1  0.76929086  0.33514531  0.44556691  1
  Al  Al5  1  0.77430468  0.34090281  0.93273042  1
  Al  Al6  1  0.56794263  0.94024320  0.69582619  1
  Al  Al7  1  0.95258980  0.56744666  0.80538346  1
  Ca  Ca8  1  0.39641376  0.36805304  0.42151591  1
  Ca  Ca9  1  0.36901380  0.39258016  0.94834976  1
  Ca  Ca10  1  0.62530261  0.61956173  0.04125793  1
  Ca  Ca11  1  0.60395346  0.63133863  0.58072688  1
  Mg  Mg12  1  0.05584960  0.05578588  0.34523947  1
  Mg  Mg13  1  0.05464090  0.05785351  0.84826663  1
  Mg  Mg14  1  0.26597823  0.26104189  0.74555007  1
  Mg  Mg15  1  0.50112008  0.99845594  0.99344605  1
  Mg  Mg16  1  0.82274141  0.85819874  0.46020885  1
  Mg  Mg17  1  0.85128424  0.82852438  0.94279080  1
  Mg  Mg18  1  0.94960764  0.94282725  0.15359650  1
  Mg  Mg19  1  0.93663161  0.94489010  0.65268330  1
  O  O20  1  0.04492421  0.27180430  0.17321111  1
  O  O21  1  0.05809284  0.28194500  0.65116457  1
  O  O22  1  0.12232499  0.37437723  0.38485222  1
  O  O23  1  0.27674653  0.04993192  0.41542385  1
  O  O24  1  0.13666209  0.37667877  0.87771696  1
  O  O25  1  0.26098783  0.06385114  0.92557342  1
  O  O26  1  0.06235929  0.83231693  0.01844202  1
  O  O27  1  0.19475395  0.49780972  0.10151873  1
  O  O28  1  0.37191875  0.12436540  0.11871160  1
  O  O29  1  0.06623765  0.82906019  0.51050194  1
  O  O30  1  0.20958810  0.49699329  0.56707393  1
  O  O31  1  0.37411167  0.13238305  0.61732396  1
  O  O32  1  0.16543131  0.95073764  0.20914622  1
  O  O33  1  0.31708503  0.62581113  0.21489296  1
  O  O34  1  0.50258626  0.20139501  0.29800748  1
  O  O35  1  0.15850293  0.95716959  0.70748252  1
  O  O36  1  0.49234486  0.21600633  0.82280268  1
  O  O37  1  0.32233772  0.62003422  0.70711008  1
  O  O38  1  0.37364744  0.67832323  0.44358493  1
  O  O39  1  0.35791868  0.66248692  0.94867958  1
  O  O40  1  0.62912488  0.33051965  0.06193411  1
  O  O41  1  0.61801395  0.31845812  0.56867578  1
  O  O42  1  0.66800691  0.36624681  0.29064043  1
  O  O43  1  0.52754642  0.77711249  0.17819482  1
  O  O44  1  0.83244334  0.06491435  0.28241886  1
  O  O45  1  0.50315734  0.79384249  0.69400022  1
  O  O46  1  0.67802326  0.37210421  0.77842701  1
  O  O47  1  0.82753062  0.06902570  0.78898459  1
  O  O48  1  0.61477047  0.85994440  0.37169154  1
  O  O49  1  0.78979043  0.51239873  0.43510624  1
  O  O50  1  0.95507409  0.16317268  0.48287796  1
  O  O51  1  0.61926115  0.87354166  0.87963861  1
  O  O52  1  0.79978210  0.51451825  0.90367705  1
  O  O53  1  0.95076595  0.15955432  0.98725065  1
  O  O54  1  0.73766034  0.93194840  0.09184145  1
  O  O55  1  0.85787010  0.61007338  0.14680210  1
  O  O56  1  0.72156927  0.96713309  0.58491262  1
  O  O57  1  0.88660407  0.60817592  0.62443859  1
  O  O58  1  0.93672136  0.71870303  0.34012208  1
  O  O59  1  0.97912068  0.72552151  0.81696555  1
  Si  Si60  1  0.22450195  0.66076638  0.06951585  1
  Si  Si61  1  0.23275712  0.66012333  0.55644241  1
  Si  Si62  1  0.66549631  0.23265813  0.23636031  1
  Si  Si63  1  0.65514353  0.23336596  0.74371715  1
  Ti  Ti64  1  0.15363026  0.17014364  0.04402918  1
  Ti  Ti65  1  0.17979636  0.14410158  0.54083578  1
  Ti  Ti66  1  0.74076779  0.75101241  0.24468216  1
  Ti  Ti67  1  0.98861011  0.50121521  0.50814479  1
