# generated using pymatgen
data_Cu4P2O9
_symmetry_space_group_name_H-M   'P 1'
_cell_length_a   6.29589403
_cell_length_b   7.63369317
_cell_length_c   8.09218975
_cell_angle_alpha   99.17227875
_cell_angle_beta   111.87034827
_cell_angle_gamma   98.19200479
_symmetry_Int_Tables_number   1
_chemical_formula_structural   Cu4P2O9
_chemical_formula_sum   'Cu8 P4 O18'
_cell_volume   347.55508821
_cell_formula_units_Z   2
loop_
 _symmetry_equiv_pos_site_id
 _symmetry_equiv_pos_as_xyz
  1  'x, y, z'
loop_
 _atom_site_type_symbol
 _atom_site_label
 _atom_site_symmetry_multiplicity
 _atom_site_fract_x
 _atom_site_fract_y
 _atom_site_fract_z
 _atom_site_occupancy
  Cu  Cu0  1  0.88342584  0.10416074  0.75558785  1
  Cu  Cu1  1  0.40460833  0.12691686  0.76092049  1
  Cu  Cu2  1  0.11657416  0.89583926  0.24441215  1
  Cu  Cu3  1  0.65267179  0.38167736  0.58783871  1
  Cu  Cu4  1  0.34732821  0.61832264  0.41216129  1
  Cu  Cu5  1  0.59539167  0.87308314  0.23907951  1
  Cu  Cu6  1  0.15290076  0.67129922  0.93651533  1
  Cu  Cu7  1  0.84709924  0.32870078  0.06348467  1
  P  P8  1  0.00003967  0.78495517  0.58022829  1
  P  P9  1  0.37048111  0.26420148  0.15104486  1
  P  P10  1  0.62951889  0.73579852  0.84895514  1
  P  P11  1  -0.00003967  0.21504483  0.41977171  1
  O  O12  1  0.51411764  0.58369301  0.66837549  1
  O  O13  1  0.34422436  0.07299385  0.19015525  1
  O  O14  1  0.13127343  0.30042197  0.02580812  1
  O  O15  1  0.48588236  0.41630699  0.33162451  1
  O  O16  1  0.65577564  0.92700615  0.80984475  1
  O  O17  1  0.14991782  0.77981450  0.46485181  1
  O  O18  1  0.29731884  0.72408869  0.20068146  1
  O  O19  1  0.70268116  0.27591131  0.79931854  1
  O  O20  1  0.00446021  0.62352703  0.67380555  1
  O  O21  1  0.74833455  0.79411822  0.46579738  1
  O  O22  1  0.86872657  0.69957803  0.97419188  1
  O  O23  1  0.85008218  0.22018550  0.53514819  1
  O  O24  1  0.11721380  0.96626765  0.73917791  1
  O  O25  1  0.99553979  0.37647297  0.32619445  1
  O  O26  1  0.47767381  0.72583822  0.96319087  1
  O  O27  1  0.88278620  0.03373235  0.26082209  1
  O  O28  1  0.25166545  0.20588178  0.53420262  1
  O  O29  1  0.52232619  0.27416178  0.03680913  1
