# generated using pymatgen
data_Mg6ZnCu
_symmetry_space_group_name_H-M   'P 1'
_cell_length_a   6.06840914
_cell_length_b   6.06840871
_cell_length_c   4.94446438
_cell_angle_alpha   90.00000000
_cell_angle_beta   90.00000000
_cell_angle_gamma   120.75725578
_symmetry_Int_Tables_number   1
_chemical_formula_structural   Mg6ZnCu
_chemical_formula_sum   'Mg6 Zn1 Cu1'
_cell_volume   156.47133706
_cell_formula_units_Z   1
loop_
 _symmetry_equiv_pos_site_id
 _symmetry_equiv_pos_as_xyz
  1  'x, y, z'
loop_
 _atom_site_type_symbol
 _atom_site_label
 _atom_site_symmetry_multiplicity
 _atom_site_fract_x
 _atom_site_fract_y
 _atom_site_fract_z
 _atom_site_occupancy
  Mg  Mg0  1  0.17030876  0.84772567  0.25000000  1
  Mg  Mg1  1  0.65227433  0.32969124  0.25000000  1
  Mg  Mg2  1  0.66785264  0.83214736  0.25000000  1
  Mg  Mg3  1  0.33184583  0.65776649  0.75000000  1
  Mg  Mg4  1  0.84223351  0.16815417  0.75000000  1
  Mg  Mg5  1  0.83273007  0.66726993  0.75000000  1
  Zn  Zn6  1  0.16831467  0.33168533  0.25000000  1
  Cu  Cu7  1  0.33444019  0.16555981  0.75000000  1
