# generated using pymatgen
data_Nb12O29
_symmetry_space_group_name_H-M   'P 1'
_cell_length_a   3.87037496
_cell_length_b   10.74089127
_cell_length_c   15.46176954
_cell_angle_alpha   72.83568580
_cell_angle_beta   82.81002633
_cell_angle_gamma   79.62032713
_symmetry_Int_Tables_number   1
_chemical_formula_structural   Nb12O29
_chemical_formula_sum   'Nb12 O29'
_cell_volume   602.31335577
_cell_formula_units_Z   1
loop_
 _symmetry_equiv_pos_site_id
 _symmetry_equiv_pos_as_xyz
  1  'x, y, z'
loop_
 _atom_site_type_symbol
 _atom_site_label
 _atom_site_symmetry_multiplicity
 _atom_site_fract_x
 _atom_site_fract_y
 _atom_site_fract_z
 _atom_site_occupancy
  Nb  Nb0  1  0.93173735  0.03292150  0.10360380  1
  Nb  Nb1  1  0.30054292  0.29725032  0.10166385  1
  Nb  Nb2  1  0.11832914  0.66411273  0.09922899  1
  Nb  Nb3  1  0.85500017  0.91682917  0.37317049  1
  Nb  Nb4  1  0.22273246  0.18489770  0.36963738  1
  Nb  Nb5  1  0.03875169  0.55164033  0.37085629  1
  Nb  Nb6  1  0.06580152  0.96733632  0.90106064  1
  Nb  Nb7  1  0.69736570  0.70228819  0.90298042  1
  Nb  Nb8  1  0.87956161  0.33613345  0.90474333  1
  Nb  Nb9  1  0.14419316  0.08021862  0.63139506  1
  Nb  Nb10  1  0.77654517  0.81196455  0.63494512  1
  Nb  Nb11  1  0.96098670  0.44602605  0.63200056  1
  O  O12  1  -0.00021859  0.49889200  0.50154518  1
  O  O13  1  0.83313903  0.25977107  0.07395086  1
  O  O14  1  0.63173791  0.67647178  0.06005240  1
  O  O15  1  0.41217888  0.08755129  0.08809095  1
  O  O16  1  0.21732174  0.47910896  0.08624756  1
  O  O17  1  0.02926210  0.87579128  0.06568452  1
  O  O18  1  0.89856540  0.97693149  0.22593773  1
  O  O19  1  0.26937886  0.23662193  0.22462036  1
  O  O20  1  0.07719716  0.62562771  0.21997797  1
  O  O21  1  0.94378446  0.74477095  0.36766013  1
  O  O22  1  0.75055431  0.13754506  0.36134632  1
  O  O23  1  0.54507344  0.55633131  0.35352180  1
  O  O24  1  0.33302927  0.97063564  0.36330582  1
  O  O25  1  0.13730745  0.36192088  0.36346422  1
  O  O26  1  0.81112766  0.87418041  0.50356428  1
  O  O27  1  0.16460812  0.74020975  0.93057400  1
  O  O28  1  0.36607320  0.32380027  0.94405333  1
  O  O29  1  0.58572743  0.91240743  0.91613771  1
  O  O30  1  0.78019258  0.52024503  0.91936982  1
  O  O31  1  0.96830922  0.12447718  0.93890439  1
  O  O32  1  0.09898594  0.02329846  0.77872965  1
  O  O33  1  0.72962847  0.76078325  0.77995980  1
  O  O34  1  0.92071482  0.37459369  0.78397668  1
  O  O35  1  0.05564597  0.25278944  0.63591861  1
  O  O36  1  0.24856948  0.85923919  0.64362185  1
  O  O37  1  0.45508906  0.44063169  0.64919018  1
  O  O38  1  0.66611612  0.02607194  0.64169582  1
  O  O39  1  0.86215425  0.63517475  0.64051675  1
  O  O40  1  0.18819868  0.12250724  0.50109540  1
