# generated using pymatgen
data_FeSiO3
_symmetry_space_group_name_H-M   'P 1'
_cell_length_a   5.39002578
_cell_length_b   9.26440510
_cell_length_c   9.55362116
_cell_angle_alpha   90.00000000
_cell_angle_beta   102.38439131
_cell_angle_gamma   90.00000000
_symmetry_Int_Tables_number   1
_chemical_formula_structural   FeSiO3
_chemical_formula_sum   'Fe8 Si8 O24'
_cell_volume   465.96280533
_cell_formula_units_Z   8
loop_
 _symmetry_equiv_pos_site_id
 _symmetry_equiv_pos_as_xyz
  1  'x, y, z'
loop_
 _atom_site_type_symbol
 _atom_site_label
 _atom_site_symmetry_multiplicity
 _atom_site_fract_x
 _atom_site_fract_y
 _atom_site_fract_z
 _atom_site_occupancy
  Fe  Fe0  1  0.50190585  0.49634002  0.24975165  1
  Fe  Fe1  1  0.99809415  -0.00365998  0.75024835  1
  Fe  Fe2  1  0.49809415  0.50365998  0.75024835  1
  Fe  Fe3  1  0.00190585  1.00365998  0.24975165  1
  Fe  Fe4  1  0.50091355  0.84735895  0.25037099  1
  Fe  Fe5  1  0.99908645  0.34735895  0.74962901  1
  Fe  Fe6  1  0.49908645  0.15264105  0.74962901  1
  Fe  Fe7  1  0.00091355  0.65264105  0.25037099  1
  Si  Si8  1  0.78220250  0.66412045  0.54984184  1
  Si  Si9  1  0.71779750  0.16412045  0.45015816  1
  Si  Si10  1  0.21779750  0.33587955  0.45015816  1
  Si  Si11  1  0.28220250  0.83587955  0.54984184  1
  Si  Si12  1  0.27962708  0.16413990  0.04876611  1
  Si  Si13  1  0.22037292  0.66413990  0.95123389  1
  Si  Si14  1  0.72037292  0.83586010  0.95123389  1
  Si  Si15  1  0.77962708  0.33586010  0.04876611  1
  O  O16  1  0.57247037  0.77035692  0.60407860  1
  O  O17  1  0.92752963  0.27035692  0.39592140  1
  O  O18  1  0.42752963  0.22964308  0.39592140  1
  O  O19  1  0.07247037  0.72964308  0.60407860  1
  O  O20  1  0.06704525  0.26728139  0.10392454  1
  O  O21  1  0.43295475  0.76728139  0.89607546  1
  O  O22  1  0.93295475  0.73271861  0.89607546  1
  O  O23  1  0.56704525  0.23271861  0.10392454  1
  O  O24  1  0.76324863  0.51084796  0.63002167  1
  O  O25  1  0.73675137  0.01084796  0.36997833  1
  O  O26  1  0.23675137  0.48915204  0.36997833  1
  O  O27  1  0.26324863  0.98915204  0.63002167  1
  O  O28  1  0.26463127  0.01008769  0.12815549  1
  O  O29  1  0.23536873  0.51008769  0.87184451  1
  O  O30  1  0.73536873  0.98991231  0.87184451  1
  O  O31  1  0.76463127  0.48991231  0.12815549  1
  O  O32  1  0.71264327  0.33676062  0.87295327  1
  O  O33  1  0.78735673  0.83676062  0.12704673  1
  O  O34  1  0.28735673  0.66323938  0.12704673  1
  O  O35  1  0.21264327  0.16323938  0.87295327  1
  O  O36  1  0.21515334  0.83796928  0.37407833  1
  O  O37  1  0.28484666  0.33796928  0.62592167  1
  O  O38  1  0.78484666  0.16203072  0.62592167  1
  O  O39  1  0.71515334  0.66203072  0.37407833  1
