# generated using pymatgen
data_Mo2(PO4)3
_symmetry_space_group_name_H-M   'P 1'
_cell_length_a   8.93036606
_cell_length_b   9.14003759
_cell_length_c   12.49751712
_cell_angle_alpha   90.00000000
_cell_angle_beta   90.00000000
_cell_angle_gamma   90.00000000
_symmetry_Int_Tables_number   1
_chemical_formula_structural   Mo2(PO4)3
_chemical_formula_sum   'Mo8 P12 O48'
_cell_volume   1020.09585621
_cell_formula_units_Z   4
loop_
 _symmetry_equiv_pos_site_id
 _symmetry_equiv_pos_as_xyz
  1  'x, y, z'
loop_
 _atom_site_type_symbol
 _atom_site_label
 _atom_site_symmetry_multiplicity
 _atom_site_fract_x
 _atom_site_fract_y
 _atom_site_fract_z
 _atom_site_occupancy
  Mo  Mo0  1  0.24474748  0.02728500  0.39851914  1
  Mo  Mo1  1  0.75525252  0.52728500  0.39851914  1
  Mo  Mo2  1  0.75525252  0.97271500  0.60148086  1
  Mo  Mo3  1  0.24474748  0.47271500  0.60148086  1
  Mo  Mo4  1  0.75525252  0.52728500  0.10148086  1
  Mo  Mo5  1  0.24474748  0.47271500  0.89851914  1
  Mo  Mo6  1  0.75525252  0.97271500  0.89851914  1
  Mo  Mo7  1  0.24474748  0.02728500  0.10148086  1
  P  P8  1  0.60071855  0.87745430  0.13301192  1
  P  P9  1  0.03552210  0.75000000  0.50000000  1
  P  P10  1  0.39928145  0.37745430  0.36698808  1
  P  P11  1  0.03552210  0.75000000  0.00000000  1
  P  P12  1  0.60071855  0.87745430  0.36698808  1
  P  P13  1  0.96447790  0.25000000  0.50000000  1
  P  P14  1  0.60071855  0.62254570  0.86698808  1
  P  P15  1  0.39928145  0.37745430  0.13301192  1
  P  P16  1  0.60071855  0.62254570  0.63301192  1
  P  P17  1  0.39928145  0.12254570  0.63301192  1
  P  P18  1  0.39928145  0.12254570  0.86698808  1
  P  P19  1  0.96447790  0.25000000  0.00000000  1
  O  O20  1  0.86802977  0.33472058  0.08012965  1
  O  O21  1  0.34106469  0.42646259  0.25000000  1
  O  O22  1  0.93716992  0.85780095  0.56497459  1
  O  O23  1  0.30640164  0.47315103  0.05680219  1
  O  O24  1  0.43307613  0.90696219  0.37153348  1
  O  O25  1  0.43307613  0.59303781  0.62846652  1
  O  O26  1  0.34106469  0.07353741  0.75000000  1
  O  O27  1  0.43307613  0.59303781  0.87153348  1
  O  O28  1  0.65893531  0.57353741  0.75000000  1
  O  O29  1  0.37170368  0.28495300  0.61930397  1
  O  O30  1  0.62829632  0.71504700  0.38069603  1
  O  O31  1  0.06283008  0.35780095  0.56497459  1
  O  O32  1  0.20364671  0.47165334  0.75000000  1
  O  O33  1  0.43307613  0.90696219  0.12846652  1
  O  O34  1  0.37170368  0.21504700  0.11930397  1
  O  O35  1  0.86802977  0.33472058  0.41987035  1
  O  O36  1  0.62829632  0.78495300  0.61930397  1
  O  O37  1  0.30640164  0.02684897  0.94319781  1
  O  O38  1  0.56692387  0.40696219  0.12846652  1
  O  O39  1  0.86802977  0.16527942  0.58012965  1
  O  O40  1  0.06283008  0.14219905  0.06497459  1
  O  O41  1  0.65893531  0.92646259  0.25000000  1
  O  O42  1  0.93716992  0.64219905  0.43502541  1
  O  O43  1  0.79635329  0.52834666  0.25000000  1
  O  O44  1  0.69359836  0.52684897  0.94319781  1
  O  O45  1  0.93716992  0.85780095  0.93502541  1
  O  O46  1  0.69359836  0.52684897  0.55680219  1
  O  O47  1  0.56692387  0.40696219  0.37153348  1
  O  O48  1  0.06283008  0.14219905  0.43502541  1
  O  O49  1  0.93716992  0.64219905  0.06497459  1
  O  O50  1  0.30640164  0.02684897  0.55680219  1
  O  O51  1  0.62829632  0.78495300  0.88069603  1
  O  O52  1  0.86802977  0.16527942  0.91987035  1
  O  O53  1  0.20364671  0.02834666  0.25000000  1
  O  O54  1  0.13197023  0.83472058  0.41987035  1
  O  O55  1  0.13197023  0.66527942  0.58012965  1
  O  O56  1  0.06283008  0.35780095  0.93502541  1
  O  O57  1  0.56692387  0.09303781  0.62846652  1
  O  O58  1  0.37170368  0.28495300  0.88069603  1
  O  O59  1  0.62829632  0.71504700  0.11930397  1
  O  O60  1  0.69359836  0.97315103  0.44319781  1
  O  O61  1  0.13197023  0.66527942  0.91987035  1
  O  O62  1  0.30640164  0.47315103  0.44319781  1
  O  O63  1  0.37170368  0.21504700  0.38069603  1
  O  O64  1  0.79635329  0.97165334  0.75000000  1
  O  O65  1  0.69359836  0.97315103  0.05680219  1
  O  O66  1  0.56692387  0.09303781  0.87153348  1
  O  O67  1  0.13197023  0.83472058  0.08012965  1
