# generated using pymatgen
data_Li2Ni(PO3)4
_symmetry_space_group_name_H-M   'P 1'
_cell_length_a   9.40834796
_cell_length_b   10.23219244
_cell_length_c   9.24042721
_cell_angle_alpha   90.00000000
_cell_angle_beta   90.00000000
_cell_angle_gamma   90.00000000
_symmetry_Int_Tables_number   1
_chemical_formula_structural   Li2Ni(PO3)4
_chemical_formula_sum   'Li8 Ni4 P16 O48'
_cell_volume   889.55769494
_cell_formula_units_Z   4
loop_
 _symmetry_equiv_pos_site_id
 _symmetry_equiv_pos_as_xyz
  1  'x, y, z'
loop_
 _atom_site_type_symbol
 _atom_site_label
 _atom_site_symmetry_multiplicity
 _atom_site_fract_x
 _atom_site_fract_y
 _atom_site_fract_z
 _atom_site_occupancy
  Li  Li0  1  0.00810210  0.82261320  0.09481423  1
  Li  Li1  1  0.00810210  0.82261320  0.40518577  1
  Li  Li2  1  0.49189790  0.32261320  0.59481423  1
  Li  Li3  1  0.49189790  0.32261320  0.90518577  1
  Li  Li4  1  0.50810210  0.67738680  0.09481423  1
  Li  Li5  1  0.50810210  0.67738680  0.40518577  1
  Li  Li6  1  0.99189790  0.17738680  0.59481423  1
  Li  Li7  1  0.99189790  0.17738680  0.90518577  1
  Ni  Ni8  1  0.01105871  0.20322451  0.25000000  1
  Ni  Ni9  1  0.48894129  0.70322451  0.75000000  1
  Ni  Ni10  1  0.51105871  0.29677549  0.25000000  1
  Ni  Ni11  1  0.98894129  0.79677549  0.75000000  1
  O  O12  1  0.09652695  0.27642833  0.75000000  1
  O  O13  1  0.11086963  0.96459869  0.75000000  1
  O  O14  1  0.11322436  0.72514892  0.57564298  1
  O  O15  1  0.11322436  0.72514892  0.92435702  1
  O  O16  1  0.13221449  0.12554320  0.07148832  1
  O  O17  1  0.13221449  0.12554320  0.42851168  1
  O  O18  1  0.13472866  0.36563238  0.25000000  1
  O  O19  1  0.14843232  0.48085661  0.61428968  1
  O  O20  1  0.14843232  0.48085661  0.88571032  1
  O  O21  1  0.14796994  0.87062374  0.25000000  1
  O  O22  1  0.18372008  0.58077565  0.12344789  1
  O  O23  1  0.18372008  0.58077565  0.37655211  1
  O  O24  1  0.31627992  0.08077565  0.62344789  1
  O  O25  1  0.31627992  0.08077565  0.87655211  1
  O  O26  1  0.35203006  0.37062374  0.75000000  1
  O  O27  1  0.35156768  0.98085661  0.11428968  1
  O  O28  1  0.35156768  0.98085661  0.38571032  1
  O  O29  1  0.36527134  0.86563238  0.75000000  1
  O  O30  1  0.36778551  0.62554320  0.57148832  1
  O  O31  1  0.36778551  0.62554320  0.92851168  1
  O  O32  1  0.38677564  0.22514892  0.07564298  1
  O  O33  1  0.38677564  0.22514892  0.42435702  1
  O  O34  1  0.38913037  0.46459869  0.25000000  1
  O  O35  1  0.40347305  0.77642733  0.25000000  1
  O  O36  1  0.59652695  0.22357267  0.75000000  1
  O  O37  1  0.61086963  0.53540131  0.75000000  1
  O  O38  1  0.61322436  0.77485108  0.57564298  1
  O  O39  1  0.61322436  0.77485108  0.92435702  1
  O  O40  1  0.63221449  0.37445680  0.07148832  1
  O  O41  1  0.63221449  0.37445680  0.42851168  1
  O  O42  1  0.63472866  0.13436762  0.25000000  1
  O  O43  1  0.64843232  0.01914339  0.61428968  1
  O  O44  1  0.64843232  0.01914339  0.88571032  1
  O  O45  1  0.64796994  0.62937626  0.25000000  1
  O  O46  1  0.68372008  0.91922435  0.12344789  1
  O  O47  1  0.68372008  0.91922435  0.37655211  1
  O  O48  1  0.81627992  0.41922435  0.62344789  1
  O  O49  1  0.81627992  0.41922435  0.87655211  1
  O  O50  1  0.85203006  0.12937626  0.75000000  1
  O  O51  1  0.85156768  0.51914339  0.11428968  1
  O  O52  1  0.85156768  0.51914339  0.38571032  1
  O  O53  1  0.86527134  0.63436762  0.75000000  1
  O  O54  1  0.86778551  0.87445680  0.57148832  1
  O  O55  1  0.86778551  0.87445680  0.92851168  1
  O  O56  1  0.88677564  0.27485108  0.07564298  1
  O  O57  1  0.88677564  0.27485108  0.42435702  1
  O  O58  1  0.88913037  0.03540131  0.25000000  1
  O  O59  1  0.90347305  0.72357267  0.25000000  1
  P  P60  1  0.19465183  0.39135901  0.75000000  1
  P  P61  1  0.21043239  0.61207252  0.54207572  1
  P  P62  1  0.21043239  0.61207252  0.95792428  1
  P  P63  1  0.22998202  0.48095742  0.25000000  1
  P  P64  1  0.27001798  0.98095742  0.75000000  1
  P  P65  1  0.28956761  0.11207252  0.04207572  1
  P  P66  1  0.28956761  0.11207252  0.45792428  1
  P  P67  1  0.30534817  0.89135901  0.25000000  1
  P  P68  1  0.69465183  0.10864099  0.75000000  1
  P  P69  1  0.71043239  0.88792748  0.54207572  1
  P  P70  1  0.71043239  0.88792748  0.95792428  1
  P  P71  1  0.72998202  0.01904258  0.25000000  1
  P  P72  1  0.77001798  0.51904258  0.75000000  1
  P  P73  1  0.78956761  0.38792748  0.04207572  1
  P  P74  1  0.78956761  0.38792748  0.45792428  1
  P  P75  1  0.80534817  0.60864099  0.25000000  1
