# generated using pymatgen
data_YbPr11Se16
_symmetry_space_group_name_H-M   'P 1'
_cell_length_a   31.15849820
_cell_length_b   8.99712755
_cell_length_c   9.00292870
_cell_angle_alpha   90.00000000
_cell_angle_beta   54.69846677
_cell_angle_gamma   54.72459978
_symmetry_Int_Tables_number   1
_chemical_formula_structural   YbPr11Se16
_chemical_formula_sum   'Yb2 Pr22 Se32'
_cell_volume   1455.41442122
_cell_formula_units_Z   2
loop_
 _symmetry_equiv_pos_site_id
 _symmetry_equiv_pos_as_xyz
  1  'x, y, z'
loop_
 _atom_site_type_symbol
 _atom_site_label
 _atom_site_symmetry_multiplicity
 _atom_site_fract_x
 _atom_site_fract_y
 _atom_site_fract_z
 _atom_site_occupancy
  Yb  Yb0  1  0.37500000  0.75000000  0.87482079  1
  Yb  Yb1  1  0.87500000  0.25000000  0.62517921  1
  Pr  Pr2  1  0.99939646  0.37782599  0.25150098  1
  Pr  Pr3  1  0.99942373  0.12699648  0.74963476  1
  Pr  Pr4  1  0.06244155  0.62502910  0.37556281  1
  Pr  Pr5  1  0.12598639  0.24743846  0.62037575  1
  Pr  Pr6  1  0.25060354  0.37541182  0.24849902  1
  Pr  Pr7  1  0.18755845  0.87479528  0.12443719  1
  Pr  Pr8  1  0.12401361  0.75138401  0.87962425  1
  Pr  Pr9  1  0.25057627  0.12469141  0.75036524  1
  Pr  Pr10  1  0.31240840  0.62567862  0.37409876  1
  Pr  Pr11  1  0.37500000  0.25000000  0.62748441  1
  Pr  Pr12  1  0.43759160  0.87432138  0.12373235  1
  Pr  Pr13  1  0.49942373  0.37530859  0.25267031  1
  Pr  Pr14  1  0.49939646  0.12458818  0.75091319  1
  Pr  Pr15  1  0.56244155  0.62520472  0.37467100  1
  Pr  Pr16  1  0.62401361  0.25256154  0.62432130  1
  Pr  Pr17  1  0.75057627  0.37300352  0.24732969  1
  Pr  Pr18  1  0.68755845  0.87497090  0.12532900  1
  Pr  Pr19  1  0.62598639  0.74861599  0.87567870  1
  Pr  Pr20  1  0.75060354  0.12217401  0.74908681  1
  Pr  Pr21  1  0.81240840  0.62468778  0.37626765  1
  Pr  Pr22  1  0.93759160  0.87531222  0.12590124  1
  Pr  Pr23  1  0.87500000  0.75000000  0.87251559  1
  Se  Se24  1  0.03669683  0.00114782  0.35101910  1
  Se  Se25  1  0.08735007  0.49951731  0.00050803  1
  Se  Se26  1  0.03736134  0.35009658  0.50072941  1
  Se  Se27  1  0.21330317  0.14793513  0.14898090  1
  Se  Se28  1  0.21263866  0.49954195  0.99927059  1
  Se  Se29  1  0.08790408  0.64858307  0.64948229  1
  Se  Se30  1  0.16209592  0.00019937  0.85051771  1
  Se  Se31  1  0.28739410  0.00038445  0.35201435  1
  Se  Se32  1  0.16264993  0.84891758  0.49949197  1
  Se  Se33  1  0.33783073  0.50224924  0.99826651  1
  Se  Se34  1  0.28747893  0.35151872  0.49995186  1
  Se  Se35  1  0.46252107  0.14848128  0.14986759  1
  Se  Se36  1  0.46260590  0.49961555  0.00159073  1
  Se  Se37  1  0.33777017  0.64924359  0.64836930  1
  Se  Se38  1  0.41216927  0.99775076  0.84958943  1
  Se  Se39  1  0.53736134  0.00045805  0.34982522  1
  Se  Se40  1  0.41222983  0.85075641  0.49944998  1
  Se  Se41  1  0.58790408  0.49980063  0.99890141  1
  Se  Se42  1  0.53669683  0.35206487  0.50219360  1
  Se  Se43  1  0.71263866  0.14990342  0.15017478  1
  Se  Se44  1  0.71330317  0.49885218  0.99780640  1
  Se  Se45  1  0.58735007  0.65108242  0.65009171  1
  Se  Se46  1  0.66264993  0.00048269  0.84990829  1
  Se  Se47  1  0.78747893  0.99856555  0.35013241  1
  Se  Se48  1  0.66209592  0.85141693  0.50109859  1
  Se  Se49  1  0.83777017  0.49967573  0.00055002  1
  Se  Se50  1  0.78739410  0.35003917  0.49840927  1
  Se  Se51  1  0.96260590  0.14996083  0.14798565  1
  Se  Se52  1  0.96252107  0.50143445  0.00004814  1
  Se  Se53  1  0.91222983  0.00032427  0.85163070  1
  Se  Se54  1  0.83783073  0.64642783  0.65041057  1
  Se  Se55  1  0.91216927  0.85357217  0.50173349  1
