# generated using pymatgen
data_LiV(PO3)4
_symmetry_space_group_name_H-M   'P 1'
_cell_length_a   7.32233268
_cell_length_b   7.32233291
_cell_length_c   9.86616169
_cell_angle_alpha   82.02088370
_cell_angle_beta   69.24258593
_cell_angle_gamma   109.59845896
_symmetry_Int_Tables_number   1
_chemical_formula_structural   LiV(PO3)4
_chemical_formula_sum   'Li2 V2 P8 O24'
_cell_volume   445.61177088
_cell_formula_units_Z   2
loop_
 _symmetry_equiv_pos_site_id
 _symmetry_equiv_pos_as_xyz
  1  'x, y, z'
loop_
 _atom_site_type_symbol
 _atom_site_label
 _atom_site_symmetry_multiplicity
 _atom_site_fract_x
 _atom_site_fract_y
 _atom_site_fract_z
 _atom_site_occupancy
  Li  Li0  1  0.21760459  0.96760459  0.75000000  1
  Li  Li1  1  0.78239541  0.03239541  0.25000000  1
  O  O2  1  0.69608047  0.80756786  0.64995680  1
  O  O3  1  0.11528314  0.80864392  0.56914958  1
  O  O4  1  0.19407561  0.67476754  0.33945573  1
  O  O5  1  0.50130896  0.84688577  0.40678620  1
  O  O6  1  0.30003495  0.70297870  0.82743719  1
  O  O7  1  0.12220750  0.31556628  0.06914958  1
  O  O8  1  0.21149351  0.50559114  0.56976516  1
  O  O9  1  0.75367297  0.90809516  0.09321380  1
  O  O10  1  0.57535629  0.78125866  0.93023484  1
  O  O11  1  0.51422326  0.53353134  0.16054527  1
  O  O12  1  0.04247534  0.65396273  0.14995680  1
  O  O13  1  0.03041488  0.12747213  0.67256281  1
  O  O14  1  0.96958512  0.87252787  0.32743719  1
  O  O15  1  0.30391953  0.19243214  0.35004320  1
  O  O16  1  0.48577874  0.46646866  0.83945373  1
  O  O17  1  0.42464371  0.21874234  0.06976416  1
  O  O18  1  0.95752466  0.34603627  0.85004320  1
  O  O19  1  0.78850649  0.49440986  0.43023484  1
  O  O20  1  0.87779250  0.68443372  0.93085042  1
  O  O21  1  0.69996505  0.29702130  0.17256281  1
  O  O22  1  0.49869104  0.15311423  0.59321280  1
  O  O23  1  0.80592439  0.32523246  0.66054527  1
  O  O24  1  0.88471686  0.19135608  0.43085042  1
  O  O25  1  0.24632703  0.09190484  0.90678720  1
  P  P26  1  0.99945221  0.68256309  0.30359953  1
  P  P27  1  0.26838703  0.72885618  0.47181773  1
  P  P28  1  0.00054779  0.31743691  0.69640047  1
  P  P29  1  0.70067391  0.74020476  0.02818227  1
  P  P30  1  0.51383837  0.69694925  0.80359953  1
  P  P31  1  0.73161297  0.27114382  0.52818227  1
  P  P32  1  0.29932609  0.25979424  0.97181773  1
  P  P33  1  0.48616163  0.30305075  0.19640047  1
  V  V34  1  0.00000000  0.50000000  0.00000000  1
  V  V35  1  0.99999900  0.99999900  0.50000000  1
