# generated using pymatgen
data_Mn4P7O24
_symmetry_space_group_name_H-M   'P 1'
_cell_length_a   10.17251213
_cell_length_b   10.65087334
_cell_length_c   10.75467899
_cell_angle_alpha   112.06030455
_cell_angle_beta   108.40872508
_cell_angle_gamma   106.52876202
_symmetry_Int_Tables_number   1
_chemical_formula_structural   Mn4P7O24
_chemical_formula_sum   'Mn8 P14 O48'
_cell_volume   910.65960007
_cell_formula_units_Z   2
loop_
 _symmetry_equiv_pos_site_id
 _symmetry_equiv_pos_as_xyz
  1  'x, y, z'
loop_
 _atom_site_type_symbol
 _atom_site_label
 _atom_site_symmetry_multiplicity
 _atom_site_fract_x
 _atom_site_fract_y
 _atom_site_fract_z
 _atom_site_occupancy
  Mn  Mn0  1  0.24187361  0.85406158  0.74365858  1
  Mn  Mn1  1  0.06497948  0.69456804  0.07710632  1
  Mn  Mn2  1  0.37981978  0.22945916  0.89340474  1
  Mn  Mn3  1  0.41932226  0.59420273  0.41605050  1
  Mn  Mn4  1  0.58067774  0.40579727  0.58394950  1
  Mn  Mn5  1  0.62018022  0.77054084  0.10659526  1
  Mn  Mn6  1  0.93502052  0.30543196  0.92289368  1
  Mn  Mn7  1  0.75812639  0.14593842  0.25634142  1
  O  O8  1  0.00929544  0.67112494  0.87963824  1
  O  O9  1  0.04290753  0.68969608  0.66212494  1
  O  O10  1  0.02278542  0.89509291  0.13335337  1
  O  O11  1  0.31241651  0.88170840  0.94520962  1
  O  O12  1  0.17038490  0.83169371  0.54701166  1
  O  O13  1  0.10278676  0.72334282  0.27526439  1
  O  O14  1  0.26642481  0.33971811  0.92650139  1
  O  O15  1  0.31124636  0.99794007  0.46642127  1
  O  O16  1  0.16136373  0.00292643  0.80369579  1
  O  O17  1  0.32495983  0.71787211  0.69374855  1
  O  O18  1  0.09478444  0.07795710  0.40906265  1
  O  O19  1  0.08474998  0.16769456  0.21537576  1
  O  O20  1  0.22282691  0.45456738  0.38252122  1
  O  O21  1  0.13146993  0.48854932  0.00632629  1
  O  O22  1  0.27632206  0.17353395  0.67855328  1
  O  O23  1  0.37256161  0.78389873  0.46354798  1
  O  O24  1  0.28775589  0.83047141  0.15363296  1
  O  O25  1  0.55347962  0.73742159  0.90223160  1
  O  O26  1  0.60365279  0.90511599  0.79153017  1
  O  O27  1  0.50489817  0.62500731  0.62682401  1
  O  O28  1  0.36904234  0.26432042  0.51690104  1
  O  O29  1  0.44372417  0.04702185  0.82531607  1
  O  O30  1  0.36349261  0.50675819  0.20733927  1
  O  O31  1  0.59636741  0.37328412  0.95159095  1
  O  O32  1  0.40363259  0.62671588  0.04840905  1
  O  O33  1  0.63650739  0.49324181  0.79266073  1
  O  O34  1  0.55627583  0.95297815  0.17468393  1
  O  O35  1  0.63095766  0.73567958  0.48309896  1
  O  O36  1  0.49510183  0.37499269  0.37317599  1
  O  O37  1  0.39634721  0.09488401  0.20846983  1
  O  O38  1  0.44652038  0.26257841  0.09776840  1
  O  O39  1  0.71224411  0.16952859  0.84636704  1
  O  O40  1  0.62743839  0.21610127  0.53645202  1
  O  O41  1  0.72367794  0.82646605  0.32144672  1
  O  O42  1  0.86853007  0.51145068  0.99367371  1
  O  O43  1  0.77717309  0.54543262  0.61747878  1
  O  O44  1  0.91525002  0.83230544  0.78462424  1
  O  O45  1  0.90521556  0.92204290  0.59093735  1
  O  O46  1  0.67504017  0.28212789  0.30625145  1
  O  O47  1  0.83863627  0.99707357  0.19630421  1
  O  O48  1  0.68875364  0.00205993  0.53357873  1
  O  O49  1  0.73357519  0.66028189  0.07349861  1
  O  O50  1  0.89721324  0.27665718  0.72473561  1
  O  O51  1  0.82961510  0.16830629  0.45298834  1
  O  O52  1  0.68758349  0.11829160  0.05479038  1
  O  O53  1  0.97721458  0.10490709  0.86664663  1
  O  O54  1  0.95709247  0.31030392  0.33787506  1
  O  O55  1  0.99070456  0.32887506  0.12036176  1
  P  P56  1  0.99222546  0.97454065  0.76861847  1
  P  P57  1  0.24047702  0.82383711  0.43673583  1
  P  P58  1  0.06353902  0.32341240  0.26216328  1
  P  P59  1  0.00777454  0.02545935  0.23138153  1
  P  P60  1  0.49400539  0.73971218  0.75696729  1
  P  P61  1  0.27339075  0.13669657  0.52859087  1
  P  P62  1  0.38174644  0.93002225  0.11226661  1
  P  P63  1  0.29804206  0.49643885  0.05147905  1
  P  P64  1  0.70195794  0.50356115  0.94852095  1
  P  P65  1  0.61825356  0.06997775  0.88773339  1
  P  P66  1  0.72660925  0.86330343  0.47140913  1
  P  P67  1  0.50599461  0.26028782  0.24303271  1
  P  P68  1  0.93646098  0.67658760  0.73783672  1
  P  P69  1  0.75952298  0.17616289  0.56326417  1
