# generated using pymatgen
data_Hg3S2ICl
_symmetry_space_group_name_H-M   'P 1'
_cell_length_a   9.52965939
_cell_length_b   10.54661562
_cell_length_c   10.91324378
_cell_angle_alpha   77.10414620
_cell_angle_beta   64.11222535
_cell_angle_gamma   63.14156959
_symmetry_Int_Tables_number   1
_chemical_formula_structural   Hg3S2ICl
_chemical_formula_sum   'Hg12 S8 I4 Cl4'
_cell_volume   879.86835954
_cell_formula_units_Z   4
loop_
 _symmetry_equiv_pos_site_id
 _symmetry_equiv_pos_as_xyz
  1  'x, y, z'
loop_
 _atom_site_type_symbol
 _atom_site_label
 _atom_site_symmetry_multiplicity
 _atom_site_fract_x
 _atom_site_fract_y
 _atom_site_fract_z
 _atom_site_occupancy
  Hg  Hg0  1  0.71432293  0.50000000  0.50000000  1
  Hg  Hg1  1  0.28567707  0.50000000  0.50000000  1
  Hg  Hg2  1  0.11095351  0.53123827  0.24685472  1
  Hg  Hg3  1  0.88904649  0.46876173  0.75314528  1
  Hg  Hg4  1  0.50000000  0.00000000  0.50000000  1
  Hg  Hg5  1  0.00000000  0.00000000  0.50000000  1
  Hg  Hg6  1  0.40413054  0.97995698  0.21178195  1
  Hg  Hg7  1  0.59586946  0.02004302  0.78821805  1
  Hg  Hg8  1  0.98683680  0.25598339  0.20507788  1
  Hg  Hg9  1  0.44789808  0.74401661  0.79492212  1
  Hg  Hg10  1  0.01316320  0.74401661  0.79492212  1
  Hg  Hg11  1  0.55210192  0.25598339  0.20507788  1
  S  S12  1  0.12028481  0.99679109  0.25238232  1
  S  S13  1  0.36945822  0.00320891  0.74761768  1
  S  S14  1  0.87971519  0.00320891  0.74761768  1
  S  S15  1  0.63054178  0.99679109  0.25238232  1
  S  S16  1  0.86209391  0.51230727  0.25068451  1
  S  S17  1  0.62508568  0.48769273  0.74931549  1
  S  S18  1  0.13790609  0.48769273  0.74931549  1
  S  S19  1  0.37491432  0.51230727  0.25068451  1
  I  I20  1  0.62705013  0.74636694  -0.00046721  1
  I  I21  1  0.37294987  0.25363306  1.00046721  1
  I  I22  1  0.87738985  0.75139132  0.49382898  1
  I  I23  1  0.12261015  0.24860868  0.50617102  1
  Cl  Cl24  1  0.85423198  0.26835537  0.02318067  1
  Cl  Cl25  1  0.14576802  0.73164463  0.97681933  1
  Cl  Cl26  1  0.37213864  0.73396611  0.52175660  1
  Cl  Cl27  1  0.62786136  0.26603389  0.47824340  1
