# generated using pymatgen
data_BaGa2(GeO4)2
_symmetry_space_group_name_H-M   'P 1'
_cell_length_a   9.02411905
_cell_length_b   9.80093889
_cell_length_c   9.80093881
_cell_angle_alpha   88.87194554
_cell_angle_beta   82.20669059
_cell_angle_gamma   82.20668618
_symmetry_Int_Tables_number   1
_chemical_formula_structural   BaGa2(GeO4)2
_chemical_formula_sum   'Ba4 Ga8 Ge8 O32'
_cell_volume   850.90278792
_cell_formula_units_Z   4
loop_
 _symmetry_equiv_pos_site_id
 _symmetry_equiv_pos_as_xyz
  1  'x, y, z'
loop_
 _atom_site_type_symbol
 _atom_site_label
 _atom_site_symmetry_multiplicity
 _atom_site_fract_x
 _atom_site_fract_y
 _atom_site_fract_z
 _atom_site_occupancy
  Ba  Ba0  1  0.79225280  0.93343926  0.93274202  1
  Ba  Ba1  1  0.70774720  0.56725798  0.56656074  1
  Ba  Ba2  1  0.20774720  0.06656074  0.06725798  1
  Ba  Ba3  1  0.29225280  0.43274202  0.43343926  1
  Ge  Ge4  1  0.10314987  0.07160315  0.71193988  1
  Ge  Ge5  1  0.39685013  0.78806012  0.42839685  1
  Ge  Ge6  1  0.89685013  0.92839685  0.28806012  1
  Ge  Ge7  1  0.60314987  0.21193988  0.57160315  1
  Ge  Ge8  1  0.98066289  0.44205229  0.21168244  1
  Ge  Ge9  1  0.51933711  0.28831756  0.05794771  1
  Ge  Ge10  1  0.01933711  0.55794771  0.78831756  1
  Ge  Ge11  1  0.48066289  0.71168244  0.94205229  1
  Ga  Ga12  1  0.61427547  0.56733256  0.20193306  1
  Ga  Ga13  1  0.88572453  0.29806694  0.93266744  1
  Ga  Ga14  1  0.38572453  0.43266744  0.79806694  1
  Ga  Ga15  1  0.11427547  0.70193306  0.06733256  1
  Ga  Ga16  1  0.47301818  0.94854646  0.70367504  1
  Ga  Ga17  1  0.02698182  0.79632496  0.55145354  1
  Ga  Ga18  1  0.52698182  0.05145354  0.29632496  1
  Ga  Ga19  1  0.97301818  0.20367504  0.44854646  1
  O  O20  1  0.99720586  0.13011762  0.87232318  1
  O  O21  1  0.50279414  0.62767682  0.36988238  1
  O  O22  1  0.00279414  0.86988238  0.12767682  1
  O  O23  1  0.49720586  0.37232318  0.63011762  1
  O  O24  1  0.54765375  0.85473146  0.85223265  1
  O  O25  1  0.95234625  0.64776735  0.64526854  1
  O  O26  1  0.45234625  0.14526854  0.14776735  1
  O  O27  1  0.04765375  0.35223265  0.35473146  1
  O  O28  1  0.27857983  0.02166665  0.77119518  1
  O  O29  1  0.22142017  0.72880482  0.47833335  1
  O  O30  1  0.72142017  0.97833335  0.22880482  1
  O  O31  1  0.77857983  0.27119518  0.52166665  1
  O  O32  1  0.79778520  0.52620064  0.26789520  1
  O  O33  1  0.70221480  0.23210480  0.97379936  1
  O  O34  1  0.20221480  0.47379936  0.73210480  1
  O  O35  1  0.29778520  0.76789520  0.02620064  1
  O  O36  1  0.11143513  0.18763543  0.57403142  1
  O  O37  1  0.38856487  0.92596858  0.31236457  1
  O  O38  1  0.88856487  0.81236457  0.42596858  1
  O  O39  1  0.61143513  0.07403142  0.68763543  1
  O  O40  1  0.61961852  0.68498934  0.05509025  1
  O  O41  1  0.88038148  0.44490975  0.81501066  1
  O  O42  1  0.38038148  0.31501066  0.94490975  1
  O  O43  1  0.11961852  0.55509025  0.18498934  1
  O  O44  1  0.00135176  0.93572690  0.67919177  1
  O  O45  1  0.49864824  0.82080823  0.56427310  1
  O  O46  1  0.99864824  0.06427310  0.32080823  1
  O  O47  1  0.50135176  0.17919177  0.43572690  1
  O  O48  1  0.50766303  0.42162501  0.17864193  1
  O  O49  1  0.99233697  0.32135807  0.07837499  1
  O  O50  1  0.49233697  0.57837499  0.82135807  1
  O  O51  1  0.00766303  0.67864193  0.92162501  1
