# generated using pymatgen
data_LiVP2O7
_symmetry_space_group_name_H-M   'P 1'
_cell_length_a   6.39693230
_cell_length_b   6.39691517
_cell_length_c   13.21031273
_cell_angle_alpha   79.32191387
_cell_angle_beta   77.27101988
_cell_angle_gamma   99.34136228
_symmetry_Int_Tables_number   1
_chemical_formula_structural   LiVP2O7
_chemical_formula_sum   'Li4 V4 P8 O28'
_cell_volume   506.38792268
_cell_formula_units_Z   4
loop_
 _symmetry_equiv_pos_site_id
 _symmetry_equiv_pos_as_xyz
  1  'x, y, z'
loop_
 _atom_site_type_symbol
 _atom_site_label
 _atom_site_symmetry_multiplicity
 _atom_site_fract_x
 _atom_site_fract_y
 _atom_site_fract_z
 _atom_site_occupancy
  Li  Li0  1  0.41460361  0.01753161  0.34988916  1
  Li  Li1  1  0.13239506  0.23534931  0.84992533  1
  Li  Li2  1  0.86760494  0.76465069  0.15007467  1
  Li  Li3  1  0.58539639  0.98246839  0.65011084  1
  O  O4  1  0.05329066  0.88902028  0.88066254  1
  O  O5  1  0.26973629  0.93398524  0.61937778  1
  O  O6  1  0.20575181  0.81338571  0.12506217  1
  O  O7  1  0.45601725  0.90488688  0.81291582  1
  O  O8  1  0.08765121  0.45838461  0.35866772  1
  O  O9  1  0.17988357  0.57630347  0.80146867  1
  O  O10  1  0.22922710  0.61514183  0.97669443  1
  O  O11  1  0.30397886  0.60074596  0.48167290  1
  O  O12  1  0.58242791  0.78561563  0.01833781  1
  O  O13  1  0.31709711  0.44631834  0.14137521  1
  O  O14  1  0.09187333  0.20590306  0.52333700  1
  O  O15  1  0.56156201  0.66924309  0.62507821  1
  O  O16  1  0.87784827  0.98138693  0.69859149  1
  O  O17  1  0.21783589  0.26898641  0.68710941  1
  O  O18  1  0.78216411  0.73101359  0.31289059  1
  O  O19  1  0.12215173  0.01861307  0.30140851  1
  O  O20  1  0.43843799  0.33075691  0.37492179  1
  O  O21  1  0.90812667  0.79409694  0.47666300  1
  O  O22  1  0.68290289  0.55368166  0.85862479  1
  O  O23  1  0.41757209  0.21438437  0.98166219  1
  O  O24  1  0.69602114  0.39925404  0.51832710  1
  O  O25  1  0.77077290  0.38485817  0.02330557  1
  O  O26  1  0.82011643  0.42369653  0.19853133  1
  O  O27  1  0.91234879  0.54161539  0.64133228  1
  O  O28  1  0.54398275  0.09511312  0.18708418  1
  O  O29  1  0.79424819  0.18661429  0.87493783  1
  O  O30  1  0.73026371  0.06601476  0.38062222  1
  O  O31  1  0.94670934  0.11097972  0.11933746  1
  P  P32  1  0.22957238  0.75397464  0.86242520  1
  P  P33  1  0.34207777  0.66889435  0.07042976  1
  P  P34  1  0.23935956  0.41247019  0.42958920  1
  P  P35  1  0.88354169  0.90797348  0.36239371  1
  P  P36  1  0.11645831  0.09202652  0.63760629  1
  P  P37  1  0.76064044  0.58752981  0.57041080  1
  P  P38  1  0.65792223  0.33110565  0.92957024  1
  P  P39  1  0.77042762  0.24602536  0.13757480  1
  V  V40  1  0.23211060  0.59810886  0.64051086  1
  V  V41  1  0.73853057  0.87262616  0.85955001  1
  V  V42  1  0.26146943  0.12737384  0.14044999  1
  V  V43  1  0.76788940  0.40189114  0.35948914  1
