# generated using pymatgen
data_NaGdTiO4
_symmetry_space_group_name_H-M   'P 1'
_cell_length_a   5.42328535
_cell_length_b   5.31102573
_cell_length_c   12.65408687
_cell_angle_alpha   90.00000000
_cell_angle_beta   90.00000000
_cell_angle_gamma   90.00000000
_symmetry_Int_Tables_number   1
_chemical_formula_structural   NaGdTiO4
_chemical_formula_sum   'Na4 Gd4 Ti4 O16'
_cell_volume   364.47829661
_cell_formula_units_Z   4
loop_
 _symmetry_equiv_pos_site_id
 _symmetry_equiv_pos_as_xyz
  1  'x, y, z'
loop_
 _atom_site_type_symbol
 _atom_site_label
 _atom_site_symmetry_multiplicity
 _atom_site_fract_x
 _atom_site_fract_y
 _atom_site_fract_z
 _atom_site_occupancy
  Na  Na0  1  0.00827253  0.25000000  0.58626837  1
  Na  Na1  1  0.50827253  0.25000000  0.41373163  1
  Na  Na2  1  0.99172747  0.75000000  0.41373163  1
  Na  Na3  1  0.49172747  0.75000000  0.58626837  1
  Gd  Gd4  1  0.02253094  0.25000000  0.89339281  1
  Gd  Gd5  1  0.52253094  0.25000000  0.10660719  1
  Gd  Gd6  1  0.97746906  0.75000000  0.10660719  1
  Gd  Gd7  1  0.47746906  0.75000000  0.89339281  1
  Ti  Ti8  1  0.00818911  0.25000000  0.26520063  1
  Ti  Ti9  1  0.50818911  0.25000000  0.73479937  1
  Ti  Ti10  1  0.99181089  0.75000000  0.73479937  1
  Ti  Ti11  1  0.49181089  0.75000000  0.26520063  1
  O  O12  1  0.25000000  0.00000000  0.21547916  1
  O  O13  1  0.75000000  0.50000000  0.78452084  1
  O  O14  1  0.75000000  0.00000000  0.78452084  1
  O  O15  1  0.25000000  0.50000000  0.21547916  1
  O  O16  1  0.25000000  0.00000000  0.75634969  1
  O  O17  1  0.75000000  0.50000000  0.24365031  1
  O  O18  1  0.75000000  0.00000000  0.24365031  1
  O  O19  1  0.25000000  0.50000000  0.75634969  1
  O  O20  1  0.93507890  0.25000000  0.06524929  1
  O  O21  1  0.43507890  0.25000000  0.93475071  1
  O  O22  1  0.06492110  0.75000000  0.93475071  1
  O  O23  1  0.56492110  0.75000000  0.06524929  1
  O  O24  1  0.04156437  0.25000000  0.40343663  1
  O  O25  1  0.54156437  0.25000000  0.59656337  1
  O  O26  1  0.95843563  0.75000000  0.59656337  1
  O  O27  1  0.45843563  0.75000000  0.40343663  1
