# generated using pymatgen
data_Cs3Cr2I9
_symmetry_space_group_name_H-M   'P 1'
_cell_length_a   10.92122168
_cell_length_b   10.92122211
_cell_length_c   10.92122179
_cell_angle_alpha   80.55468006
_cell_angle_beta   80.55467980
_cell_angle_gamma   80.55468104
_symmetry_Int_Tables_number   1
_chemical_formula_structural   Cs3Cr2I9
_chemical_formula_sum   'Cs6 Cr4 I18'
_cell_volume   1254.86944684
_cell_formula_units_Z   2
loop_
 _symmetry_equiv_pos_site_id
 _symmetry_equiv_pos_as_xyz
  1  'x, y, z'
loop_
 _atom_site_type_symbol
 _atom_site_label
 _atom_site_symmetry_multiplicity
 _atom_site_fract_x
 _atom_site_fract_y
 _atom_site_fract_z
 _atom_site_occupancy
  Cs  Cs0  1  0.91594231  0.58405769  0.25000000  1
  Cs  Cs1  1  0.25000000  0.91594231  0.58405769  1
  Cs  Cs2  1  0.58405769  0.25000000  0.91594231  1
  Cs  Cs3  1  0.08405769  0.41594231  0.75000000  1
  Cs  Cs4  1  0.75000000  0.08405769  0.41594231  1
  Cs  Cs5  1  0.41594231  0.75000000  0.08405769  1
  Cr  Cr6  1  0.83334855  0.83334855  0.83334855  1
  Cr  Cr7  1  0.66665145  0.66665145  0.66665145  1
  Cr  Cr8  1  0.16665145  0.16665145  0.16665145  1
  Cr  Cr9  1  0.33334855  0.33334855  0.33334855  1
  I  I10  1  0.40198476  0.09801524  0.25000000  1
  I  I11  1  0.25000000  0.40198476  0.09801524  1
  I  I12  1  0.09801524  0.25000000  0.40198476  1
  I  I13  1  0.59801524  0.90198476  0.75000000  1
  I  I14  1  0.75000000  0.59801524  0.90198476  1
  I  I15  1  0.90198476  0.75000000  0.59801524  1
  I  I16  1  0.93744751  0.26060871  0.10243161  1
  I  I17  1  0.10243161  0.93744751  0.26060871  1
  I  I18  1  0.26060871  0.10243161  0.93744751  1
  I  I19  1  0.23939129  0.56255249  0.39756839  1
  I  I20  1  0.39756839  0.23939129  0.56255249  1
  I  I21  1  0.56255249  0.39756839  0.23939129  1
  I  I22  1  0.06255249  0.73939129  0.89756839  1
  I  I23  1  0.89756839  0.06255249  0.73939129  1
  I  I24  1  0.73939129  0.89756839  0.06255249  1
  I  I25  1  0.76060871  0.43744751  0.60243161  1
  I  I26  1  0.60243161  0.76060871  0.43744751  1
  I  I27  1  0.43744751  0.60243161  0.76060871  1
