# generated using pymatgen
data_Mg6ZnCu
_symmetry_space_group_name_H-M   'P 1'
_cell_length_a   6.04465362
_cell_length_b   6.25705107
_cell_length_c   4.83797390
_cell_angle_alpha   90.00000000
_cell_angle_beta   90.00000000
_cell_angle_gamma   121.16933279
_symmetry_Int_Tables_number   1
_chemical_formula_structural   Mg6ZnCu
_chemical_formula_sum   'Mg6 Zn1 Cu1'
_cell_volume   156.56563128
_cell_formula_units_Z   1
loop_
 _symmetry_equiv_pos_site_id
 _symmetry_equiv_pos_as_xyz
  1  'x, y, z'
loop_
 _atom_site_type_symbol
 _atom_site_label
 _atom_site_symmetry_multiplicity
 _atom_site_fract_x
 _atom_site_fract_y
 _atom_site_fract_z
 _atom_site_occupancy
  Mg  Mg0  1  0.67021087  0.33537051  0.25000000  1
  Mg  Mg1  1  0.67021087  0.83483937  0.25000000  1
  Mg  Mg2  1  0.32373151  0.15817070  0.75000000  1
  Mg  Mg3  1  0.32373151  0.66556181  0.75000000  1
  Mg  Mg4  1  0.83847301  0.16923701  0.75000000  1
  Mg  Mg5  1  0.84304530  0.67152315  0.75000000  1
  Zn  Zn6  1  0.16506247  0.33253073  0.25000000  1
  Cu  Cu7  1  0.16553446  0.83276673  0.25000000  1
