# generated using pymatgen
data_Rb2Cd3H6S3O16
_symmetry_space_group_name_H-M   'P 1'
_cell_length_a   8.31873798
_cell_length_b   10.37668252
_cell_length_c   10.34343824
_cell_angle_alpha   90.00000000
_cell_angle_beta   113.71117790
_cell_angle_gamma   90.00000000
_symmetry_Int_Tables_number   1
_chemical_formula_structural   Rb2Cd3H6S3O16
_chemical_formula_sum   'Rb4 Cd6 H12 S6 O32'
_cell_volume   817.48382900
_cell_formula_units_Z   2
loop_
 _symmetry_equiv_pos_site_id
 _symmetry_equiv_pos_as_xyz
  1  'x, y, z'
loop_
 _atom_site_type_symbol
 _atom_site_label
 _atom_site_symmetry_multiplicity
 _atom_site_fract_x
 _atom_site_fract_y
 _atom_site_fract_z
 _atom_site_occupancy
  Rb  Rb0  1  0.85642379  0.21949984  0.62515629  1
  Rb  Rb1  1  0.14357621  0.71949984  0.37484371  1
  Rb  Rb2  1  0.76873249  0.71949984  0.62515629  1
  Rb  Rb3  1  0.23126751  0.21949984  0.37484371  1
  Cd  Cd4  1  0.62775541  0.16224029  0.18542555  1
  Cd  Cd5  1  0.37224459  0.66224029  0.81457445  1
  Cd  Cd6  1  0.55767114  0.66224029  0.18542555  1
  Cd  Cd7  1  0.44232886  0.16224029  0.81457445  1
  Cd  Cd8  1  0.81752875  0.45125533  1.00000000  1
  Cd  Cd9  1  0.18247125  0.95125533  0.00000000  1
  H  H10  1  0.45213602  0.46760104  0.00000000  1
  H  H11  1  0.54786398  0.96760104  1.00000000  1
  H  H12  1  0.57265071  0.33278784  0.00000000  1
  H  H13  1  0.42734929  0.83278784  1.00000000  1
  H  H14  1  0.92074856  0.00053602  0.35252798  1
  H  H15  1  0.07925144  0.50053602  0.64747202  1
  H  H16  1  0.43177942  0.50053602  0.35252798  1
  H  H17  1  0.56822058  0.00053602  0.64747202  1
  H  H18  1  0.90382729  0.99709022  0.19468012  1
  H  H19  1  0.09617271  0.49709022  0.80531988  1
  H  H20  1  0.29085284  0.49709022  0.19468012  1
  H  H21  1  0.70914716  0.99709022  0.80531988  1
  S  S22  1  0.47802867  0.94177152  0.35722280  1
  S  S23  1  0.52197133  0.44177152  0.64277720  1
  S  S24  1  0.87919413  0.44177152  0.35722280  1
  S  S25  1  0.12080587  0.94177152  0.64277720  1
  S  S26  1  0.80486067  0.78377016  1.00000000  1
  S  S27  1  0.19513933  0.28377016  0.00000000  1
  O  O28  1  0.56153612  0.07121103  0.36204548  1
  O  O29  1  0.43846388  0.57121103  0.63795452  1
  O  O30  1  0.80050936  0.57121103  0.36204548  1
  O  O31  1  0.19949064  0.07121103  0.63795452  1
  O  O32  1  0.29280590  0.94388951  0.24706645  1
  O  O33  1  0.70719410  0.44388951  0.75293355  1
  O  O34  1  0.95426055  0.44388951  0.24706645  1
  O  O35  1  0.04573945  0.94388951  0.75293355  1
  O  O36  1  0.58261453  0.83914431  0.32719495  1
  O  O37  1  0.41738547  0.33914431  0.67280505  1
  O  O38  1  0.74458042  0.33914431  0.32719495  1
  O  O39  1  0.25541958  0.83914431  0.67280505  1
  O  O40  1  0.47087069  0.91705902  0.49635012  1
  O  O41  1  0.52912931  0.41705902  0.50364988  1
  O  O42  1  0.02547943  0.41705902  0.49635012  1
  O  O43  1  0.97452057  0.91705902  0.50364988  1
  O  O44  1  0.90834447  0.66665446  1.00000000  1
  O  O45  1  0.09165553  0.16665446  0.00000000  1
  O  O46  1  0.90795958  0.90323731  1.00000000  1
  O  O47  1  0.09204042  0.40323731  0.00000000  1
  O  O48  1  0.76709373  0.78866366  0.12945094  1
  O  O49  1  0.23290627  0.28866366  0.87054906  1
  O  O50  1  0.36235721  0.28866366  0.12945094  1
  O  O51  1  0.63764279  0.78866366  0.87054906  1
  O  O52  1  0.53828673  0.53156893  1.00000000  1
  O  O53  1  0.46171327  0.03156893  0.00000000  1
  O  O54  1  0.65893733  0.26885868  1.00000000  1
  O  O55  1  0.34106267  0.76885868  0.00000000  1
  O  O56  1  0.90127022  0.05590970  0.26780901  1
  O  O57  1  0.09872978  0.55590970  0.73219099  1
  O  O58  1  0.36653879  0.55590970  0.26780901  1
  O  O59  1  0.63346121  0.05590970  0.73219099  1
