# generated using pymatgen
data_CrTe3
_symmetry_space_group_name_H-M   'P 1'
_cell_length_a   8.19386843
_cell_length_b   10.71147937
_cell_length_c   11.47779959
_cell_angle_alpha   90.00000000
_cell_angle_beta   90.00000000
_cell_angle_gamma   105.06074465
_symmetry_Int_Tables_number   1
_chemical_formula_structural   CrTe3
_chemical_formula_sum   'Cr8 Te24'
_cell_volume   972.78579908
_cell_formula_units_Z   8
loop_
 _symmetry_equiv_pos_site_id
 _symmetry_equiv_pos_as_xyz
  1  'x, y, z'
loop_
 _atom_site_type_symbol
 _atom_site_label
 _atom_site_symmetry_multiplicity
 _atom_site_fract_x
 _atom_site_fract_y
 _atom_site_fract_z
 _atom_site_occupancy
  Te  Te0  1  0.35911248  0.56711650  0.90646966  1
  Te  Te1  1  0.14088752  0.93288350  0.40646966  1
  Te  Te2  1  0.64088752  0.43288350  0.09353034  1
  Te  Te3  1  0.85911248  0.06711650  0.59353034  1
  Te  Te4  1  0.98279956  0.23528826  0.32446858  1
  Te  Te5  1  0.51720044  0.26471174  0.82446858  1
  Te  Te6  1  0.01720044  0.76471174  0.67553142  1
  Te  Te7  1  0.48279956  0.73528826  0.17553142  1
  Te  Te8  1  0.17846478  0.43048741  0.17222356  1
  Te  Te9  1  0.32153522  0.06951259  0.67222356  1
  Te  Te10  1  0.82153522  0.56951259  0.82777644  1
  Te  Te11  1  0.67846478  0.93048741  0.32777644  1
  Te  Te12  1  0.19908538  0.39977278  0.61827346  1
  Te  Te13  1  0.30091462  0.10022722  0.11827346  1
  Te  Te14  1  0.80091462  0.60022722  0.38172654  1
  Te  Te15  1  0.69908538  0.89977278  0.88172654  1
  Te  Te16  1  0.30030518  0.59735667  0.44596775  1
  Te  Te17  1  0.19969482  0.90264333  0.94596775  1
  Te  Te18  1  0.69969482  0.40264333  0.55403225  1
  Te  Te19  1  0.80030518  0.09735667  0.05403225  1
  Te  Te20  1  0.53273969  0.72989856  0.61829768  1
  Te  Te21  1  0.96726031  0.77010144  0.11829768  1
  Te  Te22  1  0.46726031  0.27010144  0.38170232  1
  Te  Te23  1  0.03273969  0.22989856  0.88170232  1
  Cr  Cr24  1  0.67224426  0.67438925  0.00038028  1
  Cr  Cr25  1  0.82775574  0.82561075  0.50038028  1
  Cr  Cr26  1  0.32775574  0.32561075  0.99961972  1
  Cr  Cr27  1  0.17224426  0.17438925  0.49961972  1
  Cr  Cr28  1  0.48546975  0.50726144  0.28376151  1
  Cr  Cr29  1  0.01453025  0.99273856  0.78376151  1
  Cr  Cr30  1  0.51453025  0.49273856  0.71623849  1
  Cr  Cr31  1  0.98546975  0.00726144  0.21623849  1
