# generated using pymatgen
data_Ba2TaBiO6
_symmetry_space_group_name_H-M   'P 1'
_cell_length_a   6.14260535
_cell_length_b   6.14260610
_cell_length_c   6.14260641
_cell_angle_alpha   59.99999839
_cell_angle_beta   59.99999432
_cell_angle_gamma   60.00001036
_symmetry_Int_Tables_number   1
_chemical_formula_structural   Ba2TaBiO6
_chemical_formula_sum   'Ba2 Ta1 Bi1 O6'
_cell_volume   163.88642474
_cell_formula_units_Z   1
loop_
 _symmetry_equiv_pos_site_id
 _symmetry_equiv_pos_as_xyz
  1  'x, y, z'
loop_
 _atom_site_type_symbol
 _atom_site_label
 _atom_site_symmetry_multiplicity
 _atom_site_fract_x
 _atom_site_fract_y
 _atom_site_fract_z
 _atom_site_occupancy
  O  O0  1  0.73077855  0.73077851  0.26922147  1
  O  O1  1  0.26922130  0.73077865  0.73077873  1
  O  O2  1  0.26922130  0.73077865  0.26922132  1
  O  O3  1  0.26922105  0.26922162  0.73077867  1
  Ba  Ba4  1  0.75000036  0.74999969  0.74999997  1
  O  O5  1  0.73077849  0.26922144  0.26922145  1
  O  O6  1  0.73077849  0.26922144  0.73077862  1
  Ba  Ba7  1  0.25000042  0.25000034  0.24999962  1
  Ta  Ta8  1  0.50000012  0.49999973  0.50000008  1
  Bi  Bi9  1  -0.00000007  -0.00000007  1.00000007  1
