# generated using pymatgen
data_LiEr2S2O8F3
_symmetry_space_group_name_H-M   'P 1'
_cell_length_a   6.40610720
_cell_length_b   8.17286366
_cell_length_c   14.80236858
_cell_angle_alpha   90.00000000
_cell_angle_beta   90.00000000
_cell_angle_gamma   90.00000000
_symmetry_Int_Tables_number   1
_chemical_formula_structural   LiEr2S2O8F3
_chemical_formula_sum   'Li4 Er8 S8 O32 F12'
_cell_volume   774.99637285
_cell_formula_units_Z   4
loop_
 _symmetry_equiv_pos_site_id
 _symmetry_equiv_pos_as_xyz
  1  'x, y, z'
loop_
 _atom_site_type_symbol
 _atom_site_label
 _atom_site_symmetry_multiplicity
 _atom_site_fract_x
 _atom_site_fract_y
 _atom_site_fract_z
 _atom_site_occupancy
  Li  Li0  1  0.63044582  0.75000000  0.00000000  1
  Li  Li1  1  0.13044582  0.75000000  0.50000000  1
  Li  Li2  1  0.36955418  0.25000000  0.00000000  1
  Li  Li3  1  0.86955418  0.25000000  0.50000000  1
  Er  Er4  1  0.60814769  0.63408524  0.60149341  1
  Er  Er5  1  0.89185231  0.13408524  0.89850659  1
  Er  Er6  1  0.60814769  0.86591476  0.39850659  1
  Er  Er7  1  0.39185231  0.13408524  0.60149341  1
  Er  Er8  1  0.89185231  0.36591476  0.10149341  1
  Er  Er9  1  0.10814769  0.86591476  0.10149341  1
  Er  Er10  1  0.39185231  0.36591476  0.39850659  1
  Er  Er11  1  0.10814769  0.63408524  0.89850659  1
  S  S12  1  0.39302366  0.50525592  0.16450244  1
  S  S13  1  0.60697634  0.00525592  0.16450244  1
  S  S14  1  0.89302366  0.50525592  0.33549756  1
  S  S15  1  0.10697634  0.49474408  0.66450244  1
  S  S16  1  0.10697634  0.00525592  0.33549756  1
  S  S17  1  0.89302366  0.99474408  0.66450244  1
  S  S18  1  0.60697634  0.49474408  0.83549756  1
  S  S19  1  0.39302366  0.99474408  0.83549756  1
  O  O20  1  0.43578316  0.06548390  0.74567965  1
  O  O21  1  0.59341818  0.97547444  0.88573359  1
  O  O22  1  0.40658182  0.47547444  0.88573359  1
  O  O23  1  0.24206932  0.60883420  0.61033211  1
  O  O24  1  0.43578316  0.43451610  0.25432035  1
  O  O25  1  0.56421684  0.56548390  0.74567965  1
  O  O26  1  0.06421684  0.56548390  0.75432035  1
  O  O27  1  0.06421684  0.93451610  0.24567965  1
  O  O28  1  0.75793068  0.10883420  0.61033211  1
  O  O29  1  0.21077156  0.16482197  0.32380939  1
  O  O30  1  0.93578316  0.43451610  0.24567965  1
  O  O31  1  0.90658182  0.47547444  0.61426641  1
  O  O32  1  0.71077156  0.16482197  0.17619061  1
  O  O33  1  0.71077156  0.33517803  0.82380939  1
  O  O34  1  0.40658182  0.02452556  0.11426641  1
  O  O35  1  0.74206932  0.89116580  0.11033211  1
  O  O36  1  0.28922844  0.83517803  0.82380939  1
  O  O37  1  0.28922844  0.66482197  0.17619061  1
  O  O38  1  0.93578316  0.06548390  0.75432035  1
  O  O39  1  0.56421684  0.93451610  0.25432035  1
  O  O40  1  0.25793068  0.10883420  0.88966789  1
  O  O41  1  0.78922844  0.66482197  0.32380939  1
  O  O42  1  0.21077156  0.33517803  0.67619061  1
  O  O43  1  0.24206932  0.89116580  0.38966789  1
  O  O44  1  0.25793068  0.39116580  0.11033211  1
  O  O45  1  0.59341818  0.52452556  0.11426641  1
  O  O46  1  0.09341818  0.97547444  0.61426641  1
  O  O47  1  0.74206932  0.60883420  0.88966789  1
  O  O48  1  0.90658182  0.02452556  0.38573359  1
  O  O49  1  0.78922844  0.83517803  0.67619061  1
  O  O50  1  0.09341818  0.52452556  0.38573359  1
  O  O51  1  0.75793068  0.39116580  0.38966789  1
  F  F52  1  0.03632967  0.37511337  0.94887072  1
  F  F53  1  0.96367033  0.87511337  0.94887072  1
  F  F54  1  0.96367033  0.62488663  0.05112928  1
  F  F55  1  0.67642370  0.25000000  0.00000000  1
  F  F56  1  0.03632967  0.12488663  0.05112928  1
  F  F57  1  0.53632967  0.37511337  0.55112928  1
  F  F58  1  0.32357630  0.75000000  0.00000000  1
  F  F59  1  0.53632967  0.12488663  0.44887072  1
  F  F60  1  0.82357630  0.75000000  0.50000000  1
  F  F61  1  0.46367033  0.87511337  0.55112928  1
  F  F62  1  0.17642370  0.25000000  0.50000000  1
  F  F63  1  0.46367033  0.62488663  0.44887072  1
