# generated using pymatgen
data_BaCu2Te2(ClO3)2
_symmetry_space_group_name_H-M   'P 1'
_cell_length_a   7.52783846
_cell_length_b   7.57540806
_cell_length_c   8.37710870
_cell_angle_alpha   90.00000000
_cell_angle_beta   97.35979205
_cell_angle_gamma   90.00000000
_symmetry_Int_Tables_number   1
_chemical_formula_structural   BaCu2Te2(ClO3)2
_chemical_formula_sum   'Ba2 Cu4 Te4 Cl4 O12'
_cell_volume   473.78099032
_cell_formula_units_Z   2
loop_
 _symmetry_equiv_pos_site_id
 _symmetry_equiv_pos_as_xyz
  1  'x, y, z'
loop_
 _atom_site_type_symbol
 _atom_site_label
 _atom_site_symmetry_multiplicity
 _atom_site_fract_x
 _atom_site_fract_y
 _atom_site_fract_z
 _atom_site_occupancy
  Ba  Ba0  1  0.86384170  0.34118208  0.93251856  1
  Ba  Ba1  1  0.13615830  0.84118208  0.06748144  1
  Cu  Cu2  1  0.64049830  0.84332197  0.91488359  1
  Cu  Cu3  1  0.68908908  0.31444789  0.40335585  1
  Cu  Cu4  1  0.31091092  0.81444789  0.59664415  1
  Cu  Cu5  1  0.35950170  0.34332197  0.08511641  1
  Te  Te6  1  0.86866957  0.97117628  0.60736203  1
  Te  Te7  1  0.34208453  0.18962812  0.76606154  1
  Te  Te8  1  0.65791547  0.68962812  0.23393846  1
  Te  Te9  1  0.13133043  0.47117628  0.39263797  1
  Cl  Cl10  1  0.54640033  0.61424167  0.61671906  1
  Cl  Cl11  1  0.88543670  0.08054817  0.23736500  1
  Cl  Cl12  1  0.11456330  0.58054817  0.76263500  1
  Cl  Cl13  1  0.45359967  0.11424167  0.38328094  1
  O  O14  1  0.47782546  0.77603794  0.06761456  1
  O  O15  1  0.81396017  0.21619292  0.60298248  1
  O  O16  1  0.12505363  -0.00174230  0.63227731  1
  O  O17  1  0.44914216  0.95483133  0.76686251  1
  O  O18  1  0.52217454  0.27603794  0.93238544  1
  O  O19  1  0.87494637  0.49825770  0.36772269  1
  O  O20  1  0.55085784  0.45483133  0.23313749  1
  O  O21  1  0.19942357  0.17811292  0.94227677  1
  O  O22  1  0.80057643  0.67811292  0.05772323  1
  O  O23  1  0.15396046  0.45322102  0.16808268  1
  O  O24  1  0.84603954  0.95322102  0.83191732  1
  O  O25  1  0.18603983  0.71619292  0.39701752  1
