# generated using pymatgen
data_Ta4Mn11O21
_symmetry_space_group_name_H-M   'P 1'
_cell_length_a   5.45070261
_cell_length_b   5.45070197
_cell_length_c   34.36120182
_cell_angle_alpha   90.00000000
_cell_angle_beta   90.00000000
_cell_angle_gamma   119.99999776
_symmetry_Int_Tables_number   1
_chemical_formula_structural   Ta4Mn11O21
_chemical_formula_sum   'Ta8 Mn22 O42'
_cell_volume   884.10513077
_cell_formula_units_Z   2
loop_
 _symmetry_equiv_pos_site_id
 _symmetry_equiv_pos_as_xyz
  1  'x, y, z'
loop_
 _atom_site_type_symbol
 _atom_site_label
 _atom_site_symmetry_multiplicity
 _atom_site_fract_x
 _atom_site_fract_y
 _atom_site_fract_z
 _atom_site_occupancy
  Ta  Ta0  1  0.33333300  0.66666700  0.07083533  1
  Ta  Ta1  1  0.66666700  0.33333300  0.42916467  1
  Ta  Ta2  1  0.66666700  0.33333300  0.92916467  1
  Ta  Ta3  1  0.33333300  0.66666700  0.57083533  1
  Ta  Ta4  1  0.00000000  0.00000000  0.20529739  1
  Ta  Ta5  1  0.00000000  0.00000000  0.29470261  1
  Ta  Ta6  1  0.00000000  0.00000000  0.79470261  1
  Ta  Ta7  1  0.00000000  0.00000000  0.70529739  1
  Mn  Mn8  1  0.00000000  0.00000000  0.08774661  1
  Mn  Mn9  1  0.00000000  0.00000000  0.41225239  1
  Mn  Mn10  1  0.00000000  0.00000000  0.91225339  1
  Mn  Mn11  1  0.00000000  0.00000000  0.58774661  1
  Mn  Mn12  1  0.33333300  0.66666700  0.98014988  1
  Mn  Mn13  1  0.66666700  0.33333300  0.51985012  1
  Mn  Mn14  1  0.66666700  0.33333300  0.01985012  1
  Mn  Mn15  1  0.33333300  0.66666700  0.48014988  1
  Mn  Mn16  1  0.33333300  0.66666700  0.15690565  1
  Mn  Mn17  1  0.66666700  0.33333300  0.34309435  1
  Mn  Mn18  1  0.66666700  0.33333300  0.84309435  1
  Mn  Mn19  1  0.33333300  0.66666700  0.65690565  1
  Mn  Mn20  1  0.66666700  0.33333300  0.13495428  1
  Mn  Mn21  1  0.33333300  0.66666700  0.36504572  1
  Mn  Mn22  1  0.33333300  0.66666700  0.86504572  1
  Mn  Mn23  1  0.66666700  0.33333300  0.63495428  1
  Mn  Mn24  1  0.66666700  0.33333300  0.22628488  1
  Mn  Mn25  1  0.33333300  0.66666700  0.27371512  1
  Mn  Mn26  1  0.33333300  0.66666700  0.77371512  1
  Mn  Mn27  1  0.66666700  0.33333300  0.72628488  1
  Mn  Mn28  1  0.00000000  0.00000000  0.00000000  1
  Mn  Mn29  1  0.00000000  0.00000000  0.50000000  1
  O  O30  1  0.64797965  0.69631198  0.03648220  1
  O  O31  1  0.30368802  0.95166767  0.03648220  1
  O  O32  1  0.04833233  0.35202035  0.03648220  1
  O  O33  1  0.95166767  0.30368802  0.46351780  1
  O  O34  1  0.35202035  0.04833233  0.46351780  1
  O  O35  1  0.69631198  0.64797965  0.46351780  1
  O  O36  1  0.35202035  0.30368802  0.96351780  1
  O  O37  1  0.69631198  0.04833233  0.96351780  1
  O  O38  1  0.95166767  0.64797965  0.96351780  1
  O  O39  1  0.04833233  0.69631198  0.53648220  1
  O  O40  1  0.64797965  0.95166767  0.53648220  1
  O  O41  1  0.30368802  0.35202035  0.53648220  1
  O  O42  1  0.34624564  0.38251123  0.10653194  1
  O  O43  1  0.61748877  0.96373441  0.10653194  1
  O  O44  1  0.03626559  0.65375436  0.10653194  1
  O  O45  1  0.96373441  0.61748877  0.39346806  1
  O  O46  1  0.65375436  0.03626559  0.39346806  1
  O  O47  1  0.38251123  0.34624564  0.39346806  1
  O  O48  1  0.65375436  0.61748877  0.89346806  1
  O  O49  1  0.38251123  0.03626559  0.89346806  1
  O  O50  1  0.96373441  0.34624564  0.89346806  1
  O  O51  1  0.03626559  0.38251123  0.60653194  1
  O  O52  1  0.34624564  0.96373441  0.60653194  1
  O  O53  1  0.61748877  0.65375436  0.60653194  1
  O  O54  1  0.69995080  0.66801023  0.18095047  1
  O  O55  1  0.33198977  0.03194057  0.18095047  1
  O  O56  1  0.96805943  0.30004920  0.18095047  1
  O  O57  1  0.03194057  0.33198977  0.31904953  1
  O  O58  1  0.30004920  0.96805943  0.31904953  1
  O  O59  1  0.66801023  0.69995080  0.31904953  1
  O  O60  1  0.30004920  0.33198977  0.81904953  1
  O  O61  1  0.66801023  0.96805943  0.81904953  1
  O  O62  1  0.03194057  0.69995080  0.81904953  1
  O  O63  1  0.96805943  0.66801023  0.68095047  1
  O  O64  1  0.69995080  0.03194057  0.68095047  1
  O  O65  1  0.33198977  0.30004920  0.68095047  1
  O  O66  1  0.27588402  0.27588402  0.25000000  1
  O  O67  1  0.72411598  1.00000000  0.25000000  1
  O  O68  1  0.00000000  0.72411598  0.25000000  1
  O  O69  1  0.72411598  0.72411598  0.75000000  1
  O  O70  1  0.27588402  0.00000000  0.75000000  1
  O  O71  1  1.00000000  0.27588402  0.75000000  1
