# generated using pymatgen
data_SiO2
_symmetry_space_group_name_H-M   'P 1'
_cell_length_a   7.48763479
_cell_length_b   11.56065203
_cell_length_c   11.67784738
_cell_angle_alpha   104.84707491
_cell_angle_beta   94.74801345
_cell_angle_gamma   96.16795430
_symmetry_Int_Tables_number   1
_chemical_formula_structural   SiO2
_chemical_formula_sum   'Si16 O32'
_cell_volume   965.03125209
_cell_formula_units_Z   16
loop_
 _symmetry_equiv_pos_site_id
 _symmetry_equiv_pos_as_xyz
  1  'x, y, z'
loop_
 _atom_site_type_symbol
 _atom_site_label
 _atom_site_symmetry_multiplicity
 _atom_site_fract_x
 _atom_site_fract_y
 _atom_site_fract_z
 _atom_site_occupancy
  Si  Si0  1  0.69596419  0.44074331  0.12363293  1
  Si  Si1  1  0.59044708  0.85708508  0.35655922  1
  Si  Si2  1  0.43072397  0.63891325  0.14228670  1
  Si  Si3  1  0.95535037  0.76153281  0.43226481  1
  Si  Si4  1  0.40955292  0.14291492  0.64344078  1
  Si  Si5  1  0.67044473  0.13256162  0.44104031  1
  Si  Si6  1  0.22086626  0.41269053  0.42823169  1
  Si  Si7  1  0.56927603  0.36108675  0.85771330  1
  Si  Si8  1  0.38908227  0.64041096  0.64465678  1
  Si  Si9  1  0.30403581  0.55925669  0.87636707  1
  Si  Si10  1  0.04464963  0.23846719  0.56773519  1
  Si  Si11  1  0.92506594  0.45918755  0.75802778  1
  Si  Si12  1  0.61091773  0.35958904  0.35534322  1
  Si  Si13  1  0.07493406  0.54081245  0.24197222  1
  Si  Si14  1  0.32955527  0.86743838  0.55895969  1
  Si  Si15  1  0.77913374  0.58730947  0.57176831  1
  O  O16  1  0.49181303  0.77444765  0.22809434  1
  O  O17  1  0.39542120  0.00217722  0.64620988  1
  O  O18  1  0.12627081  0.86443111  0.49461285  1
  O  O19  1  0.87372919  0.13556889  0.50538715  1
  O  O20  1  0.37287517  0.64922643  0.00810219  1
  O  O21  1  0.20799674  0.17613639  0.61615892  1
  O  O22  1  0.09864379  0.44778749  0.32408996  1
  O  O23  1  0.60232543  0.56403829  0.14308297  1
  O  O24  1  0.90135621  0.55221251  0.67591004  1
  O  O25  1  0.89318366  0.69434722  0.53162704  1
  O  O26  1  0.10681634  0.30565278  0.46837296  1
  O  O27  1  0.35738031  0.62759908  0.77644255  1
  O  O28  1  0.73093399  0.46960100  0.45746482  1
  O  O29  1  0.60457880  0.99782278  0.35379012  1
  O  O30  1  0.62712483  0.35077357  0.99189781  1
  O  O31  1  0.32955423  0.76933893  0.63664249  1
  O  O32  1  0.26906601  0.53039900  0.54253518  1
  O  O33  1  0.39994262  0.36352009  0.37555245  1
  O  O34  1  0.50818697  0.22555235  0.77190566  1
  O  O35  1  0.26279778  0.56846801  0.18826839  1
  O  O36  1  0.01907589  0.66656556  0.31988613  1
  O  O37  1  0.60005738  0.63647991  0.62444755  1
  O  O38  1  0.79200326  0.82386361  0.38384108  1
  O  O39  1  0.46900849  0.83306612  0.45950325  1
  O  O40  1  0.91458494  0.47684120  0.13436704  1
  O  O41  1  0.39767457  0.43596171  0.85691703  1
  O  O42  1  0.98092411  0.33343444  0.68011387  1
  O  O43  1  0.64261969  0.37240092  0.22355745  1
  O  O44  1  0.08541506  0.52315880  0.86563296  1
  O  O45  1  0.67044577  0.23066107  0.36335751  1
  O  O46  1  0.73720222  0.43153199  0.81173161  1
  O  O47  1  0.53099151  0.16693388  0.54049675  1
