# generated using pymatgen
data_KCd3H8Cl7O4
_symmetry_space_group_name_H-M   'P 1'
_cell_length_a   6.79057057
_cell_length_b   7.25466854
_cell_length_c   16.25489109
_cell_angle_alpha   90.00000000
_cell_angle_beta   90.00000000
_cell_angle_gamma   92.05263039
_symmetry_Int_Tables_number   1
_chemical_formula_structural   KCd3H8Cl7O4
_chemical_formula_sum   'K2 Cd6 H16 Cl14 O8'
_cell_volume   800.25638917
_cell_formula_units_Z   2
loop_
 _symmetry_equiv_pos_site_id
 _symmetry_equiv_pos_as_xyz
  1  'x, y, z'
loop_
 _atom_site_type_symbol
 _atom_site_label
 _atom_site_symmetry_multiplicity
 _atom_site_fract_x
 _atom_site_fract_y
 _atom_site_fract_z
 _atom_site_occupancy
  K  K0  1  0.97169267  0.32298537  0.25000000  1
  K  K1  1  0.02830733  0.67701463  0.75000000  1
  Cd  Cd2  1  0.50773482  0.16212964  0.09636710  1
  Cd  Cd3  1  0.49226518  0.83787036  0.90363290  1
  Cd  Cd4  1  0.49226518  0.83787036  0.59636710  1
  Cd  Cd5  1  0.00000000  0.00000000  0.00000000  1
  Cd  Cd6  1  0.50773482  0.16212964  0.40363290  1
  Cd  Cd7  1  0.00000000  0.00000000  0.50000000  1
  H  H8  1  0.40598882  0.23268395  0.75000000  1
  H  H9  1  0.27169959  0.48907615  0.57598108  1
  H  H10  1  0.61850738  0.52621089  0.16258912  1
  H  H11  1  0.61850738  0.52621089  0.33741088  1
  H  H12  1  0.09005184  0.75793251  0.20256759  1
  H  H13  1  0.09005184  0.75793251  0.29743241  1
  H  H14  1  0.72830041  0.51092385  0.07598108  1
  H  H15  1  0.90994816  0.24206749  0.79743241  1
  H  H16  1  0.38149262  0.47378911  0.66258912  1
  H  H17  1  0.90994816  0.24206749  0.70256759  1
  H  H18  1  0.38149262  0.47378911  0.83741088  1
  H  H19  1  0.61271809  0.33783370  0.75000000  1
  H  H20  1  0.38728191  0.66216630  0.25000000  1
  H  H21  1  0.27169959  0.48907615  0.92401892  1
  H  H22  1  0.72830041  0.51092385  0.42401892  1
  H  H23  1  0.59401118  0.76731605  0.25000000  1
  Cl  Cl24  1  0.17662162  0.02740266  0.85859384  1
  Cl  Cl25  1  0.38459272  0.14670126  0.25000000  1
  Cl  Cl26  1  0.82337838  0.97259734  0.14140616  1
  Cl  Cl27  1  0.61540728  0.85329874  0.75000000  1
  Cl  Cl28  1  0.81138222  0.68241838  0.95298843  1
  Cl  Cl29  1  0.18861778  0.31758162  0.04701157  1
  Cl  Cl30  1  0.67351748  0.16512595  0.55434402  1
  Cl  Cl31  1  0.67351748  0.16512595  0.94565598  1
  Cl  Cl32  1  0.32648252  0.83487405  0.44565598  1
  Cl  Cl33  1  0.32648252  0.83487405  0.05434402  1
  Cl  Cl34  1  0.18861778  0.31758162  0.45298843  1
  Cl  Cl35  1  0.81138222  0.68241838  0.54701157  1
  Cl  Cl36  1  0.82337838  0.97259734  0.35859384  1
  Cl  Cl37  1  0.17662162  0.02740266  0.64140616  1
  O  O38  1  0.87077503  0.31565779  0.75000000  1
  O  O39  1  0.46769234  0.35680680  0.75000000  1
  O  O40  1  0.31044647  0.55934831  0.62563571  1
  O  O41  1  0.68955353  0.44065169  0.37436429  1
  O  O42  1  0.31044647  0.55934831  0.87436429  1
  O  O43  1  0.12922497  0.68434221  0.25000000  1
  O  O44  1  0.68955353  0.44065169  0.12563571  1
  O  O45  1  0.53230766  0.64319320  0.25000000  1
