# generated using pymatgen
data_SrMg6Zn
_symmetry_space_group_name_H-M   'P 1'
_cell_length_a   7.19402411
_cell_length_b   6.23193247
_cell_length_c   5.08969453
_cell_angle_alpha   90.00000000
_cell_angle_beta   90.00000000
_cell_angle_gamma   115.66653276
_symmetry_Int_Tables_number   1
_chemical_formula_structural   SrMg6Zn
_chemical_formula_sum   'Sr1 Mg6 Zn1'
_cell_volume   205.66967213
_cell_formula_units_Z   1
loop_
 _symmetry_equiv_pos_site_id
 _symmetry_equiv_pos_as_xyz
  1  'x, y, z'
loop_
 _atom_site_type_symbol
 _atom_site_label
 _atom_site_symmetry_multiplicity
 _atom_site_fract_x
 _atom_site_fract_y
 _atom_site_fract_z
 _atom_site_occupancy
  Sr  Sr0  1  0.10599824  0.80299862  0.25000000  1
  Mg  Mg1  1  0.62879503  0.30738012  0.25000000  1
  Mg  Mg2  1  0.62879503  0.82141390  0.25000000  1
  Mg  Mg3  1  0.35326483  0.18051127  0.75000000  1
  Mg  Mg4  1  0.35326483  0.67275455  0.75000000  1
  Mg  Mg5  1  0.89610795  0.19805447  0.75000000  1
  Mg  Mg6  1  0.77307007  0.63653554  0.75000000  1
  Zn  Zn7  1  0.26070403  0.38035152  0.25000000  1
