# generated using pymatgen
data_CaGeO3
_symmetry_space_group_name_H-M   'P 1'
_cell_length_a   10.93251335
_cell_length_b   10.93251279
_cell_length_c   10.93251332
_cell_angle_alpha   109.13940604
_cell_angle_beta   109.13940508
_cell_angle_gamma   110.13690869
_symmetry_Int_Tables_number   1
_chemical_formula_structural   CaGeO3
_chemical_formula_sum   'Ca16 Ge16 O48'
_cell_volume   1005.75941067
_cell_formula_units_Z   16
loop_
 _symmetry_equiv_pos_site_id
 _symmetry_equiv_pos_as_xyz
  1  'x, y, z'
loop_
 _atom_site_type_symbol
 _atom_site_label
 _atom_site_symmetry_multiplicity
 _atom_site_fract_x
 _atom_site_fract_y
 _atom_site_fract_z
 _atom_site_occupancy
  Ca  Ca0  1  0.74871461  0.62822905  0.87150617  1
  Ca  Ca1  1  0.25128539  0.37177095  0.12849383  1
  Ca  Ca2  1  0.50000000  0.50000000  0.50000000  1
  Ca  Ca3  1  0.00000000  0.00000000  0.00000000  1
  Ca  Ca4  1  0.37705472  0.62705472  0.75000000  1
  Ca  Ca5  1  0.12822905  0.75672288  0.87951444  1
  Ca  Ca6  1  0.62294528  0.37294528  0.25000000  1
  Ca  Ca7  1  0.37720844  0.24871461  0.62048556  1
  Ca  Ca8  1  0.12705472  0.87705472  0.25000000  1
  Ca  Ca9  1  0.50000000  0.00000000  0.50000000  1
  Ca  Ca10  1  0.62279156  0.75128539  0.37951444  1
  Ca  Ca11  1  0.25672288  0.87720844  0.62849383  1
  Ca  Ca12  1  0.87177095  0.24327712  0.12048556  1
  Ca  Ca13  1  0.74327712  0.12279156  0.37150617  1
  Ca  Ca14  1  0.87294528  0.12294528  0.75000000  1
  Ca  Ca15  1  0.50000000  0.00000000  0.00000000  1
  Ge  Ge16  1  0.88290782  0.74164729  0.61147149  1
  Ge  Ge17  1  0.00000000  0.50000000  0.50000000  1
  Ge  Ge18  1  0.24164729  0.13017579  0.85873946  1
  Ge  Ge19  1  0.22856367  0.61709218  0.35873946  1
  Ge  Ge20  1  0.12500000  0.37500000  0.75000000  1
  Ge  Ge21  1  0.87500000  0.62500000  0.25000000  1
  Ge  Ge22  1  0.77143633  0.38290782  0.64126054  1
  Ge  Ge23  1  0.63017579  0.27143633  0.88852851  1
  Ge  Ge24  1  0.36982421  0.72856367  0.11147149  1
  Ge  Ge25  1  0.37500000  0.12500000  0.25000000  1
  Ge  Ge26  1  0.62500000  0.87500000  0.75000000  1
  Ge  Ge27  1  0.11709218  0.25835271  0.38852851  1
  Ge  Ge28  1  0.00000000  0.50000000  0.00000000  1
  Ge  Ge29  1  0.75835271  0.86982421  0.14126054  1
  Ge  Ge30  1  0.00000000  0.00000000  0.50000000  1
  Ge  Ge31  1  0.50000000  0.50000000  0.00000000  1
  O  O32  1  0.19931260  0.96572049  0.09949335  1
  O  O33  1  0.99287450  0.18134741  0.60659206  1
  O  O34  1  0.63377286  0.90018074  0.59949335  1
  O  O35  1  0.46572049  0.86622714  0.76640789  1
  O  O36  1  0.64066929  0.23635620  0.03586438  1
  O  O37  1  0.10480491  0.14066929  0.90431309  1
  O  O38  1  0.07475535  0.38628244  0.89340794  1
  O  O39  1  0.03101349  0.69618705  0.61385622  1
  O  O40  1  0.51137481  0.87796290  0.29012445  1
  O  O41  1  0.70049182  0.60480491  0.46413562  1
  O  O42  1  0.96898651  0.30381295  0.38614378  1
  O  O43  1  0.48862519  0.12203710  0.70987555  1
  O  O44  1  0.29950818  0.39519509  0.53586438  1
  O  O45  1  0.59647524  0.68166717  0.99826165  1
  O  O46  1  0.31865259  0.42524465  0.81152709  1
  O  O47  1  0.11371756  0.50712550  0.68847291  1
  O  O48  1  0.68134741  0.57475535  0.18847291  1
  O  O49  1  0.89519509  0.85933071  0.09568691  1
  O  O50  1  0.80068740  0.03427951  0.90050665  1
  O  O51  1  0.18166717  0.68340553  0.08519194  1
  O  O52  1  0.73635620  0.20049182  0.59568691  1
  O  O53  1  0.00712550  0.81865259  0.39340794  1
  O  O54  1  0.62203710  0.41216155  0.63341191  1
  O  O55  1  0.91715727  0.53101349  0.83482644  1
  O  O56  1  0.40018074  0.30068740  0.26640789  1
  O  O57  1  0.81833283  0.31659447  0.91480806  1
  O  O58  1  0.26364380  0.79950818  0.40431309  1
  O  O59  1  0.90178641  0.90352476  0.58519194  1
  O  O60  1  0.08783845  0.22125036  0.20987555  1
  O  O61  1  0.09821359  0.09647524  0.41480806  1
  O  O62  1  0.58233083  0.41715727  0.88614378  1
  O  O63  1  0.37796290  0.58783845  0.36658809  1
  O  O64  1  0.72125036  0.01137481  0.13341191  1
  O  O65  1  0.35933071  0.76364380  0.96413562  1
  O  O66  1  0.91216155  0.77874964  0.79012445  1
  O  O67  1  0.59981926  0.69931260  0.73359211  1
  O  O68  1  0.40352476  0.31833283  0.00173835  1
  O  O69  1  0.81659447  0.40178641  0.49826165  1
  O  O70  1  0.92524465  0.61371756  0.10659206  1
  O  O71  1  0.18340553  0.59821359  0.50173835  1
  O  O72  1  0.80381295  0.91766917  0.33482644  1
  O  O73  1  0.36622714  0.09981926  0.40050665  1
  O  O74  1  0.88628244  0.49287450  0.31152709  1
  O  O75  1  0.53427951  0.13377286  0.23359211  1
  O  O76  1  0.41766917  0.58284273  0.11385622  1
  O  O77  1  0.08284273  0.46898651  0.16517356  1
  O  O78  1  0.19618705  0.08233083  0.66517356  1
  O  O79  1  0.27874964  0.98862519  0.86658809  1
