# generated using pymatgen
data_LiAsH6(OF2)3
_symmetry_space_group_name_H-M   'P 1'
_cell_length_a   8.54261519
_cell_length_b   8.54261495
_cell_length_c   5.59262410
_cell_angle_alpha   90.00000000
_cell_angle_beta   90.00000000
_cell_angle_gamma   120.00000087
_symmetry_Int_Tables_number   1
_chemical_formula_structural   LiAsH6(OF2)3
_chemical_formula_sum   'Li2 As2 H12 O6 F12'
_cell_volume   353.44995682
_cell_formula_units_Z   2
loop_
 _symmetry_equiv_pos_site_id
 _symmetry_equiv_pos_as_xyz
  1  'x, y, z'
loop_
 _atom_site_type_symbol
 _atom_site_label
 _atom_site_symmetry_multiplicity
 _atom_site_fract_x
 _atom_site_fract_y
 _atom_site_fract_z
 _atom_site_occupancy
  Li  Li0  1  0.00000000  0.00000000  0.80336352  1
  Li  Li1  1  0.00000000  0.00000000  0.30336352  1
  As  As2  1  0.33333300  0.66666700  0.42943440  1
  As  As3  1  0.66666700  0.33333300  0.92943440  1
  H  H4  1  0.94056462  0.24089157  0.55859261  1
  H  H5  1  0.30032696  0.24089157  0.55859261  1
  H  H6  1  0.30032696  0.05943538  0.55859261  1
  H  H7  1  0.05943538  0.75910843  0.05859261  1
  H  H8  1  0.75910842  0.69967304  0.55859261  1
  H  H9  1  0.69967304  0.75910843  0.05859261  1
  H  H10  1  0.75910842  0.05943538  0.55859261  1
  H  H11  1  0.24089158  0.94056462  0.05859261  1
  H  H12  1  0.24089158  0.30032696  0.05859261  1
  H  H13  1  0.69967304  0.94056462  0.05859261  1
  H  H14  1  0.05943538  0.30032696  0.05859261  1
  H  H15  1  0.94056462  0.69967304  0.55859261  1
  O  O16  1  0.77982447  0.88991224  0.05286280  1
  O  O17  1  0.11008776  0.22017553  0.05286280  1
  O  O18  1  0.22017553  0.11008776  0.55286280  1
  O  O19  1  0.88991224  0.77982447  0.55286280  1
  O  O20  1  0.88991224  0.11008776  0.55286280  1
  O  O21  1  0.11008776  0.88991224  0.05286280  1
  F  F22  1  0.43145782  0.56854218  0.24530246  1
  F  F23  1  0.76508856  0.53017713  0.11065020  1
  F  F24  1  0.56854218  0.13708435  0.74530246  1
  F  F25  1  0.56854218  0.43145782  0.74530246  1
  F  F26  1  0.23491144  0.76508856  0.61065020  1
  F  F27  1  0.46982287  0.23491144  0.11065020  1
  F  F28  1  0.76508856  0.23491144  0.11065020  1
  F  F29  1  0.53017713  0.76508856  0.61065020  1
  F  F30  1  0.43145782  0.86291565  0.24530246  1
  F  F31  1  0.86291565  0.43145782  0.74530246  1
  F  F32  1  0.13708435  0.56854218  0.24530246  1
  F  F33  1  0.23491144  0.46982287  0.61065020  1
