# generated using pymatgen
data_AlPO4
_symmetry_space_group_name_H-M   'P 1'
_cell_length_a   10.45984339
_cell_length_b   12.85213985
_cell_length_c   13.78871816
_cell_angle_alpha   117.33508028
_cell_angle_beta   112.28970478
_cell_angle_gamma   90.00000222
_symmetry_Int_Tables_number   1
_chemical_formula_structural   AlPO4
_chemical_formula_sum   'Al12 P12 O48'
_cell_volume   1489.01396929
_cell_formula_units_Z   12
loop_
 _symmetry_equiv_pos_site_id
 _symmetry_equiv_pos_as_xyz
  1  'x, y, z'
loop_
 _atom_site_type_symbol
 _atom_site_label
 _atom_site_symmetry_multiplicity
 _atom_site_fract_x
 _atom_site_fract_y
 _atom_site_fract_z
 _atom_site_occupancy
  Al  Al0  1  0.56609918  0.68953580  0.13219835  1
  Al  Al1  1  0.66354948  0.51394766  0.77437983  1
  Al  Al2  1  0.20482708  0.33255337  0.40965416  1
  Al  Al3  1  0.65560939  0.21215088  0.31121879  1
  Al  Al4  1  0.88916965  0.48605234  0.22562017  1
  Al  Al5  1  0.28329256  0.00000000  0.00000000  1
  Al  Al6  1  0.33645052  0.48605234  0.22562017  1
  Al  Al7  1  0.79517292  0.66744663  0.59034584  1
  Al  Al8  1  0.11083035  0.51394766  0.77437983  1
  Al  Al9  1  0.34439061  0.78784912  0.68878121  1
  Al  Al10  1  0.43390082  0.31046420  0.86780165  1
  Al  Al11  1  0.71670744  1.00000000  1.00000000  1
  P  P12  1  0.33971458  0.39573768  0.67942916  1
  P  P13  1  0.33171187  0.23974252  0.21884827  1
  P  P14  1  0.79190458  0.41477476  0.58380915  1
  P  P15  1  0.56921467  0.94215232  0.13842934  1
  P  P16  1  0.66028542  0.60426232  0.32057084  1
  P  P17  1  0.71960160  0.50000000  0.00000000  1
  P  P18  1  0.43078533  0.05784768  0.86157066  1
  P  P19  1  0.11286360  0.76025748  0.78115173  1
  P  P20  1  0.66828813  0.76025748  0.78115173  1
  P  P21  1  0.20809542  0.58522524  0.41619085  1
  P  P22  1  0.28039840  0.50000000  1.00000000  1
  P  P23  1  0.88713640  0.23974252  0.21884827  1
  O  O24  1  0.70794933  0.42280532  0.65653101  1
  O  O25  1  0.75661340  0.52306611  0.27595045  1
  O  O26  1  0.49066402  0.24526811  0.25257966  1
  O  O27  1  0.41275139  0.93638178  0.06630995  1
  O  O28  1  0.63560741  0.69197500  0.27121481  1
  O  O29  1  0.97489786  0.73754254  0.67261874  1
  O  O30  1  0.34082803  0.38676783  0.95238979  1
  O  O31  1  0.27049751  0.32188973  0.54099502  1
  O  O32  1  0.28676512  0.33564344  0.18285737  1
  O  O33  1  0.05141832  0.57719468  0.34346899  1
  O  O34  1  0.65355857  0.93638178  0.06630995  1
  O  O35  1  0.72950249  0.67811027  0.45900498  1
  O  O36  1  0.30227912  0.26245746  0.32738126  1
  O  O37  1  0.61156176  0.38676783  0.95238979  1
  O  O38  1  0.24531921  0.11544836  0.11119065  1
  O  O39  1  0.36885086  0.94200154  0.73770172  1
  O  O40  1  0.58034985  0.83597287  0.16069970  1
  O  O41  1  0.69772088  0.73754254  0.67261874  1
  O  O42  1  0.22464207  0.48480181  0.44928413  1
  O  O43  1  0.94858168  0.42280532  0.65653101  1
  O  O44  1  0.75468079  0.88455164  0.88880935  1
  O  O45  1  0.76191565  0.24526811  0.25257966  1
  O  O46  1  0.24338660  0.47693389  0.72404955  1
  O  O47  1  0.63114914  0.05799846  0.26229828  1
  O  O48  1  0.71323488  0.66435656  0.81714263  1
  O  O49  1  0.29205067  0.57719468  0.34346899  1
  O  O50  1  0.73409260  0.29257708  0.46818521  1
  O  O51  1  0.51933705  0.52306611  0.27595045  1
  O  O52  1  0.26590740  0.70742292  0.53181479  1
  O  O53  1  0.23808435  0.75473189  0.74742034  1
  O  O54  1  0.65917197  0.61323217  0.04761021  1
  O  O55  1  0.36439259  0.30802500  0.72878519  1
  O  O56  1  0.34644143  0.06361822  0.93369005  1
  O  O57  1  0.89609224  0.33564344  0.18285737  1
  O  O58  1  0.86587144  0.11544836  0.11119065  1
  O  O59  1  0.14430508  0.49251289  0.89819633  1
  O  O60  1  0.13412856  0.88455164  0.88880935  1
  O  O61  1  0.85569492  0.50748711  0.10180367  1
  O  O62  1  0.02510214  0.26245746  0.32738126  1
  O  O63  1  0.48066295  0.47693389  0.72404955  1
  O  O64  1  0.10390776  0.66435656  0.81714263  1
  O  O65  1  0.38843824  0.61323217  0.04761021  1
  O  O66  1  0.50933598  0.75473189  0.74742034  1
  O  O67  1  0.24610875  0.50748711  0.10180367  1
  O  O68  1  0.75389125  0.49251289  0.89819633  1
  O  O69  1  0.77535793  0.51519819  0.55071587  1
  O  O70  1  0.58724861  0.06361822  0.93369005  1
  O  O71  1  0.41965015  0.16402713  0.83930030  1
