# generated using pymatgen
data_Sb5IO7
_symmetry_space_group_name_H-M   'P 1'
_cell_length_a   6.94938337
_cell_length_b   11.81461490
_cell_length_c   13.12612029
_cell_angle_alpha   90.00000000
_cell_angle_beta   90.00000000
_cell_angle_gamma   88.89002895
_symmetry_Int_Tables_number   1
_chemical_formula_structural   Sb5IO7
_chemical_formula_sum   'Sb20 I4 O28'
_cell_volume   1077.50853804
_cell_formula_units_Z   4
loop_
 _symmetry_equiv_pos_site_id
 _symmetry_equiv_pos_as_xyz
  1  'x, y, z'
loop_
 _atom_site_type_symbol
 _atom_site_label
 _atom_site_symmetry_multiplicity
 _atom_site_fract_x
 _atom_site_fract_y
 _atom_site_fract_z
 _atom_site_occupancy
  Sb  Sb0  1  0.74353547  0.07513668  0.44572800  1
  Sb  Sb1  1  0.39618624  0.06551502  0.24129273  1
  Sb  Sb2  1  0.04921433  0.09275507  0.73607161  1
  Sb  Sb3  1  0.90993326  0.25897874  0.24167722  1
  Sb  Sb4  1  0.24353547  0.57513668  0.05427200  1
  Sb  Sb5  1  0.24602041  0.91888817  0.94307148  1
  Sb  Sb6  1  0.75397959  0.08111183  0.05692852  1
  Sb  Sb7  1  0.45078567  0.40724493  0.23607161  1
  Sb  Sb8  1  0.75646453  0.42486332  0.94572800  1
  Sb  Sb9  1  0.59006674  0.24102126  0.74167722  1
  Sb  Sb10  1  0.54921433  0.59275507  0.76392839  1
  Sb  Sb11  1  0.60381376  0.93448498  0.75870727  1
  Sb  Sb12  1  0.89618624  0.56551502  0.25870727  1
  Sb  Sb13  1  0.25397959  0.58111183  0.44307148  1
  Sb  Sb14  1  0.09006674  0.74102126  0.75832278  1
  Sb  Sb15  1  0.95078567  0.90724493  0.26392839  1
  Sb  Sb16  1  0.25646453  0.92486332  0.55427200  1
  Sb  Sb17  1  0.10381376  0.43448498  0.74129273  1
  Sb  Sb18  1  0.40993326  0.75897874  0.25832278  1
  Sb  Sb19  1  0.74602041  0.41888817  0.55692852  1
  I  I20  1  0.80833934  0.75623805  0.00474149  1
  I  I21  1  0.30833934  0.25623805  0.49525851  1
  I  I22  1  0.19166066  0.24376195  0.99525851  1
  I  I23  1  0.69166066  0.74376195  0.50474149  1
  O  O24  1  0.40191430  0.00310554  0.66836113  1
  O  O25  1  0.23736794  0.78275830  0.63497890  1
  O  O26  1  0.30107670  0.77871315  0.85748422  1
  O  O27  1  0.25258593  0.91393093  0.24999568  1
  O  O28  1  0.76263206  0.21724170  0.36502110  1
  O  O29  1  0.94230005  0.04233330  0.17151587  1
  O  O30  1  0.97147060  0.49631084  0.61925293  1
  O  O31  1  0.90191430  0.50310554  0.83163887  1
  O  O32  1  0.80107670  0.27871315  0.64251578  1
  O  O33  1  0.73736794  0.28275830  0.86502110  1
  O  O34  1  0.75258593  0.41393093  0.25000432  1
  O  O35  1  0.69892330  0.22128685  0.14251578  1
  O  O36  1  0.26263206  0.71724170  0.13497890  1
  O  O37  1  0.51634000  0.49588578  0.88603710  1
  O  O38  1  0.74741407  0.08606907  0.75000432  1
  O  O39  1  0.02852940  0.50368916  0.38074707  1
  O  O40  1  0.05769995  0.95766670  0.82848413  1
  O  O41  1  0.59808570  0.99689446  0.33163887  1
  O  O42  1  0.24741407  0.58606907  0.74999568  1
  O  O43  1  0.47147060  0.99631084  0.88074707  1
  O  O44  1  0.19892330  0.72128685  0.35748422  1
  O  O45  1  0.55769995  0.45766670  0.67151587  1
  O  O46  1  0.48366000  0.50411422  0.11396290  1
  O  O47  1  0.09808570  0.49689446  0.16836113  1
  O  O48  1  0.44230005  0.54233330  0.32848413  1
  O  O49  1  0.52852940  0.00368916  0.11925293  1
  O  O50  1  0.98366000  0.00411422  0.38603710  1
  O  O51  1  0.01634000  0.99588578  0.61396290  1
