# generated using pymatgen
data_SiO2
_symmetry_space_group_name_H-M   'P 1'
_cell_length_a   11.21071209
_cell_length_b   11.21071187
_cell_length_c   11.33349358
_cell_angle_alpha   111.63008546
_cell_angle_beta   111.63008501
_cell_angle_gamma   104.75583344
_symmetry_Int_Tables_number   1
_chemical_formula_structural   SiO2
_chemical_formula_sum   'Si18 O36'
_cell_volume   1097.95019617
_cell_formula_units_Z   18
loop_
 _symmetry_equiv_pos_site_id
 _symmetry_equiv_pos_as_xyz
  1  'x, y, z'
loop_
 _atom_site_type_symbol
 _atom_site_label
 _atom_site_symmetry_multiplicity
 _atom_site_fract_x
 _atom_site_fract_y
 _atom_site_fract_z
 _atom_site_occupancy
  Si  Si0  1  0.29763954  0.54750852  0.61945510  1
  Si  Si1  1  0.70585351  0.70585351  0.63178726  1
  Si  Si2  1  0.92805342  0.67818444  0.38054490  1
  Si  Si3  1  0.32181556  0.07194658  0.61945510  1
  Si  Si4  1  0.54750852  0.29763954  0.61945510  1
  Si  Si5  1  0.07194658  0.32181556  0.61945510  1
  Si  Si6  1  0.78787182  0.78787182  0.17777465  1
  Si  Si7  1  0.61009717  0.61009717  0.82222535  1
  Si  Si8  1  0.45249148  0.70236046  0.38054490  1
  Si  Si9  1  0.29414649  0.29414649  0.36821274  1
  Si  Si10  1  0.67818444  0.92805342  0.38054490  1
  Si  Si11  1  0.92593375  0.92593375  0.63178726  1
  Si  Si12  1  0.25000000  0.75000000  0.50000000  1
  Si  Si13  1  0.70236046  0.45249148  0.38054490  1
  Si  Si14  1  0.07406625  0.07406625  0.36821274  1
  Si  Si15  1  0.38990283  0.38990283  0.17777465  1
  Si  Si16  1  0.75000000  0.25000000  0.50000000  1
  Si  Si17  1  0.21212818  0.21212818  0.82222535  1
  O  O18  1  0.92316964  0.32022351  0.60806202  1
  O  O19  1  0.31440600  0.16412065  0.76372963  1
  O  O20  1  0.96665560  0.81686643  0.53075949  1
  O  O21  1  0.83430840  0.52950466  0.36381305  1
  O  O22  1  0.28783851  0.68489238  0.60806202  1
  O  O23  1  0.56410389  0.71389306  0.53075949  1
  O  O24  1  0.81686643  0.96665560  0.53075949  1
  O  O25  1  0.47049534  0.16569160  0.63618695  1
  O  O26  1  0.83587935  0.68559400  0.23627037  1
  O  O27  1  0.52950466  0.83430840  0.36381305  1
  O  O28  1  0.14965686  0.14965686  0.29931371  1
  O  O29  1  0.68559400  0.83587935  0.23627037  1
  O  O30  1  0.43589611  0.28610694  0.46924051  1
  O  O31  1  0.71389306  0.56410389  0.53075949  1
  O  O32  1  0.55067637  0.40039102  0.23627037  1
  O  O33  1  0.16569160  0.47049534  0.63618695  1
  O  O34  1  0.30483237  0.30483237  0.23386934  1
  O  O35  1  0.85034314  0.85034314  0.70068629  1
  O  O36  1  0.31510762  0.71216149  0.39193798  1
  O  O37  1  0.16412065  0.31440600  0.76372963  1
  O  O38  1  0.28610694  0.43589611  0.46924051  1
  O  O39  1  0.03334440  0.18313357  0.46924051  1
  O  O40  1  0.07096304  0.07096304  0.76613066  1
  O  O41  1  0.69808205  0.69808205  1.00000000  1
  O  O42  1  0.67977649  0.07683036  0.39193798  1
  O  O43  1  0.40039102  0.55067637  0.23627037  1
  O  O44  1  0.44932363  0.59960898  0.76372963  1
  O  O45  1  0.30191795  0.30191795  0.00000000  1
  O  O46  1  0.18313357  0.03334440  0.46924051  1
  O  O47  1  0.32022351  0.92316964  0.60806202  1
  O  O48  1  0.59960898  0.44932363  0.76372963  1
  O  O49  1  0.92903696  0.92903696  0.23386934  1
  O  O50  1  0.07683036  0.67977649  0.39193798  1
  O  O51  1  0.68489238  0.28783851  0.60806202  1
  O  O52  1  0.71216149  0.31510762  0.39193798  1
  O  O53  1  0.69516763  0.69516763  0.76613066  1
