# generated using pymatgen
data_SrZr(PO4)2
_symmetry_space_group_name_H-M   'P 1'
_cell_length_a   5.19191194
_cell_length_b   7.85190002
_cell_length_c   8.02748175
_cell_angle_alpha   92.29731976
_cell_angle_beta   95.98960134
_cell_angle_gamma   90.33027177
_symmetry_Int_Tables_number   1
_chemical_formula_structural   SrZr(PO4)2
_chemical_formula_sum   'Sr2 Zr2 P4 O16'
_cell_volume   325.18692731
_cell_formula_units_Z   2
loop_
 _symmetry_equiv_pos_site_id
 _symmetry_equiv_pos_as_xyz
  1  'x, y, z'
loop_
 _atom_site_type_symbol
 _atom_site_label
 _atom_site_symmetry_multiplicity
 _atom_site_fract_x
 _atom_site_fract_y
 _atom_site_fract_z
 _atom_site_occupancy
  Sr  Sr0  1  0.69881717  0.52290153  0.76807182  1
  Sr  Sr1  1  0.30118283  0.47709847  0.23192818  1
  Zr  Zr2  1  0.33856217  0.97406535  0.27700370  1
  Zr  Zr3  1  0.66143783  0.02593465  0.72299630  1
  P  P4  1  0.20017754  0.78909834  0.87695253  1
  P  P5  1  0.21603425  0.24999403  0.62774960  1
  P  P6  1  0.78396575  0.75000597  0.37225040  1
  P  P7  1  0.79982246  0.21090166  0.12304747  1
  O  O8  1  0.68901952  0.91588175  0.46700584  1
  O  O9  1  0.31098048  0.08411825  0.53299416  1
  O  O10  1  0.95183112  0.83227190  0.76146940  1
  O  O11  1  0.04816888  0.16772810  0.23853060  1
  O  O12  1  0.22826447  0.91705005  0.02796774  1
  O  O13  1  0.77173553  0.08294995  0.97203226  1
  O  O14  1  0.81022265  0.39767152  0.07649617  1
  O  O15  1  0.06917315  0.77480144  0.33378862  1
  O  O16  1  0.58867812  0.75954673  0.20965772  1
  O  O17  1  0.41132188  0.24045327  0.79034228  1
  O  O18  1  0.73800536  0.58702176  0.45890404  1
  O  O19  1  0.93082685  0.22519856  0.66621138  1
  O  O20  1  0.56184080  0.18612557  0.22518024  1
  O  O21  1  0.26199464  0.41297824  0.54109596  1
  O  O22  1  0.18977735  0.60232848  0.92350383  1
  O  O23  1  0.43815920  0.81387443  0.77481976  1
