# generated using pymatgen
data_MnBiS2Cl
_symmetry_space_group_name_H-M   'P 1'
_cell_length_a   3.88806415
_cell_length_b   9.50640903
_cell_length_c   12.39987864
_cell_angle_alpha   90.00000000
_cell_angle_beta   90.00000000
_cell_angle_gamma   90.00000000
_symmetry_Int_Tables_number   1
_chemical_formula_structural   MnBiS2Cl
_chemical_formula_sum   'Mn4 Bi4 S8 Cl4'
_cell_volume   458.31846334
_cell_formula_units_Z   4
loop_
 _symmetry_equiv_pos_site_id
 _symmetry_equiv_pos_as_xyz
  1  'x, y, z'
loop_
 _atom_site_type_symbol
 _atom_site_label
 _atom_site_symmetry_multiplicity
 _atom_site_fract_x
 _atom_site_fract_y
 _atom_site_fract_z
 _atom_site_occupancy
  Mn  Mn0  1  0.75000000  0.50564150  0.75964913  1
  Mn  Mn1  1  0.25000000  0.49435850  0.24035087  1
  Mn  Mn2  1  0.25000000  0.99435850  0.25964913  1
  Mn  Mn3  1  0.75000000  0.00564150  0.74035087  1
  Bi  Bi4  1  0.75000000  0.80146516  0.03062104  1
  Bi  Bi5  1  0.25000000  0.19853484  0.96937896  1
  Bi  Bi6  1  0.75000000  0.30146516  0.46937896  1
  Bi  Bi7  1  0.25000000  0.69853484  0.53062104  1
  S  S8  1  0.25000000  0.24899854  0.32219564  1
  S  S9  1  0.75000000  0.55176629  0.38054245  1
  S  S10  1  0.25000000  0.74899854  0.17780436  1
  S  S11  1  0.75000000  0.05176629  0.11945755  1
  S  S12  1  0.25000000  0.94823371  0.88054245  1
  S  S13  1  0.75000000  0.75100146  0.67780436  1
  S  S14  1  0.25000000  0.44823371  0.61945755  1
  S  S15  1  0.75000000  0.25100146  0.82219564  1
  Cl  Cl16  1  0.25000000  0.06559779  0.61328501  1
  Cl  Cl17  1  0.75000000  0.43440221  0.11328501  1
  Cl  Cl18  1  0.75000000  0.93440221  0.38671499  1
  Cl  Cl19  1  0.25000000  0.56559779  0.88671499  1
