# generated using pymatgen
data_Gd10S14O
_symmetry_space_group_name_H-M   'P 1'
_cell_length_a   14.35326716
_cell_length_b   14.35326737
_cell_length_c   14.35326761
_cell_angle_alpha   93.62441970
_cell_angle_beta   117.92997100
_cell_angle_gamma   117.92997373
_symmetry_Int_Tables_number   1
_chemical_formula_structural   Gd10S14O
_chemical_formula_sum   'Gd40 S56 O4'
_cell_volume   2151.68425054
_cell_formula_units_Z   4
loop_
 _symmetry_equiv_pos_site_id
 _symmetry_equiv_pos_as_xyz
  1  'x, y, z'
loop_
 _atom_site_type_symbol
 _atom_site_label
 _atom_site_symmetry_multiplicity
 _atom_site_fract_x
 _atom_site_fract_y
 _atom_site_fract_z
 _atom_site_occupancy
  Gd  Gd0  1  0.88915921  0.81496218  0.18967266  1
  Gd  Gd1  1  0.12528953  0.92580297  0.81496218  1
  Gd  Gd2  1  0.59903723  0.01892680  0.67363333  1
  Gd  Gd3  1  0.02179969  0.76089985  0.01089985  1
  Gd  Gd4  1  0.62528953  0.81032734  0.19948656  1
  Gd  Gd5  1  0.61084079  0.31032734  0.68503782  1
  Gd  Gd6  1  0.84529347  0.41988957  0.01892680  1
  Gd  Gd7  1  0.87471047  0.30051344  0.68967266  1
  Gd  Gd8  1  0.11084079  0.42580297  0.30051344  1
  Gd  Gd9  1  0.90096277  0.57459610  0.41988957  1
  Gd  Gd10  1  0.11084079  0.18503782  0.81032734  1
  Gd  Gd11  1  0.61084079  0.80051344  0.92580297  1
  Gd  Gd12  1  0.37471047  0.68503782  0.57419703  1
  Gd  Gd13  1  0.09903723  0.42540390  0.58011043  1
  Gd  Gd14  1  0.15470653  0.07459610  0.17363333  1
  Gd  Gd15  1  0.40096277  0.98107320  0.32636667  1
  Gd  Gd16  1  0.25000000  0.73910015  0.76089985  1
  Gd  Gd17  1  0.34529347  0.51892680  0.91988957  1
  Gd  Gd18  1  0.25000000  0.01089985  0.48910015  1
  Gd  Gd19  1  0.75000000  0.98910015  0.51089985  1
  Gd  Gd20  1  0.90096277  0.82636667  0.48107320  1
  Gd  Gd21  1  0.59903723  0.08011043  0.92540390  1
  Gd  Gd22  1  0.09903723  0.17363333  0.51892680  1
  Gd  Gd23  1  0.38915921  0.68967266  0.31496218  1
  Gd  Gd24  1  0.37471047  0.18967266  0.80051344  1
  Gd  Gd25  1  0.40096277  0.91988957  0.07459610  1
  Gd  Gd26  1  0.97820031  0.23910015  0.98910015  1
  Gd  Gd27  1  0.88915921  0.57419703  0.69948656  1
  Gd  Gd28  1  0.62528953  0.31496218  0.42580297  1
  Gd  Gd29  1  0.65470653  0.67363333  0.57459610  1
  Gd  Gd30  1  0.38915921  0.19948656  0.07419703  1
  Gd  Gd31  1  0.75000000  0.26089985  0.23910015  1
  Gd  Gd32  1  0.87471047  0.07419703  0.18503782  1
  Gd  Gd33  1  0.65470653  0.48107320  0.08011043  1
  Gd  Gd34  1  0.52179969  0.51089985  0.26089985  1
  Gd  Gd35  1  0.15470653  0.58011043  0.98107320  1
  Gd  Gd36  1  0.12528953  0.69948656  0.31032734  1
  Gd  Gd37  1  0.34529347  0.32636667  0.42540390  1
  Gd  Gd38  1  0.84529347  0.92540390  0.82636667  1
  Gd  Gd39  1  0.47820031  0.48910015  0.73910015  1
  S  S40  1  0.64998705  0.39998705  0.25000000  1
  S  S41  1  0.46730605  0.86610994  0.75780799  1
  S  S42  1  0.90839184  0.53009631  0.88737241  1
  S  S43  1  0.35727610  0.96990369  0.87829553  1
  S  S44  1  0.77134283  0.25155888  0.83255835  1
  S  S45  1  0.14272390  0.62170447  0.53009631  1
  S  S46  1  0.96730605  0.20949805  0.60119610  1
  S  S47  1  0.14272390  0.02101944  0.61262759  1
  S  S48  1  0.77134283  0.01978395  0.93878448  1
  S  S49  1  0.40839184  0.38737241  0.03009631  1
  S  S50  1  0.41900053  0.16744165  0.43878448  1
  S  S51  1  0.91900053  0.93878448  0.66744165  1
  S  S52  1  0.39169805  0.60119610  0.13389006  1
  S  S53  1  0.39169805  0.29050195  0.25780799  1
  S  S54  1  0.40839184  0.52101944  0.37829553  1
  S  S55  1  0.41900053  0.75155888  0.98021605  1
  S  S56  1  0.53269395  0.89880390  0.29050195  1
  S  S57  1  0.89169805  0.75780799  0.79050195  1
  S  S58  1  0.14998705  0.75000000  0.89998705  1
  S  S59  1  0.64272390  0.03009631  0.12170447  1
  S  S60  1  0.35001295  0.60001295  0.75000000  1
  S  S61  1  0.09160816  0.12170447  0.97898056  1
  S  S62  1  0.91900053  0.48021605  0.25155888  1
  S  S63  1  0.85727610  0.37829553  0.46990369  1
  S  S64  1  0.64272390  0.11262759  0.52101944  1
  S  S65  1  0.64998705  0.75000000  0.39998705  1
  S  S66  1  0.08099947  0.06121552  0.33255835  1
  S  S67  1  0.03269395  0.74219201  0.63389006  1
  S  S68  1  0.60830195  0.39880390  0.86610994  1
  S  S69  1  0.14998705  0.89998705  0.25000000  1
  S  S70  1  0.72865717  0.66744165  0.24844112  1
  S  S71  1  0.85001295  0.10001295  0.75000000  1
  S  S72  1  0.85727610  0.97898056  0.38737241  1
  S  S73  1  0.35001295  0.25000000  0.60001295  1
  S  S74  1  0.58099947  0.83255835  0.56121552  1
  S  S75  1  0.59160816  0.61262759  0.96990369  1
  S  S76  1  0.96730605  0.25780799  0.36610994  1
  S  S77  1  0.03269395  0.79050195  0.39880390  1
  S  S78  1  0.58099947  0.24844112  0.01978395  1
  S  S79  1  0.90839184  0.87829553  0.02101944  1
  S  S80  1  0.09160816  0.46990369  0.11262759  1
  S  S81  1  0.22865717  0.74844112  0.16744165  1
  S  S82  1  0.22865717  0.98021605  0.06121552  1
  S  S83  1  0.35727610  0.88737241  0.47898056  1
  S  S84  1  0.89169805  0.63389006  0.10119610  1
  S  S85  1  0.10830195  0.36610994  0.89880390  1
  S  S86  1  0.08099947  0.51978395  0.74844112  1
  S  S87  1  0.60830195  0.70949805  0.74219201  1
  S  S88  1  0.10830195  0.24219201  0.20949805  1
  S  S89  1  0.85001295  0.25000000  0.10001295  1
  S  S90  1  0.27134283  0.33255835  0.75155888  1
  S  S91  1  0.27134283  0.43878448  0.51978395  1
  S  S92  1  0.46730605  0.10119610  0.70949805  1
  S  S93  1  0.53269395  0.13389006  0.24219201  1
  S  S94  1  0.72865717  0.56121552  0.48021605  1
  S  S95  1  0.59160816  0.47898056  0.62170447  1
  O  O96  1  0.75000000  0.37500000  0.62500000  1
  O  O97  1  0.75000000  0.87500000  0.12500000  1
  O  O98  1  0.25000000  0.62500000  0.37500000  1
  O  O99  1  0.25000000  0.12500000  0.87500000  1
