# generated using pymatgen
data_Na2UF6
_symmetry_space_group_name_H-M   'P 1'
_cell_length_a   6.15980600
_cell_length_b   6.15980684
_cell_length_c   7.25583699
_cell_angle_alpha   90.00000000
_cell_angle_beta   90.00000000
_cell_angle_gamma   120.00000200
_symmetry_Int_Tables_number   1
_chemical_formula_structural   Na2UF6
_chemical_formula_sum   'Na4 U2 F12'
_cell_volume   238.42526201
_cell_formula_units_Z   2
loop_
 _symmetry_equiv_pos_site_id
 _symmetry_equiv_pos_as_xyz
  1  'x, y, z'
loop_
 _atom_site_type_symbol
 _atom_site_label
 _atom_site_symmetry_multiplicity
 _atom_site_fract_x
 _atom_site_fract_y
 _atom_site_fract_z
 _atom_site_occupancy
  Na  Na0  1  0.00000000  0.00000000  0.03157307  1
  Na  Na1  1  0.66666700  0.33333300  0.62677565  1
  Na  Na2  1  0.00000000  -0.00000000  0.51351735  1
  Na  Na3  1  0.33333300  0.66666700  0.37911650  1
  U  U4  1  0.33333300  0.66666700  0.85857138  1
  U  U5  1  0.66666700  0.33333300  0.14208292  1
  F  F6  1  0.90388590  0.62089438  0.35178835  1
  F  F7  1  0.61035050  0.70053365  0.64482509  1
  F  F8  1  0.31442021  0.91653038  0.10877456  1
  F  F9  1  0.91842356  0.61454443  0.89493304  1
  F  F10  1  0.69612087  0.08157644  0.89493304  1
  F  F11  1  0.60211018  0.68557979  0.10877456  1
  F  F12  1  0.71700849  0.09611410  0.35178835  1
  F  F13  1  0.08346962  0.39788982  0.10877456  1
  F  F14  1  0.38545557  0.30387913  0.89493304  1
  F  F15  1  0.37910562  0.28299151  0.35178835  1
  F  F16  1  0.29946635  0.90981685  0.64482509  1
  F  F17  1  0.09018315  0.38964950  0.64482509  1
