# generated using pymatgen
data_Ba3TiNb4O15
_symmetry_space_group_name_H-M   'P 1'
_cell_length_a   4.13440304
_cell_length_b   12.69056100
_cell_length_c   12.69056100
_cell_angle_alpha   90.00000000
_cell_angle_beta   90.00000000
_cell_angle_gamma   90.00000000
_symmetry_Int_Tables_number   1
_chemical_formula_structural   Ba3TiNb4O15
_chemical_formula_sum   'Ba6 Ti2 Nb8 O30'
_cell_volume   665.84700907
_cell_formula_units_Z   2
loop_
 _symmetry_equiv_pos_site_id
 _symmetry_equiv_pos_as_xyz
  1  'x, y, z'
loop_
 _atom_site_type_symbol
 _atom_site_label
 _atom_site_symmetry_multiplicity
 _atom_site_fract_x
 _atom_site_fract_y
 _atom_site_fract_z
 _atom_site_occupancy
  Ba  Ba0  1  0.97939902  0.66323390  0.83676610  1
  Ba  Ba1  1  0.97939902  0.33676610  0.16323390  1
  Ba  Ba2  1  0.98683219  0.00000000  0.00000000  1
  Ba  Ba3  1  0.97939902  0.83676610  0.33676610  1
  Ba  Ba4  1  0.97939902  0.16323390  0.66323390  1
  Ba  Ba5  1  0.98683219  0.50000000  0.50000000  1
  Ti  Ti6  1  0.45143998  0.00000000  0.50000000  1
  Ti  Ti7  1  0.45143998  0.50000000  0.00000000  1
  Nb  Nb8  1  0.46809243  0.42659538  0.71665978  1
  Nb  Nb9  1  0.46809243  0.71665978  0.57340462  1
  Nb  Nb10  1  0.46809243  0.92659538  0.78334022  1
  Nb  Nb11  1  0.46809243  0.57340462  0.28334022  1
  Nb  Nb12  1  0.46809243  0.21665978  0.92659538  1
  Nb  Nb13  1  0.46809243  0.07340462  0.21665978  1
  Nb  Nb14  1  0.46809243  0.78334022  0.07340462  1
  Nb  Nb15  1  0.46809243  0.28334022  0.42659538  1
  O  O16  1  0.01413601  0.79141260  0.07514484  1
  O  O17  1  0.51376201  0.35961660  0.56828498  1
  O  O18  1  0.51376201  0.64038340  0.43171502  1
  O  O19  1  0.01413601  0.20858740  0.92485516  1
  O  O20  1  0.01413601  0.29141260  0.42485516  1
  O  O21  1  0.02925549  0.00000000  0.50000000  1
  O  O22  1  0.02925549  0.50000000  0.00000000  1
  O  O23  1  0.51418175  0.15466404  0.50625731  1
  O  O24  1  0.51199276  0.28142412  0.78142412  1
  O  O25  1  0.51376201  0.43171502  0.35961660  1
  O  O26  1  0.01413601  0.07514484  0.20858740  1
  O  O27  1  0.51199276  0.78142412  0.71857588  1
  O  O28  1  0.01413601  0.70858740  0.57514484  1
  O  O29  1  0.51418175  0.00625731  0.65466404  1
  O  O30  1  0.01413601  0.57514484  0.29141260  1
  O  O31  1  0.51376201  0.56828498  0.64038340  1
  O  O32  1  0.51376201  0.93171502  0.14038340  1
  O  O33  1  0.51418175  0.50625731  0.84533596  1
  O  O34  1  0.01413601  0.42485516  0.70858740  1
  O  O35  1  0.51376201  0.06828498  0.85961660  1
  O  O36  1  0.51418175  0.99374269  0.34533596  1
  O  O37  1  0.51418175  0.65466404  0.99374269  1
  O  O38  1  0.51376201  0.14038340  0.06828498  1
  O  O39  1  0.51418175  0.49374269  0.15466404  1
  O  O40  1  0.01413601  0.92485516  0.79141260  1
  O  O41  1  0.51376201  0.85961660  0.93171502  1
  O  O42  1  0.51418175  0.34533596  0.00625731  1
  O  O43  1  0.51418175  0.84533596  0.49374269  1
  O  O44  1  0.51199276  0.71857588  0.21857588  1
  O  O45  1  0.51199276  0.21857588  0.28142412  1
