# generated using pymatgen
data_KNdPdO3
_symmetry_space_group_name_H-M   'P 1'
_cell_length_a   3.97495071
_cell_length_b   6.97238546
_cell_length_c   7.57404602
_cell_angle_alpha   104.29759104
_cell_angle_beta   90.00000000
_cell_angle_gamma   106.56181056
_symmetry_Int_Tables_number   1
_chemical_formula_structural   KNdPdO3
_chemical_formula_sum   'K2 Nd2 Pd2 O6'
_cell_volume   194.41221894
_cell_formula_units_Z   2
loop_
 _symmetry_equiv_pos_site_id
 _symmetry_equiv_pos_as_xyz
  1  'x, y, z'
loop_
 _atom_site_type_symbol
 _atom_site_label
 _atom_site_symmetry_multiplicity
 _atom_site_fract_x
 _atom_site_fract_y
 _atom_site_fract_z
 _atom_site_occupancy
  K  K0  1  0.64369998  0.28739996  0.56502542  1
  K  K1  1  0.35630002  0.71260004  0.43497458  1
  Nd  Nd2  1  0.35049301  0.70098602  0.92149460  1
  Nd  Nd3  1  0.64950699  0.29901398  0.07850540  1
  Pd  Pd4  1  0.99321877  0.98643753  0.22763375  1
  Pd  Pd5  1  0.00678123  0.01356247  0.77236625  1
  O  O6  1  0.84760627  0.69521253  0.72182613  1
  O  O7  1  0.49333576  0.98667153  0.18838903  1
  O  O8  1  0.16910484  0.33820967  0.86723403  1
  O  O9  1  0.15239373  0.30478747  0.27817387  1
  O  O10  1  0.83089516  0.66179033  0.13276597  1
  O  O11  1  0.50666424  0.01332847  0.81161097  1
