# generated using pymatgen
data_Co2P2O7
_symmetry_space_group_name_H-M   'P 1'
_cell_length_a   4.53120908
_cell_length_b   5.31373408
_cell_length_c   5.38683462
_cell_angle_alpha   104.05287800
_cell_angle_beta   97.90255525
_cell_angle_gamma   98.27913513
_symmetry_Int_Tables_number   1
_chemical_formula_structural   Co2P2O7
_chemical_formula_sum   'Co2 P2 O7'
_cell_volume   122.48367519
_cell_formula_units_Z   1
loop_
 _symmetry_equiv_pos_site_id
 _symmetry_equiv_pos_as_xyz
  1  'x, y, z'
loop_
 _atom_site_type_symbol
 _atom_site_label
 _atom_site_symmetry_multiplicity
 _atom_site_fract_x
 _atom_site_fract_y
 _atom_site_fract_z
 _atom_site_occupancy
  Co  Co0  1  0.49227941  0.31296140  0.68705644  1
  Co  Co1  1  0.50772440  0.68705414  0.31293310  1
  P  P2  1  0.09468234  0.78186893  0.78539834  1
  P  P3  1  0.90531583  0.21812836  0.21460171  1
  O  O4  1  0.71991864  0.07234957  0.37320733  1
  O  O5  1  0.27787903  0.61999755  0.92655311  1
  O  O6  1  0.21094006  0.37965494  0.37497145  1
  O  O7  1  0.00001185  0.99996826  0.00003611  1
  O  O8  1  0.28006221  0.92767608  0.62680366  1
  O  O9  1  0.78905095  0.62036603  0.62502319  1
  O  O10  1  0.72213427  0.37997673  0.07341557  1
