# generated using pymatgen
data_S
_symmetry_space_group_name_H-M   'P 1'
_cell_length_a   9.55845829
_cell_length_b   14.21192087
_cell_length_c   19.74620103
_cell_angle_alpha   90.00000000
_cell_angle_beta   90.00000000
_cell_angle_gamma   90.00000000
_symmetry_Int_Tables_number   1
_chemical_formula_structural   S
_chemical_formula_sum   S80
_cell_volume   2682.40397644
_cell_formula_units_Z   80
loop_
 _symmetry_equiv_pos_site_id
 _symmetry_equiv_pos_as_xyz
  1  'x, y, z'
loop_
 _atom_site_type_symbol
 _atom_site_label
 _atom_site_symmetry_multiplicity
 _atom_site_fract_x
 _atom_site_fract_y
 _atom_site_fract_z
 _atom_site_occupancy
  S  S0  1  0.28874737  0.98487221  0.54886813  1
  S  S1  1  0.63326596  0.73061297  0.24235958  1
  S  S2  1  0.76844778  0.30264792  0.55142948  1
  S  S3  1  0.23155222  0.69735208  0.44857052  1
  S  S4  1  0.53605846  0.80123032  0.32077701  1
  S  S5  1  0.07475359  0.10164742  0.07298074  1
  S  S6  1  0.21125263  0.98487221  0.45113187  1
  S  S7  1  0.78874737  0.01512779  0.54886813  1
  S  S8  1  0.57475359  0.39835258  0.42701926  1
  S  S9  1  0.71125263  0.51512779  0.04886813  1
  S  S10  1  0.73155222  0.80264792  0.05142948  1
  S  S11  1  0.86673404  0.23061297  0.74235958  1
  S  S12  1  0.80517641  0.40545825  0.10028681  1
  S  S13  1  0.66591091  0.79412306  0.40421808  1
  S  S14  1  0.86673404  0.73061297  0.75764042  1
  S  S15  1  0.32928146  0.47463175  0.59376323  1
  S  S16  1  0.17071854  0.47463175  0.40623677  1
  S  S17  1  0.82928146  0.52536825  0.59376323  1
  S  S18  1  0.91956292  0.09005928  0.74883094  1
  S  S19  1  0.69482359  0.90545825  0.60028681  1
  S  S20  1  0.73155222  0.30264792  0.44857052  1
  S  S21  1  0.26844778  0.69735208  0.55142948  1
  S  S22  1  0.63326596  0.23061297  0.25764042  1
  S  S23  1  0.57475359  0.89835258  0.07298074  1
  S  S24  1  0.73289350  0.02406644  0.19422747  1
  S  S25  1  0.46394154  0.19876968  0.67922299  1
  S  S26  1  0.03605846  0.19876968  0.32077701  1
  S  S27  1  0.76844778  0.80264792  0.94857052  1
  S  S28  1  0.76710650  0.52406644  0.69422747  1
  S  S29  1  0.71125263  0.01512779  0.45113187  1
  S  S30  1  0.82928146  0.02536825  0.90623677  1
  S  S31  1  0.78874737  0.51512779  0.95113187  1
  S  S32  1  0.69482359  0.40545825  0.89971319  1
  S  S33  1  0.53605846  0.30123032  0.17922299  1
  S  S34  1  0.21125263  0.48487221  0.04886813  1
  S  S35  1  0.30517641  0.09454175  0.39971319  1
  S  S36  1  0.33408909  0.20587694  0.59578192  1
  S  S37  1  0.58043708  0.09005928  0.25116906  1
  S  S38  1  0.66591091  0.29412306  0.09578192  1
  S  S39  1  0.33408909  0.70587694  0.90421808  1
  S  S40  1  0.96394154  0.30123032  0.82077701  1
  S  S41  1  0.80517641  0.90545825  0.39971319  1
  S  S42  1  0.73289350  0.52406644  0.30577253  1
  S  S43  1  0.26844778  0.19735208  0.94857052  1
  S  S44  1  0.07475359  0.60164742  0.42701926  1
  S  S45  1  0.13326596  0.26938703  0.24235958  1
  S  S46  1  0.92524641  0.89835258  0.92701926  1
  S  S47  1  0.96394154  0.80123032  0.67922299  1
  S  S48  1  0.08043708  0.90994072  0.25116906  1
  S  S49  1  0.28874737  0.48487221  0.95113187  1
  S  S50  1  0.23155222  0.19735208  0.05142948  1
  S  S51  1  0.30517641  0.59454175  0.10028681  1
  S  S52  1  0.32928146  0.97463175  0.90623677  1
  S  S53  1  0.36673404  0.26938703  0.75764042  1
  S  S54  1  0.67071854  0.52536825  0.40623677  1
  S  S55  1  0.16591091  0.20587694  0.40421808  1
  S  S56  1  0.26710650  0.97593356  0.80577253  1
  S  S57  1  0.19482359  0.59454175  0.89971319  1
  S  S58  1  0.67071854  0.02536825  0.09376323  1
  S  S59  1  0.16591091  0.70587694  0.09578192  1
  S  S60  1  0.42524641  0.10164742  0.92701926  1
  S  S61  1  0.26710650  0.47593356  0.69422747  1
  S  S62  1  0.76710650  0.02406644  0.80577253  1
  S  S63  1  0.23289350  0.97593356  0.19422747  1
  S  S64  1  0.83408909  0.79412306  0.59578192  1
  S  S65  1  0.41956292  0.90994072  0.74883094  1
  S  S66  1  0.23289350  0.47593356  0.30577253  1
  S  S67  1  0.83408909  0.29412306  0.90421808  1
  S  S68  1  0.03605846  0.69876968  0.17922299  1
  S  S69  1  0.92524641  0.39835258  0.57298074  1
  S  S70  1  0.46394154  0.69876968  0.82077701  1
  S  S71  1  0.08043708  0.40994072  0.24883094  1
  S  S72  1  0.17071854  0.97463175  0.09376323  1
  S  S73  1  0.36673404  0.76938703  0.74235958  1
  S  S74  1  0.42524641  0.60164742  0.57298074  1
  S  S75  1  0.41956292  0.40994072  0.75116906  1
  S  S76  1  0.19482359  0.09454175  0.60028681  1
  S  S77  1  0.13326596  0.76938703  0.25764042  1
  S  S78  1  0.58043708  0.59005928  0.24883094  1
  S  S79  1  0.91956292  0.59005928  0.75116906  1
