# generated using pymatgen
data_Cu2SeO4
_symmetry_space_group_name_H-M   'P 1'
_cell_length_a   6.02848685
_cell_length_b   7.12105597
_cell_length_c   8.53941405
_cell_angle_alpha   92.13380638
_cell_angle_beta   90.00000000
_cell_angle_gamma   90.00000000
_symmetry_Int_Tables_number   1
_chemical_formula_structural   Cu2SeO4
_chemical_formula_sum   'Cu8 Se4 O16'
_cell_volume   366.33595344
_cell_formula_units_Z   4
loop_
 _symmetry_equiv_pos_site_id
 _symmetry_equiv_pos_as_xyz
  1  'x, y, z'
loop_
 _atom_site_type_symbol
 _atom_site_label
 _atom_site_symmetry_multiplicity
 _atom_site_fract_x
 _atom_site_fract_y
 _atom_site_fract_z
 _atom_site_occupancy
  Cu  Cu0  1  0.70303570  0.25341160  0.75788304  1
  Cu  Cu1  1  0.20303570  0.24658840  0.74211696  1
  Cu  Cu2  1  0.29696430  0.74658840  0.24211696  1
  Cu  Cu3  1  0.50000000  0.50000000  0.50000000  1
  Cu  Cu4  1  0.00000000  0.00000000  0.00000000  1
  Cu  Cu5  1  0.00000000  0.50000000  0.00000000  1
  Cu  Cu6  1  0.50000000  0.00000000  0.50000000  1
  Cu  Cu7  1  0.79696430  0.75341160  0.25788304  1
  Se  Se8  1  0.91882664  0.23587821  0.40052245  1
  Se  Se9  1  0.08117336  0.76412179  0.59947755  1
  Se  Se10  1  0.41882664  0.26412179  0.09947755  1
  Se  Se11  1  0.58117336  0.73587821  0.90052245  1
  O  O12  1  0.72078726  0.94787546  0.89834252  1
  O  O13  1  0.27921274  0.05212454  0.10165748  1
  O  O14  1  0.93608087  0.18889532  0.60183796  1
  O  O15  1  0.53540396  0.74654422  0.40246967  1
  O  O16  1  0.78833856  0.58002006  0.84137657  1
  O  O17  1  0.28833856  0.91997994  0.65862343  1
  O  O18  1  0.96459604  0.24654422  0.90246967  1
  O  O19  1  0.77921274  0.44787546  0.39834252  1
  O  O20  1  0.06391913  0.81110468  0.39816204  1
  O  O21  1  0.03540396  0.75345578  0.09753033  1
  O  O22  1  0.22078726  0.55212454  0.60165748  1
  O  O23  1  0.71166144  0.08002006  0.34137657  1
  O  O24  1  0.43608087  0.31110468  0.89816204  1
  O  O25  1  0.21166144  0.41997994  0.15862343  1
  O  O26  1  0.56391913  0.68889532  0.10183796  1
  O  O27  1  0.46459604  0.25345578  0.59753033  1
