# generated using pymatgen
data_Cu4As2O9
_symmetry_space_group_name_H-M   'P 1'
_cell_length_a   6.46449876
_cell_length_b   7.83313349
_cell_length_c   8.36564373
_cell_angle_alpha   98.66976676
_cell_angle_beta   112.22846326
_cell_angle_gamma   97.82812280
_symmetry_Int_Tables_number   1
_chemical_formula_structural   Cu4As2O9
_chemical_formula_sum   'Cu8 As4 O18'
_cell_volume   378.91071486
_cell_formula_units_Z   2
loop_
 _symmetry_equiv_pos_site_id
 _symmetry_equiv_pos_as_xyz
  1  'x, y, z'
loop_
 _atom_site_type_symbol
 _atom_site_label
 _atom_site_symmetry_multiplicity
 _atom_site_fract_x
 _atom_site_fract_y
 _atom_site_fract_z
 _atom_site_occupancy
  Cu  Cu0  1  0.62142046  0.39024963  0.74563131  1
  Cu  Cu1  1  0.14224954  0.87728228  0.08439651  1
  Cu  Cu2  1  0.34367251  0.83140762  0.54895283  1
  Cu  Cu3  1  0.09686355  0.35748618  0.73285239  1
  Cu  Cu4  1  0.85775046  0.12271772  0.91560349  1
  Cu  Cu5  1  0.37857954  0.60975037  0.25436869  1
  Cu  Cu6  1  0.90313645  0.64251382  0.26714761  1
  Cu  Cu7  1  0.65632749  0.16859238  0.45104717  1
  As  As8  1  0.13295328  0.23170615  0.35151667  1
  As  As9  1  0.50118402  0.28808379  0.08606331  1
  As  As10  1  0.86704672  0.76829385  0.64848333  1
  As  As11  1  0.49881598  0.71191621  0.91393669  1
  O  O12  1  0.49712793  0.88199836  0.80592371  1
  O  O13  1  0.37921753  0.17608362  0.49144946  1
  O  O14  1  0.22582333  0.30529657  0.96860552  1
  O  O15  1  0.77417667  0.69470343  0.03139448  1
  O  O16  1  0.62352703  0.48986636  0.24803695  1
  O  O17  1  0.66056215  0.27912610  0.96007267  1
  O  O18  1  0.00647017  0.93144004  0.84361826  1
  O  O19  1  0.37647297  0.51013364  0.75196305  1
  O  O20  1  0.80603168  0.22580846  0.70961765  1
  O  O21  1  0.99352983  0.06855996  0.15638174  1
  O  O22  1  0.03021685  0.77065690  0.52418526  1
  O  O23  1  0.19396832  0.77419154  0.29038235  1
  O  O24  1  0.33943785  0.72087390  0.03992733  1
  O  O25  1  0.50287207  0.11800164  0.19407629  1
  O  O26  1  0.17018639  0.44080405  0.31561473  1
  O  O27  1  0.82981361  0.55919595  0.68438527  1
  O  O28  1  0.96978315  0.22934310  0.47581474  1
  O  O29  1  0.62078247  0.82391638  0.50855054  1
