# generated using pymatgen
data_PBrNF
_symmetry_space_group_name_H-M   'P 1'
_cell_length_a   8.28966444
_cell_length_b   8.35242567
_cell_length_c   8.35242557
_cell_angle_alpha   101.45201257
_cell_angle_beta   90.00000000
_cell_angle_gamma   90.00000000
_symmetry_Int_Tables_number   1
_chemical_formula_structural   PBrNF
_chemical_formula_sum   'P6 Br6 N6 F6'
_cell_volume   566.79855698
_cell_formula_units_Z   6
loop_
 _symmetry_equiv_pos_site_id
 _symmetry_equiv_pos_as_xyz
  1  'x, y, z'
loop_
 _atom_site_type_symbol
 _atom_site_label
 _atom_site_symmetry_multiplicity
 _atom_site_fract_x
 _atom_site_fract_y
 _atom_site_fract_z
 _atom_site_occupancy
  P  P0  1  0.75523065  0.66548866  0.66548866  1
  P  P1  1  0.98974271  0.68910995  0.90315548  1
  P  P2  1  0.98974271  0.90315548  0.68910995  1
  P  P3  1  0.25523065  0.33451134  0.33451134  1
  P  P4  1  0.48974271  0.09684452  0.31089005  1
  P  P5  1  0.48974271  0.31089005  0.09684452  1
  Br  Br6  1  0.50908247  0.73849113  0.73849113  1
  Br  Br7  1  0.43058501  0.83840184  0.24273856  1
  Br  Br8  1  0.00908247  0.26150887  0.26150887  1
  Br  Br9  1  0.93058501  0.75726144  0.16159816  1
  Br  Br10  1  0.43058501  0.24273856  0.83840184  1
  Br  Br11  1  0.93058501  0.16159816  0.75726144  1
  N  N12  1  0.34461025  0.19686721  0.40855888  1
  N  N13  1  0.06762354  0.83893581  0.83893581  1
  N  N14  1  0.56762354  0.16106419  0.16106419  1
  N  N15  1  0.34461025  0.40855888  0.19686721  1
  N  N16  1  0.84461025  0.59144112  0.80313279  1
  N  N17  1  0.84461025  0.80313279  0.59144112  1
  F  F18  1  0.12799450  0.91023978  0.56212144  1
  F  F19  1  0.62799450  0.08976022  0.43787856  1
  F  F20  1  0.21959840  0.48038346  0.48038346  1
  F  F21  1  0.62799450  0.43787856  0.08976022  1
  F  F22  1  0.12799450  0.56212144  0.91023978  1
  F  F23  1  0.71959840  0.51961654  0.51961654  1
