# generated using pymatgen
data_Mg6AlSb
_symmetry_space_group_name_H-M   'P 1'
_cell_length_a   6.24194235
_cell_length_b   6.37172654
_cell_length_c   5.23465577
_cell_angle_alpha   90.00000000
_cell_angle_beta   90.00000000
_cell_angle_gamma   120.69022518
_symmetry_Int_Tables_number   1
_chemical_formula_structural   Mg6AlSb
_chemical_formula_sum   'Mg6 Al1 Sb1'
_cell_volume   179.03289592
_cell_formula_units_Z   1
loop_
 _symmetry_equiv_pos_site_id
 _symmetry_equiv_pos_as_xyz
  1  'x, y, z'
loop_
 _atom_site_type_symbol
 _atom_site_label
 _atom_site_symmetry_multiplicity
 _atom_site_fract_x
 _atom_site_fract_y
 _atom_site_fract_z
 _atom_site_occupancy
  Mg  Mg0  1  0.66729168  0.33301036  0.25000000  1
  Mg  Mg1  1  0.66729168  0.83428032  0.25000000  1
  Mg  Mg2  1  0.33169271  0.17096911  0.75000000  1
  Mg  Mg3  1  0.33169271  0.66072461  0.75000000  1
  Mg  Mg4  1  0.83861526  0.16930813  0.75000000  1
  Mg  Mg5  1  0.83289935  0.66645018  0.75000000  1
  Al  Al6  1  0.16479436  0.33239668  0.25000000  1
  Sb  Sb7  1  0.16572225  0.83286063  0.25000000  1
