# generated using pymatgen
data_PNF2
_symmetry_space_group_name_H-M   'P 1'
_cell_length_a   7.52002028
_cell_length_b   9.04338885
_cell_length_c   13.73837718
_cell_angle_alpha   90.00000000
_cell_angle_beta   90.00000000
_cell_angle_gamma   90.00000000
_symmetry_Int_Tables_number   1
_chemical_formula_structural   PNF2
_chemical_formula_sum   'P12 N12 F24'
_cell_volume   934.29850191
_cell_formula_units_Z   12
loop_
 _symmetry_equiv_pos_site_id
 _symmetry_equiv_pos_as_xyz
  1  'x, y, z'
loop_
 _atom_site_type_symbol
 _atom_site_label
 _atom_site_symmetry_multiplicity
 _atom_site_fract_x
 _atom_site_fract_y
 _atom_site_fract_z
 _atom_site_occupancy
  P  P0  1  0.31624842  0.44972795  0.16142420  1
  P  P1  1  0.18375158  0.94972795  0.66142420  1
  P  P2  1  0.15915005  0.96006897  0.86060131  1
  P  P3  1  0.97599155  0.47833087  0.77055982  1
  P  P4  1  0.02400845  0.52166913  0.27055982  1
  P  P5  1  0.47599155  0.02166913  0.77055982  1
  P  P6  1  0.52400845  0.97833087  0.27055982  1
  P  P7  1  0.65915005  0.53993103  0.86060131  1
  P  P8  1  0.68375158  0.55027205  0.66142420  1
  P  P9  1  0.84084995  0.03993103  0.36060131  1
  P  P10  1  0.81624842  0.05027205  0.16142420  1
  P  P11  1  0.34084995  0.46006897  0.36060131  1
  N  N12  1  0.42803829  0.42783691  0.25793116  1
  N  N13  1  0.86128472  0.49234142  0.86648127  1
  N  N14  1  0.61139484  0.01214510  0.16839207  1
  N  N15  1  0.38860516  0.98785490  0.66839207  1
  N  N16  1  0.92803829  0.07216309  0.25793116  1
  N  N17  1  0.13871528  0.50765858  0.36648127  1
  N  N18  1  0.88860516  0.51214510  0.66839207  1
  N  N19  1  0.11139484  0.48785490  0.16839207  1
  N  N20  1  0.36128472  0.00765858  0.86648127  1
  N  N21  1  0.63871528  0.99234142  0.36648127  1
  N  N22  1  0.07196171  0.92783691  0.75793116  1
  N  N23  1  0.57196171  0.57216309  0.75793116  1
  F  F24  1  0.65814230  0.68759651  0.59487945  1
  F  F25  1  0.12672990  0.82524765  0.92871269  1
  F  F26  1  0.64912345  0.92886698  0.78166017  1
  F  F27  1  0.34185770  0.31240349  0.09487945  1
  F  F28  1  0.95610930  0.92437409  0.41606322  1
  F  F29  1  0.45610930  0.57562591  0.41606322  1
  F  F30  1  0.37327010  0.32524765  0.42871269  1
  F  F31  1  0.87327010  0.17475235  0.42871269  1
  F  F32  1  0.35087655  0.07113302  0.28166017  1
  F  F33  1  0.06479951  0.32225637  0.76728723  1
  F  F34  1  0.90993297  0.93297305  0.09600641  1
  F  F35  1  0.43520049  0.82225637  0.26728723  1
  F  F36  1  0.62672990  0.67475235  0.92871269  1
  F  F37  1  0.04389070  0.07562591  0.91606322  1
  F  F38  1  0.84185770  0.18759651  0.09487945  1
  F  F39  1  0.09006703  0.06702695  0.59600641  1
  F  F40  1  0.93520049  0.67774363  0.26728723  1
  F  F41  1  0.14912345  0.57113302  0.78166017  1
  F  F42  1  0.15814230  0.81240349  0.59487945  1
  F  F43  1  0.56479951  0.17774363  0.76728723  1
  F  F44  1  0.40993297  0.56702695  0.09600641  1
  F  F45  1  0.59006703  0.43297305  0.59600641  1
  F  F46  1  0.85087655  0.42886698  0.28166017  1
  F  F47  1  0.54389070  0.42437409  0.91606322  1
