# generated using pymatgen
data_SiO2
_symmetry_space_group_name_H-M   'P 1'
_cell_length_a   12.67612842
_cell_length_b   12.67612796
_cell_length_c   14.55329589
_cell_angle_alpha   106.62868814
_cell_angle_beta   106.62868752
_cell_angle_gamma   90.20577127
_symmetry_Int_Tables_number   1
_chemical_formula_structural   SiO2
_chemical_formula_sum   'Si32 O64'
_cell_volume   2137.65481102
_cell_formula_units_Z   32
loop_
 _symmetry_equiv_pos_site_id
 _symmetry_equiv_pos_as_xyz
  1  'x, y, z'
loop_
 _atom_site_type_symbol
 _atom_site_label
 _atom_site_symmetry_multiplicity
 _atom_site_fract_x
 _atom_site_fract_y
 _atom_site_fract_z
 _atom_site_occupancy
  Si  Si0  1  0.33752062  0.62694084  0.38730405  1
  Si  Si1  1  0.66597566  0.99444680  0.60637776  1
  Si  Si2  1  0.22448556  0.38891297  0.25456055  1
  Si  Si3  1  0.75280296  0.41753481  0.11765503  1
  Si  Si4  1  0.33131807  0.24638330  0.38512697  1
  Si  Si5  1  0.66247938  0.37305916  0.61269595  1
  Si  Si6  1  0.24638330  0.33131807  0.88512697  1
  Si  Si7  1  0.99604893  0.41359704  0.11350731  1
  Si  Si8  1  0.58246519  0.24719704  0.38234497  1
  Si  Si9  1  0.41753481  0.75280296  0.61765503  1
  Si  Si10  1  0.66868193  0.75361670  0.61487303  1
  Si  Si11  1  0.58640296  0.00395107  0.38649269  1
  Si  Si12  1  0.40903021  0.37062161  0.61521776  1
  Si  Si13  1  0.24719704  0.58246519  0.88234497  1
  Si  Si14  1  0.00395107  0.58640296  0.88649269  1
  Si  Si15  1  0.61108703  0.77551444  0.24543945  1
  Si  Si16  1  0.37305916  0.66247938  0.11269595  1
  Si  Si17  1  0.38952035  0.61047965  0.75000000  1
  Si  Si18  1  0.62937839  0.59096979  0.88478224  1
  Si  Si19  1  0.22542825  0.77457175  0.25000000  1
  Si  Si20  1  0.62694084  0.33752062  0.88730405  1
  Si  Si21  1  0.33402434  0.00555320  0.39362224  1
  Si  Si22  1  0.77551444  0.61108703  0.74543945  1
  Si  Si23  1  0.37062161  0.40903021  0.11521776  1
  Si  Si24  1  0.41359704  0.99604893  0.61350731  1
  Si  Si25  1  0.75361670  0.66868193  0.11487303  1
  Si  Si26  1  0.38891297  0.22448556  0.75456055  1
  Si  Si27  1  0.61047965  0.38952035  0.25000000  1
  Si  Si28  1  0.77457175  0.22542825  0.75000000  1
  Si  Si29  1  0.00555320  0.33402434  0.89362224  1
  Si  Si30  1  0.59096979  0.62937839  0.38478224  1
  Si  Si31  1  0.99444680  0.66597566  0.10637776  1
  O  O32  1  0.45727594  0.99049032  0.38189856  1
  O  O33  1  0.23947001  0.28623422  0.30170596  1
  O  O34  1  0.34178449  0.32908940  0.49641552  1
  O  O35  1  0.99049032  0.45727594  0.88189856  1
  O  O36  1  0.32946089  0.64805030  0.99325246  1
  O  O37  1  0.87890225  0.70828446  0.12347546  1
  O  O38  1  0.71299382  0.62823172  0.83123867  1
  O  O39  1  0.75106329  0.09417947  0.69115674  1
  O  O40  1  0.75001280  0.55022953  0.13712275  1
  O  O41  1  0.24893671  0.90582053  0.30884326  1
  O  O42  1  0.35194970  0.67053911  0.50674754  1
  O  O43  1  0.70828446  0.87890225  0.62347546  1
  O  O44  1  0.00950968  0.54272406  0.11810144  1
  O  O45  1  0.12109775  0.29171554  0.87652454  1
  O  O46  1  0.32908940  0.34178449  0.99641552  1
  O  O47  1  0.65821551  0.67091060  0.50358448  1
  O  O48  1  0.09298478  0.39192322  0.20474916  1
  O  O49  1  0.37784189  0.49437926  0.66160769  1
  O  O50  1  0.90701522  0.60807678  0.79525084  1
  O  O51  1  0.76052999  0.71376578  0.69829404  1
  O  O52  1  0.60807678  0.90701522  0.29525084  1
  O  O53  1  0.71376578  0.76052999  0.19829404  1
  O  O54  1  0.90582053  0.24893671  0.80884326  1
  O  O55  1  0.70548727  0.26032464  0.83100874  1
  O  O56  1  0.62215811  0.50562074  0.33839231  1
  O  O57  1  0.50562074  0.62215811  0.83839231  1
  O  O58  1  0.00457553  0.33580028  0.00578261  1
  O  O59  1  0.50222472  0.27746528  0.84479652  1
  O  O60  1  0.44977047  0.24998720  0.36287725  1
  O  O61  1  0.54272406  0.00950968  0.61810144  1
  O  O62  1  0.62924401  0.45806435  0.86814655  1
  O  O63  1  0.72253472  0.49777528  0.65520348  1
  O  O64  1  0.55022953  0.75001280  0.63712275  1
  O  O65  1  0.61620873  0.28777423  0.29772793  1
  O  O66  1  0.67091060  0.65821551  0.00358448  1
  O  O67  1  0.09417947  0.75106329  0.19115674  1
  O  O68  1  0.27746528  0.50222472  0.34479652  1
  O  O69  1  0.39192322  0.09298478  0.70474916  1
  O  O70  1  0.38327227  0.87787904  0.62682838  1
  O  O71  1  0.87787904  0.38327227  0.12682838  1
  O  O72  1  0.38379127  0.71222577  0.70227207  1
  O  O73  1  0.12212096  0.61672773  0.87317162  1
  O  O74  1  0.49437926  0.37784189  0.16160769  1
  O  O75  1  0.28623422  0.23947001  0.80170596  1
  O  O76  1  0.54193565  0.37075599  0.63185345  1
  O  O77  1  0.29171554  0.12109775  0.37652454  1
  O  O78  1  0.24998720  0.44977047  0.86287725  1
  O  O79  1  0.33580028  0.00457553  0.50578261  1
  O  O80  1  0.28777423  0.61620873  0.79772793  1
  O  O81  1  0.26032464  0.70548727  0.33100874  1
  O  O82  1  0.62823172  0.71299382  0.33123867  1
  O  O83  1  0.37075599  0.54193565  0.13185345  1
  O  O84  1  0.64805030  0.32946089  0.49325246  1
  O  O85  1  0.37176828  0.28700618  0.66876133  1
  O  O86  1  0.61672773  0.12212096  0.37317162  1
  O  O87  1  0.73967536  0.29451273  0.66899126  1
  O  O88  1  0.66419972  0.99542447  0.49421739  1
  O  O89  1  0.45806435  0.62924401  0.36814655  1
  O  O90  1  0.29451273  0.73967536  0.16899126  1
  O  O91  1  0.71222577  0.38379127  0.20227207  1
  O  O92  1  0.67053911  0.35194970  0.00674754  1
  O  O93  1  0.99542447  0.66419972  0.99421739  1
  O  O94  1  0.49777528  0.72253472  0.15520348  1
  O  O95  1  0.28700618  0.37176828  0.16876133  1
