# generated using pymatgen
data_Al(PO3)3
_symmetry_space_group_name_H-M   'P 1'
_cell_length_a   11.09026265
_cell_length_b   11.09026284
_cell_length_c   9.32589588
_cell_angle_alpha   90.00000000
_cell_angle_beta   90.00000000
_cell_angle_gamma   119.99999941
_symmetry_Int_Tables_number   1
_chemical_formula_structural   Al(PO3)3
_chemical_formula_sum   'Al6 P18 O54'
_cell_volume   993.35588116
_cell_formula_units_Z   6
loop_
 _symmetry_equiv_pos_site_id
 _symmetry_equiv_pos_as_xyz
  1  'x, y, z'
loop_
 _atom_site_type_symbol
 _atom_site_label
 _atom_site_symmetry_multiplicity
 _atom_site_fract_x
 _atom_site_fract_y
 _atom_site_fract_z
 _atom_site_occupancy
  Al  Al0  1  0.33333300  0.66666700  0.00197970  1
  Al  Al1  1  0.66666700  0.33333300  0.49802030  1
  Al  Al2  1  0.66666700  0.33333300  0.99802030  1
  Al  Al3  1  0.33333300  0.66666700  0.50197970  1
  Al  Al4  1  0.00000000  0.00000000  0.50000000  1
  Al  Al5  1  0.00000000  0.00000000  0.00000000  1
  P  P6  1  1.00000000  0.20401570  0.25000000  1
  P  P7  1  0.79598430  0.00000000  0.75000000  1
  P  P8  1  0.15899691  0.71247172  0.25666600  1
  P  P9  1  0.20401570  0.20401570  0.75000000  1
  P  P10  1  0.71247172  0.55347481  0.74333400  1
  P  P11  1  0.84100309  0.55347481  0.24333400  1
  P  P12  1  0.15899691  0.44652519  0.75666600  1
  P  P13  1  0.44652519  0.28752828  0.24333400  1
  P  P14  1  0.79598430  0.79598430  0.25000000  1
  P  P15  1  0.20401570  0.00000000  0.25000000  1
  P  P16  1  0.44652519  0.15899691  0.74333400  1
  P  P17  1  0.00000000  0.79598430  0.75000000  1
  P  P18  1  0.55347481  0.84100309  0.25666600  1
  P  P19  1  0.71247172  0.15899691  0.24333400  1
  P  P20  1  0.28752828  0.84100309  0.75666600  1
  P  P21  1  0.28752828  0.44652519  0.25666600  1
  P  P22  1  0.55347481  0.71247172  0.75666600  1
  P  P23  1  0.84100309  0.28752828  0.74333400  1
  O  O24  1  0.18255090  0.53557221  0.88604959  1
  O  O25  1  0.53557221  0.35302131  0.11395041  1
  O  O26  1  0.48351691  0.68298760  0.61370932  1
  O  O27  1  0.88258712  0.84467767  0.38360291  1
  O  O28  1  0.31701240  0.80052931  0.61370932  1
  O  O29  1  0.67499203  0.00000000  0.25000000  1
  O  O30  1  0.76414525  0.12255942  0.71537309  1
  O  O31  1  0.84467767  0.88258712  0.11639709  1
  O  O32  1  0.18255090  0.64697869  0.38604959  1
  O  O33  1  0.46442779  0.64697869  0.88604959  1
  O  O34  1  0.48351691  0.80052931  0.11370932  1
  O  O35  1  0.19947069  0.51648309  0.61370932  1
  O  O36  1  0.03790944  0.15532233  0.11639709  1
  O  O37  1  0.35841417  0.12255942  0.21537309  1
  O  O38  1  0.51648309  0.19947069  0.88629068  1
  O  O39  1  0.53557221  0.18255090  0.61395041  1
  O  O40  1  0.32500797  0.00000000  0.75000000  1
  O  O41  1  0.31701240  0.51648309  0.11370932  1
  O  O42  1  0.67499203  0.67499203  0.75000000  1
  O  O43  1  0.87744058  0.64158583  0.71537309  1
  O  O44  1  0.15532233  0.03790944  0.38360291  1
  O  O45  1  0.80052931  0.31701240  0.88629068  1
  O  O46  1  0.12255942  0.35841417  0.28462691  1
  O  O47  1  0.00000000  0.67499203  0.25000000  1
  O  O48  1  0.64697869  0.18255090  0.11395041  1
  O  O49  1  0.35841417  0.23585475  0.71537309  1
  O  O50  1  0.81744910  0.35302131  0.61395041  1
  O  O51  1  0.87744058  0.23585475  0.21537309  1
  O  O52  1  0.81744910  0.46442779  0.11395041  1
  O  O53  1  0.64697869  0.46442779  0.61395041  1
  O  O54  1  0.96209056  0.11741288  0.38360291  1
  O  O55  1  0.35302131  0.81744910  0.88604959  1
  O  O56  1  0.35302131  0.53557221  0.38604959  1
  O  O57  1  0.23585475  0.87744058  0.28462691  1
  O  O58  1  0.03790944  0.88258712  0.61639709  1
  O  O59  1  0.51648309  0.31701240  0.38629068  1
  O  O60  1  0.46442779  0.81744910  0.38604959  1
  O  O61  1  0.80052931  0.48351691  0.38629068  1
  O  O62  1  0.64158583  0.87744058  0.78462691  1
  O  O63  1  0.76414525  0.64158583  0.21537309  1
  O  O64  1  0.32500797  0.32500797  0.25000000  1
  O  O65  1  0.68298760  0.19947069  0.38629068  1
  O  O66  1  0.11741288  0.96209056  0.11639709  1
  O  O67  1  1.00000000  0.32500797  0.75000000  1
  O  O68  1  0.64158583  0.76414525  0.28462691  1
  O  O69  1  0.15532233  0.11741288  0.88360291  1
  O  O70  1  0.23585475  0.35841417  0.78462691  1
  O  O71  1  0.84467767  0.96209056  0.61639709  1
  O  O72  1  0.12255942  0.76414525  0.78462691  1
  O  O73  1  0.19947069  0.68298760  0.11370932  1
  O  O74  1  0.11741288  0.15532233  0.61639709  1
  O  O75  1  0.88258712  0.03790944  0.88360291  1
  O  O76  1  0.96209056  0.84467767  0.88360291  1
  O  O77  1  0.68298760  0.48351691  0.88629068  1
