# generated using pymatgen
data_Li9Mn2Co5O16
_symmetry_space_group_name_H-M   'P 1'
_cell_length_a   2.85039613
_cell_length_b   19.61637471
_cell_length_c   5.26053709
_cell_angle_alpha   96.66930839
_cell_angle_beta   90.00000000
_cell_angle_gamma   90.00000000
_symmetry_Int_Tables_number   1
_chemical_formula_structural   Li9Mn2Co5O16
_chemical_formula_sum   'Li9 Mn2 Co5 O16'
_cell_volume   292.14953386
_cell_formula_units_Z   1
loop_
 _symmetry_equiv_pos_site_id
 _symmetry_equiv_pos_as_xyz
  1  'x, y, z'
loop_
 _atom_site_type_symbol
 _atom_site_label
 _atom_site_symmetry_multiplicity
 _atom_site_fract_x
 _atom_site_fract_y
 _atom_site_fract_z
 _atom_site_occupancy
  Li  Li0  1  0.50000000  0.00030118  0.50359413  1
  Li  Li1  1  -0.00000000  0.12629014  0.75279541  1
  Li  Li2  1  0.50000000  0.25150521  0.01001582  1
  Li  Li3  1  0.00000000  0.37500000  0.25000000  1
  Li  Li4  1  0.50000000  0.49849479  0.48998418  1
  Li  Li5  1  -0.00000000  0.87500000  0.25000000  1
  Li  Li6  1  0.50000000  0.74969882  0.99640587  1
  Li  Li7  1  -0.00000000  0.62370986  0.74720459  1
  Li  Li8  1  0.50000000  0.37500000  0.75000000  1
  Mn  Mn9  1  -0.00000000  0.00126590  0.99789254  1
  Mn  Mn10  1  0.00000000  0.74873410  0.50210746  1
  Co  Co11  1  0.50000000  0.12765622  0.25468383  1
  Co  Co12  1  0.00000000  0.25883717  0.54317209  1
  Co  Co13  1  -0.00000000  0.49116283  0.95682791  1
  Co  Co14  1  0.50000000  0.62234378  0.24531617  1
  Co  Co15  1  0.50000000  0.87500000  0.75000000  1
  O  O16  1  0.50000000  0.94192020  0.11027422  1
  O  O17  1  -0.00000000  0.07092468  0.36832588  1
  O  O18  1  0.50000000  0.19517590  0.60417045  1
  O  O19  1  -0.00000000  0.30780862  0.85524541  1
  O  O20  1  0.50000000  0.44522341  0.11511658  1
  O  O21  1  -0.00000000  0.81750396  0.87389328  1
  O  O22  1  0.50000000  0.69290973  0.62208069  1
  O  O23  1  -0.00000000  0.57068616  0.36920039  1
  O  O24  1  0.50000000  0.05709027  0.87791931  1
  O  O25  1  -0.00000000  0.17931384  0.13079961  1
  O  O26  1  0.50000000  0.30477659  0.38488342  1
  O  O27  1  0.00000000  0.44219138  0.64475459  1
  O  O28  1  0.50000000  0.55482410  0.89582955  1
  O  O29  1  -0.00000000  0.93249604  0.62610672  1
  O  O30  1  0.50000000  0.80807980  0.38972578  1
  O  O31  1  0.00000000  0.67907532  0.13167412  1
