# generated using pymatgen
data_NdGa3(BO3)4
_symmetry_space_group_name_H-M   'P 1'
_cell_length_a   6.09527734
_cell_length_b   6.09527808
_cell_length_c   6.09527744
_cell_angle_alpha   103.84311932
_cell_angle_beta   103.84312106
_cell_angle_gamma   103.84311670
_symmetry_Int_Tables_number   1
_chemical_formula_structural   NdGa3(BO3)4
_chemical_formula_sum   'Nd1 Ga3 B4 O12'
_cell_volume   202.65610490
_cell_formula_units_Z   1
loop_
 _symmetry_equiv_pos_site_id
 _symmetry_equiv_pos_as_xyz
  1  'x, y, z'
loop_
 _atom_site_type_symbol
 _atom_site_label
 _atom_site_symmetry_multiplicity
 _atom_site_fract_x
 _atom_site_fract_y
 _atom_site_fract_z
 _atom_site_occupancy
  Nd  Nd0  1  0.00000000  0.00000000  0.00000000  1
  Ga  Ga1  1  0.44846499  0.00000000  0.55153501  1
  Ga  Ga2  1  1.00000000  0.55153501  0.44846499  1
  Ga  Ga3  1  0.55153501  0.44846499  0.00000000  1
  B  B4  1  0.05529758  0.50000000  0.94470242  1
  B  B5  1  0.50000000  0.50000000  0.50000000  1
  B  B6  1  0.50000000  0.94470242  0.05529758  1
  B  B7  1  0.94470242  0.05529758  0.50000000  1
  O  O8  1  0.62591059  0.78584413  0.02841949  1
  O  O9  1  0.50000000  0.09014077  0.90985923  1
  O  O10  1  0.09014077  0.90985923  0.50000000  1
  O  O11  1  0.90985923  0.50000000  0.09014077  1
  O  O12  1  0.21415587  0.37408941  0.97158051  1
  O  O13  1  0.37408941  0.97158051  0.21415587  1
  O  O14  1  0.02841949  0.62591059  0.78584413  1
  O  O15  1  0.64517694  0.50000000  0.35482306  1
  O  O16  1  0.50000000  0.35482306  0.64517694  1
  O  O17  1  0.35482306  0.64517694  0.50000000  1
  O  O18  1  0.97158051  0.21415587  0.37408941  1
  O  O19  1  0.78584413  0.02841949  0.62591059  1
