# generated using pymatgen
data_Sr2CoWO6
_symmetry_space_group_name_H-M   'P 1'
_cell_length_a   5.69141222
_cell_length_b   5.68769859
_cell_length_c   5.68361301
_cell_angle_alpha   59.94713037
_cell_angle_beta   60.12147490
_cell_angle_gamma   60.05534887
_symmetry_Int_Tables_number   1
_chemical_formula_structural   Sr2CoWO6
_chemical_formula_sum   'Sr2 Co1 W1 O6'
_cell_volume   130.21787819
_cell_formula_units_Z   1
loop_
 _symmetry_equiv_pos_site_id
 _symmetry_equiv_pos_as_xyz
  1  'x, y, z'
loop_
 _atom_site_type_symbol
 _atom_site_label
 _atom_site_symmetry_multiplicity
 _atom_site_fract_x
 _atom_site_fract_y
 _atom_site_fract_z
 _atom_site_occupancy
  Sr  Sr0  1  0.25107540  0.24962011  0.24975624  1
  Sr  Sr1  1  0.74892521  0.75037994  0.75024379  1
  Co  Co2  1  0.49999994  0.49999986  0.50000015  1
  W  W3  1  0.99999985  0.99999984  0.00000013  1
  O  O4  1  0.24166633  0.75843630  0.75821437  1
  O  O5  1  0.75833381  0.24156363  0.24178552  1
  O  O6  1  0.75760481  0.24225956  0.75794472  1
  O  O7  1  0.24239485  0.75774077  0.24205526  1
  O  O8  1  0.24199033  0.24181756  0.75793408  1
  O  O9  1  0.75800947  0.75818242  0.24206574  1
