# generated using pymatgen
data_Li2Mg2Si4O11
_symmetry_space_group_name_H-M   'P 1'
_cell_length_a   6.96051865
_cell_length_b   7.50249989
_cell_length_c   8.75202421
_cell_angle_alpha   99.46181846
_cell_angle_beta   101.05506599
_cell_angle_gamma   104.80984429
_symmetry_Int_Tables_number   1
_chemical_formula_structural   Li2Mg2Si4O11
_chemical_formula_sum   'Li4 Mg4 Si8 O22'
_cell_volume   422.54874392
_cell_formula_units_Z   2
loop_
 _symmetry_equiv_pos_site_id
 _symmetry_equiv_pos_as_xyz
  1  'x, y, z'
loop_
 _atom_site_type_symbol
 _atom_site_label
 _atom_site_symmetry_multiplicity
 _atom_site_fract_x
 _atom_site_fract_y
 _atom_site_fract_z
 _atom_site_occupancy
  Li  Li0  1  0.61039332  0.79424257  0.19553923  1
  Li  Li1  1  0.14194428  0.75389111  0.15179799  1
  Li  Li2  1  0.38960668  0.20575743  0.80446077  1
  Li  Li3  1  0.85805572  0.24610889  0.84820201  1
  Mg  Mg4  1  0.11767057  0.38029099  0.61074836  1
  Mg  Mg5  1  0.36886864  0.61979045  0.39889435  1
  Mg  Mg6  1  0.63113136  0.38020955  0.60110565  1
  Mg  Mg7  1  0.88232943  0.61970901  0.38925164  1
  Si  Si8  1  0.75952592  0.60830391  0.96831383  1
  Si  Si9  1  0.95961979  0.22565839  0.23341120  1
  Si  Si10  1  0.52134981  0.22426011  0.22558581  1
  Si  Si11  1  0.23254304  0.02523031  0.40492394  1
  Si  Si12  1  0.24047408  0.39169609  0.03168617  1
  Si  Si13  1  0.76745696  0.97476969  0.59507606  1
  Si  Si14  1  0.47865019  0.77573989  0.77441419  1
  Si  Si15  1  0.04038021  0.77434161  0.76658880  1
  O  O16  1  0.32417429  0.59401815  0.15869078  1
  O  O17  1  0.97533596  0.73983456  0.93319035  1
  O  O18  1  0.39946445  0.26001525  0.05836791  1
  O  O19  1  0.41407248  0.59000753  0.62972552  1
  O  O20  1  0.06327831  0.41599270  0.37381419  1
  O  O21  1  0.67582571  0.40598185  0.84130922  1
  O  O22  1  0.97955334  0.95238054  0.70555010  1
  O  O23  1  0.29037858  0.84887204  0.81848592  1
  O  O24  1  0.02044666  0.04761946  0.29444990  1
  O  O25  1  0.67450617  0.80533085  0.43603171  1
  O  O26  1  0.18253853  0.80548347  0.41603119  1
  O  O27  1  0.02466404  0.26016544  0.06680965  1
  O  O28  1  0.70962142  0.15112796  0.18151408  1
  O  O29  1  0.38143467  0.03862389  0.27424723  1
  O  O30  1  0.60053555  0.73998475  0.94163209  1
  O  O31  1  0.81746147  0.19451653  0.58396881  1
  O  O32  1  0.61856533  0.96137611  0.72575277  1
  O  O33  1  0.93672169  0.58400730  0.62618581  1
  O  O34  1  0.18316418  0.38221394  0.84412314  1
  O  O35  1  0.32549383  0.19466915  0.56396829  1
  O  O36  1  0.81683582  0.61778606  0.15587686  1
  O  O37  1  0.58592752  0.40999247  0.37027448  1
