# generated using pymatgen
data_Sr3Cu3(PO4)4
_symmetry_space_group_name_H-M   'P 1'
_cell_length_a   5.00599231
_cell_length_b   9.51605525
_cell_length_c   15.76505153
_cell_angle_alpha   83.31135448
_cell_angle_beta   80.86456278
_cell_angle_gamma   74.75014620
_symmetry_Int_Tables_number   1
_chemical_formula_structural   Sr3Cu3(PO4)4
_chemical_formula_sum   'Sr6 Cu6 P8 O32'
_cell_volume   713.16575795
_cell_formula_units_Z   2
loop_
 _symmetry_equiv_pos_site_id
 _symmetry_equiv_pos_as_xyz
  1  'x, y, z'
loop_
 _atom_site_type_symbol
 _atom_site_label
 _atom_site_symmetry_multiplicity
 _atom_site_fract_x
 _atom_site_fract_y
 _atom_site_fract_z
 _atom_site_occupancy
  Sr  Sr0  1  0.84671588  0.33322314  0.36304039  1
  Sr  Sr1  1  0.54297941  0.16677686  0.13695961  1
  Sr  Sr2  1  0.28780856  0.25000000  0.75000000  1
  Sr  Sr3  1  0.71219144  0.75000000  0.25000000  1
  Sr  Sr4  1  0.45702059  0.83322314  0.86304039  1
  Sr  Sr5  1  0.15328412  0.66677686  0.63695961  1
  Cu  Cu6  1  0.16296319  0.23112125  0.96990916  1
  Cu  Cu7  1  0.63600640  0.73112125  0.46990916  1
  Cu  Cu8  1  0.36399360  0.26887875  0.53009084  1
  Cu  Cu9  1  0.83703681  0.76887875  0.03009084  1
  Cu  Cu10  1  0.50000000  0.50000000  0.00000000  1
  Cu  Cu11  1  0.00000000  0.00000000  0.50000000  1
  P  P12  1  0.18476176  0.93282137  0.10118882  1
  P  P13  1  0.47654906  0.94201608  0.61978896  1
  P  P14  1  0.96164590  0.44201608  0.11978896  1
  P  P15  1  0.03835410  0.55798392  0.88021104  1
  P  P16  1  0.52345094  0.05798392  0.38021104  1
  P  P17  1  0.81523824  0.06717863  0.89881118  1
  P  P18  1  0.21877196  0.56717863  0.39881118  1
  P  P19  1  0.78122804  0.43282137  0.60118882  1
  O  O20  1  0.19909653  0.09363568  0.40403116  1
  O  O21  1  0.68836815  0.60324448  0.57748245  1
  O  O22  1  0.62948241  0.15843617  0.96988710  1
  O  O23  1  0.21258590  0.38526912  0.04622242  1
  O  O24  1  0.24219433  0.65843617  0.46988710  1
  O  O25  1  0.69676336  0.40636432  0.09596884  1
  O  O26  1  0.64407744  0.11473088  0.45377758  1
  O  O27  1  0.30323664  0.59363568  0.90403116  1
  O  O28  1  0.75780567  0.34156383  0.53011290  1
  O  O29  1  0.34868643  0.10871427  0.62231047  1
  O  O30  1  0.92028883  0.60871427  0.12231047  1
  O  O31  1  0.13090493  0.10324448  0.07748245  1
  O  O32  1  0.39367084  0.59428895  0.31236285  1
  O  O33  1  0.35592256  0.88526912  0.54622242  1
  O  O34  1  0.88394670  0.90157203  0.11378427  1
  O  O35  1  0.39777390  0.86008345  0.70525309  1
  O  O36  1  0.96311044  0.63991655  0.79474691  1
  O  O37  1  0.65131357  0.89128573  0.37768953  1
  O  O38  1  0.60222610  0.13991655  0.29474691  1
  O  O39  1  0.10069700  0.40157203  0.61378427  1
  O  O40  1  0.60632916  0.40571105  0.68763715  1
  O  O41  1  0.86909507  0.89675552  0.92251755  1
  O  O42  1  0.80090347  0.90636432  0.59596884  1
  O  O43  1  0.31163185  0.39675552  0.42251755  1
  O  O44  1  0.11605330  0.09842797  0.88621573  1
  O  O45  1  0.69967737  0.09428895  0.81236285  1
  O  O46  1  0.89930300  0.59842797  0.38621573  1
  O  O47  1  0.37051759  0.84156383  0.03011290  1
  O  O48  1  0.07971117  0.39128573  0.87768953  1
  O  O49  1  0.30032263  0.90571105  0.18763715  1
  O  O50  1  0.78741410  0.61473088  0.95377758  1
  O  O51  1  0.03688956  0.36008345  0.20525309  1
