# generated using pymatgen
data_BaV2CuO7
_symmetry_space_group_name_H-M   'P 1'
_cell_length_a   5.58664355
_cell_length_b   7.59745383
_cell_length_c   15.35348845
_cell_angle_alpha   90.00000000
_cell_angle_beta   90.00000000
_cell_angle_gamma   90.00000000
_symmetry_Int_Tables_number   1
_chemical_formula_structural   BaV2CuO7
_chemical_formula_sum   'Ba4 V8 Cu4 O28'
_cell_volume   651.66755449
_cell_formula_units_Z   4
loop_
 _symmetry_equiv_pos_site_id
 _symmetry_equiv_pos_as_xyz
  1  'x, y, z'
loop_
 _atom_site_type_symbol
 _atom_site_label
 _atom_site_symmetry_multiplicity
 _atom_site_fract_x
 _atom_site_fract_y
 _atom_site_fract_z
 _atom_site_occupancy
  Ba  Ba0  1  0.25000000  0.88367788  0.29979697  1
  Ba  Ba1  1  0.75000000  0.11632212  0.70020303  1
  Ba  Ba2  1  0.75000000  0.38367788  0.20020303  1
  Ba  Ba3  1  0.25000000  0.61632212  0.79979697  1
  V  V4  1  0.25000000  0.88646857  0.59076111  1
  V  V5  1  0.75000000  0.11353143  0.40923889  1
  V  V6  1  0.75000000  0.38646857  0.90923889  1
  V  V7  1  0.25000000  0.61353143  0.09076111  1
  V  V8  1  0.25000000  0.14295928  0.10674863  1
  V  V9  1  0.75000000  0.85704072  0.89325137  1
  V  V10  1  0.75000000  0.64295928  0.39325137  1
  V  V11  1  0.25000000  0.35704072  0.60674863  1
  Cu  Cu12  1  0.25000000  0.38562359  0.36801376  1
  Cu  Cu13  1  0.75000000  0.61437641  0.63198624  1
  Cu  Cu14  1  0.75000000  0.88562359  0.13198624  1
  Cu  Cu15  1  0.25000000  0.11437641  0.86801376  1
  O  O16  1  0.25000000  0.41758657  0.50365603  1
  O  O17  1  0.75000000  0.58241343  0.49634397  1
  O  O18  1  0.75000000  0.91758657  0.99634397  1
  O  O19  1  0.25000000  0.08241343  0.00365603  1
  O  O20  1  0.25000000  0.11860291  0.62738220  1
  O  O21  1  0.75000000  0.88139709  0.37261780  1
  O  O22  1  0.75000000  0.61860291  0.87261780  1
  O  O23  1  0.25000000  0.38139709  0.12738220  1
  O  O24  1  0.25000000  0.86275192  0.48267274  1
  O  O25  1  0.75000000  0.13724808  0.51732726  1
  O  O26  1  0.75000000  0.36275192  0.01732726  1
  O  O27  1  0.25000000  0.63724808  0.98267274  1
  O  O28  1  0.50152864  0.79718801  0.64229653  1
  O  O29  1  0.00152864  0.20281199  0.35770347  1
  O  O30  1  0.49847136  0.29718801  0.85770347  1
  O  O31  1  0.99847136  0.70281199  0.14229653  1
  O  O32  1  0.49847136  0.20281199  0.35770347  1
  O  O33  1  0.99847136  0.79718801  0.64229653  1
  O  O34  1  0.50152864  0.70281199  0.14229653  1
  O  O35  1  0.00152864  0.29718801  0.85770347  1
  O  O36  1  0.49831051  0.56183234  0.33703374  1
  O  O37  1  0.99831051  0.43816766  0.66296626  1
  O  O38  1  0.50168949  0.06183234  0.16296626  1
  O  O39  1  0.00168949  0.93816766  0.83703374  1
  O  O40  1  0.50168949  0.43816766  0.66296626  1
  O  O41  1  0.00168949  0.56183234  0.33703374  1
  O  O42  1  0.49831051  0.93816766  0.83703374  1
  O  O43  1  0.99831051  0.06183234  0.16296626  1
