# generated using pymatgen
data_Ba4Tl2Cu2HgO10
_symmetry_space_group_name_H-M   'P 1'
_cell_length_a   3.92075218
_cell_length_b   3.92075218
_cell_length_c   21.93821745
_cell_angle_alpha   95.12673701
_cell_angle_beta   95.12673702
_cell_angle_gamma   89.99999586
_symmetry_Int_Tables_number   1
_chemical_formula_structural   Ba4Tl2Cu2HgO10
_chemical_formula_sum   'Ba4 Tl2 Cu2 Hg1 O10'
_cell_volume   334.53708744
_cell_formula_units_Z   1
loop_
 _symmetry_equiv_pos_site_id
 _symmetry_equiv_pos_as_xyz
  1  'x, y, z'
loop_
 _atom_site_type_symbol
 _atom_site_label
 _atom_site_symmetry_multiplicity
 _atom_site_fract_x
 _atom_site_fract_y
 _atom_site_fract_z
 _atom_site_occupancy
  Ba  Ba0  1  0.34196339  0.34196339  0.68392679  1
  Ba  Ba1  1  0.56909509  0.56909509  0.13819018  1
  Ba  Ba2  1  0.43090491  0.43090491  0.86180982  1
  Ba  Ba3  1  0.65803661  0.65803661  0.31607321  1
  Tl  Tl4  1  0.22390677  0.22390677  0.44781354  1
  Tl  Tl5  1  0.77609323  0.77609323  0.55218646  1
  Cu  Cu6  1  0.11392453  0.11392453  0.22784907  1
  Cu  Cu7  1  0.88607547  0.88607547  0.77215093  1
  Hg  Hg8  1  0.00000000  0.00000000  0.00000000  1
  O  O9  1  0.88670122  0.38670122  0.77340244  1
  O  O10  1  0.95369773  0.95369773  0.90739547  1
  O  O11  1  0.72842131  0.72842131  0.45684262  1
  O  O12  1  0.04630227  0.04630227  0.09260453  1
  O  O13  1  0.82268644  0.82268644  0.64537289  1
  O  O14  1  0.11329878  0.61329878  0.22659756  1
  O  O15  1  0.38670122  0.88670122  0.77340244  1
  O  O16  1  0.27157869  0.27157869  0.54315738  1
  O  O17  1  0.17731356  0.17731356  0.35462711  1
  O  O18  1  0.61329878  0.11329878  0.22659756  1
