# generated using pymatgen
data_Y4Al2O9
_symmetry_space_group_name_H-M   'P 1'
_cell_length_a   7.41962271
_cell_length_b   10.52775835
_cell_length_c   11.24528998
_cell_angle_alpha   90.00000000
_cell_angle_beta   108.34465821
_cell_angle_gamma   90.00000000
_symmetry_Int_Tables_number   1
_chemical_formula_structural   Y4Al2O9
_chemical_formula_sum   'Y16 Al8 O36'
_cell_volume   833.75254877
_cell_formula_units_Z   4
loop_
 _symmetry_equiv_pos_site_id
 _symmetry_equiv_pos_as_xyz
  1  'x, y, z'
loop_
 _atom_site_type_symbol
 _atom_site_label
 _atom_site_symmetry_multiplicity
 _atom_site_fract_x
 _atom_site_fract_y
 _atom_site_fract_z
 _atom_site_occupancy
  Y  Y0  1  0.22442325  0.59461745  0.69572036  1
  Y  Y1  1  0.58495009  0.38175700  0.91219766  1
  Y  Y2  1  0.09160760  0.36862946  0.94067379  1
  Y  Y3  1  0.58495009  0.11824300  0.41219766  1
  Y  Y4  1  0.22442325  0.90538255  0.19572036  1
  Y  Y5  1  0.77557675  0.09461745  0.80427964  1
  Y  Y6  1  0.73247095  0.60979746  0.71318865  1
  Y  Y7  1  0.73247095  0.89020254  0.21318865  1
  Y  Y8  1  0.26752905  0.10979746  0.78681135  1
  Y  Y9  1  0.09160760  0.13137054  0.44067379  1
  Y  Y10  1  0.26752905  0.39020254  0.28681135  1
  Y  Y11  1  0.90839240  0.86862946  0.55932621  1
  Y  Y12  1  0.41504991  0.88175700  0.58780234  1
  Y  Y13  1  0.41504991  0.61824300  0.08780234  1
  Y  Y14  1  0.77557675  0.40538255  0.30427964  1
  Y  Y15  1  0.90839240  0.63137054  0.05932621  1
  Al  Al16  1  0.41003882  0.31913205  0.61573386  1
  Al  Al17  1  0.58996118  0.81913205  0.88426614  1
  Al  Al18  1  0.58996118  0.68086795  0.38426614  1
  Al  Al19  1  0.95597132  0.17570233  0.12472886  1
  Al  Al20  1  0.04402868  0.67570233  0.37527114  1
  Al  Al21  1  0.04402868  0.82429767  0.87527114  1
  Al  Al22  1  0.95597132  0.32429767  0.62472886  1
  Al  Al23  1  0.41003882  0.18086795  0.11573386  1
  O  O24  1  0.53238171  0.27197141  0.24738931  1
  O  O25  1  0.97645127  0.25865786  0.26642378  1
  O  O26  1  0.97645127  0.24134214  0.76642378  1
  O  O27  1  0.47256708  0.02545413  0.17064847  1
  O  O28  1  0.46761829  0.77197141  0.25261069  1
  O  O29  1  0.18034488  0.76503036  0.02172934  1
  O  O30  1  0.52743292  0.52545413  0.32935153  1
  O  O31  1  0.81942152  0.72647202  0.38301814  1
  O  O32  1  0.06365422  0.98839798  0.85604626  1
  O  O33  1  0.02354873  0.74134214  0.73357622  1
  O  O34  1  0.47256708  0.47454587  0.67064847  1
  O  O35  1  0.06365422  0.51160202  0.35604626  1
  O  O36  1  0.18034488  0.73496964  0.52172934  1
  O  O37  1  0.18057848  0.27352798  0.61698186  1
  O  O38  1  0.93634578  0.48839798  0.64395374  1
  O  O39  1  0.83273742  0.49833254  0.89140875  1
  O  O40  1  0.83273742  0.00166746  0.39140875  1
  O  O41  1  0.38570707  0.26479604  0.46286067  1
  O  O42  1  0.93634578  0.01160202  0.14395374  1
  O  O43  1  0.53238171  0.22802859  0.74738931  1
  O  O44  1  0.52743292  0.97454587  0.82935153  1
  O  O45  1  0.46761829  0.72802859  0.75261069  1
  O  O46  1  0.02354873  0.75865786  0.23357622  1
  O  O47  1  0.31170561  0.99688200  0.39407018  1
  O  O48  1  0.16726258  0.99833254  0.60859125  1
  O  O49  1  0.68829439  0.00311800  0.60592982  1
  O  O50  1  0.38570707  0.23520396  0.96286067  1
  O  O51  1  0.16726258  0.50166746  0.10859125  1
  O  O52  1  0.18057848  0.22647202  0.11698186  1
  O  O53  1  0.81965512  0.26503036  0.47827066  1
  O  O54  1  0.81942152  0.77352798  0.88301814  1
  O  O55  1  0.31170561  0.50311800  0.89407018  1
  O  O56  1  0.61429293  0.73520396  0.53713933  1
  O  O57  1  0.81965512  0.23496964  0.97827066  1
  O  O58  1  0.68829439  0.49688200  0.10592982  1
  O  O59  1  0.61429293  0.76479604  0.03713933  1
