# generated using pymatgen
data_CaMg6Al
_symmetry_space_group_name_H-M   'P 1'
_cell_length_a   6.56160372
_cell_length_b   6.56160315
_cell_length_c   5.13720088
_cell_angle_alpha   90.00000000
_cell_angle_beta   90.00000000
_cell_angle_gamma   119.69072863
_symmetry_Int_Tables_number   1
_chemical_formula_structural   CaMg6Al
_chemical_formula_sum   'Ca1 Mg6 Al1'
_cell_volume   192.14193748
_cell_formula_units_Z   1
loop_
 _symmetry_equiv_pos_site_id
 _symmetry_equiv_pos_as_xyz
  1  'x, y, z'
loop_
 _atom_site_type_symbol
 _atom_site_label
 _atom_site_symmetry_multiplicity
 _atom_site_fract_x
 _atom_site_fract_y
 _atom_site_fract_z
 _atom_site_occupancy
  Ca  Ca0  1  0.32885273  0.17114727  0.75000000  1
  Mg  Mg1  1  0.16095354  0.82090481  0.25000000  1
  Mg  Mg2  1  0.67909519  0.33904646  0.25000000  1
  Mg  Mg3  1  0.66687801  0.83312199  0.25000000  1
  Mg  Mg4  1  0.32502793  0.65977457  0.75000000  1
  Mg  Mg5  1  0.84022543  0.17497207  0.75000000  1
  Mg  Mg6  1  0.83561097  0.66438903  0.75000000  1
  Al  Al7  1  0.16335620  0.33664380  0.25000000  1
