# generated using pymatgen
data_Mg3(PO4)2
_symmetry_space_group_name_H-M   'P 1'
_cell_length_a   4.79092082
_cell_length_b   5.98219579
_cell_length_c   10.32981904
_cell_angle_alpha   90.32791856
_cell_angle_beta   90.00000000
_cell_angle_gamma   90.00000000
_symmetry_Int_Tables_number   1
_chemical_formula_structural   Mg3(PO4)2
_chemical_formula_sum   'Mg6 P4 O16'
_cell_volume   296.05010322
_cell_formula_units_Z   2
loop_
 _symmetry_equiv_pos_site_id
 _symmetry_equiv_pos_as_xyz
  1  'x, y, z'
loop_
 _atom_site_type_symbol
 _atom_site_label
 _atom_site_symmetry_multiplicity
 _atom_site_fract_x
 _atom_site_fract_y
 _atom_site_fract_z
 _atom_site_occupancy
  Mg  Mg0  1  0.50857632  0.23846218  0.77783358  1
  Mg  Mg1  1  0.00857632  0.76153782  0.72216642  1
  Mg  Mg2  1  0.99142368  0.23846218  0.27783358  1
  Mg  Mg3  1  0.00000000  0.50000000  0.00000000  1
  Mg  Mg4  1  0.49142368  0.76153782  0.22216642  1
  Mg  Mg5  1  0.50000000  0.50000000  0.50000000  1
  P  P6  1  0.92723779  0.74314631  0.40234147  1
  P  P7  1  0.42723779  0.25685369  0.09765853  1
  P  P8  1  0.07276221  0.25685369  0.59765853  1
  P  P9  1  0.57276221  0.74314631  0.90234147  1
  O  O10  1  0.74733827  0.27703487  0.10465704  1
  O  O11  1  0.68586617  0.74403152  0.04296382  1
  O  O12  1  0.25266173  0.72296513  0.89534296  1
  O  O13  1  0.22841463  0.46677133  0.66142418  1
  O  O14  1  0.81505152  0.93979154  0.32134707  1
  O  O15  1  0.68494848  0.93979154  0.82134707  1
  O  O16  1  0.31505152  0.06020846  0.17865293  1
  O  O17  1  0.31413383  0.25596848  0.95703618  1
  O  O18  1  0.18586617  0.25596848  0.45703618  1
  O  O19  1  0.18494848  0.06020846  0.67865293  1
  O  O20  1  0.27158537  0.46677133  0.16142418  1
  O  O21  1  0.24733827  0.72296513  0.39534296  1
  O  O22  1  0.72841463  0.53322867  0.83857582  1
  O  O23  1  0.77158537  0.53322867  0.33857582  1
  O  O24  1  0.75266173  0.27703487  0.60465704  1
  O  O25  1  0.81413383  0.74403152  0.54296382  1
