# generated using pymatgen
data_Ag2Te4O11
_symmetry_space_group_name_H-M   'P 1'
_cell_length_a   7.39367258
_cell_length_b   7.52813567
_cell_length_c   9.85878375
_cell_angle_alpha   95.52796961
_cell_angle_beta   94.15344717
_cell_angle_gamma   119.43749358
_symmetry_Int_Tables_number   1
_chemical_formula_structural   Ag2Te4O11
_chemical_formula_sum   'Ag4 Te8 O22'
_cell_volume   471.11324458
_cell_formula_units_Z   2
loop_
 _symmetry_equiv_pos_site_id
 _symmetry_equiv_pos_as_xyz
  1  'x, y, z'
loop_
 _atom_site_type_symbol
 _atom_site_label
 _atom_site_symmetry_multiplicity
 _atom_site_fract_x
 _atom_site_fract_y
 _atom_site_fract_z
 _atom_site_occupancy
  Ag  Ag0  1  0.99595822  0.18093952  0.35128071  1
  Ag  Ag1  1  0.76934226  0.27706654  0.01380866  1
  Ag  Ag2  1  0.00404178  0.81906048  0.64871929  1
  Ag  Ag3  1  0.23065774  0.72293346  0.98619134  1
  Te  Te4  1  0.49418579  0.69491898  0.31316478  1
  Te  Te5  1  0.77255582  0.78860546  0.00112948  1
  Te  Te6  1  0.50581421  0.30508102  0.68683522  1
  Te  Te7  1  0.49263973  0.19127738  0.31127157  1
  Te  Te8  1  0.50736027  0.80872262  0.68872843  1
  Te  Te9  1  0.22744418  0.21139454  0.99887052  1
  Te  Te10  1  0.00286442  0.68668164  0.32449713  1
  Te  Te11  1  0.99713558  0.31331836  0.67550287  1
  O  O12  1  0.93497041  0.68969392  0.13314318  1
  O  O13  1  0.53398337  0.68959929  0.11788294  1
  O  O14  1  0.22300234  0.23004822  0.62044344  1
  O  O15  1  0.22090318  0.63335992  0.72701677  1
  O  O16  1  0.78189274  0.99236024  0.64332564  1
  O  O17  1  0.07541416  0.93657593  0.89922131  1
  O  O18  1  0.06502959  0.31030608  0.86685682  1
  O  O19  1  0.79223257  0.39076591  0.76170539  1
  O  O20  1  0.92458584  0.06342407  0.10077869  1
  O  O21  1  0.40173529  0.09611442  0.11490203  1
  O  O22  1  0.77909682  0.36664008  0.27298323  1
  O  O23  1  0.77699766  0.76995178  0.37955656  1
  O  O24  1  0.20776743  0.60923409  0.23829461  1
  O  O25  1  0.59652304  0.99576050  0.33470560  1
  O  O26  1  0.21810726  0.00763976  0.35667436  1
  O  O27  1  0.61007432  0.32108591  0.50567935  1
  O  O28  1  0.59826471  0.90388558  0.88509797  1
  O  O29  1  0.38992568  0.67891409  0.49432065  1
  O  O30  1  0.61034983  0.60775831  0.70611018  1
  O  O31  1  0.46601663  0.31040071  0.88211706  1
  O  O32  1  0.40347696  0.00423950  0.66529440  1
  O  O33  1  0.38965017  0.39224169  0.29388982  1
