# generated using pymatgen
data_PO2
_symmetry_space_group_name_H-M   'P 1'
_cell_length_a   7.29814423
_cell_length_b   7.23359099
_cell_length_c   7.23359116
_cell_angle_alpha   93.12995496
_cell_angle_beta   94.96859847
_cell_angle_gamma   94.96859701
_symmetry_Int_Tables_number   1
_chemical_formula_structural   PO2
_chemical_formula_sum   'P8 O16'
_cell_volume   378.26702039
_cell_formula_units_Z   8
loop_
 _symmetry_equiv_pos_site_id
 _symmetry_equiv_pos_as_xyz
  1  'x, y, z'
loop_
 _atom_site_type_symbol
 _atom_site_label
 _atom_site_symmetry_multiplicity
 _atom_site_fract_x
 _atom_site_fract_y
 _atom_site_fract_z
 _atom_site_occupancy
  P  P0  1  0.82361102  0.02180282  0.25612540  1
  P  P1  1  0.32361102  0.25612540  0.02180282  1
  P  P2  1  0.55953863  0.72483696  0.35330412  1
  P  P3  1  0.17638898  0.97819718  0.74387460  1
  P  P4  1  0.44046137  0.27516304  0.64669588  1
  P  P5  1  0.94046137  0.64669588  0.27516304  1
  P  P6  1  0.05953863  0.35330412  0.72483696  1
  P  P7  1  0.67638898  0.74387460  0.97819718  1
  O  O8  1  0.75000000  0.61881587  0.38118413  1
  O  O9  1  0.65531361  0.94844471  0.36845682  1
  O  O10  1  0.97853273  0.88266279  0.30012312  1
  O  O11  1  0.75000000  0.95928626  0.04071374  1
  O  O12  1  0.34468639  0.05155529  0.63154318  1
  O  O13  1  0.47853273  0.30012312  0.88266279  1
  O  O14  1  0.25000000  0.04071374  0.95928626  1
  O  O15  1  0.25000000  0.38118413  0.61881587  1
  O  O16  1  0.11423347  0.78088731  0.71374469  1
  O  O17  1  0.15531361  0.36845682  0.94844471  1
  O  O18  1  0.84468639  0.63154318  0.05155529  1
  O  O19  1  0.88576653  0.21911269  0.28625531  1
  O  O20  1  0.61423347  0.71374469  0.78088731  1
  O  O21  1  0.52146727  0.69987688  0.11733721  1
  O  O22  1  0.02146727  0.11733721  0.69987688  1
  O  O23  1  0.38576653  0.28625531  0.21911269  1
