# generated using pymatgen
data_Fe(BO2)2
_symmetry_space_group_name_H-M   'P 1'
_cell_length_a   7.23774332
_cell_length_b   7.53471212
_cell_length_c   8.72070216
_cell_angle_alpha   90.00000000
_cell_angle_beta   94.65765208
_cell_angle_gamma   90.00000000
_symmetry_Int_Tables_number   1
_chemical_formula_structural   Fe(BO2)2
_chemical_formula_sum   'Fe8 B16 O32'
_cell_volume   474.00698451
_cell_formula_units_Z   8
loop_
 _symmetry_equiv_pos_site_id
 _symmetry_equiv_pos_as_xyz
  1  'x, y, z'
loop_
 _atom_site_type_symbol
 _atom_site_label
 _atom_site_symmetry_multiplicity
 _atom_site_fract_x
 _atom_site_fract_y
 _atom_site_fract_z
 _atom_site_occupancy
  Fe  Fe0  1  0.47715787  0.23431717  0.63849825  1
  Fe  Fe1  1  0.96866612  0.72917824  0.39227469  1
  Fe  Fe2  1  0.52284213  0.73431717  0.86150175  1
  Fe  Fe3  1  0.47715787  0.26568283  0.13849825  1
  Fe  Fe4  1  0.03133388  0.22917824  0.10772531  1
  Fe  Fe5  1  0.52284213  0.76568283  0.36150175  1
  Fe  Fe6  1  0.96866612  0.77082176  0.89227469  1
  Fe  Fe7  1  0.03133388  0.27082176  0.60772531  1
  B  B8  1  0.70053034  0.10230949  0.88504827  1
  B  B9  1  0.18095888  0.57183997  0.14138998  1
  B  B10  1  0.80154102  0.56440758  0.14080866  1
  B  B11  1  0.67940299  0.59664788  0.62197393  1
  B  B12  1  0.80154102  0.93559242  0.64080866  1
  B  B13  1  0.32059701  0.09664788  0.87802607  1
  B  B14  1  0.81904112  0.42816003  0.85861002  1
  B  B15  1  0.70053034  0.39769051  0.38504827  1
  B  B16  1  0.18095888  0.92816003  0.64138998  1
  B  B17  1  0.29946966  0.60230949  0.61495173  1
  B  B18  1  0.32059701  0.40335212  0.37802607  1
  B  B19  1  0.19845898  0.43559242  0.85919134  1
  B  B20  1  0.19845898  0.06440758  0.35919134  1
  B  B21  1  0.81904112  0.07183997  0.35861002  1
  B  B22  1  0.67940299  0.90335212  0.12197393  1
  B  B23  1  0.29946966  0.89769051  0.11495173  1
  O  O24  1  0.76384242  0.55723273  0.47501526  1
  O  O25  1  0.31781170  0.55802358  0.27608007  1
  O  O26  1  0.00316329  0.48046323  0.80662577  1
  O  O27  1  0.16918934  0.74972259  0.07161320  1
  O  O28  1  0.48550844  0.83965307  0.07736894  1
  O  O29  1  0.23615758  0.05723273  0.02498474  1
  O  O30  1  0.00316329  0.01953677  0.30662577  1
  O  O31  1  0.76768699  0.75204900  0.70302460  1
  O  O32  1  0.31781170  0.94197642  0.77608007  1
  O  O33  1  0.83081066  0.24972259  0.42838680  1
  O  O34  1  0.76768699  0.74795100  0.20302460  1
  O  O35  1  0.23627690  0.43280783  0.02698383  1
  O  O36  1  0.68599426  0.43537963  0.21743242  1
  O  O37  1  0.76372310  0.93280783  0.47301617  1
  O  O38  1  0.23231301  0.25204900  0.79697540  1
  O  O39  1  0.76384242  0.94276727  0.97501526  1
  O  O40  1  0.83081066  0.25027741  0.92838680  1
  O  O41  1  0.99683671  0.98046323  0.69337423  1
  O  O42  1  0.31400574  0.93537963  0.28256758  1
  O  O43  1  0.68599426  0.06462037  0.71743242  1
  O  O44  1  0.23615758  0.44276727  0.52498474  1
  O  O45  1  0.51449156  0.16034693  0.92263106  1
  O  O46  1  0.68218830  0.44197642  0.72391993  1
  O  O47  1  0.16918934  0.75027741  0.57161320  1
  O  O48  1  0.23627690  0.06719217  0.52698383  1
  O  O49  1  0.51449156  0.33965307  0.42263106  1
  O  O50  1  0.31400574  0.56462037  0.78256758  1
  O  O51  1  0.76372310  0.56719217  0.97301617  1
  O  O52  1  0.68218830  0.05802358  0.22391993  1
  O  O53  1  0.23231301  0.24795100  0.29697540  1
  O  O54  1  0.48550844  0.66034693  0.57736894  1
  O  O55  1  0.99683671  0.51953677  0.19337423  1
