# generated using pymatgen
data_Li4Mo5O17
_symmetry_space_group_name_H-M   'P 1'
_cell_length_a   6.90489242
_cell_length_b   9.64299171
_cell_length_c   11.08071519
_cell_angle_alpha   73.04674109
_cell_angle_beta   88.54111295
_cell_angle_gamma   69.64296919
_symmetry_Int_Tables_number   1
_chemical_formula_structural   Li4Mo5O17
_chemical_formula_sum   'Li8 Mo10 O34'
_cell_volume   659.27724337
_cell_formula_units_Z   2
loop_
 _symmetry_equiv_pos_site_id
 _symmetry_equiv_pos_as_xyz
  1  'x, y, z'
loop_
 _atom_site_type_symbol
 _atom_site_label
 _atom_site_symmetry_multiplicity
 _atom_site_fract_x
 _atom_site_fract_y
 _atom_site_fract_z
 _atom_site_occupancy
  Li  Li0  1  0.25520462  0.05052071  0.36116194  1
  Li  Li1  1  0.74479538  0.94947929  0.63883806  1
  Li  Li2  1  0.79981068  0.28356889  0.43460668  1
  Li  Li3  1  0.20018932  0.71643111  0.56539332  1
  Li  Li4  1  0.19310017  0.59634123  0.31172841  1
  Li  Li5  1  0.80689983  0.40365877  0.68827159  1
  Li  Li6  1  0.96842571  0.78487050  0.93441455  1
  Li  Li7  1  0.03157429  0.21512950  0.06558545  1
  Mo  Mo8  1  0.36196752  0.87859232  0.02372980  1
  Mo  Mo9  1  0.63803248  0.12140768  0.97627020  1
  Mo  Mo10  1  0.73878161  0.54379237  0.14740265  1
  Mo  Mo11  1  0.26121839  0.45620763  0.85259635  1
  Mo  Mo12  1  0.52046422  0.71036022  0.79694175  1
  Mo  Mo13  1  0.47953578  0.28963978  0.20305825  1
  Mo  Mo14  1  0.61642069  0.69318261  0.38849107  1
  Mo  Mo15  1  0.38357931  0.30681739  0.61150893  1
  Mo  Mo16  1  0.15329730  0.05745198  0.66354668  1
  Mo  Mo17  1  0.84670270  0.94254802  0.33645332  1
  O  O18  1  0.30967757  0.06863757  0.03555029  1
  O  O19  1  0.69032243  0.93136243  0.96444971  1
  O  O20  1  0.34246533  0.82931293  0.65029029  1
  O  O21  1  0.65753467  0.17068707  0.34970971  1
  O  O22  1  0.34143912  0.91760259  0.84208256  1
  O  O23  1  0.65856088  0.08239741  0.15791744  1
  O  O24  1  0.13687074  0.83908415  0.05812848  1
  O  O25  1  0.86312926  0.16091585  0.94187152  1
  O  O26  1  0.78863447  0.35208202  0.13637892  1
  O  O27  1  0.21136553  0.64791798  0.86362108  1
  O  O28  1  0.95429112  0.58917696  0.09579296  1
  O  O29  1  0.04570888  0.41082304  0.90420704  1
  O  O30  1  0.55259287  0.66436385  0.98767469  1
  O  O31  1  0.44740713  0.33563615  0.01232531  1
  O  O32  1  0.75233408  0.59856188  0.53769037  1
  O  O33  1  0.24766592  0.40143812  0.46230963  1
  O  O34  1  0.94965625  0.99670223  0.72894495  1
  O  O35  1  0.05034375  0.00329777  0.27105505  1
  O  O36  1  0.74549653  0.75321547  0.76349840  1
  O  O37  1  0.25450347  0.24678453  0.23650160  1
  O  O38  1  0.58471071  0.51638481  0.79043091  1
  O  O39  1  0.41528929  0.48361519  0.20956909  1
  O  O40  1  0.08494364  0.11860802  0.49714650  1
  O  O41  1  0.91505636  0.88139198  0.50285350  1
  O  O42  1  0.54068357  0.75214448  0.17686923  1
  O  O43  1  0.45931643  0.24785552  0.82313077  1
  O  O44  1  0.54756022  0.90229306  0.37281667  1
  O  O45  1  0.45243978  0.09770694  0.62718333  1
  O  O46  1  0.76770523  0.50180545  0.32593961  1
  O  O47  1  0.23229477  0.49819455  0.67406039  1
  O  O48  1  0.09773748  0.24491845  0.69196984  1
  O  O49  1  0.90226252  0.75508155  0.30803016  1
  O  O50  1  0.36906621  0.67577048  0.41411133  1
  O  O51  1  0.63093379  0.32422952  0.58588867  1
