# generated using pymatgen
data_Mn2Sb2O7
_symmetry_space_group_name_H-M   'P 1'
_cell_length_a   7.33366380
_cell_length_b   7.33366336
_cell_length_c   17.55171200
_cell_angle_alpha   90.00000000
_cell_angle_beta   90.00000000
_cell_angle_gamma   120.00000201
_symmetry_Int_Tables_number   1
_chemical_formula_structural   Mn2Sb2O7
_chemical_formula_sum   'Mn12 Sb12 O42'
_cell_volume   817.50811763
_cell_formula_units_Z   6
loop_
 _symmetry_equiv_pos_site_id
 _symmetry_equiv_pos_as_xyz
  1  'x, y, z'
loop_
 _atom_site_type_symbol
 _atom_site_label
 _atom_site_symmetry_multiplicity
 _atom_site_fract_x
 _atom_site_fract_y
 _atom_site_fract_z
 _atom_site_occupancy
  Mn  Mn0  1  0.19012920  0.19012920  0.50000000  1
  Mn  Mn1  1  0.80987080  0.00000000  0.83333300  1
  Mn  Mn2  1  0.36377097  0.48806389  0.33544449  1
  Mn  Mn3  1  0.63622903  0.12429292  0.99788851  1
  Mn  Mn4  1  0.86797820  0.00000000  0.33333300  1
  Mn  Mn5  1  0.48806389  0.36377097  0.66455551  1
  Mn  Mn6  1  0.12429292  0.63622903  0.00211149  1
  Mn  Mn7  1  0.13202180  0.13202180  0.00000000  1
  Mn  Mn8  1  1.00000000  0.80987080  0.16666700  1
  Mn  Mn9  1  0.51193611  0.87570708  0.66877849  1
  Mn  Mn10  1  1.00000000  0.86797820  0.66666700  1
  Mn  Mn11  1  0.87570708  0.51193611  0.33122151  1
  Sb  Sb12  1  0.50022249  0.83772801  0.17099173  1
  Sb  Sb13  1  0.16227199  0.66249449  0.50432573  1
  Sb  Sb14  1  0.83772801  0.50022249  0.82900827  1
  Sb  Sb15  1  0.33750551  0.49977751  0.83765873  1
  Sb  Sb16  1  0.31072251  0.00000000  0.33333300  1
  Sb  Sb17  1  0.33417306  0.00000000  0.83333300  1
  Sb  Sb18  1  0.68927749  0.68927749  0.00000000  1
  Sb  Sb19  1  0.66249449  0.16227199  0.49567427  1
  Sb  Sb20  1  0.00000000  0.33417306  0.16666700  1
  Sb  Sb21  1  0.49977751  0.33750551  0.16234127  1
  Sb  Sb22  1  0.00000000  0.31072251  0.66666700  1
  Sb  Sb23  1  0.66582694  0.66582694  0.50000000  1
  O  O24  1  0.96815196  0.77045785  0.53141003  1
  O  O25  1  0.56628879  0.82691862  0.06271506  1
  O  O26  1  0.05875840  0.37067867  0.27974030  1
  O  O27  1  0.40716085  0.56204816  0.94741630  1
  O  O28  1  0.03184804  0.80230589  0.80192397  1
  O  O29  1  0.03557873  0.85129753  0.27913942  1
  O  O30  1  0.17308138  0.73937016  0.39604806  1
  O  O31  1  0.31192026  0.94124160  0.94640730  1
  O  O32  1  0.19703698  0.64521049  0.14235977  1
  O  O33  1  0.18428119  0.14870247  0.38752658  1
  O  O34  1  0.55182650  0.35478951  0.52430723  1
  O  O35  1  0.37067867  0.05875840  0.72025970  1
  O  O36  1  0.44817350  0.80296302  0.80902677  1
  O  O37  1  0.68807974  0.62932133  0.38692570  1
  O  O38  1  0.73937016  0.17308138  0.60395194  1
  O  O39  1  0.55650368  0.61314517  0.20338417  1
  O  O40  1  0.80230589  0.03184804  0.19807603  1
  O  O41  1  0.94124160  0.31192026  0.05359270  1
  O  O42  1  0.84511269  0.43795184  0.71925070  1
  O  O43  1  0.26062984  0.43371121  0.72938206  1
  O  O44  1  0.19769411  0.22954215  0.13525697  1
  O  O45  1  0.77045785  0.96815196  0.46858997  1
  O  O46  1  0.80296302  0.44817350  0.19097323  1
  O  O47  1  0.59283915  0.15488731  0.38591670  1
  O  O48  1  0.64521049  0.19703698  0.85764023  1
  O  O49  1  0.15488731  0.59283915  0.61408330  1
  O  O50  1  0.43371121  0.26062984  0.27061794  1
  O  O51  1  0.81571881  0.96442127  0.94580642  1
  O  O52  1  0.61314517  0.55650368  0.79661583  1
  O  O53  1  0.38685483  0.94335851  0.53671717  1
  O  O54  1  0.94335851  0.38685483  0.46328283  1
  O  O55  1  0.22954215  0.19769411  0.86474303  1
  O  O56  1  0.05664149  0.44349632  0.87005117  1
  O  O57  1  0.44349632  0.05664149  0.12994883  1
  O  O58  1  0.82691862  0.56628879  0.93728494  1
  O  O59  1  0.14870247  0.18428119  0.61247342  1
  O  O60  1  0.62932133  0.68807974  0.61307430  1
  O  O61  1  0.85129753  0.03557873  0.72086058  1
  O  O62  1  0.35478951  0.55182650  0.47569277  1
  O  O63  1  0.56204816  0.40716085  0.05258370  1
  O  O64  1  0.96442127  0.81571881  0.05419358  1
  O  O65  1  0.43795184  0.84511269  0.28074930  1
