# generated using pymatgen
data_Te4W(OF4)5
_symmetry_space_group_name_H-M   'P 1'
_cell_length_a   9.98144377
_cell_length_b   10.48341289
_cell_length_c   10.88988556
_cell_angle_alpha   75.59751533
_cell_angle_beta   87.10762860
_cell_angle_gamma   83.40802655
_symmetry_Int_Tables_number   1
_chemical_formula_structural   Te4W(OF4)5
_chemical_formula_sum   'Te8 W2 O10 F40'
_cell_volume   1096.12011119
_cell_formula_units_Z   2
loop_
 _symmetry_equiv_pos_site_id
 _symmetry_equiv_pos_as_xyz
  1  'x, y, z'
loop_
 _atom_site_type_symbol
 _atom_site_label
 _atom_site_symmetry_multiplicity
 _atom_site_fract_x
 _atom_site_fract_y
 _atom_site_fract_z
 _atom_site_occupancy
  Te  Te0  1  0.75882300  0.62638737  0.85160870  1
  Te  Te1  1  0.82492981  0.68633583  0.35215235  1
  Te  Te2  1  0.29740296  0.81357739  0.57942214  1
  Te  Te3  1  0.70259704  0.18642261  0.42057786  1
  Te  Te4  1  0.27269786  0.87127873  0.08728882  1
  Te  Te5  1  0.24117700  0.37361263  0.14839130  1
  Te  Te6  1  0.72730214  0.12872127  0.91271118  1
  Te  Te7  1  0.17507019  0.31366417  0.64784765  1
  W  W8  1  0.27052610  0.58796803  0.36948312  1
  W  W9  1  0.72947390  0.41203197  0.63051688  1
  O  O10  1  0.75639471  0.54964168  0.47522311  1
  O  O11  1  0.44303870  0.56946344  0.35613991  1
  O  O12  1  0.76447431  0.28552469  0.52624377  1
  O  O13  1  0.21630922  0.46611039  0.27843887  1
  O  O14  1  0.55696130  0.43053656  0.64386009  1
  O  O15  1  0.23552569  0.71447531  0.47375623  1
  O  O16  1  0.78369078  0.53388961  0.72156113  1
  O  O17  1  0.24360529  0.45035832  0.52477689  1
  O  O18  1  0.77706930  0.26942827  0.77666414  1
  O  O19  1  0.22293070  0.73057173  0.22333586  1
  F  F20  1  0.89937826  0.81856999  0.22897310  1
  F  F21  1  0.35530443  0.91371862  0.68267845  1
  F  F22  1  0.68218426  0.99072022  0.04775452  1
  F  F23  1  0.70217979  0.03814464  0.55765015  1
  F  F24  1  0.64469557  0.08628138  0.31732155  1
  F  F25  1  0.59688400  0.08753197  0.81533320  1
  F  F26  1  0.26249225  0.27972367  0.02250662  1
  F  F27  1  0.16489364  0.52196281  0.02941775  1
  F  F28  1  0.69901369  0.33216930  0.28043523  1
  F  F29  1  0.59705352  0.24376893  0.97192614  1
  F  F30  1  0.10062174  0.18143001  0.77102690  1
  F  F31  1  0.47829390  0.76274954  0.54236361  1
  F  F32  1  0.17066143  0.41450408  0.76718076  1
  F  F33  1  0.73750775  0.72027633  0.97749338  1
  F  F34  1  0.65318639  0.76705892  0.30542100  1
  F  F35  1  0.52170610  0.23725046  0.45763639  1
  F  F36  1  0.68094741  0.77693570  0.73692097  1
  F  F37  1  0.07060433  0.31591365  0.18848945  1
  F  F38  1  0.14419632  0.98881370  0.14444943  1
  F  F39  1  0.40294648  0.75623107  0.02807386  1
  F  F40  1  0.58761880  0.56969543  0.89435493  1
  F  F41  1  0.85642657  0.16648917  0.01296370  1
  F  F42  1  0.92939567  0.68408635  0.81151055  1
  F  F43  1  0.99332087  0.38860198  0.60663380  1
  F  F44  1  0.88113685  0.13379530  0.38064842  1
  F  F45  1  0.34681361  0.23294108  0.69457900  1
  F  F46  1  0.11886315  0.86620470  0.61935158  1
  F  F47  1  0.30098631  0.66783070  0.71956477  1
  F  F48  1  0.16411678  0.21185702  0.53088274  1
  F  F49  1  0.14357343  0.83351083  0.98703630  1
  F  F50  1  0.31781574  0.00927978  0.95224548  1
  F  F51  1  0.29782021  0.96185536  0.44234985  1
  F  F52  1  0.31905259  0.22306430  0.26307903  1
  F  F53  1  0.00667913  0.61139802  0.39336620  1
  F  F54  1  0.83510636  0.47803719  0.97058225  1
  F  F55  1  0.85580368  0.01118630  0.85555057  1
  F  F56  1  0.41238120  0.43030457  0.10564507  1
  F  F57  1  0.82933857  0.58549592  0.23281924  1
  F  F58  1  0.83588322  0.78814298  0.46911726  1
  F  F59  1  0.40311600  0.91246803  0.18466680  1
