# generated using pymatgen
data_V9O17
_symmetry_space_group_name_H-M   'P 1'
_cell_length_a   5.52798160
_cell_length_b   7.07360057
_cell_length_c   14.77031798
_cell_angle_alpha   84.49150496
_cell_angle_beta   89.68808222
_cell_angle_gamma   72.63602765
_symmetry_Int_Tables_number   1
_chemical_formula_structural   V9O17
_chemical_formula_sum   'V18 O34'
_cell_volume   548.53002621
_cell_formula_units_Z   2
loop_
 _symmetry_equiv_pos_site_id
 _symmetry_equiv_pos_as_xyz
  1  'x, y, z'
loop_
 _atom_site_type_symbol
 _atom_site_label
 _atom_site_symmetry_multiplicity
 _atom_site_fract_x
 _atom_site_fract_y
 _atom_site_fract_z
 _atom_site_occupancy
  V  V0  1  0.34942509  0.89275889  0.72328004  1
  V  V1  1  0.76305881  0.10015391  0.83547623  1
  V  V2  1  0.34079709  0.39583102  0.72601071  1
  V  V3  1  0.91818227  0.19843030  0.61160503  1
  V  V4  1  0.23694119  0.89984609  0.16452377  1
  V  V5  1  0.23313314  0.41246868  0.15683031  1
  V  V6  1  0.79640440  0.69478860  0.04235398  1
  V  V7  1  0.91884355  0.69891392  0.61453818  1
  V  V8  1  0.08115645  0.30108608  0.38546182  1
  V  V9  1  0.08181773  0.80156970  0.38839497  1
  V  V10  1  0.80480069  0.19197816  0.04581251  1
  V  V11  1  0.50000000  0.00000000  0.50000000  1
  V  V12  1  0.65920291  0.60416898  0.27398929  1
  V  V13  1  0.76686686  0.58753132  0.84316969  1
  V  V14  1  0.19519931  0.80802184  0.95418749  1
  V  V15  1  0.20359560  0.30521140  0.95764602  1
  V  V16  1  0.65057491  0.10724111  0.27671996  1
  V  V17  1  0.50000000  0.50000000  0.50000000  1
  O  O18  1  0.14533354  0.18634790  0.09372128  1
  O  O19  1  0.97836647  0.05668068  0.74546398  1
  O  O20  1  0.19659131  0.01144103  0.41910434  1
  O  O21  1  0.19440683  0.54766068  0.01889154  1
  O  O22  1  0.72257279  0.96781887  0.39338091  1
  O  O23  1  0.55563856  0.36467685  0.62656809  1
  O  O24  1  0.78470493  0.31398675  0.30340284  1
  O  O25  1  0.63271538  0.38211557  0.80654420  1
  O  O26  1  0.14360950  0.66719237  0.51124860  1
  O  O27  1  0.46461248  0.81482451  0.04302093  1
  O  O28  1  0.03563559  0.10526444  0.92898192  1
  O  O29  1  0.45617238  0.10542792  0.77210909  1
  O  O30  1  0.39333718  0.76098193  0.86170966  1
  O  O31  1  0.04063809  0.40611455  0.65367280  1
  O  O32  1  0.36728462  0.61788443  0.19345580  1
  O  O33  1  0.37362450  0.29322720  0.46373366  1
  O  O34  1  0.80340869  0.98855897  0.58089566  1
  O  O35  1  0.96436441  0.89473556  0.07101808  1
  O  O36  1  0.02163353  0.94331932  0.25453602  1
  O  O37  1  0.53538752  0.18517549  0.95697907  1
  O  O38  1  0.44436144  0.63532315  0.37343191  1
  O  O39  1  0.54382762  0.89457208  0.22789091  1
  O  O40  1  0.30078366  0.26367300  0.28065479  1
  O  O41  1  0.85466646  0.81365210  0.90627872  1
  O  O42  1  0.69921634  0.73632700  0.71934521  1
  O  O43  1  0.27742721  0.03218113  0.60661909  1
  O  O44  1  0.62637550  0.70677280  0.53626634  1
  O  O45  1  0.13034253  0.43672807  0.83842322  1
  O  O46  1  0.60666282  0.23901807  0.13829034  1
  O  O47  1  0.85639050  0.33280763  0.48875140  1
  O  O48  1  0.21529507  0.68601325  0.69659716  1
  O  O49  1  0.86965747  0.56327193  0.16157678  1
  O  O50  1  0.80559317  0.45233932  0.98110846  1
  O  O51  1  0.95936191  0.59388545  0.34632720  1
