# generated using pymatgen
data_VAgO3
_symmetry_space_group_name_H-M   'P 1'
_cell_length_a   3.62014435
_cell_length_b   8.14726641
_cell_length_c   9.46345408
_cell_angle_alpha   104.88079080
_cell_angle_beta   101.02689368
_cell_angle_gamma   90.00000295
_symmetry_Int_Tables_number   1
_chemical_formula_structural   VAgO3
_chemical_formula_sum   'V4 Ag4 O12'
_cell_volume   264.42120315
_cell_formula_units_Z   4
loop_
 _symmetry_equiv_pos_site_id
 _symmetry_equiv_pos_as_xyz
  1  'x, y, z'
loop_
 _atom_site_type_symbol
 _atom_site_label
 _atom_site_symmetry_multiplicity
 _atom_site_fract_x
 _atom_site_fract_y
 _atom_site_fract_z
 _atom_site_occupancy
  V  V0  1  0.67673711  0.56158358  0.35347522  1
  V  V1  1  0.12513148  0.23011753  0.25026395  1
  V  V2  1  0.32237976  0.43508088  0.64475952  1
  V  V3  1  0.86978986  0.76699033  0.73957872  1
  Ag  Ag4  1  0.74838016  0.04020927  0.49675932  1
  Ag  Ag5  1  0.99978738  0.50230172  0.99957477  1
  Ag  Ag6  1  0.54862625  0.86341831  0.09725251  1
  Ag  Ag7  1  0.44819004  0.13194982  0.89637908  1
  O  O8  1  0.34832632  0.70430792  0.69665165  1
  O  O9  1  0.26194980  0.23412291  0.52389960  1
  O  O10  1  0.59104795  0.59850234  0.18209590  1
  O  O11  1  0.87756268  0.98217035  0.75512636  1
  O  O12  1  0.64851894  0.28859514  0.29703687  1
  O  O13  1  0.11860397  0.01569555  0.23720693  1
  O  O14  1  0.18589566  0.49274742  0.37179032  1
  O  O15  1  0.73864337  0.75653476  0.47728673  1
  O  O16  1  0.81118698  0.49759292  0.62237497  1
  O  O17  1  0.03323005  0.23791701  0.06645911  1
  O  O18  1  0.96220723  0.76118009  0.92441445  1
  O  O19  1  0.40860701  0.40168116  0.81721401  1
