# generated using pymatgen
data_BaMg15
_symmetry_space_group_name_H-M   'P 1'
_cell_length_a   6.66601910
_cell_length_b   6.66601851
_cell_length_c   10.48203532
_cell_angle_alpha   90.00000000
_cell_angle_beta   90.00000000
_cell_angle_gamma   120.00000293
_symmetry_Int_Tables_number   1
_chemical_formula_structural   BaMg15
_chemical_formula_sum   'Ba1 Mg15'
_cell_volume   403.37530472
_cell_formula_units_Z   1
loop_
 _symmetry_equiv_pos_site_id
 _symmetry_equiv_pos_as_xyz
  1  'x, y, z'
loop_
 _atom_site_type_symbol
 _atom_site_label
 _atom_site_symmetry_multiplicity
 _atom_site_fract_x
 _atom_site_fract_y
 _atom_site_fract_z
 _atom_site_occupancy
  Ba  Ba0  1  0.16666700  0.33333300  0.12500000  1
  Mg  Mg1  1  0.16666700  0.33333300  0.62500000  1
  Mg  Mg2  1  0.18149706  0.84074803  0.12500000  1
  Mg  Mg3  1  0.16193328  0.83096614  0.62500000  1
  Mg  Mg4  1  0.65925197  0.31850294  0.12500000  1
  Mg  Mg5  1  0.66903386  0.33806672  0.62500000  1
  Mg  Mg6  1  0.65925197  0.84074803  0.12500000  1
  Mg  Mg7  1  0.66903386  0.83096614  0.62500000  1
  Mg  Mg8  1  0.33820042  0.16179958  0.38880360  1
  Mg  Mg9  1  0.33820042  0.16179958  0.86119640  1
  Mg  Mg10  1  0.33820042  0.67640185  0.38880360  1
  Mg  Mg11  1  0.33820042  0.67640185  0.86119640  1
  Mg  Mg12  1  0.82359815  0.16179958  0.38880360  1
  Mg  Mg13  1  0.82359815  0.16179958  0.86119640  1
  Mg  Mg14  1  0.83333300  0.66666700  0.36937949  1
  Mg  Mg15  1  0.83333300  0.66666700  0.88062051  1
