# generated using pymatgen
data_Ce4Si2S3O7
_symmetry_space_group_name_H-M   'P 1'
_cell_length_a   11.12771077
_cell_length_b   11.12776601
_cell_length_c   11.12776598
_cell_angle_alpha   100.15582085
_cell_angle_beta   114.31958299
_cell_angle_gamma   114.31958061
_symmetry_Int_Tables_number   1
_chemical_formula_structural   Ce4Si2S3O7
_chemical_formula_sum   'Ce16 Si8 S12 O28'
_cell_volume   1040.20869623
_cell_formula_units_Z   4
loop_
 _symmetry_equiv_pos_site_id
 _symmetry_equiv_pos_as_xyz
  1  'x, y, z'
loop_
 _atom_site_type_symbol
 _atom_site_label
 _atom_site_symmetry_multiplicity
 _atom_site_fract_x
 _atom_site_fract_y
 _atom_site_fract_z
 _atom_site_occupancy
  Ce  Ce0  1  0.09387576  0.04694618  0.29693534  1
  Ce  Ce1  1  0.48464717  0.82801538  0.34333921  1
  Ce  Ce2  1  0.01535283  0.65666079  0.17198462  1
  Ce  Ce3  1  0.25000000  0.29695517  0.70304483  1
  Ce  Ce4  1  0.98464717  0.34333921  0.82801538  1
  Ce  Ce5  1  0.98462755  0.64130685  0.65662996  1
  Ce  Ce6  1  0.25000000  0.95304553  0.04695447  1
  Ce  Ce7  1  0.75000000  0.04695447  0.95304553  1
  Ce  Ce8  1  0.48462755  0.65662996  0.64130685  1
  Ce  Ce9  1  0.59387576  0.29693534  0.04694618  1
  Ce  Ce10  1  0.90612424  0.95305382  0.70306466  1
  Ce  Ce11  1  0.75000000  0.70304483  0.29695517  1
  Ce  Ce12  1  0.51537245  0.34337004  0.35869315  1
  Ce  Ce13  1  0.40612424  0.70306466  0.95305382  1
  Ce  Ce14  1  0.01537245  0.35869315  0.34337004  1
  Ce  Ce15  1  0.51535283  0.17198462  0.65666079  1
  Si  Si16  1  0.37376579  0.47047440  0.09676314  1
  Si  Si17  1  0.62623421  0.52952560  0.90323686  1
  Si  Si18  1  0.37378048  0.90329532  0.77702111  1
  Si  Si19  1  0.12621952  0.22297889  0.09670468  1
  Si  Si20  1  0.87376579  0.09676314  0.47047440  1
  Si  Si21  1  0.87378048  0.77702111  0.90329532  1
  Si  Si22  1  0.62621952  0.09670468  0.22297889  1
  Si  Si23  1  0.12623421  0.90323686  0.52952560  1
  S  S24  1  0.64883624  1.00000976  0.64883803  1
  S  S25  1  0.35116376  -0.00000976  0.35116197  1
  S  S26  1  0.14884395  0.50000071  0.64883609  1
  S  S27  1  0.85115605  0.49999929  0.35116391  1
  S  S28  1  0.75000000  0.87500880  0.12499120  1
  S  S29  1  0.25000000  0.12499120  0.87500880  1
  S  S30  1  0.64884395  0.64883609  0.50000071  1
  S  S31  1  0.85116376  0.35116197  -0.00000976  1
  S  S32  1  0.35115605  0.35116391  0.49999929  1
  S  S33  1  0.25000000  0.62499932  0.37500068  1
  S  S34  1  0.14883624  0.64883803  1.00000976  1
  S  S35  1  0.75000000  0.37500068  0.62499932  1
  O  O36  1  0.25000546  0.85437206  0.60436827  1
  O  O37  1  0.97625616  0.80221216  0.82598558  1
  O  O38  1  0.22856383  0.07609550  0.56715079  1
  O  O39  1  0.72855415  0.16140959  0.15245070  1
  O  O40  1  0.52376082  0.34973335  0.82597098  1
  O  O41  1  0.27143617  0.43284921  0.92390450  1
  O  O42  1  0.72856383  0.56715079  0.07609550  1
  O  O43  1  0.02376082  0.82597098  0.34973335  1
  O  O44  1  0.49103186  0.56710920  0.83859672  1
  O  O45  1  0.50896814  0.43289080  0.16140328  1
  O  O46  1  0.77143617  0.92390450  0.43284921  1
  O  O47  1  0.00896654  0.84755608  0.07606706  1
  O  O48  1  0.49103346  0.92393294  0.15244392  1
  O  O49  1  0.47625616  0.82598558  0.80221216  1
  O  O50  1  0.52374384  0.17401442  0.19778784  1
  O  O51  1  0.74999454  0.14562794  0.39563173  1
  O  O52  1  0.99103186  0.83859672  0.56710920  1
  O  O53  1  0.50896654  0.07606706  0.84755608  1
  O  O54  1  0.02374384  0.19778784  0.17401442  1
  O  O55  1  0.99103346  0.15244392  0.92393294  1
  O  O56  1  0.00896814  0.16140328  0.43289080  1
  O  O57  1  0.75000546  0.60436827  0.85437206  1
  O  O58  1  0.47623918  0.65026665  0.17402902  1
  O  O59  1  0.27144585  0.83859041  0.84754930  1
  O  O60  1  0.22855415  0.15245070  0.16140959  1
  O  O61  1  0.24999454  0.39563173  0.14562794  1
  O  O62  1  0.77144585  0.84754930  0.83859041  1
  O  O63  1  0.97623918  0.17402902  0.65026665  1
