# generated using pymatgen
data_Cr2HgO7
_symmetry_space_group_name_H-M   'P 1'
_cell_length_a   7.61779340
_cell_length_b   7.61779310
_cell_length_c   9.66456015
_cell_angle_alpha   90.00000000
_cell_angle_beta   90.00000000
_cell_angle_gamma   120.00000124
_symmetry_Int_Tables_number   1
_chemical_formula_structural   Cr2HgO7
_chemical_formula_sum   'Cr6 Hg3 O21'
_cell_volume   485.70333207
_cell_formula_units_Z   3
loop_
 _symmetry_equiv_pos_site_id
 _symmetry_equiv_pos_as_xyz
  1  'x, y, z'
loop_
 _atom_site_type_symbol
 _atom_site_label
 _atom_site_symmetry_multiplicity
 _atom_site_fract_x
 _atom_site_fract_y
 _atom_site_fract_z
 _atom_site_occupancy
  Cr  Cr0  1  0.42036467  0.07557935  0.99101442  1
  Cr  Cr1  1  0.98394540  0.23829164  0.33229721  1
  Cr  Cr2  1  0.25434624  0.01605460  0.66563121  1
  Cr  Cr3  1  0.65521468  0.57963533  0.32434842  1
  Cr  Cr4  1  0.76170836  0.74565376  0.99896421  1
  Cr  Cr5  1  0.92442065  0.34478532  0.65768142  1
  Hg  Hg6  1  0.59747001  0.68639297  0.66316759  1
  Hg  Hg7  1  0.08892296  0.40252999  0.99650059  1
  Hg  Hg8  1  0.31360703  0.91107704  0.32983459  1
  O  O9  1  0.87565933  0.61912104  0.97367247  1
  O  O10  1  0.10432913  0.41843827  0.78516040  1
  O  O11  1  0.01641335  0.94476144  0.66113911  1
  O  O12  1  0.38087896  0.25653828  0.64033947  1
  O  O13  1  0.04370282  0.35748627  0.49686260  1
  O  O14  1  0.37809202  0.25957433  0.01623693  1
  O  O15  1  0.74042567  0.11851770  0.68290293  1
  O  O16  1  0.31378345  0.95629718  0.83019560  1
  O  O17  1  0.31410915  0.89567087  0.11849440  1
  O  O18  1  0.58076181  0.69072898  0.87438508  1
  O  O19  1  0.92834809  0.98358665  0.99447211  1
  O  O20  1  0.64251373  0.68621655  0.16352860  1
  O  O21  1  0.05523856  0.07165191  0.32780511  1
  O  O22  1  0.50404806  0.33825596  0.32093119  1
  O  O23  1  0.30927102  0.89003283  0.54105208  1
  O  O24  1  0.10996717  0.41923819  0.20771808  1
  O  O25  1  0.88148230  0.62190798  0.34956993  1
  O  O26  1  0.58156173  0.68589085  0.45182740  1
  O  O27  1  0.83420790  0.49595194  0.65426419  1
  O  O28  1  0.66174404  0.16579210  0.98759719  1
  O  O29  1  0.74346172  0.12434067  0.30700547  1
