# generated using pymatgen
data_Li3AlMo2(AsO7)2
_symmetry_space_group_name_H-M   'P 1'
_cell_length_a   5.28278638
_cell_length_b   5.49119680
_cell_length_c   9.58569131
_cell_angle_alpha   96.31429456
_cell_angle_beta   102.34374261
_cell_angle_gamma   105.16998624
_symmetry_Int_Tables_number   1
_chemical_formula_structural   Li3AlMo2(AsO7)2
_chemical_formula_sum   'Li3 Al1 Mo2 As2 O14'
_cell_volume   258.08394877
_cell_formula_units_Z   1
loop_
 _symmetry_equiv_pos_site_id
 _symmetry_equiv_pos_as_xyz
  1  'x, y, z'
loop_
 _atom_site_type_symbol
 _atom_site_label
 _atom_site_symmetry_multiplicity
 _atom_site_fract_x
 _atom_site_fract_y
 _atom_site_fract_z
 _atom_site_occupancy
  Li  Li0  1  0.19407354  0.38654234  0.84780178  1
  Li  Li1  1  0.80592646  0.61345766  0.15219822  1
  Li  Li2  1  0.00000000  0.50000000  0.50000000  1
  Al  Al3  1  0.50000000  0.00000000  0.00000000  1
  Mo  Mo4  1  0.49517470  0.83859225  0.35383882  1
  Mo  Mo5  1  0.50482530  0.16140775  0.64616118  1
  As  As6  1  0.14977496  0.23207247  0.17493138  1
  As  As7  1  0.85022504  0.76792753  0.82506862  1
  O  O8  1  0.58298047  0.70763607  0.90586214  1
  O  O9  1  0.13704965  0.79174354  0.95700484  1
  O  O10  1  0.41701953  0.29236393  0.09413786  1
  O  O11  1  0.32476345  0.83665956  0.53615630  1
  O  O12  1  0.56073877  0.87019964  0.17662620  1
  O  O13  1  0.86295035  0.20825646  0.04299516  1
  O  O14  1  0.16120651  0.51050756  0.28843891  1
  O  O15  1  0.86662122  0.01980917  0.73471481  1
  O  O16  1  0.27980076  0.33398487  0.59058483  1
  O  O17  1  0.83879349  0.48949244  0.71156109  1
  O  O18  1  0.43926123  0.12980036  0.82337380  1
  O  O19  1  0.72019924  0.66601513  0.40941517  1
  O  O20  1  0.67523655  0.16334044  0.46384370  1
  O  O21  1  0.13337878  0.98019083  0.26528519  1
