# generated using pymatgen
data_Mn3Nb2ZnO9
_symmetry_space_group_name_H-M   'P 1'
_cell_length_a   5.36636583
_cell_length_b   5.36636532
_cell_length_c   14.53427605
_cell_angle_alpha   90.00000000
_cell_angle_beta   90.00000000
_cell_angle_gamma   120.00000322
_symmetry_Int_Tables_number   1
_chemical_formula_structural   Mn3Nb2ZnO9
_chemical_formula_sum   'Mn6 Nb4 Zn2 O18'
_cell_volume   362.48040282
_cell_formula_units_Z   2
loop_
 _symmetry_equiv_pos_site_id
 _symmetry_equiv_pos_as_xyz
  1  'x, y, z'
loop_
 _atom_site_type_symbol
 _atom_site_label
 _atom_site_symmetry_multiplicity
 _atom_site_fract_x
 _atom_site_fract_y
 _atom_site_fract_z
 _atom_site_occupancy
  Mn  Mn0  1  0.66666700  0.33333300  0.69758904  1
  Mn  Mn1  1  0.66666700  0.33333300  0.98130734  1
  Mn  Mn2  1  0.66666700  0.33333300  0.48130734  1
  Mn  Mn3  1  0.33333300  0.66666700  0.51347400  1
  Mn  Mn4  1  0.33333300  0.66666700  0.01347400  1
  Mn  Mn5  1  0.66666700  0.33333300  0.19758904  1
  Nb  Nb6  1  0.00000000  0.00000000  0.85790719  1
  Nb  Nb7  1  0.00000000  0.00000000  0.14113550  1
  Nb  Nb8  1  0.00000000  0.00000000  0.64113550  1
  Nb  Nb9  1  0.00000000  0.00000000  0.35790719  1
  Zn  Zn10  1  0.33333300  0.66666700  0.79434587  1
  Zn  Zn11  1  0.33333300  0.66666700  0.29434587  1
  O  O12  1  0.33643079  0.30939130  0.08491572  1
  O  O13  1  0.66372194  0.68959081  0.91390046  1
  O  O14  1  0.01010799  0.28663665  0.24969750  1
  O  O15  1  0.27652866  0.98989201  0.24969750  1
  O  O16  1  0.97296051  0.66356921  0.08491572  1
  O  O17  1  0.69060870  0.66356921  0.58491572  1
  O  O18  1  0.71336335  0.98989201  0.74969750  1
  O  O19  1  0.02586887  0.33627806  0.91390046  1
  O  O20  1  0.02586887  0.68959081  0.41390046  1
  O  O21  1  0.33643079  0.02703949  0.58491572  1
  O  O22  1  0.27652866  0.28663665  0.74969750  1
  O  O23  1  0.97296051  0.30939130  0.58491572  1
  O  O24  1  0.71336335  0.72347134  0.24969750  1
  O  O25  1  0.31040919  0.97413113  0.91390046  1
  O  O26  1  0.69060870  0.02703949  0.08491572  1
  O  O27  1  0.66372194  0.97413113  0.41390046  1
  O  O28  1  0.31040919  0.33627806  0.41390046  1
  O  O29  1  0.01010799  0.72347134  0.74969750  1
