# generated using pymatgen
data_SmCoSb3
_symmetry_space_group_name_H-M   'P 1'
_cell_length_a   6.18340647
_cell_length_b   12.10737782
_cell_length_c   12.59718829
_cell_angle_alpha   90.00000000
_cell_angle_beta   90.00000000
_cell_angle_gamma   90.00000000
_symmetry_Int_Tables_number   1
_chemical_formula_structural   SmCoSb3
_chemical_formula_sum   'Sm8 Co8 Sb24'
_cell_volume   943.08646496
_cell_formula_units_Z   8
loop_
 _symmetry_equiv_pos_site_id
 _symmetry_equiv_pos_as_xyz
  1  'x, y, z'
loop_
 _atom_site_type_symbol
 _atom_site_label
 _atom_site_symmetry_multiplicity
 _atom_site_fract_x
 _atom_site_fract_y
 _atom_site_fract_z
 _atom_site_occupancy
  Sm  Sm0  1  0.72241447  0.25000000  0.69645641  1
  Sm  Sm1  1  0.75000000  0.00000000  0.29995841  1
  Sm  Sm2  1  0.22241447  0.25000000  0.30354359  1
  Sm  Sm3  1  0.25000000  0.00000000  0.70004159  1
  Sm  Sm4  1  0.75000000  0.50000000  0.29995841  1
  Sm  Sm5  1  0.25000000  0.50000000  0.70004159  1
  Sm  Sm6  1  0.77758553  0.75000000  0.69645641  1
  Sm  Sm7  1  0.27758553  0.75000000  0.30354359  1
  Co  Co8  1  0.53746004  0.63604239  0.89997168  1
  Co  Co9  1  0.53746004  0.86395761  0.89997168  1
  Co  Co10  1  0.96253996  0.13604239  0.89997168  1
  Co  Co11  1  0.03746004  0.86395761  0.10002832  1
  Co  Co12  1  0.46253996  0.13604239  0.10002832  1
  Co  Co13  1  0.96253996  0.36395761  0.89997168  1
  Co  Co14  1  0.46253996  0.36395761  0.10002832  1
  Co  Co15  1  0.03746004  0.63604239  0.10002832  1
  Sb  Sb16  1  0.25000000  0.00000000  0.22282231  1
  Sb  Sb17  1  0.25000000  0.50000000  0.22282231  1
  Sb  Sb18  1  0.48626464  0.12430893  0.49716505  1
  Sb  Sb19  1  0.73261761  0.25000000  0.21734712  1
  Sb  Sb20  1  0.38518570  0.75000000  0.05577954  1
  Sb  Sb21  1  0.51373536  0.62430893  0.50283495  1
  Sb  Sb22  1  0.88518570  0.75000000  0.94422046  1
  Sb  Sb23  1  0.11481430  0.25000000  0.05577954  1
  Sb  Sb24  1  0.61481430  0.25000000  0.94422046  1
  Sb  Sb25  1  0.25000000  0.50000000  0.97217961  1
  Sb  Sb26  1  0.75000000  0.50000000  0.02782039  1
  Sb  Sb27  1  0.01373536  0.87569107  0.49716505  1
  Sb  Sb28  1  0.98626464  0.37569107  0.50283495  1
  Sb  Sb29  1  0.76738239  0.75000000  0.21734712  1
  Sb  Sb30  1  0.25000000  0.00000000  0.97217961  1
  Sb  Sb31  1  0.51373536  0.87569107  0.50283495  1
  Sb  Sb32  1  0.75000000  0.00000000  0.02782039  1
  Sb  Sb33  1  0.23261761  0.25000000  0.78265288  1
  Sb  Sb34  1  0.48626464  0.37569107  0.49716505  1
  Sb  Sb35  1  0.75000000  0.00000000  0.77717769  1
  Sb  Sb36  1  0.26738239  0.75000000  0.78265288  1
  Sb  Sb37  1  0.01373536  0.62430893  0.49716505  1
  Sb  Sb38  1  0.98626464  0.12430893  0.50283495  1
  Sb  Sb39  1  0.75000000  0.50000000  0.77717769  1
