# generated using pymatgen
data_La4As3
_symmetry_space_group_name_H-M   'P 1'
_cell_length_a   7.98437831
_cell_length_b   7.98437763
_cell_length_c   7.98437769
_cell_angle_alpha   109.47121821
_cell_angle_beta   109.47121646
_cell_angle_gamma   109.47122655
_symmetry_Int_Tables_number   1
_chemical_formula_structural   La4As3
_chemical_formula_sum   'La8 As6'
_cell_volume   391.83331717
_cell_formula_units_Z   2
loop_
 _symmetry_equiv_pos_site_id
 _symmetry_equiv_pos_as_xyz
  1  'x, y, z'
loop_
 _atom_site_type_symbol
 _atom_site_label
 _atom_site_symmetry_multiplicity
 _atom_site_fract_x
 _atom_site_fract_y
 _atom_site_fract_z
 _atom_site_occupancy
  La  La0  1  1.00000000  0.36276760  0.50000000  1
  La  La1  1  0.50000000  0.00000000  0.36276760  1
  La  La2  1  0.86276760  0.50000000  0.00000000  1
  La  La3  1  0.13723240  0.13723240  0.13723240  1
  La  La4  1  0.50000000  0.00000000  0.86276760  1
  La  La5  1  0.63723240  0.63723240  0.63723240  1
  La  La6  1  1.00000000  0.86276760  0.50000000  1
  La  La7  1  0.36276760  0.50000000  0.00000000  1
  As  As8  1  0.75000000  0.87500000  0.12500000  1
  As  As9  1  0.87500000  0.12500000  0.75000000  1
  As  As10  1  0.62500000  0.37500000  0.25000000  1
  As  As11  1  0.25000000  0.62500000  0.37500000  1
  As  As12  1  0.12500000  0.75000000  0.87500000  1
  As  As13  1  0.37500000  0.25000000  0.62500000  1
