# generated using pymatgen
data_Ho3(AgSn)4
_symmetry_space_group_name_H-M   'P 1'
_cell_length_a   4.57171603
_cell_length_b   7.39997745
_cell_length_c   8.79562800
_cell_angle_alpha   114.88517184
_cell_angle_beta   105.06742016
_cell_angle_gamma   90.00582813
_symmetry_Int_Tables_number   1
_chemical_formula_structural   Ho3(AgSn)4
_chemical_formula_sum   'Ho3 Ag4 Sn4'
_cell_volume   258.60927922
_cell_formula_units_Z   1
loop_
 _symmetry_equiv_pos_site_id
 _symmetry_equiv_pos_as_xyz
  1  'x, y, z'
loop_
 _atom_site_type_symbol
 _atom_site_label
 _atom_site_symmetry_multiplicity
 _atom_site_fract_x
 _atom_site_fract_y
 _atom_site_fract_z
 _atom_site_occupancy
  Ho  Ho0  1  0.87339431  0.37339950  0.74680750  1
  Ho  Ho1  1  0.00000000  0.00000000  0.00000000  1
  Ho  Ho2  1  0.12660569  0.62660050  0.25319250  1
  Ag  Ag3  1  0.67187449  0.97366646  0.34384733  1
  Ag  Ag4  1  0.32812551  0.02633354  0.65615267  1
  Ag  Ag5  1  0.67182697  0.37007304  0.34380651  1
  Ag  Ag6  1  0.32817303  0.62992696  0.65619349  1
  Sn  Sn7  1  0.50012248  0.69720970  -0.00002839  1
  Sn  Sn8  1  0.49987752  0.30279030  1.00002839  1
  Sn  Sn9  1  0.21497253  0.21518344  0.43028278  1
  Sn  Sn10  1  0.78502747  0.78481656  0.56971722  1
