# generated using pymatgen
data_Ca2MnSbO6
_symmetry_space_group_name_H-M   'P 1'
_cell_length_a   5.58705583
_cell_length_b   5.68091884
_cell_length_c   7.71686901
_cell_angle_alpha   90.00000000
_cell_angle_beta   90.00000000
_cell_angle_gamma   93.84797792
_symmetry_Int_Tables_number   1
_chemical_formula_structural   Ca2MnSbO6
_chemical_formula_sum   'Ca4 Mn2 Sb2 O12'
_cell_volume   244.37825261
_cell_formula_units_Z   2
loop_
 _symmetry_equiv_pos_site_id
 _symmetry_equiv_pos_as_xyz
  1  'x, y, z'
loop_
 _atom_site_type_symbol
 _atom_site_label
 _atom_site_symmetry_multiplicity
 _atom_site_fract_x
 _atom_site_fract_y
 _atom_site_fract_z
 _atom_site_occupancy
  Ca  Ca0  1  0.52121418  0.56058137  0.75000000  1
  Ca  Ca1  1  0.47878582  0.43941863  0.25000000  1
  Ca  Ca2  1  0.00781844  0.03854436  0.75000000  1
  Ca  Ca3  1  0.99218156  0.96145564  0.25000000  1
  Mn  Mn4  1  0.50000000  0.00000000  0.50000000  1
  Mn  Mn5  1  0.50000000  0.00000000  0.00000000  1
  Sb  Sb6  1  0.00000000  0.50000000  0.50000000  1
  Sb  Sb7  1  0.00000000  0.50000000  0.00000000  1
  O  O8  1  0.30209103  0.70272603  0.45098106  1
  O  O9  1  0.18030329  0.22125359  0.05116166  1
  O  O10  1  0.69790897  0.29727397  0.95098106  1
  O  O11  1  0.81969671  0.77874641  0.55116166  1
  O  O12  1  0.18030329  0.22125359  0.44883834  1
  O  O13  1  0.81969671  0.77874641  0.94883834  1
  O  O14  1  0.89487291  0.54080576  0.25000000  1
  O  O15  1  0.30209103  0.70272603  0.04901894  1
  O  O16  1  0.41690114  0.96336822  0.75000000  1
  O  O17  1  0.69790897  0.29727397  0.54901894  1
  O  O18  1  0.10512709  0.45919424  0.75000000  1
  O  O19  1  0.58309886  0.03663178  0.25000000  1
