# generated using pymatgen
data_LiMo4(P2O11)2
_symmetry_space_group_name_H-M   'P 1'
_cell_length_a   7.57435637
_cell_length_b   6.47368707
_cell_length_c   9.09566404
_cell_angle_alpha   90.24924806
_cell_angle_beta   105.72879802
_cell_angle_gamma   90.54508805
_symmetry_Int_Tables_number   1
_chemical_formula_structural   LiMo4(P2O11)2
_chemical_formula_sum   'Li1 Mo4 P4 O22'
_cell_volume   429.26627741
_cell_formula_units_Z   1
loop_
 _symmetry_equiv_pos_site_id
 _symmetry_equiv_pos_as_xyz
  1  'x, y, z'
loop_
 _atom_site_type_symbol
 _atom_site_label
 _atom_site_symmetry_multiplicity
 _atom_site_fract_x
 _atom_site_fract_y
 _atom_site_fract_z
 _atom_site_occupancy
  Li  Li0  1  0.50000000  0.00000000  0.00000000  1
  Mo  Mo1  1  0.16854857  0.25483962  0.85260506  1
  Mo  Mo2  1  0.39065096  0.24686829  0.29676530  1
  Mo  Mo3  1  0.60934904  0.75313171  0.70323470  1
  Mo  Mo4  1  0.83145143  0.74516038  0.14739494  1
  P  P5  1  0.07616642  0.75257300  0.88336339  1
  P  P6  1  0.50963451  0.24911272  0.67462111  1
  P  P7  1  0.49036549  0.75088728  0.32537889  1
  P  P8  1  0.92383358  0.24742700  0.11663661  1
  O  O9  1  0.03285984  0.24124263  0.67185171  1
  O  O10  1  0.19686577  0.55858437  0.88342043  1
  O  O11  1  0.20803029  0.94017557  0.88992697  1
  O  O12  1  0.09242786  0.24300155  0.25099254  1
  O  O13  1  0.02619820  0.74962008  0.03954186  1
  O  O14  1  0.41761645  0.23448812  0.80959199  1
  O  O15  1  0.37555727  0.75585800  0.63824077  1
  O  O16  1  0.36279626  0.25284982  0.52138197  1
  O  O17  1  0.36029851  0.93700558  0.30995091  1
  O  O18  1  0.36649258  0.55466273  0.29990259  1
  O  O19  1  0.63914106  0.76719291  0.90778710  1
  O  O20  1  0.36085894  0.23280709  0.09221290  1
  O  O21  1  0.63350742  0.44533727  0.70009741  1
  O  O22  1  0.63970149  0.06299442  0.69004909  1
  O  O23  1  0.63720374  0.74715018  0.47861803  1
  O  O24  1  0.62444273  0.24414200  0.36175923  1
  O  O25  1  0.58238355  0.76551188  0.19040801  1
  O  O26  1  0.97380180  0.25037992  0.96045814  1
  O  O27  1  0.90757214  0.75699845  0.74900746  1
  O  O28  1  0.79196971  0.05982443  0.11007303  1
  O  O29  1  0.80313423  0.44141563  0.11657957  1
  O  O30  1  0.96714016  0.75875737  0.32814829  1
