# generated using pymatgen
data_La3BCCl3
_symmetry_space_group_name_H-M   'P 1'
_cell_length_a   3.77272800
_cell_length_b   8.35332826
_cell_length_c   11.37175285
_cell_angle_alpha   100.83701364
_cell_angle_beta   90.00000000
_cell_angle_gamma   90.00000000
_symmetry_Int_Tables_number   1
_chemical_formula_structural   La3BCCl3
_chemical_formula_sum   'La6 B2 C2 Cl6'
_cell_volume   351.98758807
_cell_formula_units_Z   2
loop_
 _symmetry_equiv_pos_site_id
 _symmetry_equiv_pos_as_xyz
  1  'x, y, z'
loop_
 _atom_site_type_symbol
 _atom_site_label
 _atom_site_symmetry_multiplicity
 _atom_site_fract_x
 _atom_site_fract_y
 _atom_site_fract_z
 _atom_site_occupancy
  La  La0  1  0.25000000  0.20825341  0.88826580  1
  La  La1  1  0.25000000  0.60708089  0.81323250  1
  La  La2  1  0.75000000  0.79174659  0.11173420  1
  La  La3  1  0.25000000  0.71379934  0.39748012  1
  La  La4  1  0.75000000  0.39291911  0.18676750  1
  La  La5  1  0.75000000  0.28620066  0.60251988  1
  B  B6  1  0.25000000  0.53475101  0.04142922  1
  B  B7  1  0.75000000  0.46524899  0.95857078  1
  C  C8  1  0.75000000  0.39331754  0.81892224  1
  C  C9  1  0.25000000  0.60668246  0.18107776  1
  Cl  Cl10  1  0.25000000  0.35609439  0.40490107  1
  Cl  Cl11  1  0.75000000  0.64390561  0.59509893  1
  Cl  Cl12  1  0.25000000  0.09412357  0.12405609  1
  Cl  Cl13  1  0.25000000  0.03217128  0.63604606  1
  Cl  Cl14  1  0.75000000  0.96782872  0.36395394  1
  Cl  Cl15  1  0.75000000  0.90587643  0.87594391  1
