# generated using pymatgen
data_LaMg14Ti
_symmetry_space_group_name_H-M   'P 1'
_cell_length_a   6.55757915
_cell_length_b   6.36332447
_cell_length_c   10.41713179
_cell_angle_alpha   90.00000000
_cell_angle_beta   90.00000000
_cell_angle_gamma   119.02483115
_symmetry_Int_Tables_number   1
_chemical_formula_structural   LaMg14Ti
_chemical_formula_sum   'La1 Mg14 Ti1'
_cell_volume   380.09367578
_cell_formula_units_Z   1
loop_
 _symmetry_equiv_pos_site_id
 _symmetry_equiv_pos_as_xyz
  1  'x, y, z'
loop_
 _atom_site_type_symbol
 _atom_site_label
 _atom_site_symmetry_multiplicity
 _atom_site_fract_x
 _atom_site_fract_y
 _atom_site_fract_z
 _atom_site_occupancy
  La  La0  1  0.16294906  0.83147403  0.12500000  1
  Mg  Mg1  1  0.16563490  0.33281695  0.62500000  1
  Mg  Mg2  1  0.16623633  0.83311766  0.62500000  1
  Mg  Mg3  1  0.66144827  0.33493148  0.12500000  1
  Mg  Mg4  1  0.66552635  0.33228284  0.62500000  1
  Mg  Mg5  1  0.66144827  0.82651579  0.12500000  1
  Mg  Mg6  1  0.66552635  0.83324251  0.62500000  1
  Mg  Mg7  1  0.33568949  0.17556751  0.38014845  1
  Mg  Mg8  1  0.33568949  0.17556751  0.86985155  1
  Mg  Mg9  1  0.33568949  0.66012298  0.38014845  1
  Mg  Mg10  1  0.33568949  0.66012298  0.86985155  1
  Mg  Mg11  1  0.83904031  0.16952065  0.36956855  1
  Mg  Mg12  1  0.83904031  0.16952065  0.88043145  1
  Mg  Mg13  1  0.82810002  0.66405051  0.38257494  1
  Mg  Mg14  1  0.82810002  0.66405051  0.86742506  1
  Ti  Ti15  1  0.17419185  0.33709543  0.12500000  1
