# generated using pymatgen
data_Rb(WCl3)3
_symmetry_space_group_name_H-M   'P 1'
_cell_length_a   9.61724832
_cell_length_b   9.61724817
_cell_length_c   8.63294326
_cell_angle_alpha   90.00000000
_cell_angle_beta   90.00000000
_cell_angle_gamma   120.00000053
_symmetry_Int_Tables_number   1
_chemical_formula_structural   Rb(WCl3)3
_chemical_formula_sum   'Rb2 W6 Cl18'
_cell_volume   691.49838269
_cell_formula_units_Z   2
loop_
 _symmetry_equiv_pos_site_id
 _symmetry_equiv_pos_as_xyz
  1  'x, y, z'
loop_
 _atom_site_type_symbol
 _atom_site_label
 _atom_site_symmetry_multiplicity
 _atom_site_fract_x
 _atom_site_fract_y
 _atom_site_fract_z
 _atom_site_occupancy
  Rb  Rb0  1  0.66666700  0.33333300  0.44285281  1
  Rb  Rb1  1  0.33333300  0.66666700  0.55714719  1
  W  W2  1  0.83151578  0.81310521  0.87328350  1
  W  W3  1  0.81310521  0.98158942  0.12671650  1
  W  W4  1  0.01841058  0.83151578  0.12671650  1
  W  W5  1  0.98158942  0.16848422  0.87328350  1
  W  W6  1  0.16848422  0.18689479  0.12671650  1
  W  W7  1  0.18689479  0.01841058  0.87328350  1
  Cl  Cl8  1  0.03691321  0.63331966  0.30063824  1
  Cl  Cl9  1  0.75892329  0.17189594  0.99792492  1
  Cl  Cl10  1  0.82810406  0.58702735  0.99792492  1
  Cl  Cl11  1  0.18925610  0.20993195  0.68927263  1
  Cl  Cl12  1  0.20993195  0.02067586  0.31072737  1
  Cl  Cl13  1  0.97932414  0.18925610  0.31072737  1
  Cl  Cl14  1  0.96308679  0.36668034  0.69936176  1
  Cl  Cl15  1  0.02067586  0.81074390  0.68927263  1
  Cl  Cl16  1  0.81074390  0.79006805  0.31072737  1
  Cl  Cl17  1  0.58702735  0.75892329  0.00207508  1
  Cl  Cl18  1  0.63331966  0.59640645  0.69936176  1
  Cl  Cl19  1  0.41297265  0.24107671  0.99792492  1
  Cl  Cl20  1  0.79006805  0.97932414  0.68927263  1
  Cl  Cl21  1  0.17189594  0.41297265  0.00207508  1
  Cl  Cl22  1  0.59640645  0.96308679  0.30063824  1
  Cl  Cl23  1  0.40359355  0.03691321  0.69936176  1
  Cl  Cl24  1  0.36668034  0.40359355  0.30063824  1
  Cl  Cl25  1  0.24107671  0.82810406  0.00207508  1
