# generated using pymatgen
data_RbCdH2I3O
_symmetry_space_group_name_H-M   'P 1'
_cell_length_a   7.55004282
_cell_length_b   7.55004282
_cell_length_c   8.98693993
_cell_angle_alpha   89.63033741
_cell_angle_beta   90.36966259
_cell_angle_gamma   94.57011758
_symmetry_Int_Tables_number   1
_chemical_formula_structural   RbCdH2I3O
_chemical_formula_sum   'Rb2 Cd2 H4 I6 O2'
_cell_volume   510.63539607
_cell_formula_units_Z   2
loop_
 _symmetry_equiv_pos_site_id
 _symmetry_equiv_pos_as_xyz
  1  'x, y, z'
loop_
 _atom_site_type_symbol
 _atom_site_label
 _atom_site_symmetry_multiplicity
 _atom_site_fract_x
 _atom_site_fract_y
 _atom_site_fract_z
 _atom_site_occupancy
  Rb  Rb0  1  0.50813508  0.71285222  0.82601309  1
  Rb  Rb1  1  0.28714778  0.49186492  0.32601309  1
  Cd  Cd2  1  0.96649504  0.96586696  0.50004954  1
  Cd  Cd3  1  0.03413304  0.03350496  0.00004954  1
  H  H4  1  0.12965539  0.48759356  0.67802527  1
  H  H5  1  0.51240644  0.87034461  0.17802527  1
  H  H6  1  0.26937794  0.34749564  0.67919273  1
  H  H7  1  0.65250436  0.73062206  0.17919273  1
  I  I8  1  0.80280954  0.62103569  0.49455518  1
  I  I9  1  0.37896431  0.19719046  0.99455518  1
  I  I10  1  0.84624665  0.16795919  0.24867995  1
  I  I11  1  0.83204081  0.15375335  0.74867995  1
  I  I12  1  0.33795006  0.99087515  0.49424815  1
  I  I13  1  0.00912485  0.66204994  0.99424815  1
  O  O14  1  0.25397100  0.47076228  0.65173608  1
  O  O15  1  0.52923772  0.74602900  0.15173608  1
