# generated using pymatgen
data_Sc(HO)3
_symmetry_space_group_name_H-M   'P 1'
_cell_length_a   6.84210284
_cell_length_b   6.91301886
_cell_length_c   6.84210284
_cell_angle_alpha   109.68131527
_cell_angle_beta   109.26031135
_cell_angle_gamma   109.68131527
_symmetry_Int_Tables_number   1
_chemical_formula_structural   Sc(HO)3
_chemical_formula_sum   'Sc4 H12 O12'
_cell_volume   248.48055643
_cell_formula_units_Z   4
loop_
 _symmetry_equiv_pos_site_id
 _symmetry_equiv_pos_as_xyz
  1  'x, y, z'
loop_
 _atom_site_type_symbol
 _atom_site_label
 _atom_site_symmetry_multiplicity
 _atom_site_fract_x
 _atom_site_fract_y
 _atom_site_fract_z
 _atom_site_occupancy
  Sc  Sc0  1  0.50000000  0.00000000  0.00000000  1
  Sc  Sc1  1  0.00000000  0.00000000  0.50000000  1
  Sc  Sc2  1  0.00000000  0.50000000  0.00000000  1
  Sc  Sc3  1  0.50000000  0.50000000  0.50000000  1
  H  H4  1  0.30612661  0.26367414  0.95767697  1
  H  H5  1  0.69387339  0.73632586  0.04232303  1
  H  H6  1  0.44980988  0.62663605  0.17398425  1
  H  H7  1  0.55019012  0.37336395  0.82601575  1
  H  H8  1  0.82601575  0.45265180  0.27582562  1
  H  H9  1  0.17398425  0.54734820  0.72417438  1
  H  H10  1  0.04232303  0.30599717  0.34844964  1
  H  H11  1  0.95767697  0.69400283  0.65155036  1
  H  H12  1  0.27582562  0.82317382  0.44980988  1
  H  H13  1  0.72417438  0.17682618  0.55019012  1
  H  H14  1  0.34844964  0.04245247  0.30612661  1
  H  H15  1  0.65155036  0.95754753  0.69387339  1
  O  O16  1  0.30889715  0.14172053  0.82854019  1
  O  O17  1  0.69110285  0.85827947  0.17145981  1
  O  O18  1  0.32418614  0.49813685  0.17212209  1
  O  O19  1  0.67581386  0.50186315  0.82787791  1
  O  O20  1  0.82787791  0.32601476  0.15206406  1
  O  O21  1  0.17212209  0.67398524  0.84793594  1
  O  O22  1  0.17145981  0.31318033  0.48035695  1
  O  O23  1  0.82854019  0.68681967  0.51964305  1
  O  O24  1  0.15206406  0.82604929  0.32418614  1
  O  O25  1  0.84793594  0.17395071  0.67581386  1
  O  O26  1  0.48035695  0.16717662  0.30889715  1
  O  O27  1  0.51964305  0.83282338  0.69110285  1
