# generated using pymatgen
data_Sn3(HO2)2
_symmetry_space_group_name_H-M   'P 1'
_cell_length_a   8.00802901
_cell_length_b   8.00802901
_cell_length_c   9.14954304
_cell_angle_alpha   90.00000000
_cell_angle_beta   90.00000000
_cell_angle_gamma   90.00000000
_symmetry_Int_Tables_number   1
_chemical_formula_structural   Sn3(HO2)2
_chemical_formula_sum   'Sn12 H8 O16'
_cell_volume   586.74673275
_cell_formula_units_Z   4
loop_
 _symmetry_equiv_pos_site_id
 _symmetry_equiv_pos_as_xyz
  1  'x, y, z'
loop_
 _atom_site_type_symbol
 _atom_site_label
 _atom_site_symmetry_multiplicity
 _atom_site_fract_x
 _atom_site_fract_y
 _atom_site_fract_z
 _atom_site_occupancy
  Sn  Sn0  1  0.79646082  0.61783471  0.50140879  1
  Sn  Sn1  1  0.29646082  0.88216529  0.99859121  1
  Sn  Sn2  1  0.20353918  0.38216529  0.50140879  1
  Sn  Sn3  1  0.70353918  0.11783471  0.99859121  1
  Sn  Sn4  1  0.61783471  0.20353918  0.49859121  1
  Sn  Sn5  1  0.88216529  0.70353918  0.00140879  1
  Sn  Sn6  1  0.38216529  0.79646082  0.49859121  1
  Sn  Sn7  1  0.11783471  0.29646082  0.00140879  1
  Sn  Sn8  1  0.50000000  0.50000000  0.77852537  1
  Sn  Sn9  1  0.00000000  0.00000000  0.72147463  1
  Sn  Sn10  1  0.50000000  0.50000000  0.22147463  1
  Sn  Sn11  1  0.00000000  0.00000000  0.27852537  1
  H  H12  1  0.65946206  0.82299102  0.74137329  1
  H  H13  1  0.15946206  0.67700898  0.75862671  1
  H  H14  1  0.34053794  0.17700898  0.74137329  1
  H  H15  1  0.84053794  0.32299102  0.75862671  1
  H  H16  1  0.82299102  0.34053794  0.25862671  1
  H  H17  1  0.67700898  0.84053794  0.24137329  1
  H  H18  1  0.17700898  0.65946206  0.25862671  1
  H  H19  1  0.32299102  0.15946206  0.24137329  1
  O  O20  1  0.60696216  0.74586840  0.66933811  1
  O  O21  1  0.10696216  0.75413160  0.83066189  1
  O  O22  1  0.39303784  0.25413160  0.66933811  1
  O  O23  1  0.89303784  0.24586840  0.83066189  1
  O  O24  1  0.74586840  0.39303784  0.33066189  1
  O  O25  1  0.75413160  0.89303784  0.16933811  1
  O  O26  1  0.25413160  0.60696216  0.33066189  1
  O  O27  1  0.24586840  0.10696216  0.16933811  1
  O  O28  1  0.68818692  0.41759297  0.62462044  1
  O  O29  1  0.18818692  0.08240703  0.87537956  1
  O  O30  1  0.31181308  0.58240703  0.62462044  1
  O  O31  1  0.81181308  0.91759297  0.87537956  1
  O  O32  1  0.41759297  0.31181308  0.37537956  1
  O  O33  1  0.08240703  0.81181308  0.12462044  1
  O  O34  1  0.58240703  0.68818692  0.37537956  1
  O  O35  1  0.91759297  0.18818692  0.12462044  1
