# generated using pymatgen
data_CsMnF4
_symmetry_space_group_name_H-M   'P 1'
_cell_length_a   6.44718697
_cell_length_b   8.08189886
_cell_length_c   8.08189886
_cell_angle_alpha   90.00000000
_cell_angle_beta   90.00000000
_cell_angle_gamma   90.00000000
_symmetry_Int_Tables_number   1
_chemical_formula_structural   CsMnF4
_chemical_formula_sum   'Cs4 Mn4 F16'
_cell_volume   421.11148630
_cell_formula_units_Z   4
loop_
 _symmetry_equiv_pos_site_id
 _symmetry_equiv_pos_as_xyz
  1  'x, y, z'
loop_
 _atom_site_type_symbol
 _atom_site_label
 _atom_site_symmetry_multiplicity
 _atom_site_fract_x
 _atom_site_fract_y
 _atom_site_fract_z
 _atom_site_occupancy
  Mn  Mn0  1  0.00000000  0.00000000  0.00000000  1
  Mn  Mn1  1  0.00000000  0.50000000  0.00000000  1
  Mn  Mn2  1  0.00000000  0.00000000  0.50000000  1
  Mn  Mn3  1  0.00000000  0.50000000  0.50000000  1
  Cs  Cs4  1  0.50000000  0.75000000  0.25000000  1
  Cs  Cs5  1  0.50000000  0.25000000  0.75000000  1
  Cs  Cs6  1  0.44352282  0.25000000  0.25000000  1
  Cs  Cs7  1  0.55647718  0.75000000  0.75000000  1
  F  F8  1  0.04903039  0.25000000  0.99759345  1
  F  F9  1  0.04903039  0.50240655  0.25000000  1
  F  F10  1  0.04903039  0.99759345  0.25000000  1
  F  F11  1  0.04903039  0.25000000  0.50240655  1
  F  F12  1  0.95096961  0.75000000  0.00240655  1
  F  F13  1  0.95096961  0.75000000  0.49759345  1
  F  F14  1  0.95096961  0.49759345  0.75000000  1
  F  F15  1  0.95096961  0.00240655  0.75000000  1
  F  F16  1  0.28283080  0.97204455  0.97204455  1
  F  F17  1  0.28283080  0.52795545  0.97204455  1
  F  F18  1  0.28283080  0.97204455  0.52795545  1
  F  F19  1  0.28283080  0.52795545  0.52795545  1
  F  F20  1  0.71716920  0.47204455  0.02795545  1
  F  F21  1  0.71716920  0.02795545  0.47204455  1
  F  F22  1  0.71716920  0.47204455  0.47204455  1
  F  F23  1  0.71716920  0.02795545  0.02795545  1
