# generated using pymatgen
data_TlMo2Cl7O2
_symmetry_space_group_name_H-M   'P 1'
_cell_length_a   7.23457400
_cell_length_b   9.59986192
_cell_length_c   9.84460312
_cell_angle_alpha   90.00000000
_cell_angle_beta   90.00000000
_cell_angle_gamma   90.00000000
_symmetry_Int_Tables_number   1
_chemical_formula_structural   TlMo2Cl7O2
_chemical_formula_sum   'Tl2 Mo4 Cl14 O4'
_cell_volume   683.71665955
_cell_formula_units_Z   2
loop_
 _symmetry_equiv_pos_site_id
 _symmetry_equiv_pos_as_xyz
  1  'x, y, z'
loop_
 _atom_site_type_symbol
 _atom_site_label
 _atom_site_symmetry_multiplicity
 _atom_site_fract_x
 _atom_site_fract_y
 _atom_site_fract_z
 _atom_site_occupancy
  Tl  Tl0  1  0.75000000  0.52737530  0.25000000  1
  Tl  Tl1  1  0.25000000  0.47262470  0.75000000  1
  Mo  Mo2  1  0.25000000  0.81152289  0.07073267  1
  Mo  Mo3  1  0.75000000  0.18847711  0.92926733  1
  Mo  Mo4  1  0.75000000  0.18847711  0.57073267  1
  Mo  Mo5  1  0.25000000  0.81152289  0.42926733  1
  Cl  Cl6  1  0.98128528  0.11608595  0.75000000  1
  Cl  Cl7  1  0.75000000  0.39945329  0.75000000  1
  Cl  Cl8  1  0.01735162  0.69193609  0.54877555  1
  Cl  Cl9  1  0.51735162  0.30806391  0.45122445  1
  Cl  Cl10  1  0.48264838  0.69193609  0.54877555  1
  Cl  Cl11  1  0.51871472  0.11608595  0.75000000  1
  Cl  Cl12  1  0.51735162  0.30806391  0.04877555  1
  Cl  Cl13  1  0.25000000  0.60054671  0.25000000  1
  Cl  Cl14  1  0.48264838  0.69193609  0.95122445  1
  Cl  Cl15  1  0.01735162  0.69193609  0.95122445  1
  Cl  Cl16  1  0.48128528  0.88391405  0.25000000  1
  Cl  Cl17  1  0.98264838  0.30806391  0.04877555  1
  Cl  Cl18  1  0.98264838  0.30806391  0.45122445  1
  Cl  Cl19  1  0.01871472  0.88391405  0.25000000  1
  O  O20  1  0.75000000  0.02977998  0.00476464  1
  O  O21  1  0.25000000  0.97022002  0.99523536  1
  O  O22  1  0.75000000  0.02977998  0.49523536  1
  O  O23  1  0.25000000  0.97022002  0.50476464  1
