# generated using pymatgen
data_Cu3BiS3
_symmetry_space_group_name_H-M   'P 1'
_cell_length_a   6.76563960
_cell_length_b   7.74395793
_cell_length_c   10.44051218
_cell_angle_alpha   90.00000000
_cell_angle_beta   90.00000000
_cell_angle_gamma   90.00000000
_symmetry_Int_Tables_number   1
_chemical_formula_structural   Cu3BiS3
_chemical_formula_sum   'Cu12 Bi4 S12'
_cell_volume   547.00796339
_cell_formula_units_Z   4
loop_
 _symmetry_equiv_pos_site_id
 _symmetry_equiv_pos_as_xyz
  1  'x, y, z'
loop_
 _atom_site_type_symbol
 _atom_site_label
 _atom_site_symmetry_multiplicity
 _atom_site_fract_x
 _atom_site_fract_y
 _atom_site_fract_z
 _atom_site_occupancy
  Cu  Cu0  1  0.86008845  0.64867652  0.59760853  1
  Cu  Cu1  1  0.36008845  0.85132348  0.40239147  1
  Cu  Cu2  1  0.13991155  0.14867652  0.90239147  1
  Cu  Cu3  1  0.63991155  0.35132348  0.09760853  1
  Cu  Cu4  1  0.92386014  0.81186829  0.89658790  1
  Cu  Cu5  1  0.42386014  0.68813171  0.10341210  1
  Cu  Cu6  1  0.07613986  0.31186829  0.60341210  1
  Cu  Cu7  1  0.57613986  0.18813171  0.39658790  1
  Cu  Cu8  1  0.02633509  0.94159498  0.53575651  1
  Cu  Cu9  1  0.52633509  0.55840502  0.46424349  1
  Cu  Cu10  1  0.97366491  0.44159498  0.96424349  1
  Cu  Cu11  1  0.47366491  0.05840502  0.03575651  1
  Bi  Bi12  1  0.37022739  0.69450002  0.75602572  1
  Bi  Bi13  1  0.87022739  0.80549998  0.24397428  1
  Bi  Bi14  1  0.62977261  0.19450002  0.74397428  1
  Bi  Bi15  1  0.12977261  0.30549998  0.25602572  1
  S  S16  1  0.10798164  0.94633217  0.74773030  1
  S  S17  1  0.60798164  0.55366783  0.25226970  1
  S  S18  1  0.89201836  0.44633217  0.75226970  1
  S  S19  1  0.39201836  0.05366783  0.24773030  1
  S  S20  1  0.58585264  0.81947465  0.56914745  1
  S  S21  1  0.08585264  0.68052535  0.43085255  1
  S  S22  1  0.41414736  0.31947465  0.93085255  1
  S  S23  1  0.91414736  0.18052535  0.06914745  1
  S  S24  1  0.59460298  0.82146277  0.93787162  1
  S  S25  1  0.09460298  0.67853723  0.06212838  1
  S  S26  1  0.40539702  0.32146277  0.56212838  1
  S  S27  1  0.90539702  0.17853723  0.43787162  1
