# generated using pymatgen
data_K2EuGeSe5
_symmetry_space_group_name_H-M   'P 1'
_cell_length_a   9.01219111
_cell_length_b   10.06572960
_cell_length_c   11.91041006
_cell_angle_alpha   90.00000000
_cell_angle_beta   91.23197823
_cell_angle_gamma   90.00000000
_symmetry_Int_Tables_number   1
_chemical_formula_structural   K2EuGeSe5
_chemical_formula_sum   'K8 Eu4 Ge4 Se20'
_cell_volume   1080.19450227
_cell_formula_units_Z   4
loop_
 _symmetry_equiv_pos_site_id
 _symmetry_equiv_pos_as_xyz
  1  'x, y, z'
loop_
 _atom_site_type_symbol
 _atom_site_label
 _atom_site_symmetry_multiplicity
 _atom_site_fract_x
 _atom_site_fract_y
 _atom_site_fract_z
 _atom_site_occupancy
  Eu  Eu0  1  0.89402309  0.27216498  0.51728205  1
  Eu  Eu1  1  0.10597691  0.72783502  0.48271795  1
  Eu  Eu2  1  0.60597691  0.77216498  0.48271795  1
  Eu  Eu3  1  0.39402309  0.22783502  0.51728205  1
  K  K4  1  0.53930335  0.80011581  0.05678840  1
  K  K5  1  0.87426014  0.05579223  0.19986769  1
  K  K6  1  0.03930335  0.69988419  0.05678840  1
  K  K7  1  0.62573986  0.55579223  0.80013231  1
  K  K8  1  0.96069665  0.30011581  0.94321160  1
  K  K9  1  0.46069665  0.19988419  0.94321160  1
  K  K10  1  0.12573986  0.94420777  0.80013231  1
  K  K11  1  0.37426014  0.44420777  0.19986769  1
  Ge  Ge12  1  0.79228561  0.52123444  0.25292341  1
  Ge  Ge13  1  0.20771439  0.47876556  0.74707659  1
  Ge  Ge14  1  0.29228561  0.97876556  0.25292341  1
  Ge  Ge15  1  0.70771439  0.02123444  0.74707659  1
  Se  Se16  1  0.16273452  0.43379132  0.41390969  1
  Se  Se17  1  0.35875492  0.75425601  0.29143882  1
  Se  Se18  1  0.36253420  0.53525123  0.59092621  1
  Se  Se19  1  0.85875492  0.74574399  0.29143882  1
  Se  Se20  1  0.49924837  0.86732615  0.75159133  1
  Se  Se21  1  0.63746580  0.46474877  0.40907379  1
  Se  Se22  1  0.14124508  0.25425601  0.70856118  1
  Se  Se23  1  0.80647652  0.98703190  0.93025479  1
  Se  Se24  1  0.83726548  0.56620868  0.58609031  1
  Se  Se25  1  0.30647652  0.51296810  0.93025479  1
  Se  Se26  1  0.86253420  0.96474877  0.59092621  1
  Se  Se27  1  0.13746580  0.03525123  0.40907379  1
  Se  Se28  1  0.00075163  0.36732615  0.24840867  1
  Se  Se29  1  0.69352348  0.48703190  0.06974521  1
  Se  Se30  1  0.50075163  0.13267385  0.24840867  1
  Se  Se31  1  0.64124508  0.24574399  0.70856118  1
  Se  Se32  1  0.19352348  0.01296810  0.06974521  1
  Se  Se33  1  0.66273452  0.06620868  0.41390969  1
  Se  Se34  1  0.33726548  0.93379132  0.58609031  1
  Se  Se35  1  -0.00075163  0.63267385  0.75159133  1
