# generated using pymatgen
data_BaCu(Si2O5)2
_symmetry_space_group_name_H-M   'P 1'
_cell_length_a   7.52183814
_cell_length_b   7.52183814
_cell_length_c   16.55382743
_cell_angle_alpha   90.00000000
_cell_angle_beta   90.00000000
_cell_angle_gamma   90.00000000
_symmetry_Int_Tables_number   1
_chemical_formula_structural   BaCu(Si2O5)2
_chemical_formula_sum   'Ba4 Si16 Cu4 O40'
_cell_volume   936.58325954
_cell_formula_units_Z   4
loop_
 _symmetry_equiv_pos_site_id
 _symmetry_equiv_pos_as_xyz
  1  'x, y, z'
loop_
 _atom_site_type_symbol
 _atom_site_label
 _atom_site_symmetry_multiplicity
 _atom_site_fract_x
 _atom_site_fract_y
 _atom_site_fract_z
 _atom_site_occupancy
  O  O0  1  0.02624609  0.38115135  0.59195837  1
  O  O1  1  0.47375391  0.11884865  0.59195837  1
  O  O2  1  0.88115135  0.52624609  0.90804163  1
  O  O3  1  0.38115135  0.47375391  0.59195837  1
  O  O4  1  0.11884865  0.02624609  0.59195837  1
  O  O5  1  0.97375391  0.88115135  0.90804163  1
  O  O6  1  0.52624609  0.61884865  0.90804163  1
  O  O7  1  0.61884865  0.97375391  0.90804163  1
  O  O8  1  0.97375391  0.61884865  0.40804163  1
  O  O9  1  0.52624609  0.88115135  0.40804163  1
  O  O10  1  0.11884865  0.47375391  0.09195837  1
  O  O11  1  0.61884865  0.52624609  0.40804163  1
  O  O12  1  0.88115135  0.97375391  0.40804163  1
  O  O13  1  0.02624609  0.11884865  0.09195837  1
  O  O14  1  0.47375391  0.38115135  0.09195837  1
  O  O15  1  0.00047305  0.27902706  0.36297951  1
  O  O16  1  0.38115135  0.02624609  0.09195837  1
  O  O17  1  0.50047305  0.77902706  0.63702049  1
  O  O18  1  0.22097294  0.49952695  0.86297951  1
  O  O19  1  0.72097294  0.50047305  0.63702049  1
  O  O20  1  0.77902706  0.99952695  0.63702049  1
  O  O21  1  0.00047305  0.22097294  0.86297951  1
  O  O22  1  0.49952695  0.27902706  0.86297951  1
  O  O23  1  0.27902706  0.00047305  0.86297951  1
  O  O24  1  0.47239742  0.97239742  0.25000000  1
  O  O25  1  0.52760258  0.47239742  0.25000000  1
  O  O26  1  0.97239742  0.02760258  0.25000000  1
  O  O27  1  0.02760258  0.52760258  0.25000000  1
  O  O28  1  0.52760258  0.02760258  0.75000000  1
  O  O29  1  0.47239742  0.52760258  0.75000000  1
  O  O30  1  0.02760258  0.97239742  0.75000000  1
  O  O31  1  0.97239742  0.47239742  0.75000000  1
  O  O32  1  0.72097294  0.99952695  0.13702049  1
  O  O33  1  0.50047305  0.72097294  0.13702049  1
  O  O34  1  0.99952695  0.77902706  0.13702049  1
  O  O35  1  0.22097294  0.00047305  0.36297951  1
  O  O36  1  0.27902706  0.49952695  0.36297951  1
  O  O37  1  0.77902706  0.50047305  0.13702049  1
  O  O38  1  0.49952695  0.22097294  0.36297951  1
  O  O39  1  0.99952695  0.72097294  0.63702049  1
  Si  Si40  1  0.93622159  0.51548154  0.65532915  1
  Si  Si41  1  0.56377841  0.98451846  0.65532915  1
  Si  Si42  1  0.01548154  0.43622159  0.84467085  1
  Si  Si43  1  0.51548154  0.56377841  0.65532915  1
  Si  Si44  1  0.98451846  0.93622159  0.65532915  1
  Si  Si45  1  0.06377841  0.01548154  0.84467085  1
  Si  Si46  1  0.43622159  0.48451846  0.84467085  1
  Si  Si47  1  0.48451846  0.06377841  0.84467085  1
  Si  Si48  1  0.06377841  0.48451846  0.34467085  1
  Si  Si49  1  0.43622159  0.01548154  0.34467085  1
  Si  Si50  1  0.98451846  0.56377841  0.15532915  1
  Si  Si51  1  0.48451846  0.43622159  0.34467085  1
  Si  Si52  1  0.01548154  0.06377841  0.34467085  1
  Si  Si53  1  0.93622159  0.98451846  0.15532915  1
  Si  Si54  1  0.56377841  0.51548154  0.15532915  1
  Si  Si55  1  0.51548154  0.93622159  0.15532915  1
  Cu  Cu56  1  0.25000000  0.25000000  0.09709356  1
  Cu  Cu57  1  0.75000000  0.75000000  0.40290644  1
  Cu  Cu58  1  0.75000000  0.75000000  0.90290644  1
  Cu  Cu59  1  0.25000000  0.25000000  0.59709356  1
  Ba  Ba60  1  0.25000000  0.75000000  0.00000000  1
  Ba  Ba61  1  0.75000000  0.25000000  0.00000000  1
  Ba  Ba62  1  0.75000000  0.25000000  0.50000000  1
  Ba  Ba63  1  0.25000000  0.75000000  0.50000000  1
