# generated using pymatgen
data_Cs2CrH2Cl5O
_symmetry_space_group_name_H-M   'P 1'
_cell_length_a   7.52539441
_cell_length_b   8.18992216
_cell_length_c   9.70033675
_cell_angle_alpha   89.99929378
_cell_angle_beta   112.82350034
_cell_angle_gamma   89.99990712
_symmetry_Int_Tables_number   1
_chemical_formula_structural   Cs2CrH2Cl5O
_chemical_formula_sum   'Cs4 Cr2 H4 Cl10 O2'
_cell_volume   551.04540586
_cell_formula_units_Z   2
loop_
 _symmetry_equiv_pos_site_id
 _symmetry_equiv_pos_as_xyz
  1  'x, y, z'
loop_
 _atom_site_type_symbol
 _atom_site_label
 _atom_site_symmetry_multiplicity
 _atom_site_fract_x
 _atom_site_fract_y
 _atom_site_fract_z
 _atom_site_occupancy
  Cs  Cs0  1  0.53009561  0.74999899  0.06022241  1
  Cs  Cs1  1  0.46989846  0.25000228  0.93976764  1
  Cs  Cs2  1  0.75209992  0.25000240  0.50416036  1
  Cs  Cs3  1  0.24788821  0.75000026  0.49582699  1
  Cr  Cr4  1  0.88369581  0.74999905  0.76736884  1
  Cr  Cr5  1  0.11636153  0.25004210  0.23271416  1
  Cl  Cl6  1  0.75265679  0.75000069  0.50533218  1
  Cl  Cl7  1  0.24733861  0.24999483  0.49465901  1
  Cl  Cl8  1  0.66739021  0.54083591  0.77774140  1
  Cl  Cl9  1  0.88966368  0.45915853  0.22224313  1
  Cl  Cl10  1  0.33261328  0.04082135  0.22225751  1
  Cl  Cl11  1  0.11034648  0.95917085  0.77775322  1
  Cl  Cl12  1  0.33259701  0.45915645  0.22225549  1
  Cl  Cl13  1  0.11034525  0.54082988  0.77775298  1
  Cl  Cl14  1  0.66739011  0.95916813  0.77774131  1
  Cl  Cl15  1  0.88964874  0.04081878  0.22224189  1
  O  O16  1  0.00160251  0.75000261  0.00316784  1
  O  O17  1  0.99839090  0.25001195  0.99682235  1
  H  H18  1  0.03318737  0.65214520  0.06637888  1
  H  H19  1  0.96680603  0.34784271  0.93361661  1
  H  H20  1  0.96679680  0.15214063  0.93359830  1
  H  H21  1  0.03318667  0.84785640  0.06637749  1
