# generated using pymatgen
data_SiO2
_symmetry_space_group_name_H-M   'P 1'
_cell_length_a   9.17854237
_cell_length_b   15.19403841
_cell_length_c   19.36708352
_cell_angle_alpha   90.00000000
_cell_angle_beta   90.00000000
_cell_angle_gamma   90.00000000
_symmetry_Int_Tables_number   1
_chemical_formula_structural   SiO2
_chemical_formula_sum   'Si48 O96'
_cell_volume   2700.91652765
_cell_formula_units_Z   48
loop_
 _symmetry_equiv_pos_site_id
 _symmetry_equiv_pos_as_xyz
  1  'x, y, z'
loop_
 _atom_site_type_symbol
 _atom_site_label
 _atom_site_symmetry_multiplicity
 _atom_site_fract_x
 _atom_site_fract_y
 _atom_site_fract_z
 _atom_site_occupancy
  Si  Si0  1  0.17601310  0.85702766  0.32177623  1
  Si  Si1  1  0.17601310  0.14297234  0.67822377  1
  Si  Si2  1  0.32398690  0.85702766  0.17822377  1
  Si  Si3  1  0.32398690  0.14297234  0.82177623  1
  Si  Si4  1  0.82398690  0.14297234  0.67822377  1
  Si  Si5  1  0.82398690  0.85702766  0.32177623  1
  Si  Si6  1  0.67601310  0.14297234  0.82177623  1
  Si  Si7  1  0.67601310  0.85702766  0.17822377  1
  Si  Si8  1  0.67601310  0.35702766  0.32177623  1
  Si  Si9  1  0.67601310  0.64297234  0.67822377  1
  Si  Si10  1  0.82398690  0.35702766  0.17822377  1
  Si  Si11  1  0.82398690  0.64297234  0.82177623  1
  Si  Si12  1  0.32398690  0.64297234  0.67822377  1
  Si  Si13  1  0.32398690  0.35702766  0.32177623  1
  Si  Si14  1  0.17601310  0.64297234  0.82177623  1
  Si  Si15  1  0.17601310  0.35702766  0.17822377  1
  Si  Si16  1  0.17119548  0.99712873  0.08254600  1
  Si  Si17  1  0.17119548  0.00287127  0.91745400  1
  Si  Si18  1  0.32880452  0.99712873  0.41745400  1
  Si  Si19  1  0.32880452  0.00287127  0.58254600  1
  Si  Si20  1  0.82880452  0.00287127  0.91745400  1
  Si  Si21  1  0.82880452  0.99712873  0.08254600  1
  Si  Si22  1  0.67119548  0.00287127  0.58254600  1
  Si  Si23  1  0.67119548  0.99712873  0.41745400  1
  Si  Si24  1  0.67119548  0.49712873  0.08254600  1
  Si  Si25  1  0.67119548  0.50287127  0.91745400  1
  Si  Si26  1  0.82880452  0.49712873  0.41745400  1
  Si  Si27  1  0.82880452  0.50287127  0.58254600  1
  Si  Si28  1  0.32880452  0.50287127  0.91745400  1
  Si  Si29  1  0.32880452  0.49712873  0.08254600  1
  Si  Si30  1  0.17119548  0.50287127  0.58254600  1
  Si  Si31  1  0.17119548  0.49712873  0.41745400  1
  Si  Si32  1  0.32525892  0.15570116  0.32083689  1
  Si  Si33  1  0.32525892  0.84429884  0.67916311  1
  Si  Si34  1  0.17474108  0.15570116  0.17916311  1
  Si  Si35  1  0.17474108  0.84429884  0.82083689  1
  Si  Si36  1  0.67474108  0.84429884  0.67916311  1
  Si  Si37  1  0.67474108  0.15570116  0.32083689  1
  Si  Si38  1  0.82525892  0.84429884  0.82083689  1
  Si  Si39  1  0.82525892  0.15570116  0.17916311  1
  Si  Si40  1  0.82525892  0.65570116  0.32083689  1
  Si  Si41  1  0.82525892  0.34429884  0.67916311  1
  Si  Si42  1  0.67474108  0.65570116  0.17916311  1
  Si  Si43  1  0.67474108  0.34429884  0.82083689  1
  Si  Si44  1  0.17474108  0.34429884  0.67916311  1
  Si  Si45  1  0.17474108  0.65570116  0.32083689  1
  Si  Si46  1  0.32525892  0.34429884  0.82083689  1
  Si  Si47  1  0.32525892  0.65570116  0.17916311  1
  O  O48  1  0.25000000  0.89062907  0.25000000  1
  O  O49  1  0.25000000  0.10937093  0.75000000  1
  O  O50  1  0.75000000  0.10937093  0.75000000  1
  O  O51  1  0.75000000  0.89062907  0.25000000  1
  O  O52  1  0.75000000  0.39062907  0.25000000  1
  O  O53  1  0.75000000  0.60937093  0.75000000  1
  O  O54  1  0.25000000  0.60937093  0.75000000  1
  O  O55  1  0.25000000  0.39062907  0.25000000  1
  O  O56  1  0.00000000  0.86123058  0.31491078  1
  O  O57  1  0.00000000  0.13876942  0.68508922  1
  O  O58  1  0.50000000  0.86123058  0.18508922  1
  O  O59  1  0.50000000  0.13876942  0.81491078  1
  O  O60  1  0.50000000  0.36123058  0.31491078  1
  O  O61  1  0.50000000  0.63876942  0.68508922  1
  O  O62  1  0.00000000  0.36123058  0.18508922  1
  O  O63  1  0.00000000  0.63876942  0.81491078  1
  O  O64  1  0.22816272  0.75592853  0.33737417  1
  O  O65  1  0.22816272  0.24407147  0.66262583  1
  O  O66  1  0.27183728  0.75592853  0.16262583  1
  O  O67  1  0.27183728  0.24407147  0.83737417  1
  O  O68  1  0.77183728  0.24407147  0.66262583  1
  O  O69  1  0.77183728  0.75592853  0.33737417  1
  O  O70  1  0.72816272  0.24407147  0.83737417  1
  O  O71  1  0.72816272  0.75592853  0.16262583  1
  O  O72  1  0.72816272  0.25592853  0.33737417  1
  O  O73  1  0.72816272  0.74407147  0.66262583  1
  O  O74  1  0.77183728  0.25592853  0.16262583  1
  O  O75  1  0.77183728  0.74407147  0.83737417  1
  O  O76  1  0.27183728  0.74407147  0.66262583  1
  O  O77  1  0.27183728  0.25592853  0.33737417  1
  O  O78  1  0.22816272  0.74407147  0.83737417  1
  O  O79  1  0.22816272  0.25592853  0.16262583  1
  O  O80  1  0.22958702  0.91930625  0.38457229  1
  O  O81  1  0.22958702  0.08069375  0.61542771  1
  O  O82  1  0.27041298  0.91930625  0.11542771  1
  O  O83  1  0.27041298  0.08069375  0.88457229  1
  O  O84  1  0.77041298  0.08069375  0.61542771  1
  O  O85  1  0.77041298  0.91930625  0.38457229  1
  O  O86  1  0.72958702  0.08069375  0.88457229  1
  O  O87  1  0.72958702  0.91930625  0.11542771  1
  O  O88  1  0.72958702  0.41930625  0.38457229  1
  O  O89  1  0.72958702  0.58069375  0.61542771  1
  O  O90  1  0.77041298  0.41930625  0.11542771  1
  O  O91  1  0.77041298  0.58069375  0.88457229  1
  O  O92  1  0.27041298  0.58069375  0.61542771  1
  O  O93  1  0.27041298  0.41930625  0.38457229  1
  O  O94  1  0.22958702  0.58069375  0.88457229  1
  O  O95  1  0.22958702  0.41930625  0.11542771  1
  O  O96  1  0.22009489  0.09170704  0.11552221  1
  O  O97  1  0.22009489  0.90829296  0.88447779  1
  O  O98  1  0.27990511  0.09170704  0.38447779  1
  O  O99  1  0.27990511  0.90829296  0.61552221  1
  O  O100  1  0.77990511  0.90829296  0.88447779  1
  O  O101  1  0.77990511  0.09170704  0.11552221  1
  O  O102  1  0.72009489  0.90829296  0.61552221  1
  O  O103  1  0.72009489  0.09170704  0.38447779  1
  O  O104  1  0.72009489  0.59170704  0.11552221  1
  O  O105  1  0.72009489  0.40829296  0.88447779  1
  O  O106  1  0.77990511  0.59170704  0.38447779  1
  O  O107  1  0.77990511  0.40829296  0.61552221  1
  O  O108  1  0.27990511  0.40829296  0.88447779  1
  O  O109  1  0.27990511  0.59170704  0.11552221  1
  O  O110  1  0.22009489  0.40829296  0.61552221  1
  O  O111  1  0.22009489  0.59170704  0.38447779  1
  O  O112  1  0.19695410  0.00000000  0.00000000  1
  O  O113  1  0.30304590  0.00000000  0.50000000  1
  O  O114  1  0.80304590  0.00000000  0.00000000  1
  O  O115  1  0.69695410  0.00000000  0.50000000  1
  O  O116  1  0.69695410  0.50000000  0.00000000  1
  O  O117  1  0.80304590  0.50000000  0.50000000  1
  O  O118  1  0.30304590  0.50000000  0.00000000  1
  O  O119  1  0.19695410  0.50000000  0.50000000  1
  O  O120  1  0.00000000  0.97818535  0.09960126  1
  O  O121  1  0.00000000  0.02181465  0.90039874  1
  O  O122  1  0.50000000  0.97818535  0.40039874  1
  O  O123  1  0.50000000  0.02181465  0.59960126  1
  O  O124  1  0.50000000  0.47818535  0.09960126  1
  O  O125  1  0.50000000  0.52181465  0.90039874  1
  O  O126  1  0.00000000  0.47818535  0.40039874  1
  O  O127  1  0.00000000  0.52181465  0.59960126  1
  O  O128  1  0.25000000  0.12043285  0.25000000  1
  O  O129  1  0.25000000  0.87956715  0.75000000  1
  O  O130  1  0.75000000  0.87956715  0.75000000  1
  O  O131  1  0.75000000  0.12043285  0.25000000  1
  O  O132  1  0.75000000  0.62043285  0.25000000  1
  O  O133  1  0.75000000  0.37956715  0.75000000  1
  O  O134  1  0.25000000  0.37956715  0.75000000  1
  O  O135  1  0.25000000  0.62043285  0.25000000  1
  O  O136  1  0.50000000  0.15443952  0.31040079  1
  O  O137  1  0.50000000  0.84556048  0.68959921  1
  O  O138  1  0.00000000  0.15443952  0.18959921  1
  O  O139  1  0.00000000  0.84556048  0.81040079  1
  O  O140  1  0.00000000  0.65443952  0.31040079  1
  O  O141  1  0.00000000  0.34556048  0.68959921  1
  O  O142  1  0.50000000  0.65443952  0.18959921  1
  O  O143  1  0.50000000  0.34556048  0.81040079  1
