# generated using pymatgen
data_Rb2Sn(H2N)6
_symmetry_space_group_name_H-M   'P 1'
_cell_length_a   6.79297229
_cell_length_b   6.79302002
_cell_length_c   5.71732482
_cell_angle_alpha   89.99981363
_cell_angle_beta   90.00003652
_cell_angle_gamma   119.99886623
_symmetry_Int_Tables_number   1
_chemical_formula_structural   Rb2Sn(H2N)6
_chemical_formula_sum   'Rb2 Sn1 H12 N6'
_cell_volume   228.48158211
_cell_formula_units_Z   1
loop_
 _symmetry_equiv_pos_site_id
 _symmetry_equiv_pos_as_xyz
  1  'x, y, z'
loop_
 _atom_site_type_symbol
 _atom_site_label
 _atom_site_symmetry_multiplicity
 _atom_site_fract_x
 _atom_site_fract_y
 _atom_site_fract_z
 _atom_site_occupancy
  Rb  Rb0  1  0.66663212  0.33331579  0.79495294  1
  Rb  Rb1  1  0.33336788  0.66668421  0.20504706  1
  Sn  Sn2  1  0.00000000  0.00000000  0.00000000  1
  H  H3  1  0.26536928  0.41513701  0.78308921  1
  H  H4  1  0.14975571  0.73462077  0.78308939  1
  H  H5  1  0.58486334  0.85023942  0.78308518  1
  H  H6  1  0.73463072  0.58486299  0.21691079  1
  H  H7  1  0.85024429  0.26537923  0.21691061  1
  H  H8  1  0.41513666  0.14976058  0.21691482  1
  H  H9  1  0.05463480  0.25499573  0.61107568  1
  H  H10  1  0.20035627  0.94536108  0.61107763  1
  H  H11  1  0.74500686  0.79964077  0.61107707  1
  H  H12  1  0.94536520  0.74500427  0.38892432  1
  H  H13  1  0.79964373  0.05463892  0.38892237  1
  H  H14  1  0.25499314  0.20035923  0.38892293  1
  N  N15  1  0.09232288  0.30552272  0.78231543  1
  N  N16  1  0.21319724  0.90766801  0.78231511  1
  N  N17  1  0.69447110  0.78680128  0.78231670  1
  N  N18  1  0.90767712  0.69447728  0.21768457  1
  N  N19  1  0.78680276  0.09233199  0.21768489  1
  N  N20  1  0.30552890  0.21319872  0.21768330  1
