# generated using pymatgen
data_Mg14NbGa
_symmetry_space_group_name_H-M   'P 1'
_cell_length_a   6.27278643
_cell_length_b   6.27278593
_cell_length_c   10.09765907
_cell_angle_alpha   90.00000000
_cell_angle_beta   90.00000000
_cell_angle_gamma   120.00000257
_symmetry_Int_Tables_number   1
_chemical_formula_structural   Mg14NbGa
_chemical_formula_sum   'Mg14 Nb1 Ga1'
_cell_volume   344.09019083
_cell_formula_units_Z   1
loop_
 _symmetry_equiv_pos_site_id
 _symmetry_equiv_pos_as_xyz
  1  'x, y, z'
loop_
 _atom_site_type_symbol
 _atom_site_label
 _atom_site_symmetry_multiplicity
 _atom_site_fract_x
 _atom_site_fract_y
 _atom_site_fract_z
 _atom_site_occupancy
  Mg  Mg0  1  0.16978180  0.83489040  0.12500000  1
  Mg  Mg1  1  0.16600339  0.83300120  0.62500000  1
  Mg  Mg2  1  0.66510960  0.33021820  0.12500000  1
  Mg  Mg3  1  0.66699880  0.33399661  0.62500000  1
  Mg  Mg4  1  0.66510960  0.83489040  0.12500000  1
  Mg  Mg5  1  0.66699880  0.83300120  0.62500000  1
  Mg  Mg6  1  0.32733825  0.17266175  0.37330047  1
  Mg  Mg7  1  0.32733825  0.17266175  0.87669953  1
  Mg  Mg8  1  0.32733825  0.65467749  0.37330047  1
  Mg  Mg9  1  0.32733825  0.65467749  0.87669953  1
  Mg  Mg10  1  0.84532251  0.17266175  0.37330047  1
  Mg  Mg11  1  0.84532251  0.17266175  0.87669953  1
  Mg  Mg12  1  0.83333300  0.66666700  0.37156340  1
  Mg  Mg13  1  0.83333300  0.66666700  0.87843660  1
  Nb  Nb14  1  0.16666700  0.33333300  0.12500000  1
  Ga  Ga15  1  0.16666700  0.33333300  0.62500000  1
