# generated using pymatgen
data_Ti13O22
_symmetry_space_group_name_H-M   'P 1'
_cell_length_a   7.70800567
_cell_length_b   14.09688826
_cell_length_c   7.70800567
_cell_angle_alpha   90.00000000
_cell_angle_beta   97.60139910
_cell_angle_gamma   90.00000000
_symmetry_Int_Tables_number   1
_chemical_formula_structural   Ti13O22
_chemical_formula_sum   'Ti26 O44'
_cell_volume   830.18330560
_cell_formula_units_Z   2
loop_
 _symmetry_equiv_pos_site_id
 _symmetry_equiv_pos_as_xyz
  1  'x, y, z'
loop_
 _atom_site_type_symbol
 _atom_site_label
 _atom_site_symmetry_multiplicity
 _atom_site_fract_x
 _atom_site_fract_y
 _atom_site_fract_z
 _atom_site_occupancy
  Ti  Ti0  1  0.20082173  0.81832812  0.94389521  1
  Ti  Ti1  1  0.05610479  0.18167188  0.79917827  1
  Ti  Ti2  1  0.23397663  0.50000000  0.76602337  1
  Ti  Ti3  1  0.44278268  0.34969964  0.92484359  1
  Ti  Ti4  1  0.07515641  0.65030036  0.55721732  1
  Ti  Ti5  1  0.42484359  0.15030036  0.94278268  1
  Ti  Ti6  1  0.05721732  0.84969964  0.57515641  1
  Ti  Ti7  1  0.26602337  0.00000000  0.73397663  1
  Ti  Ti8  1  0.44389521  0.68167188  0.70082173  1
  Ti  Ti9  1  0.29917827  0.31832812  0.55610479  1
  Ti  Ti10  1  0.00000000  0.00000000  0.00000000  1
  Ti  Ti11  1  0.65907645  0.15735118  0.65907645  1
  Ti  Ti12  1  0.15907645  0.34264882  0.15907645  1
  Ti  Ti13  1  0.50000000  0.50000000  0.50000000  1
  Ti  Ti14  1  0.34092355  0.84264882  0.34092355  1
  Ti  Ti15  1  0.84092355  0.65735118  0.84092355  1
  Ti  Ti16  1  0.55610479  0.31832812  0.29917827  1
  Ti  Ti17  1  0.70082173  0.68167188  0.44389521  1
  Ti  Ti18  1  0.73397663  0.00000000  0.26602337  1
  Ti  Ti19  1  0.94278268  0.15030036  0.42484359  1
  Ti  Ti20  1  0.57515641  0.84969964  0.05721732  1
  Ti  Ti21  1  0.55721732  0.65030036  0.07515641  1
  Ti  Ti22  1  0.92484359  0.34969964  0.44278268  1
  Ti  Ti23  1  0.76602337  0.50000000  0.23397663  1
  Ti  Ti24  1  0.79917827  0.18167188  0.05610479  1
  Ti  Ti25  1  0.94389521  0.81832812  0.20082173  1
  O  O26  1  0.22320740  0.41816807  0.97256576  1
  O  O27  1  0.02743424  0.58183193  0.77679260  1
  O  O28  1  0.20743830  0.08038942  0.95369308  1
  O  O29  1  0.04630692  0.91961058  0.79256170  1
  O  O30  1  0.39415836  0.90902131  0.90134828  1
  O  O31  1  0.09865172  0.09097869  0.60584164  1
  O  O32  1  0.27813678  0.25000000  0.77813678  1
  O  O33  1  0.22186322  0.75000000  0.72186322  1
  O  O34  1  0.40134828  0.59097869  0.89415836  1
  O  O35  1  0.10584164  0.40902131  0.59865172  1
  O  O36  1  0.61998347  0.24190529  0.88413350  1
  O  O37  1  0.61586650  0.74190529  0.88001653  1
  O  O38  1  0.11998347  0.25809471  0.38413350  1
  O  O39  1  0.11586650  0.75809471  0.38001653  1
  O  O40  1  0.45369308  0.41961058  0.70743830  1
  O  O41  1  0.29256170  0.58038942  0.54630692  1
  O  O42  1  0.47256576  0.08183193  0.72320740  1
  O  O43  1  0.27679260  0.91816807  0.52743424  1
  O  O44  1  0.84833604  0.09900533  0.84833604  1
  O  O45  1  0.51033555  0.24849164  0.51033555  1
  O  O46  1  0.01033555  0.25150836  0.01033555  1
  O  O47  1  0.34833604  0.40099467  0.34833604  1
  O  O48  1  0.65166396  0.59900533  0.65166396  1
  O  O49  1  0.48966445  0.75150836  0.48966445  1
  O  O50  1  0.15166396  0.90099467  0.15166396  1
  O  O51  1  0.98966445  0.74849164  0.98966445  1
  O  O52  1  0.72320740  0.08183193  0.47256576  1
  O  O53  1  0.52743424  0.91816807  0.27679260  1
  O  O54  1  0.70743830  0.41961058  0.45369308  1
  O  O55  1  0.54630692  0.58038942  0.29256170  1
  O  O56  1  0.38413350  0.25809471  0.11998347  1
  O  O57  1  0.38001653  0.75809471  0.11586650  1
  O  O58  1  0.88413350  0.24190529  0.61998347  1
  O  O59  1  0.88001653  0.74190529  0.61586650  1
  O  O60  1  0.59865172  0.40902131  0.10584164  1
  O  O61  1  0.89415836  0.59097869  0.40134828  1
  O  O62  1  0.77813678  0.25000000  0.27813678  1
  O  O63  1  0.72186322  0.75000000  0.22186322  1
  O  O64  1  0.60584164  0.09097869  0.09865172  1
  O  O65  1  0.90134828  0.90902131  0.39415836  1
  O  O66  1  0.95369308  0.08038942  0.20743830  1
  O  O67  1  0.79256170  0.91961058  0.04630692  1
  O  O68  1  0.97256576  0.41816807  0.22320740  1
  O  O69  1  0.77679260  0.58183193  0.02743424  1
