# generated using pymatgen
data_Ba4Sm2Cu2O9
_symmetry_space_group_name_H-M   'P 1'
_cell_length_a   3.89166394
_cell_length_b   12.05105214
_cell_length_c   12.05105214
_cell_angle_alpha   90.00000000
_cell_angle_beta   90.00000000
_cell_angle_gamma   90.00000000
_symmetry_Int_Tables_number   1
_chemical_formula_structural   Ba4Sm2Cu2O9
_chemical_formula_sum   'Ba8 Sm4 Cu4 O18'
_cell_volume   565.17801682
_cell_formula_units_Z   2
loop_
 _symmetry_equiv_pos_site_id
 _symmetry_equiv_pos_as_xyz
  1  'x, y, z'
loop_
 _atom_site_type_symbol
 _atom_site_label
 _atom_site_symmetry_multiplicity
 _atom_site_fract_x
 _atom_site_fract_y
 _atom_site_fract_z
 _atom_site_occupancy
  Ba  Ba0  1  0.25910061  0.17198772  0.88672921  1
  Ba  Ba1  1  0.24089939  0.61327079  0.32801228  1
  Ba  Ba2  1  0.25910061  0.82801228  0.11327079  1
  Ba  Ba3  1  0.74089939  0.88672921  0.82801228  1
  Ba  Ba4  1  0.74089939  0.11327079  0.17198772  1
  Ba  Ba5  1  0.75910061  0.32801228  0.38672921  1
  Ba  Ba6  1  0.75910061  0.67198772  0.61327079  1
  Ba  Ba7  1  0.24089939  0.38672921  0.67198772  1
  Sm  Sm8  1  0.25000000  0.38953068  0.11046932  1
  Sm  Sm9  1  0.25000000  0.61046932  0.88953068  1
  Sm  Sm10  1  0.75000000  0.88953068  0.38953068  1
  Sm  Sm11  1  0.75000000  0.11046932  0.61046932  1
  Cu  Cu12  1  0.75000000  0.40319440  0.90319440  1
  Cu  Cu13  1  0.25000000  0.09680560  0.40319440  1
  Cu  Cu14  1  0.75000000  0.59680560  0.09680560  1
  Cu  Cu15  1  0.25000000  0.90319440  0.59680560  1
  O  O16  1  0.24969846  0.97504550  0.29191761  1
  O  O17  1  0.75030154  0.29191761  0.02495450  1
  O  O18  1  0.25030154  0.20808239  0.52495450  1
  O  O19  1  0.75000000  0.24275217  0.74275217  1
  O  O20  1  0.25030154  0.79191761  0.47504550  1
  O  O21  1  0.25000000  0.74275217  0.75724783  1
  O  O22  1  0.25000000  0.25724783  0.24275217  1
  O  O23  1  0.75030154  0.70808239  0.97504550  1
  O  O24  1  0.25000000  0.59093575  0.09093575  1
  O  O25  1  0.25000000  0.40906425  0.90906425  1
  O  O26  1  0.50000000  0.00000000  0.00000000  1
  O  O27  1  0.75000000  0.90906425  0.59093575  1
  O  O28  1  0.74969846  0.52495450  0.79191761  1
  O  O29  1  0.75000000  0.09093575  0.40906425  1
  O  O30  1  0.00000000  0.50000000  0.50000000  1
  O  O31  1  0.75000000  0.75724783  0.25724783  1
  O  O32  1  0.74969846  0.47504550  0.20808239  1
  O  O33  1  0.24969846  0.02495450  0.70808239  1
