# generated using pymatgen
data_Ba3La2(BO3)4
_symmetry_space_group_name_H-M   'P 1'
_cell_length_a   7.94699396
_cell_length_b   9.06327003
_cell_length_c   16.87350858
_cell_angle_alpha   90.00000000
_cell_angle_beta   90.00000000
_cell_angle_gamma   90.00000000
_symmetry_Int_Tables_number   1
_chemical_formula_structural   Ba3La2(BO3)4
_chemical_formula_sum   'Ba12 La8 B16 O48'
_cell_volume   1215.32714750
_cell_formula_units_Z   4
loop_
 _symmetry_equiv_pos_site_id
 _symmetry_equiv_pos_as_xyz
  1  'x, y, z'
loop_
 _atom_site_type_symbol
 _atom_site_label
 _atom_site_symmetry_multiplicity
 _atom_site_fract_x
 _atom_site_fract_y
 _atom_site_fract_z
 _atom_site_occupancy
  B  B0  1  0.81814893  0.95160169  0.46382902  1
  B  B1  1  0.47815873  0.89220487  0.25000000  1
  B  B2  1  0.97815873  0.60779513  0.25000000  1
  B  B3  1  0.02184127  0.39220487  0.75000000  1
  B  B4  1  0.52184127  0.10779513  0.75000000  1
  B  B5  1  0.21849413  0.13936077  0.25000000  1
  B  B6  1  0.71849413  0.36063923  0.25000000  1
  B  B7  1  0.28150587  0.63936077  0.75000000  1
  B  B8  1  0.78150587  0.86063923  0.75000000  1
  B  B9  1  0.81814893  0.95160169  0.03617098  1
  B  B10  1  0.31814893  0.54839831  0.46382902  1
  B  B11  1  0.68185107  0.45160169  0.96382902  1
  B  B12  1  0.18185107  0.04839831  0.53617098  1
  B  B13  1  0.18185107  0.04839831  0.96382902  1
  B  B14  1  0.68185107  0.45160169  0.53617098  1
  B  B15  1  0.31814893  0.54839831  0.03617098  1
  O  O16  1  0.60944349  0.31186033  0.53348329  1
  O  O17  1  0.17250620  0.52217436  0.99161865  1
  O  O18  1  0.82749380  0.47782564  0.49161865  1
  O  O19  1  0.32749380  0.02217436  0.00838135  1
  O  O20  1  0.39941175  0.75591199  0.25000000  1
  O  O21  1  0.62333255  0.56384348  0.91565154  1
  O  O22  1  0.12333255  0.93615652  0.58434846  1
  O  O23  1  0.87666745  0.06384348  0.08434846  1
  O  O24  1  0.37666745  0.43615652  0.41565154  1
  O  O25  1  0.37666745  0.43615652  0.08434846  1
  O  O26  1  0.87666745  0.06384348  0.41565154  1
  O  O27  1  0.12333255  0.93615652  0.91565154  1
  O  O28  1  0.62333255  0.56384348  0.58434846  1
  O  O29  1  0.85195525  0.99747713  0.75000000  1
  O  O30  1  0.35195525  0.50252287  0.75000000  1
  O  O31  1  0.64804475  0.49747713  0.25000000  1
  O  O32  1  0.14804475  0.00252287  0.25000000  1
  O  O33  1  0.60058825  0.24408801  0.75000000  1
  O  O34  1  0.10058825  0.25591199  0.75000000  1
  O  O35  1  0.89941175  0.74408801  0.25000000  1
  O  O36  1  0.97400767  0.45725992  0.82226675  1
  O  O37  1  0.47400767  0.04274008  0.67773325  1
  O  O38  1  0.52599233  0.95725992  0.17773325  1
  O  O39  1  0.02599233  0.54274008  0.32226675  1
  O  O40  1  0.02599233  0.54274008  0.17773325  1
  O  O41  1  0.52599233  0.95725992  0.32226675  1
  O  O42  1  0.47400767  0.04274008  0.82226675  1
  O  O43  1  0.97400767  0.45725992  0.67773325  1
  O  O44  1  0.89055651  0.81186033  0.46651671  1
  O  O45  1  0.39055651  0.68813967  0.03348329  1
  O  O46  1  0.67250620  0.97782564  0.50838135  1
  O  O47  1  0.10944349  0.18813967  0.96651671  1
  O  O48  1  0.10944349  0.18813967  0.53348329  1
  O  O49  1  0.60944349  0.31186033  0.96651671  1
  O  O50  1  0.39055651  0.68813967  0.46651671  1
  O  O51  1  0.89055651  0.81186033  0.03348329  1
  O  O52  1  0.75175405  0.78906217  0.82255119  1
  O  O53  1  0.25175405  0.71093783  0.67744881  1
  O  O54  1  0.74824595  0.28906217  0.17744881  1
  O  O55  1  0.24824595  0.21093783  0.32255119  1
  O  O56  1  0.24824595  0.21093783  0.17744881  1
  O  O57  1  0.74824595  0.28906217  0.32255119  1
  O  O58  1  0.25175405  0.71093783  0.82255119  1
  O  O59  1  0.75175405  0.78906217  0.67744881  1
  O  O60  1  0.67250620  0.97782564  0.99161865  1
  O  O61  1  0.17250620  0.52217436  0.50838135  1
  O  O62  1  0.82749380  0.47782564  0.00838135  1
  O  O63  1  0.32749380  0.02217436  0.49161865  1
  Ba  Ba64  1  0.32351311  0.46761186  0.25000000  1
  Ba  Ba65  1  0.82351311  0.03238814  0.25000000  1
  Ba  Ba66  1  0.17648689  0.96761186  0.75000000  1
  Ba  Ba67  1  0.67648689  0.53238814  0.75000000  1
  Ba  Ba68  1  0.67432974  0.65637768  0.12389521  1
  Ba  Ba69  1  0.17432974  0.84362232  0.37610479  1
  Ba  Ba70  1  0.82567026  0.15637768  0.87610479  1
  Ba  Ba71  1  0.32567026  0.34362232  0.62389521  1
  Ba  Ba72  1  0.32567026  0.34362232  0.87610479  1
  Ba  Ba73  1  0.82567026  0.15637768  0.62389521  1
  Ba  Ba74  1  0.67432974  0.65637768  0.37610479  1
  Ba  Ba75  1  0.17432974  0.84362232  0.12389521  1
  La  La76  1  0.97018757  0.67036469  0.58459903  1
  La  La77  1  0.47018757  0.82963531  0.91540097  1
  La  La78  1  0.52981243  0.17036469  0.41540097  1
  La  La79  1  0.02981243  0.32963531  0.08459903  1
  La  La80  1  0.02981243  0.32963531  0.41540097  1
  La  La81  1  0.52981243  0.17036469  0.08459903  1
  La  La82  1  0.47018757  0.82963531  0.58459903  1
  La  La83  1  0.97018757  0.67036469  0.91540097  1
