# generated using pymatgen
data_LiP(HO)2
_symmetry_space_group_name_H-M   'P 1'
_cell_length_a   5.48890615
_cell_length_b   5.48890615
_cell_length_c   6.58948874
_cell_angle_alpha   73.85855567
_cell_angle_beta   106.14144433
_cell_angle_gamma   119.72451191
_symmetry_Int_Tables_number   1
_chemical_formula_structural   LiP(HO)2
_chemical_formula_sum   'Li2 P2 H4 O4'
_cell_volume   163.25513808
_cell_formula_units_Z   2
loop_
 _symmetry_equiv_pos_site_id
 _symmetry_equiv_pos_as_xyz
  1  'x, y, z'
loop_
 _atom_site_type_symbol
 _atom_site_label
 _atom_site_symmetry_multiplicity
 _atom_site_fract_x
 _atom_site_fract_y
 _atom_site_fract_z
 _atom_site_occupancy
  Li  Li0  1  0.25029543  0.25029543  0.00000000  1
  Li  Li1  1  0.74970457  0.74970457  0.00000000  1
  P  P2  1  0.18954225  0.81045775  0.72560577  1
  P  P3  1  0.81045775  0.18954225  0.27439423  1
  H  H4  1  0.95331045  0.64308787  0.58435292  1
  H  H5  1  0.35691213  0.04668955  0.58435292  1
  H  H6  1  0.04668955  0.35691213  0.41564708  1
  H  H7  1  0.64308787  0.95331045  0.41564708  1
  O  O8  1  0.08316287  0.91683713  0.85569954  1
  O  O9  1  0.91683713  0.08316287  0.14430046  1
  O  O10  1  0.35637949  0.64362051  0.84291103  1
  O  O11  1  0.64362051  0.35637949  0.15708897  1
