# generated using pymatgen
data_Fe2Cu2Ge4O13
_symmetry_space_group_name_H-M   'P 1'
_cell_length_a   4.96754104
_cell_length_b   8.70946177
_cell_length_c   12.19843277
_cell_angle_alpha   90.00000000
_cell_angle_beta   96.12071594
_cell_angle_gamma   90.00000000
_symmetry_Int_Tables_number   1
_chemical_formula_structural   Fe2Cu2Ge4O13
_chemical_formula_sum   'Fe4 Cu4 Ge8 O26'
_cell_volume   524.75190062
_cell_formula_units_Z   2
loop_
 _symmetry_equiv_pos_site_id
 _symmetry_equiv_pos_as_xyz
  1  'x, y, z'
loop_
 _atom_site_type_symbol
 _atom_site_label
 _atom_site_symmetry_multiplicity
 _atom_site_fract_x
 _atom_site_fract_y
 _atom_site_fract_z
 _atom_site_occupancy
  O  O0  1  0.79938199  0.58005235  0.00312891  1
  O  O1  1  0.20061801  0.08005235  0.99687109  1
  O  O2  1  0.20061801  0.41994765  0.99687109  1
  O  O3  1  0.79938199  0.91994765  0.00312891  1
  O  O4  1  0.28143681  0.25000000  0.43600685  1
  O  O5  1  0.71856319  0.75000000  0.56399315  1
  O  O6  1  0.86964670  0.57977952  0.25926902  1
  O  O7  1  0.13035330  0.07977952  0.74073098  1
  O  O8  1  0.13035330  0.42022048  0.74073098  1
  O  O9  1  0.86964670  0.92022048  0.25926902  1
  O  O10  1  0.20664085  0.57627949  0.49587713  1
  O  O11  1  0.79335915  0.07627949  0.50412287  1
  O  O12  1  0.79335915  0.42372051  0.50412287  1
  O  O13  1  0.20664085  0.92372051  0.49587713  1
  O  O14  1  0.55238240  0.25000000  0.87168213  1
  O  O15  1  0.44761760  0.75000000  0.12831787  1
  O  O16  1  0.21124338  0.75000000  0.66842867  1
  O  O17  1  0.78875662  0.25000000  0.33157133  1
  O  O18  1  0.43154281  0.75000000  0.34614067  1
  O  O19  1  0.56845719  0.25000000  0.65385933  1
  O  O20  1  0.36700515  0.75000000  0.88771464  1
  O  O21  1  0.63299485  0.25000000  0.11228536  1
  O  O22  1  0.72016396  0.91568796  0.75121744  1
  O  O23  1  0.27983604  0.41568796  0.24878256  1
  O  O24  1  0.27983604  0.08431204  0.24878256  1
  O  O25  1  0.72016396  0.58431204  0.75121744  1
  Fe  Fe26  1  0.95493823  0.93632708  0.62328954  1
  Fe  Fe27  1  0.04506177  0.43632708  0.37671046  1
  Fe  Fe28  1  0.04506177  0.06367292  0.37671046  1
  Fe  Fe29  1  0.95493823  0.56367292  0.62328954  1
  Cu  Cu30  1  0.95784227  0.00211087  0.87373206  1
  Cu  Cu31  1  0.04215773  0.50211087  0.12626794  1
  Cu  Cu32  1  0.04215773  0.99788913  0.12626794  1
  Cu  Cu33  1  0.95784227  0.49788913  0.87373206  1
  Ge  Ge34  1  0.60736931  0.25000000  0.51216633  1
  Ge  Ge35  1  0.39263069  0.75000000  0.48783367  1
  Ge  Ge36  1  0.39300419  0.25000000  0.99437106  1
  Ge  Ge37  1  0.60699581  0.75000000  0.00562894  1
  Ge  Ge38  1  0.32813411  0.25000000  0.74581304  1
  Ge  Ge39  1  0.67186589  0.75000000  0.25418696  1
  Ge  Ge40  1  0.48580164  0.25000000  0.24046544  1
  Ge  Ge41  1  0.51419836  0.75000000  0.75953456  1
