# generated using pymatgen
data_Zr5AlNi4
_symmetry_space_group_name_H-M   'P 1'
_cell_length_a   6.64621670
_cell_length_b   7.20478223
_cell_length_c   7.20527715
_cell_angle_alpha   90.00447009
_cell_angle_beta   90.00013567
_cell_angle_gamma   90.00002451
_symmetry_Int_Tables_number   1
_chemical_formula_structural   Zr5AlNi4
_chemical_formula_sum   'Zr10 Al2 Ni8'
_cell_volume   345.02140907
_cell_formula_units_Z   2
loop_
 _symmetry_equiv_pos_site_id
 _symmetry_equiv_pos_as_xyz
  1  'x, y, z'
loop_
 _atom_site_type_symbol
 _atom_site_label
 _atom_site_symmetry_multiplicity
 _atom_site_fract_x
 _atom_site_fract_y
 _atom_site_fract_z
 _atom_site_occupancy
  Zr  Zr0  1  0.00000260  0.18438039  0.35162078  1
  Zr  Zr1  1  0.50000868  0.35160974  0.81559371  1
  Zr  Zr2  1  0.49999426  0.64840261  0.18440240  1
  Zr  Zr3  1  0.75000106  0.99999474  0.99999481  1
  Zr  Zr4  1  0.00000085  0.65419774  0.18995569  1
  Zr  Zr5  1  0.99999412  0.81561352  0.64837919  1
  Zr  Zr6  1  0.49999109  0.18993867  0.34581460  1
  Zr  Zr7  1  0.50001008  0.81005500  0.65418543  1
  Zr  Zr8  1  0.99999582  0.34581394  0.81003987  1
  Zr  Zr9  1  0.24999846  0.99999292  0.00000245  1
  Al  Al10  1  0.25000164  0.50000438  0.49999678  1
  Al  Al11  1  0.74999941  0.50000132  0.50000124  1
  Ni  Ni12  1  0.74239983  0.12099017  0.63209266  1
  Ni  Ni13  1  0.75758191  0.36791872  0.12098477  1
  Ni  Ni14  1  0.75759066  0.63209179  0.87900796  1
  Ni  Ni15  1  0.24241300  0.63208639  0.87902274  1
  Ni  Ni16  1  0.74241185  0.87899535  0.36791912  1
  Ni  Ni17  1  0.25760006  0.87901353  0.36790960  1
  Ni  Ni18  1  0.25759097  0.12099006  0.63208877  1
  Ni  Ni19  1  0.24241366  0.36791003  0.12098742  1
