# generated using pymatgen
data_Sm11(CoB)40
_symmetry_space_group_name_H-M   'P 1'
_cell_length_a   7.03927298
_cell_length_b   7.03927298
_cell_length_c   38.62572254
_cell_angle_alpha   90.00000000
_cell_angle_beta   90.00000000
_cell_angle_gamma   90.00000000
_symmetry_Int_Tables_number   1
_chemical_formula_structural   Sm11(CoB)40
_chemical_formula_sum   'Sm22 Co80 B80'
_cell_volume   1913.95724070
_cell_formula_units_Z   2
loop_
 _symmetry_equiv_pos_site_id
 _symmetry_equiv_pos_as_xyz
  1  'x, y, z'
loop_
 _atom_site_type_symbol
 _atom_site_label
 _atom_site_symmetry_multiplicity
 _atom_site_fract_x
 _atom_site_fract_y
 _atom_site_fract_z
 _atom_site_occupancy
  Sm  Sm0  1  0.00000000  0.00000000  0.68251336  1
  Sm  Sm1  1  0.50000000  0.50000000  0.27296020  1
  Sm  Sm2  1  0.00000000  0.00000000  0.77296020  1
  Sm  Sm3  1  0.00000000  0.00000000  0.40874401  1
  Sm  Sm4  1  0.50000000  0.50000000  0.72703980  1
  Sm  Sm5  1  0.50000000  0.50000000  0.45451865  1
  Sm  Sm6  1  0.50000000  0.50000000  0.18251336  1
  Sm  Sm7  1  0.00000000  0.00000000  0.13647508  1
  Sm  Sm8  1  0.00000000  0.00000000  0.50000000  1
  Sm  Sm9  1  0.50000000  0.50000000  0.81748664  1
  Sm  Sm10  1  0.00000000  0.00000000  0.22703980  1
  Sm  Sm11  1  0.50000000  0.50000000  0.09125599  1
  Sm  Sm12  1  0.50000000  0.50000000  0.90874401  1
  Sm  Sm13  1  0.50000000  0.50000000  0.36352492  1
  Sm  Sm14  1  0.00000000  0.00000000  0.95451865  1
  Sm  Sm15  1  0.00000000  0.00000000  0.31748664  1
  Sm  Sm16  1  0.00000000  0.00000000  0.86352492  1
  Sm  Sm17  1  0.50000000  0.50000000  0.63647508  1
  Sm  Sm18  1  0.50000000  0.50000000  0.54548135  1
  Sm  Sm19  1  0.00000000  0.00000000  0.04548135  1
  Sm  Sm20  1  0.00000000  0.00000000  0.59125599  1
  Sm  Sm21  1  0.50000000  0.50000000  0.00000000  1
  Co  Co22  1  0.88057340  0.36423680  0.43980477  1
  Co  Co23  1  0.61646010  0.14634957  0.41113450  1
  Co  Co24  1  0.64324206  0.11704074  0.81223926  1
  Co  Co25  1  0.14324206  0.38295926  0.68776074  1
  Co  Co26  1  0.87451669  0.37195242  0.83864945  1
  Co  Co27  1  0.85365043  0.61646010  0.58886550  1
  Co  Co28  1  0.13035435  0.37686458  0.38934844  1
  Co  Co29  1  0.63576320  0.88057340  0.56019523  1
  Co  Co30  1  0.35948165  0.88261662  0.01018785  1
  Co  Co31  1  0.38353990  0.85365043  0.41113450  1
  Co  Co32  1  0.88353990  0.64634957  0.08886550  1
  Co  Co33  1  0.86652472  0.62147500  0.78806932  1
  Co  Co34  1  0.12804758  0.62548331  0.33864945  1
  Co  Co35  1  0.11923278  0.63887263  0.73778555  1
  Co  Co36  1  0.12147500  0.36652472  0.28806932  1
  Co  Co37  1  0.63887263  0.88076722  0.26221445  1
  Co  Co38  1  0.14433765  0.61647747  0.03942412  1
  Co  Co39  1  0.61942660  0.86423680  0.06019523  1
  Co  Co40  1  0.88261662  0.64051835  0.98981215  1
  Co  Co41  1  0.38383507  0.14650055  0.86180988  1
  Co  Co42  1  0.88383507  0.35349945  0.63819012  1
  Co  Co43  1  0.35365043  0.88353990  0.91113450  1
  Co  Co44  1  0.11704074  0.35675794  0.18776074  1
  Co  Co45  1  0.86112737  0.38076722  0.23778555  1
  Co  Co46  1  0.35675794  0.88295926  0.81223926  1
  Co  Co47  1  0.12313542  0.36964565  0.88934844  1
  Co  Co48  1  0.85566235  0.38352253  0.03942412  1
  Co  Co49  1  0.64051835  0.11738338  0.01018785  1
  Co  Co50  1  0.13887263  0.61923278  0.23778555  1
  Co  Co51  1  0.85948165  0.61738338  0.48981215  1
  Co  Co52  1  0.62804758  0.87451669  0.16135055  1
  Co  Co53  1  0.61647747  0.85566235  0.96057588  1
  Co  Co54  1  0.37852500  0.86652472  0.21193068  1
  Co  Co55  1  0.38076722  0.13887263  0.76221445  1
  Co  Co56  1  0.61923278  0.86112737  0.76221445  1
  Co  Co57  1  0.14051835  0.38261662  0.48981215  1
  Co  Co58  1  0.88295926  0.64324206  0.18776074  1
  Co  Co59  1  0.85675794  0.61704074  0.68776074  1
  Co  Co60  1  0.14650055  0.61616493  0.13819012  1
  Co  Co61  1  0.11942660  0.63576320  0.43980477  1
  Co  Co62  1  0.62313542  0.13035435  0.61065156  1
  Co  Co63  1  0.11646010  0.35365043  0.08886550  1
  Co  Co64  1  0.38352253  0.14433765  0.96057588  1
  Co  Co65  1  0.14634957  0.38353990  0.58886550  1
  Co  Co66  1  0.38057340  0.13576320  0.06019523  1
  Co  Co67  1  0.64634957  0.11646010  0.91113450  1
  Co  Co68  1  0.86423680  0.38057340  0.93980477  1
  Co  Co69  1  0.61616493  0.85349945  0.86180988  1
  Co  Co70  1  0.13347528  0.37852500  0.78806932  1
  Co  Co71  1  0.61704074  0.14324206  0.31223926  1
  Co  Co72  1  0.62548331  0.87195242  0.66135055  1
  Co  Co73  1  0.36423680  0.11942660  0.56019523  1
  Co  Co74  1  0.87852500  0.63347528  0.28806932  1
  Co  Co75  1  0.37451669  0.12804758  0.66135055  1
  Co  Co76  1  0.11738338  0.35948165  0.98981215  1
  Co  Co77  1  0.85349945  0.38383507  0.13819012  1
  Co  Co78  1  0.13576320  0.61942660  0.93980477  1
  Co  Co79  1  0.36652472  0.87852500  0.71193068  1
  Co  Co80  1  0.64433765  0.88352253  0.46057588  1
  Co  Co81  1  0.86964565  0.62313542  0.38934844  1
  Co  Co82  1  0.87686458  0.63035435  0.88934844  1
  Co  Co83  1  0.36964565  0.87686458  0.11065156  1
  Co  Co84  1  0.37195242  0.12548331  0.16135055  1
  Co  Co85  1  0.35349945  0.11616493  0.36180988  1
  Co  Co86  1  0.36112737  0.11923278  0.26221445  1
  Co  Co87  1  0.87195242  0.37451669  0.33864945  1
  Co  Co88  1  0.11616493  0.64650055  0.63819012  1
  Co  Co89  1  0.64650055  0.88383507  0.36180988  1
  Co  Co90  1  0.35566235  0.11647747  0.46057588  1
  Co  Co91  1  0.38295926  0.85675794  0.31223926  1
  Co  Co92  1  0.88076722  0.36112737  0.73778555  1
  Co  Co93  1  0.12548331  0.62804758  0.83864945  1
  Co  Co94  1  0.63347528  0.12147500  0.71193068  1
  Co  Co95  1  0.62147500  0.13347528  0.21193068  1
  Co  Co96  1  0.88352253  0.35566235  0.53942412  1
  Co  Co97  1  0.38261662  0.85948165  0.51018785  1
  Co  Co98  1  0.37686458  0.86964565  0.61065156  1
  Co  Co99  1  0.11647747  0.64433765  0.53942412  1
  Co  Co100  1  0.63035435  0.12313542  0.11065156  1
  Co  Co101  1  0.61738338  0.14051835  0.51018785  1
  B  B102  1  0.33695054  0.20637473  0.41105667  1
  B  B103  1  0.70566074  0.16426636  0.36157451  1
  B  B104  1  0.30067948  0.16330863  0.01005888  1
  B  B105  1  0.32585940  0.82411544  0.16086906  1
  B  B106  1  0.29433926  0.83573364  0.36157451  1
  B  B107  1  0.83277734  0.69045921  0.73815336  1
  B  B108  1  0.33151762  0.18216640  0.61032632  1
  B  B109  1  0.66330863  0.80067948  0.51005888  1
  B  B110  1  0.66521960  0.19137058  0.06000002  1
  B  B111  1  0.83573364  0.70566074  0.63842549  1
  B  B112  1  0.19137058  0.33478040  0.93999998  1
  B  B113  1  0.82411544  0.67414060  0.83913094  1
  B  B114  1  0.20566074  0.33573364  0.13842549  1
  B  B115  1  0.16521960  0.30862942  0.43999998  1
  B  B116  1  0.19855035  0.66580595  0.68810599  1
  B  B117  1  0.69137058  0.16521960  0.56000002  1
  B  B118  1  0.83478040  0.69137058  0.43999998  1
  B  B119  1  0.67111994  0.81780093  0.21147894  1
  B  B120  1  0.68219907  0.82888006  0.71147894  1
  B  B121  1  0.67414060  0.17588456  0.16086906  1
  B  B122  1  0.68216640  0.83151762  0.11032632  1
  B  B123  1  0.29362527  0.16304946  0.91105667  1
  B  B124  1  0.70637473  0.83695054  0.91105667  1
  B  B125  1  0.31783360  0.16848238  0.11032632  1
  B  B126  1  0.29535067  0.83726540  0.46045964  1
  B  B127  1  0.80954079  0.66722266  0.23815336  1
  B  B128  1  0.16580595  0.69855035  0.18810599  1
  B  B129  1  0.16426636  0.29433926  0.63842549  1
  B  B130  1  0.30954079  0.83277734  0.26184664  1
  B  B131  1  0.20637473  0.66304946  0.58894333  1
  B  B132  1  0.16848238  0.68216640  0.88967368  1
  B  B133  1  0.19932052  0.66330863  0.48994112  1
  B  B134  1  0.33419405  0.19855035  0.31189401  1
  B  B135  1  0.81780093  0.32888006  0.78852106  1
  B  B136  1  0.82585940  0.67588456  0.33913094  1
  B  B137  1  0.33726540  0.79535067  0.96045964  1
  B  B138  1  0.66722266  0.19045921  0.76184664  1
  B  B139  1  0.80862942  0.66521960  0.93999998  1
  B  B140  1  0.31780093  0.17111994  0.71147894  1
  B  B141  1  0.83669137  0.30067948  0.98994112  1
  B  B142  1  0.16722266  0.30954079  0.73815336  1
  B  B143  1  0.18219907  0.67111994  0.78852106  1
  B  B144  1  0.69045921  0.16722266  0.26184664  1
  B  B145  1  0.16273460  0.29535067  0.53954036  1
  B  B146  1  0.67588456  0.17414060  0.66086906  1
  B  B147  1  0.66273460  0.20464933  0.96045964  1
  B  B148  1  0.70464933  0.16273460  0.46045964  1
  B  B149  1  0.17111994  0.68219907  0.28852106  1
  B  B150  1  0.81783360  0.33151762  0.38967368  1
  B  B151  1  0.82888006  0.31780093  0.28852106  1
  B  B152  1  0.30862942  0.83478040  0.56000002  1
  B  B153  1  0.66848238  0.81783360  0.61032632  1
  B  B154  1  0.16304946  0.70637473  0.08894333  1
  B  B155  1  0.30144965  0.16580595  0.81189401  1
  B  B156  1  0.83151762  0.31783360  0.88967368  1
  B  B157  1  0.66304946  0.79362527  0.41105667  1
  B  B158  1  0.33277734  0.80954079  0.76184664  1
  B  B159  1  0.33573364  0.79433926  0.86157451  1
  B  B160  1  0.83419405  0.30144965  0.18810599  1
  B  B161  1  0.69932052  0.83669137  0.01005888  1
  B  B162  1  0.66580595  0.80144965  0.31189401  1
  B  B163  1  0.19045921  0.33277734  0.23815336  1
  B  B164  1  0.66426636  0.20566074  0.86157451  1
  B  B165  1  0.83695054  0.29362527  0.08894333  1
  B  B166  1  0.16330863  0.69932052  0.98994112  1
  B  B167  1  0.20464933  0.33726540  0.03954036  1
  B  B168  1  0.69855035  0.83419405  0.81189401  1
  B  B169  1  0.80144965  0.33419405  0.68810599  1
  B  B170  1  0.17588456  0.32585940  0.83913094  1
  B  B171  1  0.79362527  0.33695054  0.58894333  1
  B  B172  1  0.79535067  0.66273460  0.03954036  1
  B  B173  1  0.83726540  0.70464933  0.53954036  1
  B  B174  1  0.79433926  0.66426636  0.13842549  1
  B  B175  1  0.33478040  0.80862942  0.06000002  1
  B  B176  1  0.80067948  0.33669137  0.48994112  1
  B  B177  1  0.33669137  0.19932052  0.51005888  1
  B  B178  1  0.32888006  0.18219907  0.21147894  1
  B  B179  1  0.17414060  0.32411544  0.33913094  1
  B  B180  1  0.32411544  0.82585940  0.66086906  1
  B  B181  1  0.18216640  0.66848238  0.38967368  1
