# generated using pymatgen
data_K2ZnCl4
_symmetry_space_group_name_H-M   'P 1'
_cell_length_a   7.40052275
_cell_length_b   9.05207058
_cell_length_c   12.74511787
_cell_angle_alpha   90.00000000
_cell_angle_beta   90.00000000
_cell_angle_gamma   90.00000000
_symmetry_Int_Tables_number   1
_chemical_formula_structural   K2ZnCl4
_chemical_formula_sum   'K8 Zn4 Cl16'
_cell_volume   853.79613769
_cell_formula_units_Z   4
loop_
 _symmetry_equiv_pos_site_id
 _symmetry_equiv_pos_as_xyz
  1  'x, y, z'
loop_
 _atom_site_type_symbol
 _atom_site_label
 _atom_site_symmetry_multiplicity
 _atom_site_fract_x
 _atom_site_fract_y
 _atom_site_fract_z
 _atom_site_occupancy
  K  K0  1  0.25000000  0.13238747  0.08488031  1
  K  K1  1  0.75000000  0.50505957  0.18593166  1
  K  K2  1  0.75000000  0.36761253  0.58488031  1
  K  K3  1  0.75000000  0.86761253  0.91511969  1
  K  K4  1  0.25000000  0.63238747  0.41511969  1
  K  K5  1  0.25000000  0.49494043  0.81406834  1
  K  K6  1  0.75000000  0.00505957  0.31406834  1
  K  K7  1  0.25000000  0.99494043  0.68593166  1
  Zn  Zn8  1  0.25000000  0.71862814  0.08099493  1
  Zn  Zn9  1  0.25000000  0.21862814  0.41900507  1
  Zn  Zn10  1  0.75000000  0.28137186  0.91900507  1
  Zn  Zn11  1  0.75000000  0.78137186  0.58099493  1
  Cl  Cl12  1  0.99898342  0.19641412  0.83137754  1
  Cl  Cl13  1  0.00101658  0.80358588  0.16862246  1
  Cl  Cl14  1  0.25000000  0.83327285  0.91931095  1
  Cl  Cl15  1  0.49898342  0.80358588  0.16862246  1
  Cl  Cl16  1  0.75000000  0.02962516  0.56553959  1
  Cl  Cl17  1  0.50101658  0.19641412  0.83137754  1
  Cl  Cl18  1  0.25000000  0.97037484  0.43446041  1
  Cl  Cl19  1  0.49898342  0.30358588  0.33137754  1
  Cl  Cl20  1  0.50101658  0.69641412  0.66862246  1
  Cl  Cl21  1  0.75000000  0.66672715  0.41931095  1
  Cl  Cl22  1  0.75000000  0.16672715  0.08068905  1
  Cl  Cl23  1  0.75000000  0.52962516  0.93446041  1
  Cl  Cl24  1  0.00101658  0.30358588  0.33137754  1
  Cl  Cl25  1  0.25000000  0.33327285  0.58068905  1
  Cl  Cl26  1  0.25000000  0.47037484  0.06553959  1
  Cl  Cl27  1  0.99898342  0.69641412  0.66862246  1
