# generated using pymatgen
data_Tb4In20Ni11
_symmetry_space_group_name_H-M   'P 1'
_cell_length_a   4.32190034
_cell_length_b   11.47368791
_cell_length_c   13.96327106
_cell_angle_alpha   80.75108420
_cell_angle_beta   81.08270745
_cell_angle_gamma   79.11507286
_symmetry_Int_Tables_number   1
_chemical_formula_structural   Tb4In20Ni11
_chemical_formula_sum   'Tb4 In20 Ni11'
_cell_volume   665.54138945
_cell_formula_units_Z   1
loop_
 _symmetry_equiv_pos_site_id
 _symmetry_equiv_pos_as_xyz
  1  'x, y, z'
loop_
 _atom_site_type_symbol
 _atom_site_label
 _atom_site_symmetry_multiplicity
 _atom_site_fract_x
 _atom_site_fract_y
 _atom_site_fract_z
 _atom_site_occupancy
  Tb  Tb0  1  0.11765708  0.09252689  0.66728060  1
  Tb  Tb1  1  0.76710911  0.63264540  0.82511974  1
  Tb  Tb2  1  0.87417535  0.90716404  0.33107254  1
  Tb  Tb3  1  0.22749466  0.36917465  0.17430982  1
  In  In4  1  0.11761863  0.31845353  0.44997352  1
  In  In5  1  0.75070341  0.20231454  0.29027229  1
  In  In6  1  0.61320195  0.46639921  0.31006651  1
  In  In7  1  0.93467758  0.33649820  0.79079722  1
  In  In8  1  0.06091428  0.66337916  0.21123776  1
  In  In9  1  0.99010638  0.92463383  0.09488409  1
  In  In10  1  0.60219598  0.78990825  0.00812715  1
  In  In11  1  0.53905882  0.29576188  0.62299330  1
  In  In12  1  0.01337708  0.07536368  0.90369250  1
  In  In13  1  0.45504361  0.70341171  0.37723285  1
  In  In14  1  0.88687366  0.67834190  0.55161833  1
  In  In15  1  0.24328865  0.79690183  0.70856564  1
  In  In16  1  0.19971201  0.60084317  0.99687344  1
  In  In17  1  0.69984274  0.09613889  0.49781679  1
  In  In18  1  0.62783610  0.94106101  0.80332594  1
  In  In19  1  0.39919700  0.21223582  0.99147211  1
  In  In20  1  0.36900404  0.05945684  0.19535011  1
  In  In21  1  0.38470689  0.53130514  0.69203047  1
  In  In22  1  0.79648467  0.40164789  0.00361165  1
  In  In23  1  0.29292015  0.90265787  0.50107272  1
  Ni  Ni24  1  0.13786245  0.83165150  0.89674337  1
  Ni  Ni25  1  0.97492630  0.44394520  0.60105223  1
  Ni  Ni26  1  0.25120861  0.10861638  0.38270985  1
  Ni  Ni27  1  0.34378365  0.42772824  0.88018692  1
  Ni  Ni28  1  0.50940753  0.18231500  0.80539396  1
  Ni  Ni29  1  0.74105794  0.89059033  0.61665017  1
  Ni  Ni30  1  0.49233032  0.81813707  0.19517667  1
  Ni  Ni31  1  0.65137211  0.57536127  0.12145228  1
  Ni  Ni32  1  0.86325001  0.16874035  0.10325026  1
  Ni  Ni33  1  0.49763393  0.50188471  0.50129887  1
  Ni  Ni34  1  0.02242730  0.55242160  0.40050933  1
