# generated using pymatgen
data_Pr2Pb17Se20
_symmetry_space_group_name_H-M   'P 1'
_cell_length_a   4.40820968
_cell_length_b   43.96682436
_cell_length_c   11.62097438
_cell_angle_alpha   40.92878157
_cell_angle_beta   55.31960213
_cell_angle_gamma   59.91323835
_symmetry_Int_Tables_number   1
_chemical_formula_structural   Pr2Pb17Se20
_chemical_formula_sum   'Pr2 Pb17 Se20'
_cell_volume   1202.68422880
_cell_formula_units_Z   1
loop_
 _symmetry_equiv_pos_site_id
 _symmetry_equiv_pos_as_xyz
  1  'x, y, z'
loop_
 _atom_site_type_symbol
 _atom_site_label
 _atom_site_symmetry_multiplicity
 _atom_site_fract_x
 _atom_site_fract_y
 _atom_site_fract_z
 _atom_site_occupancy
  Pr  Pr0  1  0.98331971  0.00323832  0.00032580  1
  Pr  Pr1  1  0.01668029  0.19676168  0.99967420  1
  Pb  Pb2  1  0.00700020  0.04943565  0.49721436  1
  Pb  Pb3  1  0.98907359  0.30103254  0.00384249  1
  Pb  Pb4  1  0.99299980  0.15056435  0.50278564  1
  Pb  Pb5  1  0.00071225  0.39788548  0.00657356  1
  Pb  Pb6  1  0.99516418  0.24465118  0.52105328  1
  Pb  Pb7  1  0.00185145  0.50176156  0.99289383  1
  Pb  Pb8  1  0.00376536  0.35212789  0.49039680  1
  Pb  Pb9  1  0.00000000  0.60000000  0.00000000  1
  Pb  Pb10  1  0.99550424  0.45063789  0.50087089  1
  Pb  Pb11  1  0.99970783  0.54852386  0.50511524  1
  Pb  Pb12  1  0.99814855  0.69823844  0.00710617  1
  Pb  Pb13  1  0.99928775  0.80211452  0.99342644  1
  Pb  Pb14  1  0.00029217  0.65147614  0.49488476  1
  Pb  Pb15  1  0.00449576  0.74936211  0.49912911  1
  Pb  Pb16  1  0.01092641  0.89896746  0.99615751  1
  Pb  Pb17  1  0.99623464  0.84787211  0.50960320  1
  Pb  Pb18  1  0.00483582  0.95534882  0.47894672  1
  Se  Se19  1  0.51205611  0.02068246  0.25635439  1
  Se  Se20  1  0.48507418  0.12965232  0.24444280  1
  Se  Se21  1  0.51910633  0.22293488  0.24414617  1
  Se  Se22  1  0.51492582  0.07034768  0.75555720  1
  Se  Se23  1  0.48794389  0.17931754  0.74364561  1
  Se  Se24  1  0.50264613  0.32846805  0.23667574  1
  Se  Se25  1  0.49867918  0.42332910  0.25645023  1
  Se  Se26  1  0.50025375  0.26990277  0.76682158  1
  Se  Se27  1  0.50153344  0.52481623  0.24959028  1
  Se  Se28  1  0.50531252  0.37428809  0.74883135  1
  Se  Se29  1  0.50072924  0.47730655  0.74182534  1
  Se  Se30  1  0.50103343  0.62655001  0.24414436  1
  Se  Se31  1  0.49896657  0.57344999  0.75585564  1
  Se  Se32  1  0.49927076  0.72269345  0.25817466  1
  Se  Se33  1  0.49846656  0.67518377  0.75040972  1
  Se  Se34  1  0.49468748  0.82571191  0.25116865  1
  Se  Se35  1  0.50132082  0.77667090  0.74354977  1
  Se  Se36  1  0.49974625  0.93009723  0.23317842  1
  Se  Se37  1  0.49735387  0.87153195  0.76332426  1
  Se  Se38  1  0.48089367  0.97706512  0.75585383  1
