# generated using pymatgen
data_Cr9In7S24
_symmetry_space_group_name_H-M   'P 1'
_cell_length_a   7.30458790
_cell_length_b   22.01739719
_cell_length_c   12.67956672
_cell_angle_alpha   30.18206536
_cell_angle_beta   55.31046537
_cell_angle_gamma   60.51322643
_symmetry_Int_Tables_number   1
_chemical_formula_structural   Cr9In7S24
_chemical_formula_sum   'Cr9 In7 S24'
_cell_volume   842.98609791
_cell_formula_units_Z   1
loop_
 _symmetry_equiv_pos_site_id
 _symmetry_equiv_pos_as_xyz
  1  'x, y, z'
loop_
 _atom_site_type_symbol
 _atom_site_label
 _atom_site_symmetry_multiplicity
 _atom_site_fract_x
 _atom_site_fract_y
 _atom_site_fract_z
 _atom_site_occupancy
  Cr  Cr0  1  0.14033398  0.33328001  0.61820861  1
  Cr  Cr1  1  0.61591314  0.49251377  0.14101447  1
  Cr  Cr2  1  0.62632627  0.33420230  0.61592552  1
  Cr  Cr3  1  0.62601704  0.83080066  0.12943808  1
  Cr  Cr4  1  0.62874184  0.50212951  0.62264493  1
  Cr  Cr5  1  0.61336373  0.66722576  0.62267500  1
  Cr  Cr6  1  0.13717209  0.99877877  0.61900258  1
  Cr  Cr7  1  0.61470549  0.84018538  0.62004824  1
  Cr  Cr8  1  0.62116674  0.99875602  0.62020396  1
  In  In9  1  0.99718365  0.00015407  0.00026844  1
  In  In10  1  0.00011424  0.33333048  0.00059123  1
  In  In11  1  0.61331109  0.15366472  0.15412380  1
  In  In12  1  0.00166777  0.66645079  0.00155924  1
  In  In13  1  0.61574278  0.17861383  0.61638321  1
  In  In14  1  0.25276349  0.66596446  0.24574032  1
  In  In15  1  0.13700151  0.66706127  0.63021803  1
  S  S16  1  0.36556360  0.98424338  0.41481344  1
  S  S17  1  0.36560089  0.14230085  0.41792950  1
  S  S18  1  0.84523546  0.98307793  0.41738635  1
  S  S19  1  0.36698127  0.34812970  0.36974655  1
  S  S20  1  0.87153686  0.14045909  0.41528615  1
  S  S21  1  0.37129733  0.19008991  0.84626531  1
  S  S22  1  0.38954971  0.47980674  0.38916564  1
  S  S23  1  0.84770438  0.35003126  0.36589677  1
  S  S24  1  0.41027388  0.66607568  0.37513320  1
  S  S25  1  0.41771959  0.34636213  0.83607158  1
  S  S26  1  0.86252110  0.48064166  0.41979611  1
  S  S27  1  0.41470522  0.50771932  0.84318385  1
  S  S28  1  0.87417873  0.19221414  0.83796539  1
  S  S29  1  0.41392424  0.82654792  0.36468183  1
  S  S30  1  0.87468333  0.34362562  0.83860245  1
  S  S31  1  0.83337083  0.66704979  0.38919946  1
  S  S32  1  0.41826869  0.66676312  0.85954235  1
  S  S33  1  0.83788743  0.81969868  0.41668392  1
  S  S34  1  0.38649423  0.85267406  0.83032328  1
  S  S35  1  0.83918112  0.51412451  0.87462568  1
  S  S36  1  0.82912285  0.66624289  0.87993504  1
  S  S37  1  0.41489356  0.98715095  0.87518259  1
  S  S38  1  0.85884963  0.85197906  0.86287565  1
  S  S39  1  0.87302320  0.98808280  0.87137025  1
