# generated using pymatgen
data_Y4CuTe8
_symmetry_space_group_name_H-M   'P 1'
_cell_length_a   6.10247588
_cell_length_b   15.39983921
_cell_length_c   11.28079974
_cell_angle_alpha   46.66344363
_cell_angle_beta   89.95393816
_cell_angle_gamma   89.97224621
_symmetry_Int_Tables_number   1
_chemical_formula_structural   Y4CuTe8
_chemical_formula_sum   'Y8 Cu2 Te16'
_cell_volume   771.07480812
_cell_formula_units_Z   2
loop_
 _symmetry_equiv_pos_site_id
 _symmetry_equiv_pos_as_xyz
  1  'x, y, z'
loop_
 _atom_site_type_symbol
 _atom_site_label
 _atom_site_symmetry_multiplicity
 _atom_site_fract_x
 _atom_site_fract_y
 _atom_site_fract_z
 _atom_site_occupancy
  Y  Y0  1  0.24660724  0.40956122  0.93227989  1
  Y  Y1  1  0.25249306  0.91168391  0.93228457  1
  Y  Y2  1  0.24546210  0.40737741  0.43983878  1
  Y  Y3  1  0.25690375  0.90586002  0.44321545  1
  Y  Y4  1  0.74563461  0.09119351  0.06125629  1
  Y  Y5  1  0.75402791  0.09757475  0.56398940  1
  Y  Y6  1  0.75638091  0.59237474  0.06087354  1
  Y  Y7  1  0.74416215  0.59688381  0.56536117  1
  Cu  Cu8  1  0.55027052  0.18896178  0.21302870  1
  Cu  Cu9  1  0.94510024  0.69206624  0.21024562  1
  Te  Te10  1  0.00233989  0.34161153  0.24931479  1
  Te  Te11  1  -0.00189613  0.83766654  0.25194480  1
  Te  Te12  1  0.25157578  0.01471875  0.58802168  1
  Te  Te13  1  0.24767440  0.51483410  0.58727727  1
  Te  Te14  1  0.24909330  0.14748839  0.08596535  1
  Te  Te15  1  0.25144719  0.65007540  0.08494617  1
  Te  Te16  1  0.50153540  0.33802290  0.24968060  1
  Te  Te17  1  0.50315604  0.16534620  0.74661725  1
  Te  Te18  1  0.49779360  0.84128819  0.25033081  1
  Te  Te19  1  0.49684466  0.66051222  0.75424642  1
  Te  Te20  1  0.74978426  0.48320671  0.41929838  1
  Te  Te21  1  0.75236945  0.34846571  0.91253624  1
  Te  Te22  1  0.75166930  0.98190302  0.42046604  1
  Te  Te23  1  0.74698372  0.84991581  0.91235403  1
  Te  Te24  1  0.00407780  0.16278758  0.75120696  1
  Te  Te25  1  0.99711786  0.66329257  0.74887880  1
