# generated using pymatgen
data_In5CuS8
_symmetry_space_group_name_H-M   'P 1'
_cell_length_a   7.53400944
_cell_length_b   7.53400943
_cell_length_c   7.53400950
_cell_angle_alpha   59.99999971
_cell_angle_beta   59.99999974
_cell_angle_gamma   59.99999732
_symmetry_Int_Tables_number   1
_chemical_formula_structural   In5CuS8
_chemical_formula_sum   'In5 Cu1 S8'
_cell_volume   302.38724957
_cell_formula_units_Z   1
loop_
 _symmetry_equiv_pos_site_id
 _symmetry_equiv_pos_as_xyz
  1  'x, y, z'
loop_
 _atom_site_type_symbol
 _atom_site_label
 _atom_site_symmetry_multiplicity
 _atom_site_fract_x
 _atom_site_fract_y
 _atom_site_fract_z
 _atom_site_occupancy
  In  In0  1  0.14441346  0.61852885  0.61852885  1
  In  In1  1  0.61852885  0.14441346  0.61852885  1
  In  In2  1  0.00000000  0.00000000  0.00000000  1
  In  In3  1  0.61852885  0.61852885  0.14441346  1
  In  In4  1  0.61852885  0.61852885  0.61852885  1
  Cu  Cu5  1  0.25000000  0.25000000  0.25000000  1
  S  S6  1  0.40292486  0.86569171  0.86569171  1
  S  S7  1  0.87147249  0.37617584  0.37617584  1
  S  S8  1  0.37617584  0.87147249  0.37617584  1
  S  S9  1  0.86569171  0.40292486  0.86569171  1
  S  S10  1  0.37617584  0.37617584  0.87147249  1
  S  S11  1  0.86569171  0.86569171  0.40292486  1
  S  S12  1  0.37617584  0.37617584  0.37617584  1
  S  S13  1  0.86569171  0.86569171  0.86569171  1
