# generated using pymatgen
data_Yb(YS2)2
_symmetry_space_group_name_H-M   'P 1'
_cell_length_a   7.23128948
_cell_length_b   7.23129042
_cell_length_c   7.23128994
_cell_angle_alpha   109.36028327
_cell_angle_beta   109.69333098
_cell_angle_gamma   109.36027903
_symmetry_Int_Tables_number   1
_chemical_formula_structural   Yb(YS2)2
_chemical_formula_sum   'Yb2 Y4 S8'
_cell_volume   291.08546729
_cell_formula_units_Z   2
loop_
 _symmetry_equiv_pos_site_id
 _symmetry_equiv_pos_as_xyz
  1  'x, y, z'
loop_
 _atom_site_type_symbol
 _atom_site_label
 _atom_site_symmetry_multiplicity
 _atom_site_fract_x
 _atom_site_fract_y
 _atom_site_fract_z
 _atom_site_occupancy
  Yb  Yb0  1  0.12500000  0.75000000  0.87500000  1
  Yb  Yb1  1  0.37500000  0.25000000  0.62500000  1
  Y  Y2  1  0.25000000  0.62742082  0.37742082  1
  Y  Y3  1  0.62257918  0.37257918  0.25000000  1
  Y  Y4  1  0.75000000  0.87257918  0.12257918  1
  Y  Y5  1  0.87742082  0.12742082  0.75000000  1
  S  S6  1  0.50446647  0.99953406  0.85974862  1
  S  S7  1  0.14025138  0.14471785  0.13978544  1
  S  S8  1  0.35974862  0.49953406  0.00446647  1
  S  S9  1  0.63978544  0.64471785  0.64025138  1
  S  S10  1  0.50493240  0.00046594  0.36021456  1
  S  S11  1  0.99553353  0.85528215  0.49506760  1
  S  S12  1  0.86021456  0.50046594  0.00493240  1
  S  S13  1  0.99506760  0.35528215  0.49553353  1
