# generated using pymatgen
data_Sr2NiN2
_symmetry_space_group_name_H-M   'P 1'
_cell_length_a   3.85391173
_cell_length_b   7.71063150
_cell_length_c   12.52465657
_cell_angle_alpha   90.00000000
_cell_angle_beta   90.00000000
_cell_angle_gamma   90.00000000
_symmetry_Int_Tables_number   1
_chemical_formula_structural   Sr2NiN2
_chemical_formula_sum   'Sr8 Ni4 N8'
_cell_volume   372.18386173
_cell_formula_units_Z   4
loop_
 _symmetry_equiv_pos_site_id
 _symmetry_equiv_pos_as_xyz
  1  'x, y, z'
loop_
 _atom_site_type_symbol
 _atom_site_label
 _atom_site_symmetry_multiplicity
 _atom_site_fract_x
 _atom_site_fract_y
 _atom_site_fract_z
 _atom_site_occupancy
  Sr  Sr0  1  0.25000000  0.61689188  0.89655107  1
  Sr  Sr1  1  0.75000000  0.37334739  0.39896939  1
  Sr  Sr2  1  0.25000000  0.12665261  0.89896939  1
  Sr  Sr3  1  0.25000000  0.62665261  0.60103061  1
  Sr  Sr4  1  0.75000000  0.38310812  0.10344893  1
  Sr  Sr5  1  0.75000000  0.87334739  0.10103061  1
  Sr  Sr6  1  0.25000000  0.11689188  0.60344893  1
  Sr  Sr7  1  0.75000000  0.88310812  0.39655107  1
  Ni  Ni8  1  0.75000000  0.37176120  0.74818538  1
  Ni  Ni9  1  0.25000000  0.62823880  0.25181462  1
  Ni  Ni10  1  0.75000000  0.87176120  0.75181462  1
  Ni  Ni11  1  0.25000000  0.12823880  0.24818538  1
  N  N12  1  0.75000000  0.86790676  0.89222803  1
  N  N13  1  0.75000000  0.37551608  0.88931307  1
  N  N14  1  0.25000000  0.62448392  0.11068693  1
  N  N15  1  0.25000000  0.13209324  0.10777197  1
  N  N16  1  0.25000000  0.12448392  0.38931307  1
  N  N17  1  0.75000000  0.87551608  0.61068693  1
  N  N18  1  0.25000000  0.63209324  0.39222803  1
  N  N19  1  0.75000000  0.36790676  0.60777197  1
