# generated using pymatgen
data_Na3Pr5Cl18
_symmetry_space_group_name_H-M   'P 1'
_cell_length_a   7.60124946
_cell_length_b   7.60124913
_cell_length_c   12.98164261
_cell_angle_alpha   90.00000000
_cell_angle_beta   90.00000000
_cell_angle_gamma   120.00000143
_symmetry_Int_Tables_number   1
_chemical_formula_structural   Na3Pr5Cl18
_chemical_formula_sum   'Na3 Pr5 Cl18'
_cell_volume   649.57638287
_cell_formula_units_Z   1
loop_
 _symmetry_equiv_pos_site_id
 _symmetry_equiv_pos_as_xyz
  1  'x, y, z'
loop_
 _atom_site_type_symbol
 _atom_site_label
 _atom_site_symmetry_multiplicity
 _atom_site_fract_x
 _atom_site_fract_y
 _atom_site_fract_z
 _atom_site_occupancy
  Na  Na0  1  0.33333300  0.66666700  0.75000000  1
  Na  Na1  1  0.00000000  0.00000000  0.60832750  1
  Na  Na2  1  0.00000000  0.00000000  0.89167250  1
  Pr  Pr3  1  0.33333300  0.66666700  0.08430069  1
  Pr  Pr4  1  0.33333300  0.66666700  0.41569931  1
  Pr  Pr5  1  0.66666700  0.33333300  0.25000000  1
  Pr  Pr6  1  0.66666700  0.33333300  0.58414740  1
  Pr  Pr7  1  0.66666700  0.33333300  0.91585260  1
  Cl  Cl8  1  0.30560322  0.91381056  0.25000000  1
  Cl  Cl9  1  0.31246410  0.92079286  0.57661151  1
  Cl  Cl10  1  0.31246410  0.92079286  0.92338849  1
  Cl  Cl11  1  0.08618944  0.39179266  0.25000000  1
  Cl  Cl12  1  0.07920714  0.39167123  0.57661151  1
  Cl  Cl13  1  0.07920714  0.39167123  0.92338849  1
  Cl  Cl14  1  0.38992689  0.30324210  0.08541069  1
  Cl  Cl15  1  0.38992689  0.30324210  0.41458931  1
  Cl  Cl16  1  0.37971760  0.28021238  0.75000000  1
  Cl  Cl17  1  0.60820734  0.69439678  0.25000000  1
  Cl  Cl18  1  0.60832877  0.68753590  0.57661151  1
  Cl  Cl19  1  0.60832877  0.68753590  0.92338849  1
  Cl  Cl20  1  0.91331620  0.61007311  0.08541069  1
  Cl  Cl21  1  0.91331620  0.61007311  0.41458931  1
  Cl  Cl22  1  0.90049477  0.62028240  0.75000000  1
  Cl  Cl23  1  0.69675790  0.08668380  0.08541069  1
  Cl  Cl24  1  0.69675790  0.08668380  0.41458931  1
  Cl  Cl25  1  0.71978762  0.09950523  0.75000000  1
