# generated using pymatgen
data_Ta2As
_symmetry_space_group_name_H-M   'P 1'
_cell_length_a   3.49248858
_cell_length_b   11.93785380
_cell_length_c   14.95049595
_cell_angle_alpha   90.00000000
_cell_angle_beta   90.00000000
_cell_angle_gamma   90.00000000
_symmetry_Int_Tables_number   1
_chemical_formula_structural   Ta2As
_chemical_formula_sum   'Ta24 As12'
_cell_volume   623.32830764
_cell_formula_units_Z   12
loop_
 _symmetry_equiv_pos_site_id
 _symmetry_equiv_pos_as_xyz
  1  'x, y, z'
loop_
 _atom_site_type_symbol
 _atom_site_label
 _atom_site_symmetry_multiplicity
 _atom_site_fract_x
 _atom_site_fract_y
 _atom_site_fract_z
 _atom_site_occupancy
  Ta  Ta0  1  0.00000000  0.19572095  0.29751060  1
  Ta  Ta1  1  0.00000000  0.52868769  0.10941654  1
  Ta  Ta2  1  0.50000000  0.91509775  0.07974054  1
  Ta  Ta3  1  0.00000000  0.88465254  0.92768767  1
  Ta  Ta4  1  0.00000000  0.85879982  0.47777886  1
  Ta  Ta5  1  0.50000000  0.69572095  0.20248940  1
  Ta  Ta6  1  0.50000000  0.38465254  0.57231233  1
  Ta  Ta7  1  0.00000000  0.58490225  0.57974054  1
  Ta  Ta8  1  0.50000000  0.61534746  0.42768767  1
  Ta  Ta9  1  0.00000000  0.07941420  0.75631065  1
  Ta  Ta10  1  0.50000000  0.64120018  0.97777886  1
  Ta  Ta11  1  0.00000000  0.14120018  0.52222114  1
  Ta  Ta12  1  0.00000000  0.41509775  0.42025946  1
  Ta  Ta13  1  0.50000000  0.42058580  0.25631065  1
  Ta  Ta14  1  0.50000000  0.57941420  0.74368935  1
  Ta  Ta15  1  0.50000000  0.97131231  0.60941654  1
  Ta  Ta16  1  0.50000000  0.35879982  0.02222114  1
  Ta  Ta17  1  0.00000000  0.11534746  0.07231233  1
  Ta  Ta18  1  0.50000000  0.08490225  0.92025946  1
  Ta  Ta19  1  0.00000000  0.47131231  0.89058346  1
  Ta  Ta20  1  0.00000000  0.80427905  0.70248940  1
  Ta  Ta21  1  0.50000000  0.30427905  0.79751060  1
  Ta  Ta22  1  0.00000000  0.92058580  0.24368935  1
  Ta  Ta23  1  0.50000000  0.02868769  0.39058346  1
  As  As24  1  0.00000000  0.41965263  0.70408507  1
  As  As25  1  0.00000000  0.24567611  0.91914265  1
  As  As26  1  0.00000000  0.31243469  0.15088816  1
  As  As27  1  0.50000000  0.74567611  0.58085735  1
  As  As28  1  0.50000000  0.25432389  0.41914265  1
  As  As29  1  0.00000000  0.58034737  0.29591493  1
  As  As30  1  0.50000000  0.18756531  0.65088816  1
  As  As31  1  0.00000000  0.75432389  0.08085735  1
  As  As32  1  0.50000000  0.81243469  0.34911184  1
  As  As33  1  0.00000000  0.68756531  0.84911184  1
  As  As34  1  0.50000000  0.08034737  0.20408507  1
  As  As35  1  0.50000000  0.91965263  0.79591493  1
