# generated using pymatgen
data_Ca2MgAl2(SiO4)3
_symmetry_space_group_name_H-M   'P 1'
_cell_length_a   10.65003167
_cell_length_b   6.59389305
_cell_length_c   6.61590661
_cell_angle_alpha   84.05136207
_cell_angle_beta   78.35291342
_cell_angle_gamma   77.58956463
_symmetry_Int_Tables_number   1
_chemical_formula_structural   Ca2MgAl2(SiO4)3
_chemical_formula_sum   'Ca4 Mg2 Al4 Si6 O24'
_cell_volume   443.52159415
_cell_formula_units_Z   2
loop_
 _symmetry_equiv_pos_site_id
 _symmetry_equiv_pos_as_xyz
  1  'x, y, z'
loop_
 _atom_site_type_symbol
 _atom_site_label
 _atom_site_symmetry_multiplicity
 _atom_site_fract_x
 _atom_site_fract_y
 _atom_site_fract_z
 _atom_site_occupancy
  Ca  Ca0  1  0.12143489  0.69687176  0.30027364  1
  Ca  Ca1  1  0.37856511  0.30312824  0.69972636  1
  Ca  Ca2  1  0.62683042  0.69057947  0.30925879  1
  Ca  Ca3  1  0.87316958  0.30942053  0.69074121  1
  Mg  Mg4  1  0.12451220  0.09548098  0.90594176  1
  Mg  Mg5  1  0.37548780  0.90451902  0.09405824  1
  Al  Al6  1  0.64088694  0.18684889  0.38745413  1
  Al  Al7  1  0.62873142  0.09053731  0.91219299  1
  Al  Al8  1  0.87126858  0.90946269  0.08780701  1
  Al  Al9  1  0.85911306  0.81315111  0.61254587  1
  Si  Si10  1  0.13641816  0.19208856  0.37627870  1
  Si  Si11  1  0.11138265  0.62046793  0.80335316  1
  Si  Si12  1  0.38861735  0.37953207  0.19664684  1
  Si  Si13  1  0.36358184  0.80791144  0.62372130  1
  Si  Si14  1  0.61291593  0.61523286  0.81045468  1
  Si  Si15  1  0.88708407  0.38476714  0.18954532  1
  O  O16  1  0.00819576  0.37615673  0.31915854  1
  O  O17  1  0.08505435  0.11241007  0.61094569  1
  O  O18  1  0.18059948  0.02323707  0.20169107  1
  O  O19  1  0.05651033  0.80469457  0.96880043  1
  O  O20  1  0.16337513  0.38913505  0.89426514  1
  O  O21  1  0.25435079  0.32629985  0.36705144  1
  O  O22  1  0.24564921  0.67370015  0.63294856  1
  O  O23  1  0.33662487  0.61086495  0.10573486  1
  O  O24  1  0.44348967  0.19530543  0.03119957  1
  O  O25  1  0.31940052  0.97676293  0.79830893  1
  O  O26  1  0.41494565  0.88758993  0.38905431  1
  O  O27  1  0.49680656  0.37511477  0.34389647  1
  O  O28  1  0.49180424  0.62384327  0.68084146  1
  O  O29  1  0.59463900  0.10859306  0.64666855  1
  O  O30  1  0.68664024  0.02051964  0.17962434  1
  O  O31  1  0.57348989  0.79957272  0.97314773  1
  O  O32  1  0.65651806  0.37620598  0.89930713  1
  O  O33  1  0.76144033  0.34210231  0.36962882  1
  O  O34  1  0.73855967  0.65789769  0.63037118  1
  O  O35  1  0.84348194  0.62379402  0.10069287  1
  O  O36  1  0.92651011  0.20042728  0.02685227  1
  O  O37  1  0.81335976  0.97948036  0.82037566  1
  O  O38  1  0.90536100  0.89140694  0.35333145  1
  O  O39  1  0.00319344  0.62488523  0.65610353  1
