# generated using pymatgen
data_BaNa5LiCo5F18
_symmetry_space_group_name_H-M   'P 1'
_cell_length_a   6.93605685
_cell_length_b   6.92269465
_cell_length_c   20.76491627
_cell_angle_alpha   109.46209951
_cell_angle_beta   109.50211057
_cell_angle_gamma   109.45816437
_symmetry_Int_Tables_number   1
_chemical_formula_structural   BaNa5LiCo5F18
_chemical_formula_sum   'Ba2 Na10 Li2 Co10 F36'
_cell_volume   767.44868981
_cell_formula_units_Z   2
loop_
 _symmetry_equiv_pos_site_id
 _symmetry_equiv_pos_as_xyz
  1  'x, y, z'
loop_
 _atom_site_type_symbol
 _atom_site_label
 _atom_site_symmetry_multiplicity
 _atom_site_fract_x
 _atom_site_fract_y
 _atom_site_fract_z
 _atom_site_occupancy
  Ba  Ba0  1  0.99738660  0.00031312  0.99808265  1
  Ba  Ba1  1  0.00260854  0.00518972  0.33512632  1
  Na  Na2  1  0.49646899  0.50588904  0.66563929  1
  Na  Na3  1  0.50738610  0.02635689  0.83810580  1
  Na  Na4  1  0.99307881  0.49326001  0.83367338  1
  Na  Na5  1  0.48916095  0.50669851  0.33178362  1
  Na  Na6  1  0.99893556  0.01129540  0.66680768  1
  Na  Na7  1  0.49731169  0.99213537  0.49845352  1
  Na  Na8  1  0.48805393  0.50433301  0.99703975  1
  Na  Na9  1  0.01194097  0.52303634  0.49791057  1
  Na  Na10  1  0.50502207  0.02039926  0.17145955  1
  Na  Na11  1  0.00770750  0.51296244  0.16544436  1
  Li  Li12  1  -0.00061446  0.50345883  0.33344649  1
  Li  Li13  1  0.00056054  0.50378993  0.00033761  1
  Co  Co14  1  0.49983299  0.00598472  0.66732656  1
  Co  Co15  1  0.49385958  0.49810286  0.83035811  1
  Co  Co16  1  0.99859087  0.00375337  0.16613598  1
  Co  Co17  1  0.50219465  0.00619069  0.33468462  1
  Co  Co18  1  0.99582609  0.00261451  0.82961657  1
  Co  Co19  1  0.50778428  0.51224565  0.50310557  1
  Co  Co20  1  0.00109057  0.50671428  0.66694745  1
  Co  Co21  1  0.00397341  0.00766347  0.50376551  1
  Co  Co22  1  0.49963757  0.50450293  0.16603141  1
  Co  Co23  1  0.49867870  0.00407111  0.99877494  1
  F  F24  1  0.20395216  0.72126254  0.96903390  1
  F  F25  1  0.09485735  0.80879749  0.76248428  1
  F  F26  1  0.19181547  0.28915648  0.82529483  1
  F  F27  1  0.50942451  0.80487519  0.90055551  1
  F  F28  1  0.28941609  0.09743433  0.93186030  1
  F  F29  1  0.19882735  0.70935058  0.63442663  1
  F  F30  1  0.28717445  0.48764269  0.73098211  1
  F  F31  1  0.09002276  0.81102981  0.43335041  1
  F  F32  1  0.20026424  0.29949623  0.49883529  1
  F  F33  1  0.69922339  0.51281699  0.92967066  1
  F  F34  1  0.51420983  0.81049137  0.57144739  1
  F  F35  1  0.70444646  0.90914049  0.73089643  1
  F  F36  1  0.48894044  0.19907515  0.76249633  1
  F  F37  1  0.29284305  0.09980282  0.60237916  1
  F  F38  1  0.20735285  0.72299249  0.30420813  1
  F  F39  1  0.29682109  0.49620782  0.40421497  1
  F  F40  1  0.79891821  0.70881373  0.83420861  1
  F  F41  1  0.09131153  0.81347564  0.09864504  1
  F  F42  1  0.91339357  0.19807307  0.90118884  1
  F  F43  1  0.70946572  0.51765390  0.60121236  1
  F  F44  1  0.19583110  0.29635866  0.16247045  1
  F  F45  1  0.51260647  0.80942626  0.23696987  1
  F  F46  1  0.80067169  0.29835197  0.69756985  1
  F  F47  1  0.71120226  0.91355383  0.40164887  1
  F  F48  1  0.29278356  0.09963733  0.26863437  1
  F  F49  1  0.49035319  0.20365668  0.43245626  1
  F  F50  1  0.29228344  0.48827172  0.06811083  1
  F  F51  1  0.80783958  0.72018222  0.50768405  1
  F  F52  1  0.90698070  0.20086300  0.57087467  1
  F  F53  1  0.70295532  0.51788762  0.26535611  1
  F  F54  1  0.79735552  0.28534207  0.36303912  1
  F  F55  1  0.70871070  0.90949697  0.06464172  1
  F  F56  1  0.48703011  0.20030157  0.09653374  1
  F  F57  1  0.80507747  0.71380016  0.17128727  1
  F  F58  1  0.91434604  0.19871905  0.23659507  1
  F  F59  1  0.79481585  0.28480061  0.02867930  1
