# generated using pymatgen
data_Na5Ce3Ti6Nb2O24
_symmetry_space_group_name_H-M   'P 1'
_cell_length_a   5.52642598
_cell_length_b   5.50938737
_cell_length_c   15.40086284
_cell_angle_alpha   89.88723060
_cell_angle_beta   89.98603259
_cell_angle_gamma   90.01424486
_symmetry_Int_Tables_number   1
_chemical_formula_structural   Na5Ce3Ti6Nb2O24
_chemical_formula_sum   'Na5 Ce3 Ti6 Nb2 O24'
_cell_volume   468.91254568
_cell_formula_units_Z   1
loop_
 _symmetry_equiv_pos_site_id
 _symmetry_equiv_pos_as_xyz
  1  'x, y, z'
loop_
 _atom_site_type_symbol
 _atom_site_label
 _atom_site_symmetry_multiplicity
 _atom_site_fract_x
 _atom_site_fract_y
 _atom_site_fract_z
 _atom_site_occupancy
  Na  Na0  1  0.99607908  0.50947520  0.12312492  1
  Na  Na1  1  0.99749990  0.51277746  0.62676720  1
  Na  Na2  1  0.50271898  0.00283673  0.37727167  1
  Na  Na3  1  0.50272659  0.01916661  0.87405813  1
  Na  Na4  1  0.49761492  0.98221036  0.62379291  1
  Ce  Ce5  1  0.49257778  0.98435167  0.12552177  1
  Ce  Ce6  1  0.00492418  0.48247867  0.37244297  1
  Ce  Ce7  1  0.00681403  0.49877537  0.87633037  1
  Ti  Ti8  1  0.99935597  0.01811690  0.00166133  1
  Ti  Ti9  1  0.99798732  0.98711053  0.24787500  1
  Ti  Ti10  1  0.99944066  0.98555503  0.49941101  1
  Ti  Ti11  1  0.49981622  0.48769735  0.25121763  1
  Ti  Ti12  1  0.50050048  0.51674329  0.75117476  1
  Ti  Ti13  1  0.50076825  0.51494323  -0.00056061  1
  Nb  Nb14  1  -0.00013551  0.01116524  0.74485802  1
  Nb  Nb15  1  0.50027628  0.49094479  0.50565439  1
  O  O16  1  0.99806405  0.90758534  0.37345325  1
  O  O17  1  0.99843575  0.90846746  0.87825764  1
  O  O18  1  0.25032306  0.74838768  0.22679908  1
  O  O19  1  0.24202672  0.74249608  0.51854521  1
  O  O20  1  0.24541223  0.74335743  0.73213228  1
  O  O21  1  0.25237988  0.75225604  0.02362338  1
  O  O22  1  0.24339594  0.24796373  0.47256701  1
  O  O23  1  0.25041112  0.24815096  0.27119905  1
  O  O24  1  0.24706191  0.25827254  0.77809043  1
  O  O25  1  0.24707747  0.25392990  0.97712965  1
  O  O26  1  0.50237416  0.40389439  0.12413298  1
  O  O27  1  0.50123408  0.40757616  0.62723039  1
  O  O28  1  0.49633461  0.58101147  0.87601308  1
  O  O29  1  0.49921755  0.57881097  0.37221276  1
  O  O30  1  0.74029772  0.75986732  0.02392565  1
  O  O31  1  0.74233684  0.75640475  0.22588692  1
  O  O32  1  0.75203290  0.74845787  0.51932140  1
  O  O33  1  0.74730466  0.75046742  0.73184883  1
  O  O34  1  0.76216638  0.25327359  0.47277671  1
  O  O35  1  0.75834354  0.25558175  0.27149946  1
  O  O36  1  0.75879441  0.26491732  0.77802303  1
  O  O37  1  0.75996928  0.26126608  0.97660785  1
  O  O38  1  0.00404902  0.07821548  0.12503540  1
  O  O39  1  0.00199159  0.08503984  0.62308713  1
