# generated using pymatgen
data_Na10Zr6Si7(PO18)2
_symmetry_space_group_name_H-M   'P 1'
_cell_length_a   9.34513074
_cell_length_b   9.33635667
_cell_length_c   28.18249841
_cell_angle_alpha   59.13620122
_cell_angle_beta   59.17157565
_cell_angle_gamma   59.31652702
_symmetry_Int_Tables_number   1
_chemical_formula_structural   Na10Zr6Si7(PO18)2
_chemical_formula_sum   'Na20 Zr12 Si14 P4 O72'
_cell_volume   1707.33199676
_cell_formula_units_Z   2
loop_
 _symmetry_equiv_pos_site_id
 _symmetry_equiv_pos_as_xyz
  1  'x, y, z'
loop_
 _atom_site_type_symbol
 _atom_site_label
 _atom_site_symmetry_multiplicity
 _atom_site_fract_x
 _atom_site_fract_y
 _atom_site_fract_z
 _atom_site_occupancy
  Na  Na0  1  0.39531468  0.74649226  0.05211445  1
  Na  Na1  1  0.29490097  0.46190798  0.22659408  1
  Na  Na2  1  0.75222526  0.13643801  0.13497125  1
  Na  Na3  1  0.25517508  0.88236479  0.21463784  1
  Na  Na4  1  0.65212149  0.25071912  0.29816405  1
  Na  Na5  1  0.79120826  0.56138770  0.09172085  1
  Na  Na6  1  0.36144444  0.74560184  0.36947284  1
  Na  Na7  1  0.99182027  0.92719065  0.02483202  1
  Na  Na8  1  0.75044038  0.10326212  0.44772866  1
  Na  Na9  1  0.47717522  0.50450218  0.50169427  1
  Na  Na10  1  0.25439901  0.89499957  0.53316876  1
  Na  Na11  1  0.62831217  0.25396954  0.62760164  1
  Na  Na12  1  0.89649906  0.65625862  0.41432629  1
  Na  Na13  1  0.39773220  0.74263988  0.70402352  1
  Na  Na14  1  0.75245647  0.12262070  0.80121236  1
  Na  Na15  1  0.43048442  0.48432127  0.85739366  1
  Na  Na16  1  0.25191864  0.88669947  0.87793766  1
  Na  Na17  1  0.61711709  0.25179794  0.97128236  1
  Na  Na18  1  0.86206532  0.56011256  0.74537479  1
  Na  Na19  1  0.99335048  0.95260017  0.68351252  1
  Zr  Zr20  1  0.15391577  0.14713172  0.04418481  1
  Zr  Zr21  1  0.35741965  0.35588289  0.11587500  1
  Zr  Zr22  1  0.14645855  0.14266535  0.38013216  1
  Zr  Zr23  1  0.35220841  0.35135596  0.45318651  1
  Zr  Zr24  1  0.64939543  0.64841593  0.21592266  1
  Zr  Zr25  1  0.14855502  0.15040096  0.71012408  1
  Zr  Zr26  1  0.85245818  0.84694093  0.28460717  1
  Zr  Zr27  1  0.34780711  0.35915177  0.78639431  1
  Zr  Zr28  1  0.64559798  0.64852865  0.55004681  1
  Zr  Zr29  1  0.85491613  0.84549339  0.61616285  1
  Zr  Zr30  1  0.65510548  0.64640091  0.88202889  1
  Zr  Zr31  1  0.85322104  0.84752228  0.95082210  1
  Si  Si32  1  0.04355602  0.74687129  0.15515399  1
  Si  Si33  1  0.46512841  0.03991035  0.24802139  1
  Si  Si34  1  0.75584640  0.44761779  0.01143550  1
  Si  Si35  1  0.25183378  0.53917582  0.32173215  1
  Si  Si36  1  0.54448959  0.95461481  0.08314685  1
  Si  Si37  1  0.04671495  0.74283603  0.48817310  1
  Si  Si38  1  0.46027429  0.04618142  0.58279845  1
  Si  Si39  1  0.74630291  0.45825001  0.34748097  1
  Si  Si40  1  0.24836108  0.55143678  0.65515170  1
  Si  Si41  1  0.53548515  0.95537540  0.41801013  1
  Si  Si42  1  0.04802126  0.74761284  0.81966398  1
  Si  Si43  1  0.45811784  0.04028467  0.91672850  1
  Si  Si44  1  0.74742438  0.44667866  0.68119641  1
  Si  Si45  1  0.25361849  0.54899158  0.98611688  1
  P  P46  1  0.96400725  0.24519847  0.17728258  1
  P  P47  1  0.95451465  0.24662307  0.51355405  1
  P  P48  1  0.53994976  0.95661935  0.75049185  1
  P  P49  1  0.95195787  0.24962962  0.84527501  1
  O  O50  1  0.13736793  0.26703504  0.16133557  1
  O  O51  1  0.29343731  0.53011004  0.03918423  1
  O  O52  1  0.06500941  0.92303456  0.09562525  1
  O  O53  1  0.51490625  0.13389842  0.08916273  1
  O  O54  1  0.22158433  0.57735525  0.14274247  1
  O  O55  1  0.03048338  0.76220890  0.21263847  1
  O  O56  1  0.30619565  0.05183913  0.31050143  1
  O  O57  1  0.42610218  0.22114531  0.19250643  1
  O  O58  1  0.58497673  0.43135410  0.07226465  1
  O  O59  1  0.22837341  0.36035490  0.33324394  1
  O  O60  1  0.07530729  0.71446727  0.31319790  1
  O  O61  1  0.37361171  0.98500596  0.07178935  1
  O  O62  1  0.65394337  0.01202085  0.24762922  1
  O  O63  1  0.12017346  0.27620855  0.50179553  1
  O  O64  1  0.92220957  0.26952741  0.02398603  1
  O  O65  1  0.77999767  0.62882095  0.99940326  1
  O  O66  1  0.42133662  0.56281891  0.26020645  1
  O  O67  1  0.27849489  0.51565085  0.37882077  1
  O  O68  1  0.57241543  0.77315162  0.13965189  1
  O  O69  1  0.05670424  0.92089513  0.43036027  1
  O  O70  1  0.72652784  0.92864309  0.02498994  1
  O  O71  1  0.51059476  0.12087624  0.43150928  1
  O  O72  1  0.23038195  0.57869575  0.47708759  1
  O  O73  1  0.01644794  0.77607800  0.54543930  1
  O  O74  1  0.96878730  0.23123146  0.12341665  1
  O  O75  1  0.79862679  0.40725012  0.18977967  1
  O  O76  1  0.48227345  0.86903070  0.23977486  1
  O  O77  1  0.28203834  0.05675307  0.64184627  1
  O  O78  1  0.94703439  0.07888651  0.23254188  1
  O  O79  1  0.44268322  0.22348577  0.52572227  1
  O  O80  1  0.70950873  0.48325621  0.29232695  1
  O  O81  1  0.57398930  0.43101704  0.40822531  1
  O  O82  1  0.20587341  0.37321223  0.67548650  1
  O  O83  1  0.06771680  0.72698654  0.65009524  1
  O  O84  1  0.86519386  0.72607113  0.16597907  1
  O  O85  1  0.34702243  0.98355882  0.41904838  1
  O  O86  1  0.62670211  0.00979574  0.59794940  1
  O  O87  1  0.11782704  0.28732114  0.82894520  1
  O  O88  1  0.91700892  0.28361425  0.35913957  1
  O  O89  1  0.76255633  0.64093373  0.33596631  1
  O  O90  1  0.41238690  0.56933283  0.59204143  1
  O  O91  1  0.29812643  0.52797702  0.70747714  1
  O  O92  1  0.58132637  0.76685305  0.47277564  1
  O  O93  1  0.07305531  0.91838372  0.75869405  1
  O  O94  1  0.70292759  0.94523544  0.35663577  1
  O  O95  1  0.49989688  0.11420157  0.76576361  1
  O  O96  1  0.22998952  0.57752496  0.81126845  1
  O  O97  1  0.01689709  0.78839635  0.87463580  1
  O  O98  1  0.97531240  0.21718324  0.46150404  1
  O  O99  1  0.78224794  0.40580257  0.52534004  1
  O  O100  1  0.49533490  0.87194497  0.57175168  1
  O  O101  1  0.28654227  0.04320045  0.97661556  1
  O  O102  1  0.93572873  0.08150753  0.57173431  1
  O  O103  1  0.42886605  0.22225565  0.86031698  1
  O  O104  1  0.70235033  0.47413318  0.62793847  1
  O  O105  1  0.58252727  0.41963482  0.74436884  1
  O  O106  1  0.22492649  0.36860371  0.00118380  1
  O  O107  1  0.08353714  0.73112112  0.97470267  1
  O  O108  1  0.87539851  0.70349989  0.50076595  1
  O  O109  1  0.38141209  0.98726772  0.73796740  1
  O  O110  1  0.63429643  0.01463879  0.92404763  1
  O  O111  1  0.91719143  0.26775354  0.69258311  1
  O  O112  1  0.77287334  0.62697067  0.66918559  1
  O  O113  1  0.42494534  0.56744463  0.92340397  1
  O  O114  1  0.56740807  0.77883625  0.80252733  1
  O  O115  1  0.71239346  0.94427324  0.69581372  1
  O  O116  1  0.97238854  0.21227395  0.79400720  1
  O  O117  1  0.78158059  0.41428876  0.85203547  1
  O  O118  1  0.49883629  0.87274487  0.90082921  1
  O  O119  1  0.93525970  0.09056860  0.90337902  1
  O  O120  1  0.72175386  0.47574239  0.95506976  1
  O  O121  1  0.87693327  0.71551883  0.82922317  1
