# generated using pymatgen
data_La3U2O10
_symmetry_space_group_name_H-M   'P 1'
_cell_length_a   19.63593146
_cell_length_b   10.49129004
_cell_length_c   6.95119934
_cell_angle_alpha   29.04293405
_cell_angle_beta   30.04728421
_cell_angle_gamma   18.51738892
_symmetry_Int_Tables_number   1
_chemical_formula_structural   La3U2O10
_chemical_formula_sum   'La3 U2 O10'
_cell_volume   214.46668521
_cell_formula_units_Z   1
loop_
 _symmetry_equiv_pos_site_id
 _symmetry_equiv_pos_as_xyz
  1  'x, y, z'
loop_
 _atom_site_type_symbol
 _atom_site_label
 _atom_site_symmetry_multiplicity
 _atom_site_fract_x
 _atom_site_fract_y
 _atom_site_fract_z
 _atom_site_occupancy
  La  La0  1  0.39716884  0.00537054  0.99804157  1
  La  La1  1  0.60000000  0.00000000  -0.00000000  1
  La  La2  1  0.80283116  0.99462946  0.00195843  1
  U  U3  1  0.00932472  0.99121401  0.97978222  1
  U  U4  1  0.19067528  0.00878599  0.02021778  1
  O  O5  1  0.10003747  0.22322982  0.27669295  1
  O  O6  1  0.27130101  0.30680067  0.23763343  1
  O  O7  1  0.09996253  0.77677018  0.72330705  1
  O  O8  1  0.46445437  0.32615360  0.22928049  1
  O  O9  1  0.73554547  0.20399454  0.24054613  1
  O  O10  1  0.27127454  0.79232936  0.75218251  1
  O  O11  1  0.92872546  0.20767064  0.24781749  1
  O  O12  1  0.46445453  0.79600546  0.75945387  1
  O  O13  1  0.73554563  0.67384640  0.77071951  1
  O  O14  1  0.92869899  0.69319933  0.76236657  1
