# generated using pymatgen
data_LiNbP4O13
_symmetry_space_group_name_H-M   'P 1'
_cell_length_a   10.54274158
_cell_length_b   8.07218125
_cell_length_c   14.37698489
_cell_angle_alpha   98.19282521
_cell_angle_beta   72.52651389
_cell_angle_gamma   80.63907186
_symmetry_Int_Tables_number   1
_chemical_formula_structural   LiNbP4O13
_chemical_formula_sum   'Li4 Nb4 P16 O52'
_cell_volume   1127.47397501
_cell_formula_units_Z   4
loop_
 _symmetry_equiv_pos_site_id
 _symmetry_equiv_pos_as_xyz
  1  'x, y, z'
loop_
 _atom_site_type_symbol
 _atom_site_label
 _atom_site_symmetry_multiplicity
 _atom_site_fract_x
 _atom_site_fract_y
 _atom_site_fract_z
 _atom_site_occupancy
  Li  Li0  1  0.24013574  0.63793864  0.49683377  1
  Li  Li1  1  0.74009771  0.39173194  0.99915960  1
  Li  Li2  1  0.24018976  0.39021614  0.99878844  1
  Li  Li3  1  0.75419767  0.36521115  0.50682173  1
  Nb  Nb4  1  0.60159144  0.04605546  0.24368332  1
  Nb  Nb5  1  0.10137246  0.04823245  0.24101049  1
  Nb  Nb6  1  0.39698034  0.94895089  0.75657363  1
  Nb  Nb7  1  0.89733464  0.94642938  0.75901670  1
  P  P8  1  0.33186713  0.57363107  0.68153916  1
  P  P9  1  0.16850337  0.10458245  0.64635682  1
  P  P10  1  0.43820378  0.34843500  0.79906008  1
  P  P11  1  0.05667548  0.65165336  0.19739852  1
  P  P12  1  0.37351649  0.20501946  0.13739392  1
  P  P13  1  0.83007956  0.89150420  0.35229762  1
  P  P14  1  0.55926925  0.64917823  0.20075959  1
  P  P15  1  0.83483875  0.56808746  0.67895619  1
  P  P16  1  0.12405883  0.79433722  0.86951507  1
  P  P17  1  0.62420933  0.78985458  0.86577453  1
  P  P18  1  0.87374843  0.20070723  0.13403762  1
  P  P19  1  0.94101455  0.34493337  0.80169831  1
  P  P20  1  0.66612381  0.42485272  0.31910248  1
  P  P21  1  0.67067982  0.10924130  0.64814500  1
  P  P22  1  0.16348241  0.43090354  0.32137144  1
  P  P23  1  0.32710539  0.88750219  0.35153374  1
  O  O24  1  0.51297594  0.12751777  0.14575349  1
  O  O25  1  0.31322109  0.53963856  0.58391981  1
  O  O26  1  0.19113583  0.63891771  0.77049783  1
  O  O27  1  0.21991394  0.92576760  0.84642648  1
  O  O28  1  0.49096458  0.87812281  0.85012018  1
  O  O29  1  0.57212735  0.98237311  0.66486757  1
  O  O30  1  0.58882106  0.50008724  0.11942595  1
  O  O31  1  0.42343208  0.01782496  0.33262035  1
  O  O32  1  0.82088236  0.51690460  0.58090678  1
  O  O33  1  0.98900146  0.87449197  0.85314782  1
  O  O34  1  0.80839343  0.35818421  0.23060584  1
  O  O35  1  0.12664149  0.80406153  0.17571354  1
  O  O36  1  0.89910920  0.40045706  0.71011488  1
  O  O37  1  0.40430799  0.49064130  0.88484820  1
  O  O38  1  0.09842397  0.25845749  0.74878557  1
  O  O39  1  0.86643241  0.19542445  0.82430559  1
  O  O40  1  0.08454884  0.50543014  0.11476355  1
  O  O41  1  0.28183792  0.07032083  0.15768556  1
  O  O42  1  0.40056671  0.73129712  0.25152014  1
  O  O43  1  0.92295183  0.70186941  0.68892925  1
  O  O44  1  0.10973255  0.73361661  0.96255022  1
  O  O45  1  0.19256491  0.96391269  0.33564135  1
  O  O46  1  0.59693055  0.26510392  0.74834403  1
  O  O47  1  0.72075745  0.92111154  0.84669018  1
  O  O48  1  0.80331151  0.03059526  0.66483928  1
  O  O49  1  0.92149329  0.02880825  0.32742339  1
  O  O50  1  0.42321113  0.70251689  0.69394403  1
  O  O51  1  0.31376039  0.81553927  0.44162018  1
  O  O52  1  0.68468868  0.46034855  0.41645899  1
  O  O53  1  0.60182375  0.59961637  0.29431706  1
  O  O54  1  0.39855575  0.39859141  0.70453911  1
  O  O55  1  0.62827763  0.80080295  0.17738692  1
  O  O56  1  0.37441709  0.26952100  0.04594998  1
  O  O57  1  0.01471767  0.13042787  0.14264913  1
  O  O58  1  0.90883939  0.48357398  0.88920478  1
  O  O59  1  0.57648177  0.29436375  0.30564093  1
  O  O60  1  0.60991208  0.72248720  0.95684447  1
  O  O61  1  0.68688276  0.18280668  0.55762944  1
  O  O62  1  0.78250122  0.06631080  0.15812449  1
  O  O63  1  0.30904661  0.35737843  0.23647665  1
  O  O64  1  0.17742833  0.48411083  0.41894055  1
  O  O65  1  0.69067850  0.64008927  0.76411261  1
  O  O66  1  0.30374550  0.02695977  0.66233713  1
  O  O67  1  0.17539027  0.16971256  0.55546936  1
  O  O68  1  0.89896742  0.73673276  0.25042380  1
  O  O69  1  0.10168105  0.59805106  0.28828003  1
  O  O70  1  0.82693211  0.82819018  0.44294906  1
  O  O71  1  0.87451896  0.25960570  0.04114302  1
  O  O72  1  0.07720624  0.29525920  0.31022111  1
  O  O73  1  0.36517947  0.19890776  0.82333971  1
  O  O74  1  0.69268409  0.96712676  0.33805060  1
  O  O75  1  0.07462323  0.97006439  0.66912026  1
