# generated using pymatgen
data_Cu16I19
_symmetry_space_group_name_H-M   'P 1'
_cell_length_a   4.23286939
_cell_length_b   4.23286920
_cell_length_c   81.43467587
_cell_angle_alpha   60.59650345
_cell_angle_beta   60.59650498
_cell_angle_gamma   60.30583931
_symmetry_Int_Tables_number   1
_chemical_formula_structural   Cu16I19
_chemical_formula_sum   'Cu16 I19'
_cell_volume   1043.35723694
_cell_formula_units_Z   1
loop_
 _symmetry_equiv_pos_site_id
 _symmetry_equiv_pos_as_xyz
  1  'x, y, z'
loop_
 _atom_site_type_symbol
 _atom_site_label
 _atom_site_symmetry_multiplicity
 _atom_site_fract_x
 _atom_site_fract_y
 _atom_site_fract_z
 _atom_site_occupancy
  Cu  Cu0  1  0.25988562  0.25988562  0.06776433  1
  Cu  Cu1  1  0.25326428  0.25326428  0.17074689  1
  Cu  Cu2  1  0.27512808  0.27512808  0.27609501  1
  Cu  Cu3  1  0.26977367  0.26977367  0.32987563  1
  Cu  Cu4  1  0.26867206  0.26867206  0.38273136  1
  Cu  Cu5  1  0.26841286  0.26841286  0.43537174  1
  Cu  Cu6  1  0.26857451  0.26857451  0.48798632  1
  Cu  Cu7  1  0.26887798  0.26887798  0.54062372  1
  Cu  Cu8  1  0.26873592  0.26873592  0.59324694  1
  Cu  Cu9  1  0.26875621  0.26875621  0.64590361  1
  Cu  Cu10  1  0.26864567  0.26864567  0.69854371  1
  Cu  Cu11  1  0.26840950  0.26840950  0.75119129  1
  Cu  Cu12  1  0.26822183  0.26822183  0.80385420  1
  Cu  Cu13  1  0.26832238  0.26832238  0.85647967  1
  Cu  Cu14  1  0.26675689  0.26675689  0.90938386  1
  Cu  Cu15  1  0.25907920  0.25907920  0.96346231  1
  I  I16  1  0.00581211  0.00581211  0.00011241  1
  I  I17  1  0.01547399  0.01547399  0.05293917  1
  I  I18  1  0.01131421  0.01131421  0.10467720  1
  I  I19  1  0.00971807  0.00971807  0.15561387  1
  I  I20  1  0.01430253  0.01430253  0.26396811  1
  I  I21  1  0.02096296  0.02096296  0.20775012  1
  I  I22  1  0.01604467  0.01604467  0.36937499  1
  I  I23  1  0.01568370  0.01568370  0.31678395  1
  I  I24  1  0.01700195  0.01700195  0.47445380  1
  I  I25  1  0.01643443  0.01643443  0.42191345  1
  I  I26  1  0.01759045  0.01759045  0.52703124  1
  I  I27  1  0.01750482  0.01750482  0.57963057  1
  I  I28  1  0.01775988  0.01775988  0.68486653  1
  I  I29  1  0.01775468  0.01775468  0.63224685  1
  I  I30  1  0.01780544  0.01780544  0.73747439  1
  I  I31  1  0.01795731  0.01795731  0.79007414  1
  I  I32  1  0.01929218  0.01929218  0.89509038  1
  I  I33  1  0.01962328  0.01962328  0.94758242  1
  I  I34  1  0.01844669  0.01844669  0.84262882  1
