# generated using pymatgen
data_Li7(NiO2)8
_symmetry_space_group_name_H-M   'P 1'
_cell_length_a   10.10477205
_cell_length_b   14.66123314
_cell_length_c   19.17249142
_cell_angle_alpha   15.80956649
_cell_angle_beta   21.99446817
_cell_angle_gamma   22.31864640
_symmetry_Int_Tables_number   1
_chemical_formula_structural   Li7(NiO2)8
_chemical_formula_sum   'Li7 Ni8 O16'
_cell_volume   274.29560291
_cell_formula_units_Z   1
loop_
 _symmetry_equiv_pos_site_id
 _symmetry_equiv_pos_as_xyz
  1  'x, y, z'
loop_
 _atom_site_type_symbol
 _atom_site_label
 _atom_site_symmetry_multiplicity
 _atom_site_fract_x
 _atom_site_fract_y
 _atom_site_fract_z
 _atom_site_occupancy
  Li  Li0  1  0.50000000  0.00000000  0.00000000  1
  Li  Li1  1  0.25899517  0.48961616  0.00412348  1
  Li  Li2  1  0.12151893  0.26795992  0.48816731  1
  Li  Li3  1  0.74100483  0.51038384  0.99587652  1
  Li  Li4  1  0.61779355  0.24594359  0.50681895  1
  Li  Li5  1  0.38220645  0.75405641  0.49318105  1
  Li  Li6  1  0.87848107  0.73204008  0.51183269  1
  Ni  Ni7  1  0.05715841  0.12927333  0.24774775  1
  Ni  Ni8  1  0.56328870  0.11960802  0.25257066  1
  Ni  Ni9  1  0.32244315  0.62583376  0.24345277  1
  Ni  Ni10  1  0.18642130  0.37648962  0.74837530  1
  Ni  Ni11  1  0.81357870  0.62351038  0.25162470  1
  Ni  Ni12  1  0.67755685  0.37416624  0.75654723  1
  Ni  Ni13  1  0.43671130  0.88039198  0.74742934  1
  Ni  Ni14  1  0.94284159  0.87072667  0.75225225  1
  O  O15  1  0.03110986  0.06855821  0.11090398  1
  O  O16  1  0.50459386  0.07161847  0.12081195  1
  O  O17  1  0.10290438  0.17196776  0.38920203  1
  O  O18  1  0.29790208  0.52003595  0.14001050  1
  O  O19  1  0.60772705  0.20459925  0.36083702  1
  O  O20  1  0.17608229  0.31460249  0.60307670  1
  O  O21  1  0.78165191  0.58248981  0.10644579  1
  O  O22  1  0.34614050  0.66149872  0.39866345  1
  O  O23  1  0.65385950  0.33850128  0.60133655  1
  O  O24  1  0.21834809  0.41751019  0.89355421  1
  O  O25  1  0.82391771  0.68539751  0.39692330  1
  O  O26  1  0.39227295  0.79540075  0.63916298  1
  O  O27  1  0.70209792  0.47996405  0.85998950  1
  O  O28  1  0.89709562  0.82803224  0.61079797  1
  O  O29  1  0.49540614  0.92838153  0.87918805  1
  O  O30  1  0.96889014  0.93144179  0.88909602  1
