# generated using pymatgen
data_NaH4IO2
_symmetry_space_group_name_H-M   'P 1'
_cell_length_a   7.16763040
_cell_length_b   6.05549611
_cell_length_c   7.28453310
_cell_angle_alpha   81.82257941
_cell_angle_beta   117.59642363
_cell_angle_gamma   114.96264642
_symmetry_Int_Tables_number   1
_chemical_formula_structural   NaH4IO2
_chemical_formula_sum   'Na2 H8 I2 O4'
_cell_volume   253.46966134
_cell_formula_units_Z   2
loop_
 _symmetry_equiv_pos_site_id
 _symmetry_equiv_pos_as_xyz
  1  'x, y, z'
loop_
 _atom_site_type_symbol
 _atom_site_label
 _atom_site_symmetry_multiplicity
 _atom_site_fract_x
 _atom_site_fract_y
 _atom_site_fract_z
 _atom_site_occupancy
  Na  Na0  1  0.85479022  0.67410656  0.51850228  1
  Na  Na1  1  0.14520978  0.32589344  0.48149772  1
  H  H2  1  0.12220999  0.40405806  0.84489927  1
  H  H3  1  0.87779001  0.59594194  0.15510073  1
  H  H4  1  0.87548302  0.21186306  0.71382200  1
  H  H5  1  0.12451698  0.78813694  0.28617800  1
  H  H6  1  0.25161783  0.04404501  0.85094973  1
  H  H7  1  0.74838217  0.95595499  0.14905027  1
  H  H8  1  0.34197011  0.96555584  0.72360369  1
  H  H9  1  0.65802989  0.03444416  0.27639631  1
  I  I10  1  0.62553985  0.76592055  0.78002922  1
  I  I11  1  0.37446015  0.23407945  0.21997078  1
  O  O12  1  0.98842503  0.37367924  0.70645747  1
  O  O13  1  0.01157497  0.62632076  0.29354253  1
  O  O14  1  0.21565415  0.00611420  0.70814616  1
  O  O15  1  0.78434585  0.99388580  0.29185384  1
