# generated using pymatgen
data_CaB3H5O8
_symmetry_space_group_name_H-M   'P 1'
_cell_length_a   8.86216733
_cell_length_b   11.24484793
_cell_length_c   6.16583281
_cell_angle_alpha   90.00000000
_cell_angle_beta   110.44261381
_cell_angle_gamma   90.00000000
_symmetry_Int_Tables_number   1
_chemical_formula_structural   CaB3H5O8
_chemical_formula_sum   'Ca4 B12 H20 O32'
_cell_volume   575.75177665
_cell_formula_units_Z   4
loop_
 _symmetry_equiv_pos_site_id
 _symmetry_equiv_pos_as_xyz
  1  'x, y, z'
loop_
 _atom_site_type_symbol
 _atom_site_label
 _atom_site_symmetry_multiplicity
 _atom_site_fract_x
 _atom_site_fract_y
 _atom_site_fract_z
 _atom_site_occupancy
  Ca  Ca0  1  0.13643202  0.29292219  0.73764856  1
  Ca  Ca1  1  0.36356798  0.79292219  0.26235144  1
  Ca  Ca2  1  0.86356798  0.70707781  0.26235144  1
  Ca  Ca3  1  0.63643202  0.20707781  0.73764856  1
  B  B4  1  0.83336425  0.29101846  0.31266478  1
  B  B5  1  0.66663575  0.79101846  0.68733522  1
  B  B6  1  0.16663575  0.70898154  0.68733522  1
  B  B7  1  0.33336425  0.20898154  0.31266478  1
  B  B8  1  0.53737436  0.32884142  0.16375105  1
  B  B9  1  0.96262564  0.82884142  0.83624895  1
  B  B10  1  0.46262564  0.67115858  0.83624895  1
  B  B11  1  0.03737436  0.17115858  0.16375105  1
  B  B12  1  0.71925647  0.44861137  0.49891510  1
  B  B13  1  0.78074353  0.94861137  0.50108490  1
  B  B14  1  0.28074353  0.55138863  0.50108490  1
  B  B15  1  0.21925647  0.05138863  0.49891510  1
  H  H16  1  0.42100006  0.41938499  0.86475601  1
  H  H17  1  0.07899994  0.91938499  0.13524399  1
  H  H18  1  0.57899994  0.58061501  0.13524399  1
  H  H19  1  0.92100006  0.08061501  0.86475601  1
  H  H20  1  0.81873473  0.60487479  0.66860687  1
  H  H21  1  0.68126527  0.10487479  0.33139313  1
  H  H22  1  0.18126527  0.39512521  0.33139313  1
  H  H23  1  0.31873473  0.89512521  0.66860687  1
  H  H24  1  0.57461204  0.47466422  0.69731879  1
  H  H25  1  0.92538796  0.97466422  0.30268121  1
  H  H26  1  0.42538796  0.52533578  0.30268121  1
  H  H27  1  0.07461204  0.02533578  0.69731879  1
  H  H28  1  0.20128830  0.52182628  0.04975872  1
  H  H29  1  0.29871170  0.02182628  0.95024128  1
  H  H30  1  0.79871170  0.47817372  0.95024128  1
  H  H31  1  0.70128830  0.97817372  0.04975872  1
  H  H32  1  0.03238657  0.52992758  0.84439955  1
  H  H33  1  0.46761343  0.02992758  0.15560045  1
  H  H34  1  0.96761343  0.47007242  0.15560045  1
  H  H35  1  0.53238657  0.97007242  0.84439955  1
  O  O36  1  0.47923220  0.24922312  0.31091772  1
  O  O37  1  0.02076780  0.74922312  0.68908228  1
  O  O38  1  0.52076780  0.75077688  0.68908228  1
  O  O39  1  0.97923220  0.25077688  0.31091772  1
  O  O40  1  0.68699385  0.26992637  0.14094379  1
  O  O41  1  0.81300615  0.76992637  0.85905621  1
  O  O42  1  0.31300615  0.73007363  0.85905621  1
  O  O43  1  0.18699385  0.23007363  0.14094379  1
  O  O44  1  0.41883889  0.33865305  0.92987962  1
  O  O45  1  0.08116111  0.83865305  0.07012038  1
  O  O46  1  0.58116111  0.66134695  0.07012038  1
  O  O47  1  0.91883889  0.16134695  0.92987962  1
  O  O48  1  0.84106143  0.35429484  0.50914403  1
  O  O49  1  0.65893857  0.85429484  0.49085597  1
  O  O50  1  0.15893857  0.64570516  0.49085597  1
  O  O51  1  0.34106143  0.14570516  0.50914403  1
  O  O52  1  0.58257919  0.44449080  0.27744289  1
  O  O53  1  0.91742081  0.94449080  0.72255711  1
  O  O54  1  0.41742081  0.55550920  0.72255711  1
  O  O55  1  0.08257919  0.05550920  0.27744289  1
  O  O56  1  0.79185980  0.56812803  0.51679696  1
  O  O57  1  0.70814020  0.06812803  0.48320304  1
  O  O58  1  0.20814020  0.43187197  0.48320304  1
  O  O59  1  0.29185980  0.93187197  0.51679696  1
  O  O60  1  0.66853944  0.42394749  0.70157307  1
  O  O61  1  0.83146056  0.92394749  0.29842693  1
  O  O62  1  0.33146056  0.57605251  0.29842693  1
  O  O63  1  0.16853944  0.07605251  0.70157307  1
  O  O64  1  0.12415540  0.47763112  0.91494145  1
  O  O65  1  0.37584460  0.97763112  0.08505855  1
  O  O66  1  0.87584460  0.52236888  0.08505855  1
  O  O67  1  0.62415540  0.02236888  0.91494145  1
