# generated using pymatgen
data_CaB2(H2O3)2
_symmetry_space_group_name_H-M   'P 1'
_cell_length_a   7.03804882
_cell_length_b   4.42758975
_cell_length_c   7.03804882
_cell_angle_alpha   89.23664122
_cell_angle_beta   92.10708700
_cell_angle_gamma   90.76335878
_symmetry_Int_Tables_number   1
_chemical_formula_structural   CaB2(H2O3)2
_chemical_formula_sum   'Ca2 B4 H8 O12'
_cell_volume   219.13099628
_cell_formula_units_Z   2
loop_
 _symmetry_equiv_pos_site_id
 _symmetry_equiv_pos_as_xyz
  1  'x, y, z'
loop_
 _atom_site_type_symbol
 _atom_site_label
 _atom_site_symmetry_multiplicity
 _atom_site_fract_x
 _atom_site_fract_y
 _atom_site_fract_z
 _atom_site_occupancy
  Ca  Ca0  1  0.79216343  0.75000000  0.79216343  1
  Ca  Ca1  1  0.20783657  0.25000000  0.20783657  1
  B  B2  1  0.14130519  0.31107357  0.72345609  1
  B  B3  1  0.72345609  0.18892643  0.14130519  1
  B  B4  1  0.85869481  0.68892643  0.27654391  1
  B  B5  1  0.27654391  0.81107357  0.85869481  1
  H  H6  1  0.63970395  0.87042382  0.40932801  1
  H  H7  1  0.40932801  0.62957618  0.63970395  1
  H  H8  1  0.36029605  0.12957618  0.59067199  1
  H  H9  1  0.59067199  0.37042382  0.36029605  1
  H  H10  1  0.47780155  0.71617491  0.07151157  1
  H  H11  1  0.07151157  0.78382509  0.47780155  1
  H  H12  1  0.52219845  0.28382509  0.92848843  1
  H  H13  1  0.92848843  0.21617491  0.52219845  1
  O  O14  1  0.11857990  0.62415044  0.78382681  1
  O  O15  1  0.78382681  0.87584956  0.11857990  1
  O  O16  1  0.88142010  0.37584956  0.21617319  1
  O  O17  1  0.21617319  0.12415044  0.88142010  1
  O  O18  1  0.27503205  0.30162332  0.55900054  1
  O  O19  1  0.55900054  0.19837668  0.27503205  1
  O  O20  1  0.72496795  0.69837668  0.44099946  1
  O  O21  1  0.44099946  0.80162332  0.72496795  1
  O  O22  1  0.94659923  0.20167350  0.66049089  1
  O  O23  1  0.66049089  0.29832650  0.94659923  1
  O  O24  1  0.05340077  0.79832650  0.33950911  1
  O  O25  1  0.33950911  0.70167350  0.05340077  1
