# generated using pymatgen
data_Na2H20CO13
_symmetry_space_group_name_H-M   'P 1'
_cell_length_a   7.79079537
_cell_length_b   7.79079537
_cell_length_c   12.60564592
_cell_angle_alpha   69.02768334
_cell_angle_beta   110.97231666
_cell_angle_gamma   110.27128737
_symmetry_Int_Tables_number   1
_chemical_formula_structural   Na2H20CO13
_chemical_formula_sum   'Na4 H40 C2 O26'
_cell_volume   645.84351502
_cell_formula_units_Z   2
loop_
 _symmetry_equiv_pos_site_id
 _symmetry_equiv_pos_as_xyz
  1  'x, y, z'
loop_
 _atom_site_type_symbol
 _atom_site_label
 _atom_site_symmetry_multiplicity
 _atom_site_fract_x
 _atom_site_fract_y
 _atom_site_fract_z
 _atom_site_occupancy
  Na  Na0  1  0.16593573  0.89792081  0.62785506  1
  Na  Na1  1  0.10207919  0.83406427  0.12785506  1
  Na  Na2  1  0.83339920  0.09694860  0.37406650  1
  Na  Na3  1  0.90305140  0.16660080  0.87406650  1
  H  H4  1  0.57042755  0.93779000  0.18034711  1
  H  H5  1  0.06221000  0.42957245  0.68034711  1
  H  H6  1  0.62031897  0.16276965  0.12852013  1
  H  H7  1  0.83723035  0.37968103  0.62852013  1
  H  H8  1  0.38056239  0.84643237  0.87912032  1
  H  H9  1  0.15356763  0.61943761  0.37912032  1
  H  H10  1  0.43178624  0.06752703  0.81235213  1
  H  H11  1  0.93247297  0.56821376  0.31235213  1
  H  H12  1  0.15010514  0.30338289  0.52047729  1
  H  H13  1  0.69661711  0.84989486  0.02047729  1
  H  H14  1  0.00741927  0.21361205  0.59768620  1
  H  H15  1  0.78638795  0.99258073  0.09768620  1
  H  H16  1  0.97681716  0.76916317  0.40189806  1
  H  H17  1  0.23083683  0.02318284  0.90189806  1
  H  H18  1  0.83195318  0.70116572  0.47862922  1
  H  H19  1  0.29883428  0.16804682  0.97862922  1
  H  H20  1  0.63600577  0.40515929  0.34910307  1
  H  H21  1  0.59484071  0.36399423  0.84910307  1
  H  H22  1  0.63327367  0.38829524  0.22721319  1
  H  H23  1  0.61170476  0.36672633  0.72721319  1
  H  H24  1  0.31837420  0.59651117  0.61720021  1
  H  H25  1  0.40348883  0.68162580  0.11720021  1
  H  H26  1  0.36590059  0.58786573  0.75263739  1
  H  H27  1  0.41213427  0.63409941  0.25263739  1
  H  H28  1  0.79545836  0.66433440  0.65954161  1
  H  H29  1  0.33566560  0.20454164  0.15954161  1
  H  H30  1  0.85053720  0.80823592  0.73635101  1
  H  H31  1  0.19176408  0.14946280  0.23635101  1
  H  H32  1  0.22419885  0.34213132  0.32824116  1
  H  H33  1  0.65786868  0.77580115  0.82824116  1
  H  H34  1  0.04333349  0.36340865  0.21730249  1
  H  H35  1  0.63659135  0.95666651  0.71730249  1
  H  H36  1  0.45745393  0.81165116  0.43970863  1
  H  H37  1  0.18834884  0.54254607  0.93970863  1
  H  H38  1  0.42981310  0.00391710  0.34094928  1
  H  H39  1  0.99608290  0.57018690  0.84094928  1
  H  H40  1  0.51615970  0.19340635  0.56344515  1
  H  H41  1  0.80659365  0.48384030  0.06344515  1
  H  H42  1  0.48816950  0.01531349  0.52221033  1
  H  H43  1  0.98468651  0.51183050  0.02221033  1
  C  C44  1  0.48537898  0.50269541  0.48558354  1
  C  C45  1  0.49730459  0.51462102  0.98558354  1
  O  O46  1  0.67783951  0.05483727  0.17627763  1
  O  O47  1  0.94516273  0.32216049  0.67627763  1
  O  O48  1  0.32455626  0.95282922  0.82252241  1
  O  O49  1  0.04717078  0.67544374  0.32252241  1
  O  O50  1  0.06020798  0.18379588  0.54703099  1
  O  O51  1  0.81620412  0.93979202  0.04703099  1
  O  O52  1  0.93126874  0.80973745  0.45179376  1
  O  O53  1  0.19026255  0.06873126  0.95179376  1
  O  O54  1  0.71402154  0.38669918  0.30850750  1
  O  O55  1  0.61330082  0.28597846  0.80850750  1
  O  O56  1  0.26906181  0.60967790  0.67586797  1
  O  O57  1  0.39032210  0.73093819  0.17586797  1
  O  O58  1  0.90366892  0.73189246  0.71238306  1
  O  O59  1  0.26810754  0.09633108  0.21238306  1
  O  O60  1  0.10074416  0.26949928  0.28708829  1
  O  O61  1  0.73050072  0.89925584  0.78708829  1
  O  O62  1  0.51599543  0.94967739  0.41773272  1
  O  O63  1  0.05032261  0.48400457  0.91773272  1
  O  O64  1  0.47497068  0.05436707  0.58621306  1
  O  O65  1  0.94563293  0.52502932  0.08621306  1
  O  O66  1  0.35138428  0.55758324  0.49410734  1
  O  O67  1  0.44241676  0.64861572  0.99410734  1
  O  O68  1  0.46426023  0.45649470  0.39176793  1
  O  O69  1  0.54350530  0.53573977  0.89176793  1
  O  O70  1  0.63998581  0.49303892  0.57199828  1
  O  O71  1  0.50696108  0.36001419  0.07199828  1
