# generated using pymatgen
data_Ti5ZnBi2(Pb2O9)2
_symmetry_space_group_name_H-M   'P 1'
_cell_length_a   23.02293443
_cell_length_b   5.43638710
_cell_length_c   6.08409540
_cell_angle_alpha   63.45538396
_cell_angle_beta   50.96453003
_cell_angle_gamma   44.88231157
_symmetry_Int_Tables_number   1
_chemical_formula_structural   Ti5ZnBi2(Pb2O9)2
_chemical_formula_sum   'Ti5 Zn1 Bi2 Pb4 O18'
_cell_volume   417.39054773
_cell_formula_units_Z   1
loop_
 _symmetry_equiv_pos_site_id
 _symmetry_equiv_pos_as_xyz
  1  'x, y, z'
loop_
 _atom_site_type_symbol
 _atom_site_label
 _atom_site_symmetry_multiplicity
 _atom_site_fract_x
 _atom_site_fract_y
 _atom_site_fract_z
 _atom_site_occupancy
  Ti  Ti0  1  0.08579186  0.48488676  0.51546733  1
  Ti  Ti1  1  0.24560370  0.50077852  0.52480009  1
  Ti  Ti2  1  0.41389135  0.49725300  0.52217923  1
  Ti  Ti3  1  0.57923957  0.49839873  0.52777199  1
  Ti  Ti4  1  0.91451356  0.49273770  0.52758205  1
  Zn  Zn5  1  0.74706187  0.52233060  0.47292176  1
  Bi  Bi6  1  0.68473323  0.98640163  0.91879601  1
  Bi  Bi7  1  0.83924578  0.02121905  0.92238552  1
  Pb  Pb8  1  0.99273147  0.02864659  0.98626757  1
  Pb  Pb9  1  0.17361328  0.99482516  0.96870607  1
  Pb  Pb10  1  0.33950083  0.99670860  0.96966508  1
  Pb  Pb11  1  0.50914394  0.98622532  0.97269346  1
  O  O12  1  0.14367261  0.00180314  0.63060073  1
  O  O13  1  0.14629419  0.48833217  0.14544630  1
  O  O14  1  0.14366838  0.50549025  0.63063755  1
  O  O15  1  0.30626807  0.50417410  0.15405401  1
  O  O16  1  0.31060329  0.00014588  0.63415539  1
  O  O17  1  0.31060674  0.50205368  0.63414934  1
  O  O18  1  0.47926658  0.99841407  0.62880724  1
  O  O19  1  0.47454458  0.49984676  0.15301155  1
  O  O20  1  0.47926460  0.49720777  0.62880001  1
  O  O21  1  0.64016678  0.01104495  0.65919573  1
  O  O22  1  0.65295995  0.46411261  0.15407063  1
  O  O23  1  0.64015514  0.48874941  0.65931013  1
  O  O24  1  0.81044756  0.99888724  0.63579120  1
  O  O25  1  0.82151759  0.50308496  0.06437898  1
  O  O26  1  0.81045979  0.50253967  0.63576177  1
  O  O27  1  0.97708273  0.99497087  0.62723704  1
  O  O28  1  0.96961779  0.51337722  0.15563440  1
  O  O29  1  0.97706621  0.51535460  0.62732083  1
