# generated using pymatgen
data_Mg3Mn3(BO5)2
_symmetry_space_group_name_H-M   'P 1'
_cell_length_a   5.50822434
_cell_length_b   6.08870273
_cell_length_c   10.94727569
_cell_angle_alpha   90.00000000
_cell_angle_beta   96.18306470
_cell_angle_gamma   90.00000000
_symmetry_Int_Tables_number   1
_chemical_formula_structural   Mg3Mn3(BO5)2
_chemical_formula_sum   'Mg6 Mn6 B4 O20'
_cell_volume   365.01331746
_cell_formula_units_Z   2
loop_
 _symmetry_equiv_pos_site_id
 _symmetry_equiv_pos_as_xyz
  1  'x, y, z'
loop_
 _atom_site_type_symbol
 _atom_site_label
 _atom_site_symmetry_multiplicity
 _atom_site_fract_x
 _atom_site_fract_y
 _atom_site_fract_z
 _atom_site_occupancy
  Mg  Mg0  1  0.00000000  0.00000000  0.00000000  1
  Mg  Mg1  1  0.20519760  0.75000000  0.77412093  1
  Mg  Mg2  1  0.79480240  0.25000000  0.22587907  1
  Mg  Mg3  1  0.00000000  0.50000000  0.00000000  1
  Mg  Mg4  1  0.49637296  0.75000000  0.50061331  1
  Mg  Mg5  1  0.50362704  0.25000000  0.49938669  1
  Mn  Mn6  1  0.20287317  0.25000000  0.77164144  1
  Mn  Mn7  1  0.79712683  0.75000000  0.22835856  1
  Mn  Mn8  1  0.50000000  0.50000000  0.00000000  1
  Mn  Mn9  1  0.00000000  0.50000000  0.50000000  1
  Mn  Mn10  1  0.00000000  0.00000000  0.50000000  1
  Mn  Mn11  1  0.50000000  0.00000000  0.00000000  1
  B  B12  1  0.69814441  0.99604245  0.73612820  1
  B  B13  1  0.30185559  0.00395755  0.26387180  1
  B  B14  1  0.30185559  0.49604245  0.26387180  1
  B  B15  1  0.69814441  0.50395755  0.73612820  1
  O  O16  1  0.82104436  0.75000000  0.41209509  1
  O  O17  1  0.51163928  0.49343080  0.20264041  1
  O  O18  1  0.93022228  0.50627448  0.80240127  1
  O  O19  1  0.48836072  0.99343080  0.79735959  1
  O  O20  1  0.25024456  0.25000000  0.96723469  1
  O  O21  1  0.25055440  0.75000000  0.97164121  1
  O  O22  1  0.32697347  0.00024551  0.39095217  1
  O  O23  1  0.67302653  0.99975449  0.60904783  1
  O  O24  1  0.93022228  0.99372552  0.80240127  1
  O  O25  1  0.82636557  0.25000000  0.41199655  1
  O  O26  1  0.74975544  0.75000000  0.03276531  1
  O  O27  1  0.51163928  0.00656920  0.20264041  1
  O  O28  1  0.67302653  0.50024551  0.60904783  1
  O  O29  1  0.32697347  0.49975449  0.39095217  1
  O  O30  1  0.74944560  0.25000000  0.02835879  1
  O  O31  1  0.17363443  0.75000000  0.58800345  1
  O  O32  1  0.06977772  0.00627448  0.19759873  1
  O  O33  1  0.06977772  0.49372552  0.19759873  1
  O  O34  1  0.17895564  0.25000000  0.58790491  1
  O  O35  1  0.48836072  0.50656920  0.79735959  1
