# generated using pymatgen
data_Mg3P2(H22O15)2
_symmetry_space_group_name_H-M   'P 1'
_cell_length_a   6.92644873
_cell_length_b   7.02035526
_cell_length_c   15.96127702
_cell_angle_alpha   88.37409622
_cell_angle_beta   85.69540068
_cell_angle_gamma   60.61411202
_symmetry_Int_Tables_number   1
_chemical_formula_structural   Mg3P2(H22O15)2
_chemical_formula_sum   'Mg3 P2 H44 O30'
_cell_volume   674.33384340
_cell_formula_units_Z   1
loop_
 _symmetry_equiv_pos_site_id
 _symmetry_equiv_pos_as_xyz
  1  'x, y, z'
loop_
 _atom_site_type_symbol
 _atom_site_label
 _atom_site_symmetry_multiplicity
 _atom_site_fract_x
 _atom_site_fract_y
 _atom_site_fract_z
 _atom_site_occupancy
  Mg  Mg0  1  0.00000000  0.00000000  0.00000000  1
  Mg  Mg1  1  0.78447740  0.10929014  0.65607004  1
  Mg  Mg2  1  0.21552260  0.89070986  0.34392996  1
  P  P3  1  0.90544718  0.55470660  0.23980928  1
  P  P4  1  0.09455282  0.44529340  0.76019072  1
  H  H5  1  0.98421170  0.32860023  0.60605815  1
  H  H6  1  0.01578830  0.67139977  0.39394185  1
  H  H7  1  0.00600612  0.78267209  0.48301796  1
  H  H8  1  0.99399388  0.21732791  0.51698204  1
  H  H9  1  0.97056788  0.67229680  0.61679157  1
  H  H10  1  0.02943212  0.32770320  0.38320843  1
  H  H11  1  0.73283261  0.81827842  0.58227094  1
  H  H12  1  0.26716739  0.18172158  0.41772906  1
  H  H13  1  0.85851547  0.19062078  0.26085736  1
  H  H14  1  0.14148453  0.80937922  0.73914264  1
  H  H15  1  0.85958540  0.96047372  0.25839691  1
  H  H16  1  0.14041460  0.03952628  0.74160309  1
  H  H17  1  0.76609066  0.07637664  0.84855680  1
  H  H18  1  0.23390934  0.92362336  0.15144320  1
  H  H19  1  0.77800032  0.28274947  0.87721700  1
  H  H20  1  0.22199968  0.71725053  0.12278300  1
  H  H21  1  0.79839088  0.35851169  0.11280548  1
  H  H22  1  0.20160912  0.64148831  0.88719452  1
  H  H23  1  0.75186758  0.43899535  0.01761901  1
  H  H24  1  0.24813242  0.56100465  0.98238099  1
  H  H25  1  0.77739818  0.85728244  0.10651018  1
  H  H26  1  0.22260182  0.14271756  0.89348982  1
  H  H27  1  0.72775142  0.82307875  0.01190071  1
  H  H28  1  0.27224858  0.17692125  0.98809929  1
  H  H29  1  0.51225593  0.92568567  0.22602295  1
  H  H30  1  0.48774407  0.07431433  0.77397705  1
  H  H31  1  0.71564297  0.83834288  0.77292114  1
  H  H32  1  0.28435703  0.16165712  0.22707886  1
  H  H33  1  0.74504298  0.62620820  0.89416127  1
  H  H34  1  0.25495702  0.37379180  0.10583873  1
  H  H35  1  0.51120683  0.73389331  0.94817309  1
  H  H36  1  0.48879317  0.26610669  0.05182691  1
  H  H37  1  0.70758257  0.47785461  0.74947838  1
  H  H38  1  0.29241743  0.52214539  0.25052162  1
  H  H39  1  0.47800217  0.46697669  0.74847931  1
  H  H40  1  0.52199783  0.53302331  0.25152069  1
  H  H41  1  0.65339101  0.70546420  0.38471081  1
  H  H42  1  0.34660899  0.29453580  0.61528919  1
  H  H43  1  0.49830948  0.75513520  0.47085502  1
  H  H44  1  0.50169052  0.24486480  0.52914498  1
  H  H45  1  0.54306651  0.60668112  0.60668605  1
  H  H46  1  0.45693349  0.39331888  0.39331395  1
  H  H47  1  0.64490839  0.14939671  0.38880612  1
  H  H48  1  0.35509161  0.85060329  0.61119388  1
  O  O49  1  0.90682698  0.55527990  0.33764054  1
  O  O50  1  0.09317302  0.44472010  0.66235946  1
  O  O51  1  0.78645463  0.79510842  0.20940348  1
  O  O52  1  0.21354537  0.20489158  0.79059652  1
  O  O53  1  0.78369164  0.43122434  0.21403907  1
  O  O54  1  0.21630836  0.56877566  0.78596093  1
  O  O55  1  0.84738983  0.56761188  0.79751983  1
  O  O56  1  0.15261017  0.43238812  0.20248017  1
  O  O57  1  0.91750859  0.25654636  0.57391264  1
  O  O58  1  0.08249141  0.74345364  0.42608736  1
  O  O59  1  0.87545862  0.81717631  0.58774294  1
  O  O60  1  0.12454138  0.18282369  0.41225706  1
  O  O61  1  0.90083344  0.05126893  0.29278659  1
  O  O62  1  0.09916656  0.94873107  0.70721341  1
  O  O63  1  0.81065340  0.13593274  0.89445955  1
  O  O64  1  0.18934660  0.86406726  0.10554045  1
  O  O65  1  0.79705892  0.30899128  0.05481605  1
  O  O66  1  0.20294108  0.69100872  0.94518395  1
  O  O67  1  0.76617557  0.91255305  0.04744050  1
  O  O68  1  0.23382443  0.08744695  0.95255950  1
  O  O69  1  0.65545091  0.99885684  0.76322723  1
  O  O70  1  0.34454909  0.00114316  0.23677277  1
  O  O71  1  0.67296778  0.65512785  0.95313023  1
  O  O72  1  0.32703222  0.34487215  0.04686977  1
  O  O73  1  0.63094924  0.41152611  0.71991186  1
  O  O74  1  0.36905076  0.58847389  0.28008814  1
  O  O75  1  0.50357073  0.21680214  0.59036079  1
  O  O76  1  0.49642927  0.78319786  0.40963921  1
  O  O77  1  0.49482629  0.74936500  0.57951857  1
  O  O78  1  0.50517371  0.25063500  0.42048143  1
