# generated using pymatgen
data_GaAg(PSe3)2
_symmetry_space_group_name_H-M   'P 1'
_cell_length_a   6.45750155
_cell_length_b   6.45750155
_cell_length_c   14.95197570
_cell_angle_alpha   90.00000000
_cell_angle_beta   90.00000000
_cell_angle_gamma   120.00000003
_symmetry_Int_Tables_number   1
_chemical_formula_structural   GaAg(PSe3)2
_chemical_formula_sum   'Ga2 Ag2 P4 Se12'
_cell_volume   539.95585232
_cell_formula_units_Z   2
loop_
 _symmetry_equiv_pos_site_id
 _symmetry_equiv_pos_as_xyz
  1  'x, y, z'
loop_
 _atom_site_type_symbol
 _atom_site_label
 _atom_site_symmetry_multiplicity
 _atom_site_fract_x
 _atom_site_fract_y
 _atom_site_fract_z
 _atom_site_occupancy
  P  P0  1  0.66666667  0.33333333  0.67439231  1
  P  P1  1  0.66666667  0.33333333  0.82560769  1
  P  P2  1  0.33333333  0.66666667  0.32560769  1
  P  P3  1  0.33333333  0.66666667  0.17439231  1
  Ga  Ga4  1  0.00000000  0.00000000  0.25000000  1
  Ga  Ga5  1  0.00000000  0.00000000  0.75000000  1
  Se  Se6  1  0.68105117  0.98038130  0.13405598  1
  Se  Se7  1  0.68105117  0.70066987  0.36594402  1
  Se  Se8  1  0.29933013  0.31894883  0.13405598  1
  Se  Se9  1  0.29933013  0.98038130  0.36594402  1
  Se  Se10  1  0.70066987  0.68105117  0.86594402  1
  Se  Se11  1  0.31894883  0.01961870  0.86594402  1
  Se  Se12  1  0.98038130  0.29933013  0.86594402  1
  Se  Se13  1  0.31894883  0.29933013  0.63405598  1
  Se  Se14  1  0.98038130  0.68105117  0.63405598  1
  Se  Se15  1  0.70066987  0.01961870  0.63405598  1
  Se  Se16  1  0.01961870  0.31894883  0.36594402  1
  Se  Se17  1  0.01961870  0.70066987  0.13405598  1
  Ag  Ag18  1  0.33333333  0.66666667  0.75000000  1
  Ag  Ag19  1  0.66666667  0.33333333  0.25000000  1
