# generated using pymatgen
data_Ca10La6Mg3Ti13O48
_symmetry_space_group_name_H-M   'P 1'
_cell_length_a   5.49509479
_cell_length_b   5.56208940
_cell_length_c   31.18936062
_cell_angle_alpha   90.13005245
_cell_angle_beta   90.03062086
_cell_angle_gamma   89.92993429
_symmetry_Int_Tables_number   1
_chemical_formula_structural   Ca10La6Mg3Ti13O48
_chemical_formula_sum   'Ca10 La6 Mg3 Ti13 O48'
_cell_volume   953.27481730
_cell_formula_units_Z   1
loop_
 _symmetry_equiv_pos_site_id
 _symmetry_equiv_pos_as_xyz
  1  'x, y, z'
loop_
 _atom_site_type_symbol
 _atom_site_label
 _atom_site_symmetry_multiplicity
 _atom_site_fract_x
 _atom_site_fract_y
 _atom_site_fract_z
 _atom_site_occupancy
  Ca  Ca0  1  0.00978253  0.96229695  0.93785767  1
  Ca  Ca1  1  0.48496932  0.45636487  0.43843363  1
  Ca  Ca2  1  0.48475977  0.45678367  0.18707157  1
  Ca  Ca3  1  0.48616057  0.45874127  0.93795452  1
  Ca  Ca4  1  0.51229987  0.53929020  0.06088855  1
  Ca  Ca5  1  0.51693918  0.54459094  0.81415050  1
  Ca  Ca6  1  0.98977183  0.03868950  0.30981883  1
  Ca  Ca7  1  0.99119861  0.03823630  0.06020739  1
  Ca  Ca8  1  0.98413467  0.03826273  0.81445631  1
  Ca  Ca9  1  0.98889419  0.03785202  0.56010112  1
  La  La10  1  0.00982906  0.97025004  0.18841985  1
  La  La11  1  0.00696202  0.97306510  0.43946077  1
  La  La12  1  0.00583604  0.97212946  0.69199452  1
  La  La13  1  0.49142351  0.46816810  0.69208780  1
  La  La14  1  0.51215342  0.53508734  0.30856200  1
  La  La15  1  0.51016562  0.53310199  0.55837316  1
  Mg  Mg16  1  0.50103387  0.00103346  0.24959984  1
  Mg  Mg17  1  0.50086523  0.00003386  0.49958663  1
  Mg  Mg18  1  0.49875179  0.99938417  0.75341144  1
  Ti  Ti19  1  0.99782813  0.49998083  0.99940419  1
  Ti  Ti20  1  -0.00117643  0.49981591  0.49818228  1
  Ti  Ti21  1  0.00059555  0.50939934  0.87722460  1
  Ti  Ti22  1  0.50665615  0.99283269  0.12333722  1
  Ti  Ti23  1  0.50039102  0.99908079  0.99866348  1
  Ti  Ti24  1  0.50293333  0.00185313  0.62360195  1
  Ti  Ti25  1  0.50691367  0.00424261  0.37413636  1
  Ti  Ti26  1  0.49195612  0.01037638  0.87395955  1
  Ti  Ti27  1  0.00082850  0.49320872  0.12197447  1
  Ti  Ti28  1  -0.00104860  0.49931101  0.24724260  1
  Ti  Ti29  1  0.00818701  0.50184534  0.37412014  1
  Ti  Ti30  1  0.00304547  0.50031602  0.62475925  1
  Ti  Ti31  1  0.00089668  0.50013708  0.75658343  1
  O  O32  1  0.08476796  0.48176861  0.06215806  1
  O  O33  1  0.07823715  0.48049186  0.31380005  1
  O  O34  1  0.07754227  0.47943043  0.56380531  1
  O  O35  1  0.09000697  0.47341761  0.81487289  1
  O  O36  1  0.21864015  0.22593298  0.13493518  1
  O  O37  1  0.22041654  0.22584749  0.38639195  1
  O  O38  1  0.21322111  0.22601205  0.48959860  1
  O  O39  1  0.21569038  0.22985260  0.73882922  1
  O  O40  1  0.22560355  0.22751129  0.63649454  1
  O  O41  1  0.21706976  0.21511345  0.88785467  1
  O  O42  1  0.21312766  0.22580961  0.23915786  1
  O  O43  1  0.21659766  0.21884331  0.98916461  1
  O  O44  1  0.27931972  0.72305333  0.13566181  1
  O  O45  1  0.27838516  0.70710120  0.23831580  1
  O  O46  1  0.27582861  0.71630921  0.38692273  1
  O  O47  1  0.27769479  0.70683890  0.48890639  1
  O  O48  1  0.27067386  0.71481548  0.73914185  1
  O  O49  1  0.28013153  0.71724953  0.98906653  1
  O  O50  1  0.27415852  0.72081751  0.63629801  1
  O  O51  1  0.27719771  0.71157337  0.88804392  1
  O  O52  1  0.41737182  0.98001727  0.06192124  1
  O  O53  1  0.41088981  0.97920070  0.31535895  1
  O  O54  1  0.40897874  0.97124541  0.81709088  1
  O  O55  1  0.41151288  0.98074057  0.56535307  1
  O  O56  1  0.57932228  0.02088323  0.43443216  1
  O  O57  1  0.57918885  0.02324441  0.18320698  1
  O  O58  1  0.57546518  0.01155496  0.68527845  1
  O  O59  1  0.58302234  0.01899834  0.93934394  1
  O  O60  1  0.72022327  0.28253253  0.01113669  1
  O  O61  1  0.72473512  0.28435919  0.11229364  1
  O  O62  1  0.72985483  0.28597296  0.26016931  1
  O  O63  1  0.72325053  0.27802301  0.36324635  1
  O  O64  1  0.72632956  0.29137863  0.76072111  1
  O  O65  1  0.72944885  0.28500362  0.51057331  1
  O  O66  1  0.72312319  0.27671962  0.61397903  1
  O  O67  1  0.71589790  0.27775714  0.86457115  1
  O  O68  1  0.78207006  0.77948778  0.01111273  1
  O  O69  1  0.79431946  0.77609262  0.26120237  1
  O  O70  1  0.78470988  0.78554842  0.11287725  1
  O  O71  1  0.79371094  0.77606379  0.51170468  1
  O  O72  1  0.79510431  0.77776175  0.76101444  1
  O  O73  1  0.78486122  0.77518768  0.86473159  1
  O  O74  1  0.78178297  0.77948842  0.36345289  1
  O  O75  1  0.77641070  0.77551026  0.61361433  1
  O  O76  1  0.91319624  0.51719689  0.18602264  1
  O  O77  1  0.91059127  0.51598211  0.43675088  1
  O  O78  1  0.92228931  0.51181131  0.68562881  1
  O  O79  1  0.91408973  0.51868573  0.93816558  1
