# generated using pymatgen
data_Ca4Al2H22CO20
_symmetry_space_group_name_H-M   'P 1'
_cell_length_a   5.83272961
_cell_length_b   8.57765222
_cell_length_c   10.00233802
_cell_angle_alpha   64.34601709
_cell_angle_beta   82.95741386
_cell_angle_gamma   81.46966990
_symmetry_Int_Tables_number   1
_chemical_formula_structural   Ca4Al2H22CO20
_chemical_formula_sum   'Ca4 Al2 H22 C1 O20'
_cell_volume   445.15031595
_cell_formula_units_Z   1
loop_
 _symmetry_equiv_pos_site_id
 _symmetry_equiv_pos_as_xyz
  1  'x, y, z'
loop_
 _atom_site_type_symbol
 _atom_site_label
 _atom_site_symmetry_multiplicity
 _atom_site_fract_x
 _atom_site_fract_y
 _atom_site_fract_z
 _atom_site_occupancy
  Ca  Ca0  1  0.52173282  0.11725457  0.80670550  1
  Ca  Ca1  1  0.48385426  0.88214825  0.19505273  1
  Ca  Ca2  1  0.01808492  0.61658194  0.31225458  1
  Ca  Ca3  1  0.98053375  0.37801518  0.69533238  1
  Al  Al4  1  0.00107883  0.99767746  0.00168031  1
  Al  Al5  1  0.49429489  0.50342153  0.50677582  1
  H  H6  1  0.18176913  0.25536401  0.99244957  1
  H  H7  1  0.83586659  0.72391701  0.02703238  1
  H  H8  1  0.31912162  0.78387123  0.96180332  1
  H  H9  1  0.69290674  0.21730985  0.03412781  1
  H  H10  1  0.34427851  0.23398085  0.51827572  1
  H  H11  1  0.66307078  0.76076414  0.49987665  1
  H  H12  1  0.80765238  0.29925237  0.45207710  1
  H  H13  1  0.16979956  0.72267457  0.53304518  1
  H  H14  1  0.99058234  0.99182439  0.25732805  1
  H  H15  1  0.01936766  0.00996641  0.74053609  1
  H  H16  1  0.50689521  0.50328076  0.25145486  1
  H  H17  1  0.48267971  0.47961850  0.77208813  1
  H  H18  1  0.69090144  0.79134586  0.73860648  1
  H  H19  1  0.43425446  0.85764404  0.69086257  1
  H  H20  1  0.29381664  0.21038947  0.26985964  1
  H  H21  1  0.56014797  0.14267133  0.31038434  1
  H  H22  1  0.06063572  0.63134287  0.81032300  1
  H  H23  1  0.86325136  0.52820820  0.92286255  1
  H  H24  1  0.49182794  0.50193411  0.99860661  1
  H  H25  1  0.22733938  0.50017388  0.03725630  1
  H  H26  1  0.97933055  0.99268684  0.52084840  1
  H  H27  1  0.24283623  0.99717079  0.47618214  1
  C  C28  1  0.88352395  0.33091416  0.19960142  1
  O  O29  1  0.14901637  0.20874770  0.92453738  1
  O  O30  1  0.84684030  0.78726112  0.08592512  1
  O  O31  1  0.30479027  0.89159583  0.97508510  1
  O  O32  1  0.69597967  0.11088763  0.01994706  1
  O  O33  1  0.34374599  0.29059410  0.58401144  1
  O  O34  1  0.64081232  0.71524391  0.42917313  1
  O  O35  1  0.79777911  0.39426153  0.48281312  1
  O  O36  1  0.18767478  0.61064317  0.52608515  1
  O  O37  1  0.07482517  0.92562089  0.20474673  1
  O  O38  1  0.92816916  0.06523625  0.79999342  1
  O  O39  1  0.42509925  0.57075189  0.30350294  1
  O  O40  1  0.57117635  0.42985982  0.70783839  1
  O  O41  1  0.58301973  0.89796496  0.68931720  1
  O  O42  1  0.40297147  0.10265808  0.31461986  1
  O  O43  1  0.90302219  0.60295287  0.81352366  1
  O  O44  1  0.34306165  0.54936222  0.95022233  1
  O  O45  1  0.12987633  0.93347174  0.55998771  1
  O  O46  1  0.75689948  0.41095103  0.08545110  1
  O  O47  1  0.07965840  0.38903796  0.19879800  1
  O  O48  1  0.81609664  0.19639273  0.31409153  1
