# generated using pymatgen
data_CaH4Se2O7
_symmetry_space_group_name_H-M   'P 1'
_cell_length_a   7.03353139
_cell_length_b   7.45717486
_cell_length_c   6.86118476
_cell_angle_alpha   89.04475279
_cell_angle_beta   91.60104817
_cell_angle_gamma   108.29312059
_symmetry_Int_Tables_number   1
_chemical_formula_structural   CaH4Se2O7
_chemical_formula_sum   'Ca2 H8 Se4 O14'
_cell_volume   341.53904754
_cell_formula_units_Z   2
loop_
 _symmetry_equiv_pos_site_id
 _symmetry_equiv_pos_as_xyz
  1  'x, y, z'
loop_
 _atom_site_type_symbol
 _atom_site_label
 _atom_site_symmetry_multiplicity
 _atom_site_fract_x
 _atom_site_fract_y
 _atom_site_fract_z
 _atom_site_occupancy
  Ca  Ca0  1  0.77107563  0.07487345  0.87450452  1
  Ca  Ca1  1  0.22892437  0.92512655  0.12549548  1
  H  H2  1  0.76031385  0.26493281  0.46949255  1
  H  H3  1  0.23968615  0.73506719  0.53050745  1
  H  H4  1  0.54548135  0.34496256  0.98362797  1
  H  H5  1  0.45451865  0.65503744  0.01637203  1
  H  H6  1  0.79156625  0.52053361  0.30113949  1
  H  H7  1  0.20843375  0.47946639  0.69886051  1
  H  H8  1  0.57243627  0.39855806  0.34608832  1
  H  H9  1  0.42756373  0.60144194  0.65391168  1
  Se  Se10  1  0.74979213  0.96158275  0.34076581  1
  Se  Se11  1  0.25020787  0.03841725  0.65923419  1
  Se  Se12  1  0.82061085  0.60354883  0.86914122  1
  Se  Se13  1  0.17938915  0.39645117  0.13085878  1
  O  O14  1  0.95752389  0.04579685  0.20296901  1
  O  O15  1  0.04247611  0.95420315  0.79703099  1
  O  O16  1  0.58619617  0.01634711  0.18502954  1
  O  O17  1  0.41380383  0.98365289  0.81497046  1
  O  O18  1  0.78726060  0.14374608  0.52564992  1
  O  O19  1  0.21273940  0.85625392  0.47435008  1
  O  O20  1  0.08213303  0.35477176  0.89854037  1
  O  O21  1  0.91786697  0.64522824  0.10145963  1
  O  O22  1  0.63823761  0.71383899  0.85930309  1
  O  O23  1  0.36176239  0.28616101  0.14069691  1
  O  O24  1  0.65911030  0.35907705  0.89007562  1
  O  O25  1  0.34088970  0.64092295  0.10992438  1
  O  O26  1  0.70811201  0.44541902  0.40769955  1
  O  O27  1  0.29188799  0.55458098  0.59230045  1
