# generated using pymatgen
data_H13ClO6
_symmetry_space_group_name_H-M   'P 1'
_cell_length_a   6.38380009
_cell_length_b   6.53489351
_cell_length_c   18.04711149
_cell_angle_alpha   90.00000672
_cell_angle_beta   90.00000262
_cell_angle_gamma   90.00000967
_symmetry_Int_Tables_number   1
_chemical_formula_structural   H13ClO6
_chemical_formula_sum   'H52 Cl4 O24'
_cell_volume   752.87953940
_cell_formula_units_Z   4
loop_
 _symmetry_equiv_pos_site_id
 _symmetry_equiv_pos_as_xyz
  1  'x, y, z'
loop_
 _atom_site_type_symbol
 _atom_site_label
 _atom_site_symmetry_multiplicity
 _atom_site_fract_x
 _atom_site_fract_y
 _atom_site_fract_z
 _atom_site_occupancy
  H  H0  1  0.10097022  0.51787236  0.70563183  1
  H  H1  1  0.89902978  0.48212693  0.20563172  1
  H  H2  1  0.10097016  0.98212742  0.29436830  1
  H  H3  1  0.89902981  0.01787272  0.79436822  1
  H  H4  1  0.89902991  0.48212707  0.29436824  1
  H  H5  1  0.10097038  0.51787249  0.79436814  1
  H  H6  1  0.89902985  0.01787261  0.70563186  1
  H  H7  1  0.10097043  0.98212741  0.20563181  1
  H  H8  1  0.27534193  0.28797546  0.74999999  1
  H  H9  1  0.72465816  0.71202468  0.24999994  1
  H  H10  1  0.27534173  0.21202449  0.24999999  1
  H  H11  1  0.72465804  0.78797526  0.75000007  1
  H  H12  1  0.39813318  0.09332497  0.70229480  1
  H  H13  1  0.60186737  0.90667518  0.20229467  1
  H  H14  1  0.39813306  0.40667513  0.29770524  1
  H  H15  1  0.60186749  0.59332510  0.79770527  1
  H  H16  1  0.60186731  0.90667513  0.29770522  1
  H  H17  1  0.39813293  0.09332495  0.79770524  1
  H  H18  1  0.60186728  0.59332488  0.70229476  1
  H  H19  1  0.39813289  0.40667510  0.20229473  1
  H  H20  1  0.62290034  0.55841450  0.58937114  1
  H  H21  1  0.37710006  0.44158529  0.08937074  1
  H  H22  1  0.62290035  0.94158543  0.41062874  1
  H  H23  1  0.37710002  0.05841447  0.91062913  1
  H  H24  1  0.37710034  0.44158540  0.41062870  1
  H  H25  1  0.62290026  0.55841479  0.91062927  1
  H  H26  1  0.37710021  0.05841444  0.58937136  1
  H  H27  1  0.62290025  0.94158539  0.08937075  1
  H  H28  1  0.68245472  0.35061579  0.62961137  1
  H  H29  1  0.31754486  0.64938494  0.12961118  1
  H  H30  1  0.68245470  0.14938411  0.37038858  1
  H  H31  1  0.31754474  0.85061497  0.87038879  1
  H  H32  1  0.31754526  0.64938395  0.37038829  1
  H  H33  1  0.68245554  0.35061525  0.87038884  1
  H  H34  1  0.31754521  0.85061597  0.62961168  1
  H  H35  1  0.68245551  0.14938504  0.12961118  1
  H  H36  1  0.96312567  0.18160903  0.58211372  1
  H  H37  1  0.03687458  0.81839114  0.08211357  1
  H  H38  1  0.96312569  0.31839111  0.41788629  1
  H  H39  1  0.03687456  0.68160895  0.91788641  1
  H  H40  1  0.03687391  0.81839166  0.41788557  1
  H  H41  1  0.96312572  0.18160902  0.91788643  1
  H  H42  1  0.03687399  0.68160829  0.58211451  1
  H  H43  1  0.96312561  0.31839121  0.08211360  1
  H  H44  1  0.77272452  0.03274785  0.58901168  1
  H  H45  1  0.22727612  0.96725221  0.08901151  1
  H  H46  1  0.77272441  0.46725207  0.41098843  1
  H  H47  1  0.22727599  0.53274812  0.91098839  1
  H  H48  1  0.22727485  0.96725257  0.41098722  1
  H  H49  1  0.77272416  0.03274798  0.91098844  1
  H  H50  1  0.22727483  0.53274756  0.58901282  1
  H  H51  1  0.77272415  0.46725209  0.08901150  1
  Cl  Cl52  1  0.22781794  0.25000034  0.50000001  1
  Cl  Cl53  1  0.77219713  0.74999975  -0.00000001  1
  Cl  Cl54  1  0.77217951  0.74999941  0.50000007  1
  Cl  Cl55  1  0.22780313  0.24999976  0.00000003  1
  O  O56  1  0.09499092  0.42873690  0.75000005  1
  O  O57  1  0.90500871  0.57126226  0.25000001  1
  O  O58  1  0.09499115  0.07126345  0.25000000  1
  O  O59  1  0.90500900  0.92873710  0.75000010  1
  O  O60  1  0.40079238  0.18372322  0.75000001  1
  O  O61  1  0.59920961  0.81627733  0.25000004  1
  O  O62  1  0.40079098  0.31627683  0.24999990  1
  O  O63  1  0.59920885  0.68372365  0.75000040  1
  O  O64  1  0.41138516  0.97309105  0.86731328  1
  O  O65  1  0.58861447  0.02690879  0.36731289  1
  O  O66  1  0.41138527  0.52690914  0.13268659  1
  O  O67  1  0.58861413  0.47309093  0.63268696  1
  O  O68  1  0.58861472  0.02690925  0.13268658  1
  O  O69  1  0.41138690  0.97309020  0.63268707  1
  O  O70  1  0.58861513  0.47309076  0.86731345  1
  O  O71  1  0.41138681  0.52690980  0.36731293  1
  O  O72  1  0.15184143  0.64111142  0.88409068  1
  O  O73  1  0.84815965  0.35888938  0.38409054  1
  O  O74  1  0.15184160  0.85888867  0.11590928  1
  O  O75  1  0.84815957  0.14111073  0.61590947  1
  O  O76  1  0.84815862  0.35888840  0.11590910  1
  O  O77  1  0.15183774  0.64110815  0.61591085  1
  O  O78  1  0.84815854  0.14111165  0.88409073  1
  O  O79  1  0.15183791  0.85889174  0.38408914  1
