# generated using pymatgen
data_CaAsH3O5
_symmetry_space_group_name_H-M   'P 1'
_cell_length_a   6.98810763
_cell_length_b   16.32860848
_cell_length_c   8.01842682
_cell_angle_alpha   90.00000000
_cell_angle_beta   90.00000000
_cell_angle_gamma   90.00000000
_symmetry_Int_Tables_number   1
_chemical_formula_structural   CaAsH3O5
_chemical_formula_sum   'Ca8 As8 H24 O40'
_cell_volume   914.95120013
_cell_formula_units_Z   8
loop_
 _symmetry_equiv_pos_site_id
 _symmetry_equiv_pos_as_xyz
  1  'x, y, z'
loop_
 _atom_site_type_symbol
 _atom_site_label
 _atom_site_symmetry_multiplicity
 _atom_site_fract_x
 _atom_site_fract_y
 _atom_site_fract_z
 _atom_site_occupancy
  Ca  Ca0  1  0.62538260  0.54694493  0.81719658  1
  Ca  Ca1  1  0.87461740  0.04694493  0.68280342  1
  Ca  Ca2  1  0.12538260  0.45305507  0.68280342  1
  Ca  Ca3  1  0.37461740  0.95305507  0.81719658  1
  Ca  Ca4  1  0.37461740  0.45305507  0.18280342  1
  Ca  Ca5  1  0.12538260  0.95305507  0.31719658  1
  Ca  Ca6  1  0.87461740  0.54694493  0.31719658  1
  Ca  Ca7  1  0.62538260  0.04694493  0.18280342  1
  As  As8  1  0.12868193  0.60911985  0.94175333  1
  As  As9  1  0.37131807  0.10911985  0.55824667  1
  As  As10  1  0.62868193  0.39088015  0.55824667  1
  As  As11  1  0.87131807  0.89088015  0.94175333  1
  As  As12  1  0.87131807  0.39088015  0.05824667  1
  As  As13  1  0.62868193  0.89088015  0.44175333  1
  As  As14  1  0.37131807  0.60911985  0.44175333  1
  As  As15  1  0.12868193  0.10911985  0.05824667  1
  H  H16  1  0.31307592  0.68326723  0.76519535  1
  H  H17  1  0.18692408  0.18326723  0.73480465  1
  H  H18  1  0.81307592  0.31673277  0.73480465  1
  H  H19  1  0.68692408  0.81673277  0.76519535  1
  H  H20  1  0.68692408  0.31673277  0.23480465  1
  H  H21  1  0.81307592  0.81673277  0.26519535  1
  H  H22  1  0.18692408  0.68326723  0.26519535  1
  H  H23  1  0.31307592  0.18326723  0.23480465  1
  H  H24  1  0.68456760  0.71236106  0.98858279  1
  H  H25  1  0.81543240  0.21236106  0.51141721  1
  H  H26  1  0.18456760  0.28763894  0.51141721  1
  H  H27  1  0.31543240  0.78763894  0.98858279  1
  H  H28  1  0.31543240  0.28763894  0.01141721  1
  H  H29  1  0.18456760  0.78763894  0.48858279  1
  H  H30  1  0.81543240  0.71236106  0.48858279  1
  H  H31  1  0.68456760  0.21236106  0.01141721  1
  H  H32  1  0.58095362  0.65205221  0.12187195  1
  H  H33  1  0.91904638  0.15205221  0.37812805  1
  H  H34  1  0.08095362  0.34794779  0.37812805  1
  H  H35  1  0.41904638  0.84794779  0.12187195  1
  H  H36  1  0.41904638  0.34794779  0.87812805  1
  H  H37  1  0.08095362  0.84794779  0.62187195  1
  H  H38  1  0.91904638  0.65205221  0.62187195  1
  H  H39  1  0.58095362  0.15205221  0.87812805  1
  O  O40  1  0.21996605  0.70135345  0.85588963  1
  O  O41  1  0.28003395  0.20135345  0.64411037  1
  O  O42  1  0.71996605  0.29864655  0.64411037  1
  O  O43  1  0.78003395  0.79864655  0.85588963  1
  O  O44  1  0.78003395  0.29864655  0.14411037  1
  O  O45  1  0.71996605  0.79864655  0.35588963  1
  O  O46  1  0.28003395  0.70135345  0.35588963  1
  O  O47  1  0.21996605  0.20135345  0.14411037  1
  O  O48  1  0.95997373  0.57333449  0.80437700  1
  O  O49  1  0.54002627  0.07333449  0.69562300  1
  O  O50  1  0.45997373  0.42666551  0.69562300  1
  O  O51  1  0.04002627  0.92666551  0.80437700  1
  O  O52  1  0.04002627  0.42666551  0.19562300  1
  O  O53  1  0.45997373  0.92666551  0.30437700  1
  O  O54  1  0.54002627  0.57333449  0.30437700  1
  O  O55  1  0.95997373  0.07333449  0.19562300  1
  O  O56  1  0.04754905  0.63268634  0.13513586  1
  O  O57  1  0.45245095  0.13268634  0.36486414  1
  O  O58  1  0.54754905  0.36731366  0.36486414  1
  O  O59  1  0.95245095  0.86731366  0.13513586  1
  O  O60  1  0.95245095  0.36731366  0.86486414  1
  O  O61  1  0.54754905  0.86731366  0.63513586  1
  O  O62  1  0.45245095  0.63268634  0.63513586  1
  O  O63  1  0.04754905  0.13268634  0.86486414  1
  O  O64  1  0.30413161  0.53483726  0.94073626  1
  O  O65  1  0.19586839  0.03483726  0.55926374  1
  O  O66  1  0.80413161  0.46516274  0.55926374  1
  O  O67  1  0.69586839  0.96516274  0.94073626  1
  O  O68  1  0.69586839  0.46516274  0.05926374  1
  O  O69  1  0.80413161  0.96516274  0.44073626  1
  O  O70  1  0.19586839  0.53483726  0.44073626  1
  O  O71  1  0.30413161  0.03483726  0.05926374  1
  O  O72  1  0.62194441  0.65866716  0.00561689  1
  O  O73  1  0.87805559  0.15866716  0.49438311  1
  O  O74  1  0.12194441  0.34133284  0.49438311  1
  O  O75  1  0.37805559  0.84133284  0.00561689  1
  O  O76  1  0.37805559  0.34133284  0.99438311  1
  O  O77  1  0.12194441  0.84133284  0.50561689  1
  O  O78  1  0.87805559  0.65866716  0.50561689  1
  O  O79  1  0.62194441  0.15866716  0.99438311  1
