# generated using pymatgen
data_CaMgB6(HO)22
_symmetry_space_group_name_H-M   'P 1'
_cell_length_a   7.11087868
_cell_length_b   7.11087868
_cell_length_c   19.46448794
_cell_angle_alpha   89.68199149
_cell_angle_beta   90.31800851
_cell_angle_gamma   116.73287117
_symmetry_Int_Tables_number   1
_chemical_formula_structural   CaMgB6(HO)22
_chemical_formula_sum   'Ca2 Mg2 B12 H44 O44'
_cell_volume   878.99606170
_cell_formula_units_Z   2
loop_
 _symmetry_equiv_pos_site_id
 _symmetry_equiv_pos_as_xyz
  1  'x, y, z'
loop_
 _atom_site_type_symbol
 _atom_site_label
 _atom_site_symmetry_multiplicity
 _atom_site_fract_x
 _atom_site_fract_y
 _atom_site_fract_z
 _atom_site_occupancy
  Ca  Ca0  1  0.78592581  0.78592581  0.75000000  1
  Ca  Ca1  1  0.21407419  0.21407419  0.25000000  1
  Mg  Mg2  1  0.00000000  0.00000000  0.50000000  1
  Mg  Mg3  1  0.00000000  0.00000000  0.00000000  1
  B  B4  1  0.14037664  0.94297452  0.65007345  1
  B  B5  1  0.94297452  0.14037664  0.84992655  1
  B  B6  1  0.85962336  0.05702548  0.34992655  1
  B  B7  1  0.05702548  0.85962336  0.15007345  1
  B  B8  1  0.05309957  0.24630359  0.64216343  1
  B  B9  1  0.24630359  0.05309957  0.85783657  1
  B  B10  1  0.94690043  0.75369641  0.35783657  1
  B  B11  1  0.75369641  0.94690043  0.14216343  1
  B  B12  1  0.42071908  0.30959310  0.66538856  1
  B  B13  1  0.30959310  0.42071908  0.83461144  1
  B  B14  1  0.57928092  0.69040690  0.33461144  1
  B  B15  1  0.69040690  0.57928092  0.16538856  1
  H  H16  1  0.21615931  0.82401752  0.56321781  1
  H  H17  1  0.82401752  0.21615931  0.93678219  1
  H  H18  1  0.78384069  0.17598248  0.43678219  1
  H  H19  1  0.17598248  0.78384069  0.06321781  1
  H  H20  1  0.05514032  0.62852485  0.68379220  1
  H  H21  1  0.62852485  0.05514032  0.81620780  1
  H  H22  1  0.94485968  0.37147515  0.31620780  1
  H  H23  1  0.37147515  0.94485968  0.18379220  1
  H  H24  1  0.72909080  0.38983437  0.67495998  1
  H  H25  1  0.38983437  0.72909080  0.82504002  1
  H  H26  1  0.27090920  0.61016563  0.32504002  1
  H  H27  1  0.61016563  0.27090920  0.17495998  1
  H  H28  1  0.88415486  0.26078916  0.72293257  1
  H  H29  1  0.26078916  0.88415486  0.77706743  1
  H  H30  1  0.11584514  0.73921084  0.27706743  1
  H  H31  1  0.73921084  0.11584514  0.22293257  1
  H  H32  1  0.11402280  0.38425455  0.54426268  1
  H  H33  1  0.38425455  0.11402280  0.95573732  1
  H  H34  1  0.88597720  0.61574545  0.45573732  1
  H  H35  1  0.61574545  0.88597720  0.04426268  1
  H  H36  1  0.65570736  0.82685089  0.58735032  1
  H  H37  1  0.82685089  0.65570736  0.91264968  1
  H  H38  1  0.34429264  0.17314911  0.41264968  1
  H  H39  1  0.17314911  0.34429264  0.08735032  1
  H  H40  1  0.55927879  0.74907348  0.51307956  1
  H  H41  1  0.74907348  0.55927879  0.98692044  1
  H  H42  1  0.44072121  0.25092652  0.48692044  1
  H  H43  1  0.25092652  0.44072121  0.01307956  1
  H  H44  1  0.47986030  0.91951376  0.67148278  1
  H  H45  1  0.91951376  0.47986030  0.82851722  1
  H  H46  1  0.52013970  0.08048624  0.32851722  1
  H  H47  1  0.08048624  0.52013970  0.17148278  1
  H  H48  1  0.41198387  0.66847039  0.66581969  1
  H  H49  1  0.66847039  0.41198387  0.83418031  1
  H  H50  1  0.58801613  0.33152961  0.33418031  1
  H  H51  1  0.33152961  0.58801613  0.16581969  1
  H  H52  1  0.71698881  0.48887394  0.55408531  1
  H  H53  1  0.48887394  0.71698881  0.94591469  1
  H  H54  1  0.28301119  0.51112606  0.44591469  1
  H  H55  1  0.51112606  0.28301119  0.05408531  1
  H  H56  1  0.77163542  0.30100532  0.54455653  1
  H  H57  1  0.30100532  0.77163542  0.95544347  1
  H  H58  1  0.22836458  0.69899468  0.45544347  1
  H  H59  1  0.69899468  0.22836458  0.04455653  1
  O  O60  1  0.99717527  0.03230550  0.66332856  1
  O  O61  1  0.03230550  0.99717527  0.83667144  1
  O  O62  1  0.00282473  0.96769450  0.33667144  1
  O  O63  1  0.96769450  0.00282473  0.16332856  1
  O  O64  1  0.10865121  0.86442567  0.57750619  1
  O  O65  1  0.86442567  0.10865121  0.92249381  1
  O  O66  1  0.89134879  0.13557433  0.42249381  1
  O  O67  1  0.13557433  0.89134879  0.07750619  1
  O  O68  1  0.09254443  0.77112566  0.70093630  1
  O  O69  1  0.77112566  0.09254443  0.79906370  1
  O  O70  1  0.90745557  0.22887434  0.29906370  1
  O  O71  1  0.22887434  0.90745557  0.20093630  1
  O  O72  1  0.36495825  0.09852847  0.66082570  1
  O  O73  1  0.09852847  0.36495825  0.83917430  1
  O  O74  1  0.63504175  0.90147153  0.33917430  1
  O  O75  1  0.90147153  0.63504175  0.16082570  1
  O  O76  1  0.27934817  0.39082957  0.65780255  1
  O  O77  1  0.39082957  0.27934817  0.84219745  1
  O  O78  1  0.72065183  0.60917043  0.34219745  1
  O  O79  1  0.60917043  0.72065183  0.15780255  1
  O  O80  1  0.62945388  0.45436042  0.67699786  1
  O  O81  1  0.45436042  0.62945388  0.82300214  1
  O  O82  1  0.37054612  0.54563958  0.32300214  1
  O  O83  1  0.54563958  0.37054612  0.17699786  1
  O  O84  1  0.92194489  0.32807171  0.67723524  1
  O  O85  1  0.32807171  0.92194489  0.82276476  1
  O  O86  1  0.07805511  0.67192829  0.32276476  1
  O  O87  1  0.67192829  0.07805511  0.17723524  1
  O  O88  1  0.01965793  0.24846961  0.56503046  1
  O  O89  1  0.24846961  0.01965793  0.93496954  1
  O  O90  1  0.98034207  0.75153039  0.43496954  1
  O  O91  1  0.75153039  0.98034207  0.06503046  1
  O  O92  1  0.69370666  0.81263543  0.53896653  1
  O  O93  1  0.81263543  0.69370666  0.96103347  1
  O  O94  1  0.30629334  0.18736457  0.46103347  1
  O  O95  1  0.18736457  0.30629334  0.03896653  1
  O  O96  1  0.53286427  0.81231033  0.66761675  1
  O  O97  1  0.81231033  0.53286427  0.83238325  1
  O  O98  1  0.46713573  0.18768967  0.33238325  1
  O  O99  1  0.18768967  0.46713573  0.16761675  1
  O  O100  1  0.69864150  0.37493068  0.52230499  1
  O  O101  1  0.37493068  0.69864150  0.97769501  1
  O  O102  1  0.30135850  0.62506932  0.47769501  1
  O  O103  1  0.62506932  0.30135850  0.02230499  1
