# generated using pymatgen
data_Ca7Si6H4CO23
_symmetry_space_group_name_H-M   'P 1'
_cell_length_a   6.70245544
_cell_length_b   9.46982421
_cell_length_c   9.46982421
_cell_angle_alpha   108.06780045
_cell_angle_beta   104.66175455
_cell_angle_gamma   104.66175455
_symmetry_Int_Tables_number   1
_chemical_formula_structural   Ca7Si6H4CO23
_chemical_formula_sum   'Ca7 Si6 H4 C1 O23'
_cell_volume   515.63136567
_cell_formula_units_Z   1
loop_
 _symmetry_equiv_pos_site_id
 _symmetry_equiv_pos_as_xyz
  1  'x, y, z'
loop_
 _atom_site_type_symbol
 _atom_site_label
 _atom_site_symmetry_multiplicity
 _atom_site_fract_x
 _atom_site_fract_y
 _atom_site_fract_z
 _atom_site_occupancy
  Ca  Ca0  1  0.01530148  0.36694301  0.07486899  1
  Ca  Ca1  1  0.01530148  0.07486899  0.36694301  1
  Ca  Ca2  1  0.98790345  0.66425548  0.93388013  1
  Ca  Ca3  1  0.98790345  0.93388013  0.66425548  1
  Ca  Ca4  1  0.50331853  0.25250942  0.75193035  1
  Ca  Ca5  1  0.50331853  0.75193035  0.25250942  1
  Ca  Ca6  1  0.52662673  0.99311784  0.99311784  1
  Si  Si7  1  0.56896381  0.37902039  0.17020335  1
  Si  Si8  1  0.56896381  0.17020335  0.37902039  1
  Si  Si9  1  0.43399002  0.83169003  0.62239325  1
  Si  Si10  1  0.43399002  0.62239325  0.83169003  1
  Si  Si11  1  0.00575327  0.32854434  0.68145381  1
  Si  Si12  1  0.00575327  0.68145381  0.32854434  1
  H  H13  1  0.29130631  0.32382584  0.32382584  1
  H  H14  1  0.16955623  0.42112166  0.42112166  1
  H  H15  1  0.85132130  0.56092003  0.56092003  1
  H  H16  1  0.69784039  0.63724551  0.63724551  1
  C  C17  1  0.98959907  0.99081399  0.99081399  1
  O  O18  1  0.19547128  0.48836358  0.69628917  1
  O  O19  1  0.19547128  0.69628917  0.48836358  1
  O  O20  1  0.81758787  0.51029588  0.29232544  1
  O  O21  1  0.81758787  0.29232544  0.51029588  1
  O  O22  1  0.91126441  0.37126266  0.82479684  1
  O  O23  1  0.91126441  0.82479684  0.37126266  1
  O  O24  1  0.09998291  0.65552783  0.18336897  1
  O  O25  1  0.09998291  0.18336897  0.65552783  1
  O  O26  1  0.61013954  0.02092175  0.26454426  1
  O  O27  1  0.61013954  0.26454426  0.02092175  1
  O  O28  1  0.38323138  0.72700329  0.98106595  1
  O  O29  1  0.38323138  0.98106595  0.72700329  1
  O  O30  1  0.61143525  0.86262571  0.53832281  1
  O  O31  1  0.61143525  0.53832281  0.86262571  1
  O  O32  1  0.39491448  0.14069297  0.46614695  1
  O  O33  1  0.39491448  0.46614695  0.14069297  1
  O  O34  1  0.52191352  0.74698825  0.74698825  1
  O  O35  1  0.48708212  0.27043341  0.27043341  1
  O  O36  1  0.14332617  0.32736776  0.32736776  1
  O  O37  1  0.85202210  0.64927156  0.64927156  1
  O  O38  1  0.91920855  0.08869098  0.94181890  1
  O  O39  1  0.91920855  0.94181890  0.08869098  1
  O  O40  1  0.12096359  0.93184768  0.93184768  1
