# generated using pymatgen
data_PH6NO3
_symmetry_space_group_name_H-M   'P 1'
_cell_length_a   6.31207347
_cell_length_b   8.28970908
_cell_length_c   8.95311775
_cell_angle_alpha   90.00000000
_cell_angle_beta   119.00195571
_cell_angle_gamma   90.00000000
_symmetry_Int_Tables_number   1
_chemical_formula_structural   PH6NO3
_chemical_formula_sum   'P4 H24 N4 O12'
_cell_volume   409.72897074
_cell_formula_units_Z   4
loop_
 _symmetry_equiv_pos_site_id
 _symmetry_equiv_pos_as_xyz
  1  'x, y, z'
loop_
 _atom_site_type_symbol
 _atom_site_label
 _atom_site_symmetry_multiplicity
 _atom_site_fract_x
 _atom_site_fract_y
 _atom_site_fract_z
 _atom_site_occupancy
  P  P0  1  0.94171461  0.39058700  0.68946670  1
  P  P1  1  0.05828539  0.89058700  0.81053330  1
  P  P2  1  0.05828539  0.60941300  0.31053330  1
  P  P3  1  0.94171461  0.10941300  0.18946670  1
  H  H4  1  0.87023852  0.54488513  0.61442332  1
  H  H5  1  0.12976148  0.04488513  0.88557668  1
  H  H6  1  0.12976148  0.45511487  0.38557668  1
  H  H7  1  0.87023852  0.95511487  0.11442332  1
  H  H8  1  0.83149489  0.22228924  0.46181000  1
  H  H9  1  0.16850511  0.72228924  0.03819000  1
  H  H10  1  0.16850511  0.77771076  0.53819000  1
  H  H11  1  0.83149489  0.27771076  0.96181000  1
  H  H12  1  0.35919150  0.23043532  0.68066848  1
  H  H13  1  0.64080850  0.73043532  0.81933152  1
  H  H14  1  0.64080850  0.76956468  0.31933152  1
  H  H15  1  0.35919150  0.26956468  0.18066848  1
  H  H16  1  0.34913055  0.14752579  0.50144280  1
  H  H17  1  0.65086945  0.64752579  0.99855720  1
  H  H18  1  0.65086945  0.85247421  0.49855720  1
  H  H19  1  0.34913055  0.35247421  0.00144280  1
  H  H20  1  0.29025639  0.03409049  0.63533530  1
  H  H21  1  0.70974361  0.53409049  0.86466470  1
  H  H22  1  0.70974361  0.96590951  0.36466470  1
  H  H23  1  0.29025639  0.46590951  0.13533530  1
  H  H24  1  0.57586470  0.09643939  0.69521576  1
  H  H25  1  0.42413530  0.59643939  0.80478424  1
  H  H26  1  0.42413530  0.90356061  0.30478424  1
  H  H27  1  0.57586470  0.40356061  0.19521576  1
  N  N28  1  0.39608691  0.12802287  0.62836686  1
  N  N29  1  0.60391309  0.62802287  0.87163314  1
  N  N30  1  0.60391309  0.87197713  0.37163314  1
  N  N31  1  0.39608691  0.37197713  0.12836686  1
  O  O32  1  0.77439325  0.26841723  0.54160997  1
  O  O33  1  0.22560675  0.76841723  0.95839003  1
  O  O34  1  0.22560675  0.73158277  0.45839003  1
  O  O35  1  0.77439325  0.23158277  0.04160997  1
  O  O36  1  0.86330670  0.37880299  0.82555404  1
  O  O37  1  0.13669330  0.87880299  0.67444596  1
  O  O38  1  0.13669330  0.62119701  0.17444596  1
  O  O39  1  0.86330670  0.12119701  0.32555404  1
  O  O40  1  0.21108080  0.37004495  0.75111826  1
  O  O41  1  0.78891920  0.87004495  0.74888174  1
  O  O42  1  0.78891920  0.62995505  0.24888174  1
  O  O43  1  0.21108080  0.12995505  0.25111826  1
