# generated using pymatgen
data_BaSi2
_symmetry_space_group_name_H-M   'P 1'
_cell_length_a   6.77143949
_cell_length_b   6.77143949
_cell_length_c   6.77143949
_cell_angle_alpha   90.00000000
_cell_angle_beta   90.00000000
_cell_angle_gamma   90.00000000
_symmetry_Int_Tables_number   1
_chemical_formula_structural   BaSi2
_chemical_formula_sum   'Ba4 Si8'
_cell_volume   310.48670309
_cell_formula_units_Z   4
loop_
 _symmetry_equiv_pos_site_id
 _symmetry_equiv_pos_as_xyz
  1  'x, y, z'
loop_
 _atom_site_type_symbol
 _atom_site_label
 _atom_site_symmetry_multiplicity
 _atom_site_fract_x
 _atom_site_fract_y
 _atom_site_fract_z
 _atom_site_occupancy
  Si  Si0  1  0.83191249  0.83191249  0.83191249  1
  Si  Si1  1  0.58191249  0.91808751  0.08191249  1
  Si  Si2  1  0.91808751  0.08191249  0.58191249  1
  Si  Si3  1  0.08191249  0.58191249  0.91808751  1
  Si  Si4  1  0.41808751  0.41808751  0.41808751  1
  Si  Si5  1  0.16808751  0.33191249  0.66808751  1
  Si  Si6  1  0.66808751  0.16808751  0.33191249  1
  Si  Si7  1  0.33191249  0.66808751  0.16808751  1
  Ba  Ba8  1  0.62500000  0.37500000  0.87500000  1
  Ba  Ba9  1  0.37500000  0.87500000  0.62500000  1
  Ba  Ba10  1  0.87500000  0.62500000  0.37500000  1
  Ba  Ba11  1  0.12500000  0.12500000  0.12500000  1
