# generated using pymatgen
data_CdRe2H8C2(N2O5)2
_symmetry_space_group_name_H-M   'P 1'
_cell_length_a   15.79618660
_cell_length_b   10.51898120
_cell_length_c   8.30276896
_cell_angle_alpha   90.00000000
_cell_angle_beta   94.64047295
_cell_angle_gamma   90.00000000
_symmetry_Int_Tables_number   1
_chemical_formula_structural   CdRe2H8C2(N2O5)2
_chemical_formula_sum   'Cd4 Re8 H32 C8 N16 O40'
_cell_volume   1375.06403171
_cell_formula_units_Z   4
loop_
 _symmetry_equiv_pos_site_id
 _symmetry_equiv_pos_as_xyz
  1  'x, y, z'
loop_
 _atom_site_type_symbol
 _atom_site_label
 _atom_site_symmetry_multiplicity
 _atom_site_fract_x
 _atom_site_fract_y
 _atom_site_fract_z
 _atom_site_occupancy
  Cd  Cd0  1  0.25222520  0.42897544  0.12210583  1
  Cd  Cd1  1  0.74777480  0.92897544  0.37789417  1
  Cd  Cd2  1  0.74777480  0.57102456  0.87789417  1
  Cd  Cd3  1  0.25222520  0.07102456  0.62210583  1
  Re  Re4  1  0.15039697  0.09536267  0.03133561  1
  Re  Re5  1  0.84960303  0.59536267  0.46866439  1
  Re  Re6  1  0.84960303  0.90463733  0.96866439  1
  Re  Re7  1  0.15039697  0.40463733  0.53133561  1
  Re  Re8  1  0.41424525  0.31488119  0.81261215  1
  Re  Re9  1  0.58575475  0.81488119  0.68738785  1
  Re  Re10  1  0.58575475  0.68511881  0.18738785  1
  Re  Re11  1  0.41424525  0.18511881  0.31261215  1
  H  H12  1  0.40678350  0.65366641  0.51323283  1
  H  H13  1  0.59321650  0.15366641  0.98676717  1
  H  H14  1  0.59321650  0.34633359  0.48676717  1
  H  H15  1  0.40678350  0.84633359  0.01323283  1
  H  H16  1  0.37501838  0.51586589  0.40916558  1
  H  H17  1  0.62498162  0.01586589  0.09083442  1
  H  H18  1  0.62498162  0.48413411  0.59083442  1
  H  H19  1  0.37501838  0.98413411  0.90916558  1
  H  H20  1  0.35463500  0.85066192  0.42739249  1
  H  H21  1  0.64536500  0.35066192  0.07260751  1
  H  H22  1  0.64536500  0.14933808  0.57260751  1
  H  H23  1  0.35463500  0.64933808  0.92739249  1
  H  H24  1  0.28394925  0.86093742  0.25319065  1
  H  H25  1  0.71605075  0.36093742  0.24680935  1
  H  H26  1  0.71605075  0.13906258  0.74680935  1
  H  H27  1  0.28394925  0.63906258  0.75319065  1
  H  H28  1  0.98452168  0.65550067  0.82746919  1
  H  H29  1  0.01547832  0.15550067  0.67253081  1
  H  H30  1  0.01547832  0.34449933  0.17253081  1
  H  H31  1  0.98452168  0.84449933  0.32746919  1
  H  H32  1  0.01039080  0.50432263  0.76113607  1
  H  H33  1  0.98960920  0.00432263  0.73886393  1
  H  H34  1  0.98960920  0.49567737  0.23886393  1
  H  H35  1  0.01039080  0.99567737  0.26113607  1
  H  H36  1  0.06968900  0.75520093  0.02639020  1
  H  H37  1  0.93031100  0.25520093  0.47360980  1
  H  H38  1  0.93031100  0.24479907  0.97360980  1
  H  H39  1  0.06968900  0.74479907  0.52639020  1
  H  H40  1  0.16196721  0.68352393  0.11324596  1
  H  H41  1  0.83803279  0.18352393  0.38675404  1
  H  H42  1  0.83803279  0.31647607  0.88675404  1
  H  H43  1  0.16196721  0.81647607  0.61324596  1
  C  C44  1  0.32309648  0.68142019  0.31366259  1
  C  C45  1  0.67690352  0.18142019  0.18633741  1
  C  C46  1  0.67690352  0.31857981  0.68633741  1
  C  C47  1  0.32309648  0.81857981  0.81366259  1
  C  C48  1  0.09442901  0.57679776  0.93863265  1
  C  C49  1  0.90557099  0.07679776  0.56136735  1
  C  C50  1  0.90557099  0.42320224  0.06136735  1
  C  C51  1  0.09442901  0.92320224  0.43863265  1
  N  N52  1  0.36903590  0.61128321  0.42377051  1
  N  N53  1  0.63096410  0.11128321  0.07622949  1
  N  N54  1  0.63096410  0.38871679  0.57622949  1
  N  N55  1  0.36903590  0.88871679  0.92377051  1
  N  N56  1  0.32409951  0.80870557  0.32888245  1
  N  N57  1  0.67590049  0.30870557  0.17111755  1
  N  N58  1  0.67590049  0.19129443  0.67111755  1
  N  N59  1  0.32409951  0.69129443  0.82888245  1
  N  N60  1  0.02583949  0.58155154  0.83014320  1
  N  N61  1  0.97416051  0.08155154  0.66985680  1
  N  N62  1  0.97416051  0.41844846  0.16985680  1
  N  N63  1  0.02583949  0.91844846  0.33014320  1
  N  N64  1  0.10753879  0.67743646  0.03825992  1
  N  N65  1  0.89246121  0.17743646  0.46174008  1
  N  N66  1  0.89246121  0.32256354  0.96174008  1
  N  N67  1  0.10753879  0.82256354  0.53825992  1
  O  O68  1  0.22459910  0.20948257  0.10805294  1
  O  O69  1  0.77540090  0.70948257  0.39194706  1
  O  O70  1  0.77540090  0.79051743  0.89194706  1
  O  O71  1  0.22459910  0.29051743  0.60805294  1
  O  O72  1  0.15062084  0.09062936  0.81848395  1
  O  O73  1  0.84937916  0.59062936  0.68151605  1
  O  O74  1  0.84937916  0.90937064  0.18151605  1
  O  O75  1  0.15062084  0.40937064  0.31848395  1
  O  O76  1  0.04783548  0.13466354  0.08197647  1
  O  O77  1  0.95216452  0.63466354  0.41802353  1
  O  O78  1  0.95216452  0.86533646  0.91802353  1
  O  O79  1  0.04783548  0.36533646  0.58197647  1
  O  O80  1  0.18035671  0.94653911  0.10724488  1
  O  O81  1  0.81964329  0.44653911  0.39275512  1
  O  O82  1  0.81964329  0.05346089  0.89275512  1
  O  O83  1  0.18035671  0.55346089  0.60724488  1
  O  O84  1  0.35095662  0.41109454  0.93031755  1
  O  O85  1  0.64904338  0.91109454  0.56968245  1
  O  O86  1  0.64904338  0.58890546  0.06968245  1
  O  O87  1  0.35095662  0.08890546  0.43031755  1
  O  O88  1  0.37039953  0.16107841  0.78384748  1
  O  O89  1  0.62960047  0.66107841  0.71615252  1
  O  O90  1  0.62960047  0.83892159  0.21615252  1
  O  O91  1  0.37039953  0.33892159  0.28384748  1
  O  O92  1  0.51658967  0.30410918  0.90946783  1
  O  O93  1  0.48341033  0.80410918  0.59053217  1
  O  O94  1  0.48341033  0.69589082  0.09053217  1
  O  O95  1  0.51658967  0.19589082  0.40946783  1
  O  O96  1  0.42236870  0.38697742  0.62630653  1
  O  O97  1  0.57763130  0.88697742  0.87369347  1
  O  O98  1  0.57763130  0.61302258  0.37369347  1
  O  O99  1  0.42236870  0.11302258  0.12630653  1
  O  O100  1  0.27790257  0.63142872  0.19372029  1
  O  O101  1  0.72209743  0.13142872  0.30627971  1
  O  O102  1  0.72209743  0.36857128  0.80627971  1
  O  O103  1  0.27790257  0.86857128  0.69372029  1
  O  O104  1  0.14270238  0.47915552  0.94281820  1
  O  O105  1  0.85729762  0.97915552  0.55718180  1
  O  O106  1  0.85729762  0.52084448  0.05718180  1
  O  O107  1  0.14270238  0.02084448  0.44281820  1
