# generated using pymatgen
data_K4P4(H2O5)3
_symmetry_space_group_name_H-M   'P 1'
_cell_length_a   9.76564458
_cell_length_b   9.76564458
_cell_length_c   14.40702176
_cell_angle_alpha   61.43812254
_cell_angle_beta   118.56187746
_cell_angle_gamma   137.87261189
_symmetry_Int_Tables_number   1
_chemical_formula_structural   K4P4(H2O5)3
_chemical_formula_sum   'K8 P8 H12 O30'
_cell_volume   791.47968529
_cell_formula_units_Z   2
loop_
 _symmetry_equiv_pos_site_id
 _symmetry_equiv_pos_as_xyz
  1  'x, y, z'
loop_
 _atom_site_type_symbol
 _atom_site_label
 _atom_site_symmetry_multiplicity
 _atom_site_fract_x
 _atom_site_fract_y
 _atom_site_fract_z
 _atom_site_occupancy
  K  K0  1  0.81506979  0.36362791  0.87386330  1
  K  K1  1  0.36362791  0.81506979  0.62613670  1
  K  K2  1  0.18493021  0.63637209  0.12613670  1
  K  K3  1  0.63637209  0.18493021  0.37386330  1
  K  K4  1  0.20515041  0.23622979  0.10380445  1
  K  K5  1  0.23622979  0.20515041  0.39619555  1
  K  K6  1  0.79484959  0.76377021  0.89619555  1
  K  K7  1  0.76377021  0.79484959  0.60380445  1
  P  P8  1  0.95010399  0.23505994  0.71379791  1
  P  P9  1  0.23505994  0.95010399  0.78620209  1
  P  P10  1  0.04989601  0.76494006  0.28620209  1
  P  P11  1  0.76494006  0.04989601  0.21379791  1
  P  P12  1  0.71892493  0.38305661  0.59233913  1
  P  P13  1  0.38305661  0.71892493  0.90766087  1
  P  P14  1  0.28107507  0.61694339  0.40766087  1
  P  P15  1  0.61694339  0.28107507  0.09233913  1
  H  H16  1  0.20560726  0.39246463  0.84838449  1
  H  H17  1  0.39246463  0.20560726  0.65161551  1
  H  H18  1  0.79439274  0.60753537  0.15161551  1
  H  H19  1  0.60753537  0.79439274  0.34838449  1
  H  H20  1  0.90176350  0.61313463  0.46420654  1
  H  H21  1  0.61313463  0.90176350  0.03579346  1
  H  H22  1  0.09823650  0.38686537  0.53579346  1
  H  H23  1  0.38686537  0.09823650  0.96420654  1
  H  H24  1  0.36411271  0.46248411  0.71317350  1
  H  H25  1  0.46248411  0.36411271  0.78682650  1
  H  H26  1  0.63588729  0.53751589  0.28682650  1
  H  H27  1  0.53751589  0.63588729  0.21317350  1
  O  O28  1  0.07087553  0.24168399  0.83678502  1
  O  O29  1  0.24168399  0.07087553  0.66321498  1
  O  O30  1  0.92912447  0.75831601  0.16321498  1
  O  O31  1  0.75831601  0.92912447  0.33678502  1
  O  O32  1  0.10731321  0.39703615  0.64072770  1
  O  O33  1  0.39703615  0.10731321  0.85927230  1
  O  O34  1  0.89268679  0.60296385  0.35927230  1
  O  O35  1  0.60296385  0.89268679  0.14072770  1
  O  O36  1  0.78299723  0.01443514  0.69863177  1
  O  O37  1  0.01443514  0.78299723  0.80136823  1
  O  O38  1  0.21700277  0.98556486  0.30136823  1
  O  O39  1  0.98556486  0.21700277  0.19863177  1
  O  O40  1  0.84488508  0.31970282  0.70182145  1
  O  O41  1  0.31970282  0.84488508  0.79817855  1
  O  O42  1  0.15511492  0.68029718  0.29817855  1
  O  O43  1  0.68029718  0.15511492  0.20182145  1
  O  O44  1  0.62011297  0.39996938  0.63695945  1
  O  O45  1  0.39996938  0.62011297  0.86304055  1
  O  O46  1  0.37988703  0.60003062  0.36304055  1
  O  O47  1  0.60003062  0.37988703  0.13695945  1
  O  O48  1  0.57481148  0.22764050  0.52151078  1
  O  O49  1  0.22764050  0.57481148  0.97848922  1
  O  O50  1  0.42518852  0.77235950  0.47848922  1
  O  O51  1  0.77235950  0.42518852  0.02151078  1
  O  O52  1  0.89944165  0.61048095  0.53625193  1
  O  O53  1  0.61048095  0.89944165  0.96374807  1
  O  O54  1  0.10055835  0.38951905  0.46374807  1
  O  O55  1  0.38951905  0.10055835  0.03625193  1
  O  O56  1  0.50049182  0.50049182  0.75000000  1
  O  O57  1  0.49950818  0.49950818  0.25000000  1
