# generated using pymatgen
data_CaP4WO12
_symmetry_space_group_name_H-M   'P 1'
_cell_length_a   7.77124436
_cell_length_b   7.75965668
_cell_length_c   10.36793956
_cell_angle_alpha   102.04113734
_cell_angle_beta   107.10367159
_cell_angle_gamma   109.17408694
_symmetry_Int_Tables_number   1
_chemical_formula_structural   CaP4WO12
_chemical_formula_sum   'Ca2 P8 W2 O24'
_cell_volume   531.17421869
_cell_formula_units_Z   2
loop_
 _symmetry_equiv_pos_site_id
 _symmetry_equiv_pos_as_xyz
  1  'x, y, z'
loop_
 _atom_site_type_symbol
 _atom_site_label
 _atom_site_symmetry_multiplicity
 _atom_site_fract_x
 _atom_site_fract_y
 _atom_site_fract_z
 _atom_site_occupancy
  Ca  Ca0  1  0.72102963  0.96900337  0.74918055  1
  Ca  Ca1  1  0.28040188  0.02997891  0.24883229  1
  P  P2  1  0.50572052  0.32643245  0.79742093  1
  P  P3  1  0.03024060  0.70498543  0.70104608  1
  P  P4  1  0.49641019  0.67295637  0.20060311  1
  P  P5  1  0.97106318  0.29356714  0.29721679  1
  P  P6  1  0.75287395  0.71835404  0.02420720  1
  P  P7  1  0.19482955  0.72640714  0.47419913  1
  P  P8  1  0.24865325  0.28142013  0.97340823  1
  P  P9  1  0.80627394  0.27219123  0.52373526  1
  W  W10  1  0.50090542  0.49952132  0.49885578  1
  W  W11  1  0.50043832  0.99953980  0.99901359  1
  O  O12  1  0.32401099  0.31236102  0.84685264  1
  O  O13  1  0.96526237  0.47341100  0.65051665  1
  O  O14  1  0.67804772  0.68745539  0.15098374  1
  O  O15  1  0.03562127  0.52507597  0.34770218  1
  O  O16  1  0.69593173  0.50048726  0.92984580  1
  O  O17  1  0.07308616  0.76488853  0.56951517  1
  O  O18  1  0.30608444  0.49935039  0.06797244  1
  O  O19  1  0.92864730  0.23378818  0.42891083  1
  O  O20  1  0.46244889  0.37991079  0.66518874  1
  O  O21  1  0.21536499  0.79138082  0.83354239  1
  O  O22  1  0.53984322  0.61862324  0.33246013  1
  O  O23  1  0.78580311  0.20688247  0.16478696  1
  O  O24  1  0.54285910  0.14755283  0.79117330  1
  O  O25  1  0.85861535  0.74973494  0.70732989  1
  O  O26  1  0.45938483  0.85195585  0.20760041  1
  O  O27  1  0.14288912  0.24924374  0.29092417  1
  O  O28  1  0.63422397  0.80427844  0.93270484  1
  O  O29  1  0.37157411  0.69836995  0.56545822  1
  O  O30  1  0.36650687  0.19487555  0.06484000  1
  O  O31  1  0.63004940  0.30064191  0.43212118  1
  O  O32  1  0.97202583  0.82007585  0.08683470  1
  O  O33  1  0.23410935  0.88258920  0.41093804  1
  O  O34  1  0.02940879  0.18032055  0.91040037  1
  O  O35  1  0.76612966  0.11578081  0.58663127  1
