# generated using pymatgen
data_Mg4Si3
_symmetry_space_group_name_H-M   'P 1'
_cell_length_a   5.85530443
_cell_length_b   7.35210401
_cell_length_c   7.62699488
_cell_angle_alpha   116.80102472
_cell_angle_beta   67.36967669
_cell_angle_gamma   90.25515159
_symmetry_Int_Tables_number   1
_chemical_formula_structural   Mg4Si3
_chemical_formula_sum   'Mg8 Si6'
_cell_volume   264.74350235
_cell_formula_units_Z   2
loop_
 _symmetry_equiv_pos_site_id
 _symmetry_equiv_pos_as_xyz
  1  'x, y, z'
loop_
 _atom_site_type_symbol
 _atom_site_label
 _atom_site_symmetry_multiplicity
 _atom_site_fract_x
 _atom_site_fract_y
 _atom_site_fract_z
 _atom_site_occupancy
  Mg  Mg0  1  0.92278110  0.42914565  0.09263733  1
  Mg  Mg1  1  0.30173311  0.96915073  0.82900301  1
  Mg  Mg2  1  0.39623947  0.34070540  0.64154139  1
  Mg  Mg3  1  0.87906999  0.35724140  0.67191927  1
  Mg  Mg4  1  0.24847863  0.59145954  0.44275676  1
  Mg  Mg5  1  0.42578467  0.72887303  0.05691732  1
  Mg  Mg6  1  0.75142795  0.89234880  0.40640577  1
  Mg  Mg7  1  0.78811731  0.97671813  0.85721233  1
  Si  Si8  1  0.69243486  0.60395787  0.54914336  1
  Si  Si9  1  0.46974045  0.33225452  0.99029194  1
  Si  Si10  1  0.30118254  0.16091756  0.25093999  1
  Si  Si11  1  0.20356460  0.98846379  0.50979589  1
  Si  Si12  1  0.99352135  0.71813697  0.95139354  1
  Si  Si13  1  0.87594496  0.16065661  0.25005110  1
