# generated using pymatgen
data_Ba4Pb3O10
_symmetry_space_group_name_H-M   'P 1'
_cell_length_a   4.38305660
_cell_length_b   4.38255134
_cell_length_c   15.68890097
_cell_angle_alpha   82.05310131
_cell_angle_beta   82.04383395
_cell_angle_gamma   90.01110768
_symmetry_Int_Tables_number   1
_chemical_formula_structural   Ba4Pb3O10
_chemical_formula_sum   'Ba4 Pb3 O10'
_cell_volume   295.54305111
_cell_formula_units_Z   1
loop_
 _symmetry_equiv_pos_site_id
 _symmetry_equiv_pos_as_xyz
  1  'x, y, z'
loop_
 _atom_site_type_symbol
 _atom_site_label
 _atom_site_symmetry_multiplicity
 _atom_site_fract_x
 _atom_site_fract_y
 _atom_site_fract_z
 _atom_site_occupancy
  Ba  Ba0  1  0.29554899  0.29513050  0.40567333  1
  Ba  Ba1  1  0.42268768  0.44691612  0.13921499  1
  Ba  Ba2  1  0.70208522  0.70022077  0.59449585  1
  Ba  Ba3  1  0.54670520  0.56885748  0.86092777  1
  Pb  Pb4  1  0.99338253  0.00157800  0.00001500  1
  Pb  Pb5  1  0.13572436  0.14006037  0.71626367  1
  Pb  Pb6  1  0.85066060  0.85616069  0.28381351  1
  O  O7  1  0.85430713  0.35495351  0.28177853  1
  O  O8  1  0.63573950  0.14007836  0.71916854  1
  O  O9  1  0.10395608  0.06849481  0.85839123  1
  O  O10  1  0.19586369  0.21003756  0.57463915  1
  O  O11  1  0.92344377  0.88510943  0.14169968  1
  O  O12  1  0.49196703  0.99984887  0.00652236  1
  O  O13  1  0.35129869  0.85541287  0.28137322  1
  O  O14  1  0.14036058  0.63959619  0.71739560  1
  O  O15  1  0.00046213  0.50325664  0.99326499  1
  O  O16  1  0.76760683  0.78208884  0.42536258  1
