# generated using pymatgen
data_CdAs
_symmetry_space_group_name_H-M   'P 1'
_cell_length_a   6.11107267
_cell_length_b   7.95744736
_cell_length_c   8.19942674
_cell_angle_alpha   90.00000000
_cell_angle_beta   90.00000000
_cell_angle_gamma   90.00000000
_symmetry_Int_Tables_number   1
_chemical_formula_structural   CdAs
_chemical_formula_sum   'Cd8 As8'
_cell_volume   398.72614370
_cell_formula_units_Z   8
loop_
 _symmetry_equiv_pos_site_id
 _symmetry_equiv_pos_as_xyz
  1  'x, y, z'
loop_
 _atom_site_type_symbol
 _atom_site_label
 _atom_site_symmetry_multiplicity
 _atom_site_fract_x
 _atom_site_fract_y
 _atom_site_fract_z
 _atom_site_occupancy
  As  As0  1  0.63257341  0.06465242  0.40422461  1
  As  As1  1  0.13257341  0.43534758  0.59577539  1
  As  As2  1  0.36742659  0.56465242  0.09577539  1
  As  As3  1  0.86742659  0.93534758  0.90422461  1
  As  As4  1  0.36742659  0.93534758  0.59577539  1
  As  As5  1  0.86742659  0.56465242  0.40422461  1
  As  As6  1  0.63257341  0.43534758  0.90422461  1
  As  As7  1  0.13257341  0.06465242  0.09577539  1
  Cd  Cd8  1  0.04666997  0.63030270  0.86195602  1
  Cd  Cd9  1  0.54666997  0.86969730  0.13804398  1
  Cd  Cd10  1  0.95333003  0.13030270  0.63804398  1
  Cd  Cd11  1  0.45333003  0.36969730  0.36195602  1
  Cd  Cd12  1  0.95333003  0.36969730  0.13804398  1
  Cd  Cd13  1  0.45333003  0.13030270  0.86195602  1
  Cd  Cd14  1  0.04666997  0.86969730  0.36195602  1
  Cd  Cd15  1  0.54666997  0.63030270  0.63804398  1
