# generated using pymatgen
data_LaMg14Ga
_symmetry_space_group_name_H-M   'P 1'
_cell_length_a   6.54181914
_cell_length_b   6.54181858
_cell_length_c   10.37526190
_cell_angle_alpha   90.00000000
_cell_angle_beta   90.00000000
_cell_angle_gamma   120.00000281
_symmetry_Int_Tables_number   1
_chemical_formula_structural   LaMg14Ga
_chemical_formula_sum   'La1 Mg14 Ga1'
_cell_volume   384.52689139
_cell_formula_units_Z   1
loop_
 _symmetry_equiv_pos_site_id
 _symmetry_equiv_pos_as_xyz
  1  'x, y, z'
loop_
 _atom_site_type_symbol
 _atom_site_label
 _atom_site_symmetry_multiplicity
 _atom_site_fract_x
 _atom_site_fract_y
 _atom_site_fract_z
 _atom_site_occupancy
  La  La0  1  0.16666700  0.33333300  0.12500000  1
  Mg  Mg1  1  0.18124586  0.84062243  0.12500000  1
  Mg  Mg2  1  0.16101504  0.83050702  0.62500000  1
  Mg  Mg3  1  0.65937757  0.31875414  0.12500000  1
  Mg  Mg4  1  0.66949298  0.33898496  0.62500000  1
  Mg  Mg5  1  0.65937757  0.84062243  0.12500000  1
  Mg  Mg6  1  0.66949298  0.83050702  0.62500000  1
  Mg  Mg7  1  0.33394599  0.16605401  0.38608069  1
  Mg  Mg8  1  0.33394599  0.16605401  0.86391931  1
  Mg  Mg9  1  0.33394599  0.66789298  0.38608069  1
  Mg  Mg10  1  0.33394599  0.66789298  0.86391931  1
  Mg  Mg11  1  0.83210702  0.16605401  0.38608069  1
  Mg  Mg12  1  0.83210702  0.16605401  0.86391931  1
  Mg  Mg13  1  0.83333300  0.66666700  0.36461694  1
  Mg  Mg14  1  0.83333300  0.66666700  0.88538306  1
  Ga  Ga15  1  0.16666700  0.33333300  0.62500000  1
