# generated using pymatgen
data_Dy2Ge2O7
_symmetry_space_group_name_H-M   'P 1'
_cell_length_a   4.99722038
_cell_length_b   11.09518212
_cell_length_c   5.68545255
_cell_angle_alpha   90.00000000
_cell_angle_beta   95.82722948
_cell_angle_gamma   90.00000000
_symmetry_Int_Tables_number   1
_chemical_formula_structural   Dy2Ge2O7
_chemical_formula_sum   'Dy4 Ge4 O14'
_cell_volume   313.60138518
_cell_formula_units_Z   2
loop_
 _symmetry_equiv_pos_site_id
 _symmetry_equiv_pos_as_xyz
  1  'x, y, z'
loop_
 _atom_site_type_symbol
 _atom_site_label
 _atom_site_symmetry_multiplicity
 _atom_site_fract_x
 _atom_site_fract_y
 _atom_site_fract_z
 _atom_site_occupancy
  Dy  Dy0  1  0.11137638  0.85103346  0.90178380  1
  Dy  Dy1  1  0.11137638  0.64896654  0.40178380  1
  Dy  Dy2  1  0.88862362  0.35103346  0.59821620  1
  Dy  Dy3  1  0.88862362  0.14896654  0.09821620  1
  Ge  Ge4  1  0.35966656  0.11920930  0.65352781  1
  Ge  Ge5  1  0.35966656  0.38079070  0.15352781  1
  Ge  Ge6  1  0.64033344  0.61920930  0.84647219  1
  Ge  Ge7  1  0.64033344  0.88079070  0.34647219  1
  O  O8  1  0.11347990  0.30975639  0.95614425  1
  O  O9  1  0.11347990  0.19024361  0.45614425  1
  O  O10  1  0.20058131  0.05067909  0.88598742  1
  O  O11  1  0.20058131  0.44932091  0.38598742  1
  O  O12  1  0.37330860  0.71156496  0.72720189  1
  O  O13  1  0.37330860  0.78843504  0.22720189  1
  O  O14  1  0.50000000  0.00000000  0.50000000  1
  O  O15  1  0.50000000  0.50000000  0.00000000  1
  O  O16  1  0.62669140  0.21156496  0.77279811  1
  O  O17  1  0.62669140  0.28843504  0.27279811  1
  O  O18  1  0.79941869  0.55067909  0.61401258  1
  O  O19  1  0.79941869  0.94932091  0.11401258  1
  O  O20  1  0.88652010  0.80975639  0.54385575  1
  O  O21  1  0.88652010  0.69024361  0.04385575  1
