# generated using pymatgen
data_Ce3Th2O9
_symmetry_space_group_name_H-M   'P 1'
_cell_length_a   3.92722065
_cell_length_b   6.86401672
_cell_length_c   8.84362828
_cell_angle_alpha   74.98087082
_cell_angle_beta   102.79611364
_cell_angle_gamma   106.66268249
_symmetry_Int_Tables_number   1
_chemical_formula_structural   Ce3Th2O9
_chemical_formula_sum   'Ce3 Th2 O9'
_cell_volume   217.77306529
_cell_formula_units_Z   1
loop_
 _symmetry_equiv_pos_site_id
 _symmetry_equiv_pos_as_xyz
  1  'x, y, z'
loop_
 _atom_site_type_symbol
 _atom_site_label
 _atom_site_symmetry_multiplicity
 _atom_site_fract_x
 _atom_site_fract_y
 _atom_site_fract_z
 _atom_site_occupancy
  Ce  Ce0  1  0.99159230  0.99638084  0.98569928  1
  Ce  Ce1  1  0.81909706  0.43094610  0.20433424  1
  Ce  Ce2  1  0.60645341  0.79371572  0.41611713  1
  Th  Th3  1  0.39668329  0.19978288  0.59060713  1
  Th  Th4  1  0.19601569  0.58735458  0.80591884  1
  O  O5  1  0.18940780  0.31790679  0.05913085  1
  O  O6  1  0.41204760  0.46547709  0.35200610  1
  O  O7  1  0.79050548  0.14871497  0.42840500  1
  O  O8  1  0.02129111  0.79110885  0.24030201  1
  O  O9  1  0.20621931  0.84672011  0.56437679  1
  O  O10  1  0.99056640  0.24599937  0.73624507  1
  O  O11  1  0.59867244  0.54355671  0.65544591  1
  O  O12  1  0.79518381  0.64136320  0.95119445  1
  O  O13  1  0.40735929  0.95106079  0.86379419  1
