# generated using pymatgen
data_ZnCrH28C6N12Cl5O8
_symmetry_space_group_name_H-M   'P 1'
_cell_length_a   10.73767182
_cell_length_b   11.00702517
_cell_length_c   13.41016733
_cell_angle_alpha   101.52490297
_cell_angle_beta   101.63142554
_cell_angle_gamma   108.61111448
_symmetry_Int_Tables_number   1
_chemical_formula_structural   ZnCrH28C6N12Cl5O8
_chemical_formula_sum   'Zn2 Cr2 H56 C12 N24 Cl10 O16'
_cell_volume   1410.39677699
_cell_formula_units_Z   2
loop_
 _symmetry_equiv_pos_site_id
 _symmetry_equiv_pos_as_xyz
  1  'x, y, z'
loop_
 _atom_site_type_symbol
 _atom_site_label
 _atom_site_symmetry_multiplicity
 _atom_site_fract_x
 _atom_site_fract_y
 _atom_site_fract_z
 _atom_site_occupancy
  Zn  Zn0  1  0.40652442  0.69814178  0.66957816  1
  Zn  Zn1  1  0.59347558  0.30185822  0.33042184  1
  Cr  Cr2  1  0.96005854  0.95729821  0.23790263  1
  Cr  Cr3  1  0.03994146  0.04270179  0.76209737  1
  H  H4  1  0.86948051  0.29086107  0.16416043  1
  H  H5  1  0.13051949  0.70913893  0.83583957  1
  H  H6  1  0.02253990  0.39319630  0.14566754  1
  H  H7  1  0.97746010  0.60680370  0.85433246  1
  H  H8  1  0.21747823  0.32353375  0.18210280  1
  H  H9  1  0.78252177  0.67646625  0.81789720  1
  H  H10  1  0.17908399  0.15697953  0.18680842  1
  H  H11  1  0.82091601  0.84302047  0.81319158  1
  H  H12  1  0.52362432  0.83365100  0.34992107  1
  H  H13  1  0.47637568  0.16634900  0.65007893  1
  H  H14  1  0.61959181  0.00228002  0.36602339  1
  H  H15  1  0.38040819  0.99771998  0.63397661  1
  H  H16  1  0.75649740  0.71359528  0.25023192  1
  H  H17  1  0.24350260  0.28640472  0.74976808  1
  H  H18  1  0.59828661  0.66770078  0.27547297  1
  H  H19  1  0.40171339  0.33229922  0.72452703  1
  H  H20  1  0.67195527  0.61708131  0.95767735  1
  H  H21  1  0.32804473  0.38291869  0.04232265  1
  H  H22  1  0.54940845  0.68362868  0.91489726  1
  H  H23  1  0.45059155  0.31637132  0.08510274  1
  H  H24  1  0.73088066  0.00133416  0.10364183  1
  H  H25  1  0.26911934  0.99866584  0.89635817  1
  H  H26  1  0.58263863  0.90199225  0.99807797  1
  H  H27  1  0.41736137  0.09800775  0.00192203  1
  H  H28  1  0.95838047  0.72609475  0.08168399  1
  H  H29  1  0.04161953  0.27390525  0.91831601  1
  H  H30  1  0.08943420  0.66200991  0.07550511  1
  H  H31  1  0.91056580  0.33799009  0.92449489  1
  H  H32  1  0.31595470  0.81615170  0.12473965  1
  H  H33  1  0.68404530  0.18384830  0.87526035  1
  H  H34  1  0.35299103  0.97782073  0.20209579  1
  H  H35  1  0.64700897  0.02217927  0.79790421  1
  H  H36  1  0.09304523  0.60655684  0.37622830  1
  H  H37  1  0.90695477  0.39344316  0.62377170  1
  H  H38  1  0.93785646  0.57539214  0.27965532  1
  H  H39  1  0.06214354  0.42460786  0.72034468  1
  H  H40  1  0.27080443  0.82399148  0.40281825  1
  H  H41  1  0.72919557  0.17600852  0.59718175  1
  H  H42  1  0.21455025  0.95587686  0.39292909  1
  H  H43  1  0.78544975  0.04412314  0.60707091  1
  H  H44  1  0.32979131  0.25971510  0.45634016  1
  H  H45  1  0.67020869  0.74028490  0.54365984  1
  H  H46  1  0.27400541  0.38128190  0.51803246  1
  H  H47  1  0.72599459  0.61871810  0.48196754  1
  H  H48  1  0.03009257  0.33249289  0.46837433  1
  H  H49  1  0.96990743  0.66750711  0.53162567  1
  H  H50  1  0.92085038  0.16795891  0.39446385  1
  H  H51  1  0.07914962  0.83204109  0.60553615  1
  H  H52  1  0.37724257  0.62504206  0.37411108  1
  H  H53  1  0.62275743  0.37495794  0.62588892  1
  H  H54  1  0.31382912  0.63182986  0.26106906  1
  H  H55  1  0.68617088  0.36817014  0.73893094  1
  H  H56  1  0.73019652  0.40729928  0.15324098  1
  H  H57  1  0.26980348  0.59270072  0.84675902  1
  H  H58  1  0.77689781  0.49495080  0.07913037  1
  H  H59  1  0.22310219  0.50504920  0.92086963  1
  C  C60  1  0.01778343  0.21546181  0.17599563  1
  C  C61  1  0.98221657  0.78453819  0.82400437  1
  C  C62  1  0.70240727  0.87043119  0.30557974  1
  C  C63  1  0.29759273  0.12956881  0.69442026  1
  C  C64  1  0.71291894  0.80881750  0.04332230  1
  C  C65  1  0.28708106  0.19118250  0.95667770  1
  C  C66  1  0.15065786  0.86548071  0.13699371  1
  C  C67  1  0.84934214  0.13451929  0.86300629  1
  C  C68  1  0.06442069  0.76994453  0.33766275  1
  C  C69  1  0.93557931  0.23005547  0.66233725  1
  C  C70  1  0.12369458  0.20175194  0.42297301  1
  C  C71  1  0.87630542  0.79824806  0.57702699  1
  N  N72  1  0.97000623  0.31288478  0.16773010  1
  N  N73  1  0.02999377  0.68711522  0.83226990  1
  N  N74  1  0.14850795  0.23469404  0.18105121  1
  N  N75  1  0.85149205  0.76530596  0.81894879  1
  N  N76  1  0.61024313  0.90516342  0.34613172  1
  N  N77  1  0.38975687  0.09483658  0.65386828  1
  N  N78  1  0.67882196  0.74053334  0.26655735  1
  N  N79  1  0.32117804  0.25946666  0.73344265  1
  N  N80  1  0.63560768  0.69252986  0.96856944  1
  N  N81  1  0.36439232  0.30747014  0.03143056  1
  N  N82  1  0.66809762  0.91001026  0.05231486  1
  N  N83  1  0.33190238  0.08998974  0.94768514  1
  N  N84  1  0.05922812  0.74187148  0.08915344  1
  N  N85  1  0.94077188  0.25812852  0.91084656  1
  N  N86  1  0.28502675  0.89333513  0.14517333  1
  N  N87  1  0.71497325  0.10666487  0.85482667  1
  N  N88  1  0.03103603  0.63974966  0.33059887  1
  N  N89  1  0.96896397  0.36025034  0.66940113  1
  N  N90  1  0.19249026  0.85771833  0.38907305  1
  N  N91  1  0.80750974  0.14228167  0.61092695  1
  N  N92  1  0.25267116  0.28615530  0.47480767  1
  N  N93  1  0.74732884  0.71384470  0.52519233  1
  N  N94  1  0.01726662  0.23777493  0.43022768  1
  N  N95  1  0.98273338  0.76222507  0.56977232  1
  Cl  Cl96  1  0.78339579  0.46879453  0.90788884  1
  Cl  Cl97  1  0.21660421  0.53120547  0.09211116  1
  Cl  Cl98  1  0.19294565  0.57752776  0.55450075  1
  Cl  Cl99  1  0.80705435  0.42247224  0.44549925  1
  Cl  Cl100  1  0.51648229  0.55421063  0.69122188  1
  Cl  Cl101  1  0.48351771  0.44578937  0.30877812  1
  Cl  Cl102  1  0.52396671  0.85924591  0.60287988  1
  Cl  Cl103  1  0.47603329  0.14075409  0.39712012  1
  Cl  Cl104  1  0.38991555  0.80441939  0.83367170  1
  Cl  Cl105  1  0.61008445  0.19558061  0.16632830  1
  O  O106  1  0.93346484  0.10425243  0.18000438  1
  O  O107  1  0.06653516  0.89574757  0.81999562  1
  O  O108  1  0.81035610  0.96476283  0.30406229  1
  O  O109  1  0.18964390  0.03523717  0.69593771  1
  O  O110  1  0.82619858  0.81765445  0.10457236  1
  O  O111  1  0.17380142  0.18234555  0.89542764  1
  O  O112  1  0.11521051  0.96298119  0.17335627  1
  O  O113  1  0.88478949  0.03701881  0.82664373  1
  O  O114  1  0.96860963  0.80595251  0.29471970  1
  O  O115  1  0.03139037  0.19404749  0.70528030  1
  O  O116  1  0.10614943  0.08437889  0.36752800  1
  O  O117  1  0.89385057  0.91562111  0.63247200  1
  O  O118  1  0.35568204  0.68624347  0.33633324  1
  O  O119  1  0.64431796  0.31375653  0.66366676  1
  O  O120  1  0.78566217  0.49792236  0.15431865  1
  O  O121  1  0.21433783  0.50207764  0.84568135  1
