# generated using pymatgen
data_Ca2SiB2O7
_symmetry_space_group_name_H-M   'P 1'
_cell_length_a   4.85921674
_cell_length_b   7.16454980
_cell_length_c   7.16454980
_cell_angle_alpha   90.00000000
_cell_angle_beta   90.00000000
_cell_angle_gamma   90.00000000
_symmetry_Int_Tables_number   1
_chemical_formula_structural   Ca2SiB2O7
_chemical_formula_sum   'Ca4 Si2 B4 O14'
_cell_volume   249.42735550
_cell_formula_units_Z   2
loop_
 _symmetry_equiv_pos_site_id
 _symmetry_equiv_pos_as_xyz
  1  'x, y, z'
loop_
 _atom_site_type_symbol
 _atom_site_label
 _atom_site_symmetry_multiplicity
 _atom_site_fract_x
 _atom_site_fract_y
 _atom_site_fract_z
 _atom_site_occupancy
  Ca  Ca0  1  0.50906036  0.33948862  0.16051138  1
  Ca  Ca1  1  0.49093964  0.16051138  0.66051138  1
  Ca  Ca2  1  0.50906036  0.66051138  0.83948862  1
  Ca  Ca3  1  0.49093964  0.83948862  0.33948862  1
  Si  Si4  1  0.00000000  0.50000000  0.50000000  1
  Si  Si5  1  0.00000000  0.00000000  -0.00000000  1
  B  B6  1  0.96157673  0.13313546  0.36686454  1
  B  B7  1  0.03842327  0.36686454  0.86686454  1
  B  B8  1  0.96157673  0.86686454  0.63313546  1
  B  B9  1  0.03842327  0.63313546  0.13313546  1
  O  O10  1  0.15807268  0.50000000  -0.00000000  1
  O  O11  1  0.84192732  -0.00000000  0.50000000  1
  O  O12  1  0.24773273  0.14480165  0.35519835  1
  O  O13  1  0.75226727  0.35519835  0.85519835  1
  O  O14  1  0.24773273  0.85519835  0.64480165  1
  O  O15  1  0.75226727  0.64480165  0.14480165  1
  O  O16  1  0.81244187  0.32375357  0.42100482  1
  O  O17  1  0.18755813  0.17624643  0.92100482  1
  O  O18  1  0.81244187  0.67624643  0.57899518  1
  O  O19  1  0.18755813  0.82375357  0.07899518  1
  O  O20  1  0.18755813  0.57899518  0.32375357  1
  O  O21  1  0.81244187  0.92100482  0.82375357  1
  O  O22  1  0.18755813  0.42100482  0.67624643  1
  O  O23  1  0.81244187  0.07899518  0.17624643  1
