# generated using pymatgen
data_Cu6OF11
_symmetry_space_group_name_H-M   'P 1'
_cell_length_a   5.43483819
_cell_length_b   4.64432659
_cell_length_c   8.45641739
_cell_angle_alpha   91.67659259
_cell_angle_beta   92.82258192
_cell_angle_gamma   89.39393930
_symmetry_Int_Tables_number   1
_chemical_formula_structural   Cu6OF11
_chemical_formula_sum   'Cu6 O1 F11'
_cell_volume   213.09066618
_cell_formula_units_Z   1
loop_
 _symmetry_equiv_pos_site_id
 _symmetry_equiv_pos_as_xyz
  1  'x, y, z'
loop_
 _atom_site_type_symbol
 _atom_site_label
 _atom_site_symmetry_multiplicity
 _atom_site_fract_x
 _atom_site_fract_y
 _atom_site_fract_z
 _atom_site_occupancy
  Cu  Cu0  1  0.99910148  0.00287642  0.99879599  1
  Cu  Cu1  1  0.49908125  0.52295746  0.01856613  1
  Cu  Cu2  1  0.34253849  0.98766817  0.32583511  1
  Cu  Cu3  1  0.81796937  0.51162335  0.33056170  1
  Cu  Cu4  1  0.16879085  0.49544549  0.66482973  1
  Cu  Cu5  1  0.66601648  0.99882360  0.66929480  1
  O  O6  1  0.54154722  0.69978369  0.23908368  1
  F  F7  1  0.29046565  0.20238255  0.08489311  1
  F  F8  1  0.04762632  0.79288202  0.24700675  1
  F  F9  1  0.79739650  0.29968847  0.09304093  1
  F  F10  1  0.12362720  0.29129472  0.41575075  1
  F  F11  1  0.62168066  0.19496190  0.41933098  1
  F  F12  1  0.37489735  0.79537425  0.58247515  1
  F  F13  1  0.87313365  0.69667590  0.57325069  1
  F  F14  1  0.46151034  0.30373996  0.76351573  1
  F  F15  1  0.20539958  0.70200326  0.91007957  1
  F  F16  1  0.96053851  0.20273988  0.75370825  1
  F  F17  1  0.70867910  0.79907789  0.90997895  1
