# generated using pymatgen
data_Sc2Ge2O7
_symmetry_space_group_name_H-M   'P 1'
_cell_length_a   6.87273265
_cell_length_b   6.87273304
_cell_length_c   6.87273552
_cell_angle_alpha   59.99996188
_cell_angle_beta   60.00001705
_cell_angle_gamma   60.00001480
_symmetry_Int_Tables_number   1
_chemical_formula_structural   Sc2Ge2O7
_chemical_formula_sum   'Sc4 Ge4 O14'
_cell_volume   229.54801329
_cell_formula_units_Z   2
loop_
 _symmetry_equiv_pos_site_id
 _symmetry_equiv_pos_as_xyz
  1  'x, y, z'
loop_
 _atom_site_type_symbol
 _atom_site_label
 _atom_site_symmetry_multiplicity
 _atom_site_fract_x
 _atom_site_fract_y
 _atom_site_fract_z
 _atom_site_occupancy
  Sc  Sc0  1  0.00000228  0.00000065  0.99999985  1
  Sc  Sc1  1  0.50000056  -0.00000155  -0.00000198  1
  Sc  Sc2  1  0.00000410  0.49999969  0.99999934  1
  Sc  Sc3  1  0.99999209  0.00000269  0.50000306  1
  Ge  Ge4  1  0.49999998  0.99999970  0.49999922  1
  Ge  Ge5  1  0.50000037  0.49999932  0.00000015  1
  Ge  Ge6  1  0.99999981  0.49999986  0.50000021  1
  Ge  Ge7  1  0.49999971  0.50000083  0.49999989  1
  O  O8  1  0.12500015  0.12499998  0.12499986  1
  O  O9  1  0.58334511  0.16665508  0.16665498  1
  O  O10  1  0.58334535  0.16665476  0.58334506  1
  O  O11  1  0.16665505  0.16665540  0.58334431  1
  O  O12  1  0.16665527  0.58334488  0.16665475  1
  O  O13  1  0.58334484  0.58334481  0.16665500  1
  O  O14  1  0.83334465  0.41665547  0.41665583  1
  O  O15  1  0.16665508  0.58334430  0.58334479  1
  O  O16  1  0.41665532  0.83334468  0.41665509  1
  O  O17  1  0.41665505  0.41665578  0.83334499  1
  O  O18  1  0.83334509  0.83334435  0.41665519  1
  O  O19  1  0.83334517  0.41665496  0.83334505  1
  O  O20  1  0.41665483  0.83334484  0.83334531  1
  O  O21  1  0.87500014  0.87499951  0.87500003  1
