# generated using pymatgen
data_UCd3O6
_symmetry_space_group_name_H-M   'P 1'
_cell_length_a   5.70779457
_cell_length_b   5.83041790
_cell_length_c   8.46601199
_cell_angle_alpha   90.00000000
_cell_angle_beta   89.08365345
_cell_angle_gamma   90.00000000
_symmetry_Int_Tables_number   1
_chemical_formula_structural   UCd3O6
_chemical_formula_sum   'U2 Cd6 O12'
_cell_volume   281.70292221
_cell_formula_units_Z   2
loop_
 _symmetry_equiv_pos_site_id
 _symmetry_equiv_pos_as_xyz
  1  'x, y, z'
loop_
 _atom_site_type_symbol
 _atom_site_label
 _atom_site_symmetry_multiplicity
 _atom_site_fract_x
 _atom_site_fract_y
 _atom_site_fract_z
 _atom_site_occupancy
  U  U0  1  0.00000000  0.00000000  0.00000000  1
  U  U1  1  0.50000000  0.50000000  0.50000000  1
  Cd  Cd2  1  0.00000000  0.00000000  0.50000000  1
  Cd  Cd3  1  0.00149093  0.54198946  0.74759837  1
  Cd  Cd4  1  0.49850907  0.04198946  0.75240163  1
  Cd  Cd5  1  0.50000000  0.50000000  0.00000000  1
  Cd  Cd6  1  0.50149093  0.95801054  0.24759837  1
  Cd  Cd7  1  0.99850907  0.45801054  0.25240163  1
  O  O8  1  0.12180290  0.08417690  0.23526541  1
  O  O9  1  0.16125810  0.29919212  0.92295462  1
  O  O10  1  0.19481420  0.32689902  0.55939169  1
  O  O11  1  0.30518580  0.82689902  0.94060831  1
  O  O12  1  0.33874190  0.79919212  0.57704538  1
  O  O13  1  0.37819710  0.58417690  0.26473459  1
  O  O14  1  0.62180290  0.41582310  0.73526541  1
  O  O15  1  0.66125810  0.20080788  0.42295462  1
  O  O16  1  0.69481420  0.17310098  0.05939169  1
  O  O17  1  0.80518580  0.67310098  0.44060831  1
  O  O18  1  0.83874190  0.70080788  0.07704538  1
  O  O19  1  0.87819710  0.91582310  0.76473459  1
