# generated using pymatgen
data_LaMg14Si
_symmetry_space_group_name_H-M   'P 1'
_cell_length_a   6.53395510
_cell_length_b   6.33063293
_cell_length_c   10.33082728
_cell_angle_alpha   90.00000000
_cell_angle_beta   90.00000000
_cell_angle_gamma   118.97586755
_symmetry_Int_Tables_number   1
_chemical_formula_structural   LaMg14Si
_chemical_formula_sum   'La1 Mg14 Si1'
_cell_volume   373.83415851
_cell_formula_units_Z   1
loop_
 _symmetry_equiv_pos_site_id
 _symmetry_equiv_pos_as_xyz
  1  'x, y, z'
loop_
 _atom_site_type_symbol
 _atom_site_label
 _atom_site_symmetry_multiplicity
 _atom_site_fract_x
 _atom_site_fract_y
 _atom_site_fract_z
 _atom_site_occupancy
  La  La0  1  0.15350514  0.32675207  0.12500000  1
  Mg  Mg1  1  0.16610429  0.33305165  0.62500000  1
  Mg  Mg2  1  0.16003510  0.83001705  0.62500000  1
  Mg  Mg3  1  0.64991038  0.31596830  0.12500000  1
  Mg  Mg4  1  0.66558136  0.33716196  0.62500000  1
  Mg  Mg5  1  0.64991038  0.83394108  0.12500000  1
  Mg  Mg6  1  0.66558136  0.82841840  0.62500000  1
  Mg  Mg7  1  0.33725414  0.16205234  0.38105161  1
  Mg  Mg8  1  0.33725414  0.16205234  0.86894839  1
  Mg  Mg9  1  0.33725414  0.67520280  0.38105161  1
  Mg  Mg10  1  0.33725414  0.67520280  0.86894839  1
  Mg  Mg11  1  0.82879716  0.16439908  0.38670539  1
  Mg  Mg12  1  0.82879716  0.16439908  0.86329461  1
  Mg  Mg13  1  0.84585762  0.67292931  0.36043383  1
  Mg  Mg14  1  0.84585762  0.67292931  0.88956617  1
  Si  Si15  1  0.19104587  0.84552243  0.12500000  1
