# generated using pymatgen
data_LaMgI5
_symmetry_space_group_name_H-M   'P 1'
_cell_length_a   4.36142872
_cell_length_b   7.87756141
_cell_length_c   17.47629846
_cell_angle_alpha   90.00000000
_cell_angle_beta   90.00000000
_cell_angle_gamma   106.07086557
_symmetry_Int_Tables_number   1
_chemical_formula_structural   LaMgI5
_chemical_formula_sum   'La2 Mg2 I10'
_cell_volume   576.97537889
_cell_formula_units_Z   2
loop_
 _symmetry_equiv_pos_site_id
 _symmetry_equiv_pos_as_xyz
  1  'x, y, z'
loop_
 _atom_site_type_symbol
 _atom_site_label
 _atom_site_symmetry_multiplicity
 _atom_site_fract_x
 _atom_site_fract_y
 _atom_site_fract_z
 _atom_site_occupancy
  La  La0  1  0.48460366  0.96920732  0.25000000  1
  La  La1  1  0.51539634  0.03079268  0.75000000  1
  Mg  Mg2  1  0.00000000  0.00000000  0.00000000  1
  Mg  Mg3  1  0.00000000  0.00000000  0.50000000  1
  I  I4  1  0.09986443  0.19972785  0.14407167  1
  I  I5  1  0.09986443  0.19972785  0.35592833  1
  I  I6  1  0.39152233  0.78304366  0.06569022  1
  I  I7  1  0.16707533  0.33415066  0.75000000  1
  I  I8  1  0.39152233  0.78304366  0.43430978  1
  I  I9  1  0.60847767  0.21695634  0.56569022  1
  I  I10  1  0.60847767  0.21695634  0.93430978  1
  I  I11  1  0.83292467  0.66584934  0.25000000  1
  I  I12  1  0.90013557  0.80027215  0.64407167  1
  I  I13  1  0.90013557  0.80027215  0.85592833  1
