# generated using pymatgen
data_Li2Mg3Ti6O16
_symmetry_space_group_name_H-M   'P 1'
_cell_length_a   8.48316338
_cell_length_b   8.47816185
_cell_length_c   8.47408318
_cell_angle_alpha   90.00000000
_cell_angle_beta   90.00000000
_cell_angle_gamma   90.26197918
_symmetry_Int_Tables_number   1
_chemical_formula_structural   Li2Mg3Ti6O16
_chemical_formula_sum   'Li4 Mg6 Ti12 O32'
_cell_volume   609.46352188
_cell_formula_units_Z   2
loop_
 _symmetry_equiv_pos_site_id
 _symmetry_equiv_pos_as_xyz
  1  'x, y, z'
loop_
 _atom_site_type_symbol
 _atom_site_label
 _atom_site_symmetry_multiplicity
 _atom_site_fract_x
 _atom_site_fract_y
 _atom_site_fract_z
 _atom_site_occupancy
  Li  Li0  1  0.12395710  0.87516625  0.37561568  1
  Li  Li1  1  0.37604290  0.12483375  0.87561568  1
  Li  Li2  1  0.50177770  0.00461250  0.49766986  1
  Li  Li3  1  0.99822230  0.99538750  0.99766986  1
  Mg  Mg4  1  0.00604422  0.49837516  0.50498020  1
  Mg  Mg5  1  0.24435319  0.74977235  0.75264340  1
  Mg  Mg6  1  0.25564681  0.25022765  0.25264340  1
  Mg  Mg7  1  0.49395578  0.50162484  0.00498020  1
  Mg  Mg8  1  0.74791313  0.75778082  0.24467845  1
  Mg  Mg9  1  0.75208687  0.24221918  0.74467845  1
  Ti  Ti10  1  0.11606372  0.62516393  0.13160659  1
  Ti  Ti11  1  0.11821826  0.36403167  0.88463763  1
  Ti  Ti12  1  0.13408350  0.11735789  0.62698156  1
  Ti  Ti13  1  0.36591650  0.88264211  0.12698156  1
  Ti  Ti14  1  0.38178174  0.63596833  0.38463763  1
  Ti  Ti15  1  0.38393628  0.37483607  0.63160659  1
  Ti  Ti16  1  0.61971570  0.87343089  0.86375316  1
  Ti  Ti17  1  0.63318805  0.13177093  0.12033254  1
  Ti  Ti18  1  0.63425445  0.38077674  0.37495416  1
  Ti  Ti19  1  0.86574555  0.61922326  0.87495416  1
  Ti  Ti20  1  0.86681195  0.86822907  0.62033254  1
  Ti  Ti21  1  0.88028430  0.12656911  0.36375316  1
  O  O22  1  0.10599349  0.13087307  0.38899410  1
  O  O23  1  0.11114751  0.89539002  0.62769935  1
  O  O24  1  0.11229425  0.61158148  0.88966381  1
  O  O25  1  0.12223430  0.14501574  0.85965951  1
  O  O26  1  0.14252945  0.39172979  0.10387731  1
  O  O27  1  0.13766362  0.36095957  0.63848142  1
  O  O28  1  0.13937112  0.61999177  0.35485598  1
  O  O29  1  0.14672614  0.85762937  0.12247124  1
  O  O30  1  0.35327386  0.14237063  0.62247124  1
  O  O31  1  0.36062888  0.38000823  0.85485598  1
  O  O32  1  0.36233638  0.63904043  0.13848142  1
  O  O33  1  0.35747055  0.60827021  0.60387731  1
  O  O34  1  0.37776570  0.85498426  0.35965951  1
  O  O35  1  0.38770575  0.38841852  0.38966381  1
  O  O36  1  0.38885249  0.10460998  0.12769935  1
  O  O37  1  0.39400651  0.86912693  0.88899410  1
  O  O38  1  0.60332541  0.35953586  0.60772907  1
  O  O39  1  0.60923959  0.60427852  0.35730985  1
  O  O40  1  0.61007922  0.89020755  0.11217605  1
  O  O41  1  0.60743940  0.35212781  0.14235407  1
  O  O42  1  0.62810512  0.11066376  0.89420108  1
  O  O43  1  0.64147135  0.13958307  0.35940058  1
  O  O44  1  0.64192459  0.88999263  0.64612856  1
  O  O45  1  0.64516679  0.64064637  0.89246878  1
  O  O46  1  0.85483321  0.35935363  0.39246878  1
  O  O47  1  0.85807541  0.11000737  0.14612856  1
  O  O48  1  0.85852865  0.86041693  0.85940058  1
  O  O49  1  0.87189488  0.88933624  0.39420108  1
  O  O50  1  0.89256060  0.64787219  0.64235407  1
  O  O51  1  0.88992078  0.10979245  0.61217605  1
  O  O52  1  0.89076041  0.39572148  0.85730985  1
  O  O53  1  0.89667459  0.64046414  0.10772907  1
