# generated using pymatgen
data_Bi12AsO20
_symmetry_space_group_name_H-M   'P 1'
_cell_length_a   8.98974213
_cell_length_b   8.98974213
_cell_length_c   8.98974213
_cell_angle_alpha   109.47122063
_cell_angle_beta   109.47122063
_cell_angle_gamma   109.47122063
_symmetry_Int_Tables_number   1
_chemical_formula_structural   Bi12AsO20
_chemical_formula_sum   'Bi12 As1 O20'
_cell_volume   559.26779586
_cell_formula_units_Z   1
loop_
 _symmetry_equiv_pos_site_id
 _symmetry_equiv_pos_as_xyz
  1  'x, y, z'
loop_
 _atom_site_type_symbol
 _atom_site_label
 _atom_site_symmetry_multiplicity
 _atom_site_fract_x
 _atom_site_fract_y
 _atom_site_fract_z
 _atom_site_occupancy
  Bi  Bi0  1  0.80190318  0.14772048  0.30232535  1
  Bi  Bi1  1  0.85227952  0.65418270  0.15460486  1
  Bi  Bi2  1  0.50042217  0.34581730  0.19809682  1
  Bi  Bi3  1  0.65418270  0.15460486  0.85227952  1
  Bi  Bi4  1  0.34581730  0.19809682  0.50042217  1
  Bi  Bi5  1  0.84539514  0.49957783  0.69767465  1
  Bi  Bi6  1  0.19809682  0.50042217  0.34581730  1
  Bi  Bi7  1  0.30232535  0.80190318  0.14772048  1
  Bi  Bi8  1  0.69767465  0.84539514  0.49957783  1
  Bi  Bi9  1  0.14772048  0.30232535  0.80190318  1
  Bi  Bi10  1  0.49957783  0.69767465  0.84539514  1
  Bi  Bi11  1  0.15460486  0.85227952  0.65418270  1
  As  As12  1  0.00000000  0.00000000  0.00000000  1
  O  O13  1  0.60563979  0.00000000  0.00000000  1
  O  O14  1  0.75636700  0.37590950  0.11623537  1
  O  O15  1  0.19327721  0.00000000  0.00000000  1
  O  O16  1  0.61954250  0.24363300  0.35986837  1
  O  O17  1  0.88376463  0.25967413  0.64013163  1
  O  O18  1  0.00000000  0.19327721  0.00000000  1
  O  O19  1  0.00000000  0.00000000  0.19327721  1
  O  O20  1  0.74032587  0.62409050  0.38045750  1
  O  O21  1  0.39436021  0.39436021  0.39436021  1
  O  O22  1  0.62409050  0.38045750  0.74032587  1
  O  O23  1  0.37590950  0.11623537  0.75636700  1
  O  O24  1  0.35986837  0.61954250  0.24363300  1
  O  O25  1  0.64013163  0.88376463  0.25967413  1
  O  O26  1  0.00000000  0.00000000  0.60563979  1
  O  O27  1  0.00000000  0.60563979  0.00000000  1
  O  O28  1  0.24363300  0.35986837  0.61954250  1
  O  O29  1  0.80672279  0.80672279  0.80672279  1
  O  O30  1  0.38045750  0.74032587  0.62409050  1
  O  O31  1  0.11623537  0.75636700  0.37590950  1
  O  O32  1  0.25967413  0.64013163  0.88376463  1
