# generated using pymatgen
data_NdInO3
_symmetry_space_group_name_H-M   'P 1'
_cell_length_a   6.00380785
_cell_length_b   8.24042082
_cell_length_c   5.68167575
_cell_angle_alpha   90.00000000
_cell_angle_beta   90.00000000
_cell_angle_gamma   90.00000000
_symmetry_Int_Tables_number   1
_chemical_formula_structural   NdInO3
_chemical_formula_sum   'Nd4 In4 O12'
_cell_volume   281.09467611
_cell_formula_units_Z   4
loop_
 _symmetry_equiv_pos_site_id
 _symmetry_equiv_pos_as_xyz
  1  'x, y, z'
loop_
 _atom_site_type_symbol
 _atom_site_label
 _atom_site_symmetry_multiplicity
 _atom_site_fract_x
 _atom_site_fract_y
 _atom_site_fract_z
 _atom_site_occupancy
  Nd  Nd0  1  0.06283286  0.25000000  0.98224921  1
  Nd  Nd1  1  0.43716714  0.75000000  0.48224921  1
  Nd  Nd2  1  0.56283286  0.25000000  0.51775079  1
  Nd  Nd3  1  0.93716714  0.75000000  0.01775079  1
  In  In4  1  0.00000000  0.00000000  0.50000000  1
  In  In5  1  0.00000000  0.50000000  0.50000000  1
  In  In6  1  0.50000000  0.00000000  0.00000000  1
  In  In7  1  0.50000000  0.50000000  0.00000000  1
  O  O8  1  0.05799708  0.75000000  0.62689378  1
  O  O9  1  0.19059042  0.56399118  0.18742882  1
  O  O10  1  0.19059042  0.93600882  0.18742882  1
  O  O11  1  0.30940958  0.06399118  0.68742882  1
  O  O12  1  0.30940958  0.43600882  0.68742882  1
  O  O13  1  0.44200292  0.25000000  0.12689378  1
  O  O14  1  0.55799708  0.75000000  0.87310622  1
  O  O15  1  0.69059042  0.93600882  0.31257118  1
  O  O16  1  0.69059042  0.56399118  0.31257118  1
  O  O17  1  0.80940958  0.06399118  0.81257118  1
  O  O18  1  0.80940958  0.43600882  0.81257118  1
  O  O19  1  0.94200292  0.25000000  0.37310622  1
