# generated using pymatgen
data_HfPbO3
_symmetry_space_group_name_H-M   'P 1'
_cell_length_a   5.83668910
_cell_length_b   8.27872997
_cell_length_c   5.80999872
_cell_angle_alpha   89.99533729
_cell_angle_beta   89.99810750
_cell_angle_gamma   90.01145576
_symmetry_Int_Tables_number   1
_chemical_formula_structural   HfPbO3
_chemical_formula_sum   'Hf4 Pb4 O12'
_cell_volume   280.74129818
_cell_formula_units_Z   4
loop_
 _symmetry_equiv_pos_site_id
 _symmetry_equiv_pos_as_xyz
  1  'x, y, z'
loop_
 _atom_site_type_symbol
 _atom_site_label
 _atom_site_symmetry_multiplicity
 _atom_site_fract_x
 _atom_site_fract_y
 _atom_site_fract_z
 _atom_site_occupancy
  Hf  Hf0  1  0.00024798  0.99998231  0.49982903  1
  Hf  Hf1  1  0.00017427  0.49999793  0.49992264  1
  Hf  Hf2  1  0.49976563  0.00001005  0.00016746  1
  Hf  Hf3  1  0.49978525  0.49995889  0.00001686  1
  Pb  Pb4  1  0.01827419  0.25002093  0.99859274  1
  Pb  Pb5  1  0.48177035  0.74980439  0.49861117  1
  Pb  Pb6  1  0.51825656  0.24991372  0.50124918  1
  Pb  Pb7  1  0.98170063  0.75016220  0.00119209  1
  O  O8  1  0.00918438  0.75002926  0.55947201  1
  O  O9  1  0.21316194  0.52968610  0.21278352  1
  O  O10  1  0.21312726  0.97039740  0.21277555  1
  O  O11  1  0.28695085  0.47037448  0.71278593  1
  O  O12  1  0.28672774  0.02968992  0.71275929  1
  O  O13  1  0.49082868  0.25002043  0.05941504  1
  O  O14  1  0.50935074  0.74997433  0.94069763  1
  O  O15  1  0.71298286  0.52964747  0.28724091  1
  O  O16  1  0.71304395  0.97036832  0.28720988  1
  O  O17  1  0.78701261  0.02960630  0.78731497  1
  O  O18  1  0.78693368  0.47039527  0.78723252  1
  O  O19  1  0.99072044  0.24996029  0.44073158  1
