# generated using pymatgen
data_Rb3ClO
_symmetry_space_group_name_H-M   'P 1'
_cell_length_a   7.71887197
_cell_length_b   7.73794873
_cell_length_c   10.95886211
_cell_angle_alpha   90.00000000
_cell_angle_beta   90.00000000
_cell_angle_gamma   90.00000000
_symmetry_Int_Tables_number   1
_chemical_formula_structural   Rb3ClO
_chemical_formula_sum   'Rb12 Cl4 O4'
_cell_volume   654.55349755
_cell_formula_units_Z   4
loop_
 _symmetry_equiv_pos_site_id
 _symmetry_equiv_pos_as_xyz
  1  'x, y, z'
loop_
 _atom_site_type_symbol
 _atom_site_label
 _atom_site_symmetry_multiplicity
 _atom_site_fract_x
 _atom_site_fract_y
 _atom_site_fract_z
 _atom_site_occupancy
  Rb  Rb0  1  0.07249980  0.47756018  0.25000000  1
  Rb  Rb1  1  0.20053229  0.20062431  0.53483037  1
  Rb  Rb2  1  0.20053229  0.20062431  0.96516963  1
  Rb  Rb3  1  0.29946771  0.70062431  0.96516963  1
  Rb  Rb4  1  0.29946771  0.70062431  0.53483037  1
  Rb  Rb5  1  0.42750020  0.97756018  0.25000000  1
  Rb  Rb6  1  0.57249980  0.02243982  0.75000000  1
  Rb  Rb7  1  0.70053229  0.29937569  0.03483037  1
  Rb  Rb8  1  0.70053229  0.29937569  0.46516963  1
  Rb  Rb9  1  0.79946771  0.79937569  0.03483037  1
  Rb  Rb10  1  0.79946771  0.79937569  0.46516963  1
  Rb  Rb11  1  0.92750020  0.52243982  0.75000000  1
  Cl  Cl12  1  0.99739251  0.03377776  0.25000000  1
  Cl  Cl13  1  0.50260749  0.53377776  0.25000000  1
  Cl  Cl14  1  0.49739251  0.46622224  0.75000000  1
  Cl  Cl15  1  0.00260749  0.96622224  0.75000000  1
  O  O16  1  0.00000000  0.50000000  0.00000000  1
  O  O17  1  0.00000000  0.50000000  0.50000000  1
  O  O18  1  0.50000000  0.00000000  0.00000000  1
  O  O19  1  0.50000000  0.00000000  0.50000000  1
