# generated using pymatgen
data_Li2Cr2Si4O11
_symmetry_space_group_name_H-M   'P 1'
_cell_length_a   8.82306360
_cell_length_b   7.81068939
_cell_length_c   7.14359314
_cell_angle_alpha   108.58205418
_cell_angle_beta   102.45250175
_cell_angle_gamma   97.90029058
_symmetry_Int_Tables_number   1
_chemical_formula_structural   Li2Cr2Si4O11
_chemical_formula_sum   'Li4 Cr4 Si8 O22'
_cell_volume   444.20629709
_cell_formula_units_Z   2
loop_
 _symmetry_equiv_pos_site_id
 _symmetry_equiv_pos_as_xyz
  1  'x, y, z'
loop_
 _atom_site_type_symbol
 _atom_site_label
 _atom_site_symmetry_multiplicity
 _atom_site_fract_x
 _atom_site_fract_y
 _atom_site_fract_z
 _atom_site_occupancy
  Li  Li0  1  0.19908266  0.79294340  0.61635657  1
  Li  Li1  1  0.15458949  0.74672077  0.14955143  1
  Li  Li2  1  0.84541051  0.25327923  0.85044857  1
  Li  Li3  1  0.80091734  0.20705660  0.38364343  1
  Cr  Cr4  1  0.38674280  0.61885845  0.87929473  1
  Cr  Cr5  1  0.39882780  0.61213015  0.36442273  1
  Cr  Cr6  1  0.60117220  0.38786985  0.63557727  1
  Cr  Cr7  1  0.61325720  0.38114155  0.12070527  1
  Si  Si8  1  0.03514502  0.38601702  0.24266201  1
  Si  Si9  1  0.23188690  0.21846536  0.95706579  1
  Si  Si10  1  0.22107475  0.21686374  0.52275480  1
  Si  Si11  1  0.60092556  0.97477797  0.77308613  1
  Si  Si12  1  0.39907444  0.02522203  0.22691387  1
  Si  Si13  1  0.77892525  0.78313626  0.47724520  1
  Si  Si14  1  0.76811310  0.78153464  0.04293421  1
  Si  Si15  1  0.96485498  0.61398298  0.75733799  1
  O  O16  1  0.15092006  0.62008546  0.81569177  1
  O  O17  1  0.06124838  0.26353488  0.39734929  1
  O  O18  1  0.15578146  0.58901219  0.32744115  1
  O  O19  1  0.06724783  0.25582585  0.02194037  1
  O  O20  1  0.17966595  0.14868799  0.70463182  1
  O  O21  1  0.26718322  0.03701483  0.36794736  1
  O  O22  1  0.43960727  0.81432661  0.65524595  1
  O  O23  1  0.36543500  0.39794755  0.60611293  1
  O  O24  1  0.41287185  0.81203010  0.16530212  1
  O  O25  1  0.29316103  0.04794319  0.01444101  1
  O  O26  1  0.37236040  0.40458552  0.07568558  1
  O  O27  1  0.62763960  0.59541448  0.92431442  1
  O  O28  1  0.70683897  0.95205681  0.98555899  1
  O  O29  1  0.58712815  0.18796990  0.83469788  1
  O  O30  1  0.63456500  0.60205245  0.39388707  1
  O  O31  1  0.56039273  0.18567339  0.34475405  1
  O  O32  1  0.73281678  0.96298517  0.63205264  1
  O  O33  1  0.82033405  0.85131201  0.29536818  1
  O  O34  1  0.93275217  0.74417415  0.97805963  1
  O  O35  1  0.84421854  0.41098781  0.67255885  1
  O  O36  1  0.93875162  0.73646512  0.60265071  1
  O  O37  1  0.84907994  0.37991454  0.18430823  1
