# generated using pymatgen
data_Li4Mn3Cu(PO4)4
_symmetry_space_group_name_H-M   'P 1'
_cell_length_a   4.78720538
_cell_length_b   10.44420986
_cell_length_c   6.16439059
_cell_angle_alpha   90.00000000
_cell_angle_beta   90.00000000
_cell_angle_gamma   91.08149855
_symmetry_Int_Tables_number   1
_chemical_formula_structural   Li4Mn3Cu(PO4)4
_chemical_formula_sum   'Li4 Mn3 Cu1 P4 O16'
_cell_volume   308.15585679
_cell_formula_units_Z   1
loop_
 _symmetry_equiv_pos_site_id
 _symmetry_equiv_pos_as_xyz
  1  'x, y, z'
loop_
 _atom_site_type_symbol
 _atom_site_label
 _atom_site_symmetry_multiplicity
 _atom_site_fract_x
 _atom_site_fract_y
 _atom_site_fract_z
 _atom_site_occupancy
  Li  Li0  1  0.99759063  0.99433756  0.99903155  1
  Li  Li1  1  0.99759063  0.99433756  0.50096845  1
  Li  Li2  1  0.50101031  0.50289341  0.49988167  1
  Li  Li3  1  0.50101031  0.50289341  0.00011833  1
  Mn  Mn4  1  0.47882407  0.21793850  0.75000000  1
  Mn  Mn5  1  0.51981151  0.78057565  0.25000000  1
  Mn  Mn6  1  0.97406530  0.28046678  0.25000000  1
  Cu  Cu7  1  0.04834298  0.71347213  0.75000000  1
  P  P8  1  0.08111543  0.59371668  0.25000000  1
  P  P9  1  0.41037141  0.09328367  0.25000000  1
  P  P10  1  0.58508002  0.90102496  0.75000000  1
  P  P11  1  0.92102829  0.41178636  0.75000000  1
  O  O12  1  0.20727158  0.45761358  0.25000000  1
  O  O13  1  0.21617802  0.66618146  0.05043858  1
  O  O14  1  0.21617802  0.66618146  0.44956142  1
  O  O15  1  0.24132975  0.40674214  0.75000000  1
  O  O16  1  0.25999890  0.89381554  0.75000000  1
  O  O17  1  0.28028262  0.16314980  0.04945089  1
  O  O18  1  0.28028262  0.16314980  0.45054911  1
  O  O19  1  0.28428950  0.95526474  0.25000000  1
  O  O20  1  0.70262609  0.04152562  0.75000000  1
  O  O21  1  0.71457426  0.83635632  0.54618641  1
  O  O22  1  0.71457426  0.83635632  0.95381359  1
  O  O23  1  0.73161658  0.09773471  0.25000000  1
  O  O24  1  0.76114576  0.59303913  0.25000000  1
  O  O25  1  0.78299606  0.34233359  0.55000807  1
  O  O26  1  0.78299606  0.34233359  0.94999193  1
  O  O27  1  0.80782106  0.55149953  0.75000000  1
