# generated using pymatgen
data_LiFePO4
_symmetry_space_group_name_H-M   'P 1'
_cell_length_a   8.36550438
_cell_length_b   5.25280380
_cell_length_c   8.65547212
_cell_angle_alpha   90.00000000
_cell_angle_beta   107.20056713
_cell_angle_gamma   90.00000000
_symmetry_Int_Tables_number   1
_chemical_formula_structural   LiFePO4
_chemical_formula_sum   'Li4 Fe4 P4 O16'
_cell_volume   363.33119097
_cell_formula_units_Z   4
loop_
 _symmetry_equiv_pos_site_id
 _symmetry_equiv_pos_as_xyz
  1  'x, y, z'
loop_
 _atom_site_type_symbol
 _atom_site_label
 _atom_site_symmetry_multiplicity
 _atom_site_fract_x
 _atom_site_fract_y
 _atom_site_fract_z
 _atom_site_occupancy
  Li  Li0  1  0.10323535  0.82156800  0.98131698  1
  Li  Li1  1  0.25641452  0.31453508  0.50101893  1
  Li  Li2  1  0.60323535  0.17843200  0.98131698  1
  Li  Li3  1  0.75641452  0.68546492  0.50101893  1
  Fe  Fe4  1  0.99144781  0.67470176  0.25391321  1
  Fe  Fe5  1  0.33976889  0.81577465  0.73783932  1
  Fe  Fe6  1  0.49144781  0.32529824  0.25391321  1
  Fe  Fe7  1  0.83976889  0.18422535  0.73783932  1
  P  P8  1  0.22812457  0.31075917  0.86589201  1
  P  P9  1  0.36450825  0.81399296  0.36733776  1
  P  P10  1  0.72812457  0.68924083  0.86589201  1
  P  P11  1  0.86450825  0.18600704  0.36733776  1
  O  O12  1  0.07412552  0.17357941  0.89343411  1
  O  O13  1  0.02388318  0.31717093  0.34730216  1
  O  O14  1  0.19016928  0.59909245  0.83432466  1
  O  O15  1  0.27088227  0.19273710  0.71683310  1
  O  O16  1  0.21561009  0.76870398  0.21346236  1
  O  O17  1  0.31476463  0.68997934  0.51080290  1
  O  O18  1  0.57412552  0.82642059  0.89343411  1
  O  O19  1  0.39893169  0.10275885  0.40062894  1
  O  O20  1  0.38193396  0.26663305  0.01469255  1
  O  O21  1  0.52388318  0.68282907  0.34730216  1
  O  O22  1  0.69016928  0.40090755  0.83432466  1
  O  O23  1  0.77088227  0.80726290  0.71683310  1
  O  O24  1  0.71561009  0.23129602  0.21346236  1
  O  O25  1  0.81476463  0.31002066  0.51080290  1
  O  O26  1  0.89893169  0.89724115  0.40062894  1
  O  O27  1  0.88193396  0.73336695  0.01469255  1
