# generated using pymatgen
data_Li17Ni11O28
_symmetry_space_group_name_H-M   'P 1'
_cell_length_a   6.43919552
_cell_length_b   7.59454166
_cell_length_c   10.24893431
_cell_angle_alpha   67.88683729
_cell_angle_beta   86.81652365
_cell_angle_gamma   89.54461968
_symmetry_Int_Tables_number   1
_chemical_formula_structural   Li17Ni11O28
_chemical_formula_sum   'Li17 Ni11 O28'
_cell_volume   463.57166816
_cell_formula_units_Z   1
loop_
 _symmetry_equiv_pos_site_id
 _symmetry_equiv_pos_as_xyz
  1  'x, y, z'
loop_
 _atom_site_type_symbol
 _atom_site_label
 _atom_site_symmetry_multiplicity
 _atom_site_fract_x
 _atom_site_fract_y
 _atom_site_fract_z
 _atom_site_occupancy
  Li  Li0  1  0.59634371  0.89171222  0.93208788  1
  Li  Li1  1  0.82356447  0.67748584  0.78414321  1
  Li  Li2  1  0.11794229  0.39400178  0.92505512  1
  Li  Li3  1  0.32533427  0.18512614  0.78218660  1
  Li  Li4  1  0.53835393  0.96286696  0.63820281  1
  Li  Li5  1  0.42932857  0.56987654  0.71326650  1
  Li  Li6  1  0.03386340  0.46202993  0.64289375  1
  Li  Li7  1  0.74582059  0.75568478  0.50312373  1
  Li  Li8  1  0.25419566  0.25397509  0.49735058  1
  Li  Li9  1  0.96846541  0.53003022  0.35401927  1
  Li  Li10  1  0.85714300  0.14285700  0.42857100  1
  Li  Li11  1  0.46009034  0.03173891  0.35979242  1
  Li  Li12  1  0.68042160  0.82368507  0.21424925  1
  Li  Li13  1  0.89072153  0.60822816  0.07299979  1
  Li  Li14  1  0.28495743  0.71583746  0.14387650  1
  Li  Li15  1  0.17593107  0.32284804  0.21894019  1
  Li  Li16  1  0.38895173  0.10058786  0.07495540  1
  Ni  Ni17  1  0.21615246  0.78304420  0.85449657  1
  Ni  Ni18  1  0.71068897  0.28623746  0.85619770  1
  Ni  Ni19  1  0.92596324  0.06841835  0.71217782  1
  Ni  Ni20  1  0.14224712  0.85491514  0.57090631  1
  Ni  Ni21  1  0.64258410  0.35489893  0.57052169  1
  Ni  Ni22  1  0.35714300  0.64285700  0.42857100  1
  Ni  Ni23  1  0.07170190  0.93081507  0.28662131  1
  Ni  Ni24  1  0.57203888  0.43079886  0.28623669  1
  Ni  Ni25  1  0.78832276  0.21729565  0.14496518  1
  Ni  Ni26  1  0.49813254  0.50266980  0.00264643  1
  Ni  Ni27  1  0.00359603  0.99947654  0.00094530  1
  O  O28  1  0.93278817  0.84421423  0.88078737  1
  O  O29  1  0.28097811  0.94093810  0.95314116  1
  O  O30  1  0.78149783  0.44150077  0.97635563  1
  O  O31  1  0.43330789  0.34477590  0.90400184  1
  O  O32  1  0.50002623  0.72264423  0.83731661  1
  O  O33  1  0.72491970  0.49388996  0.68013490  1
  O  O34  1  0.62060985  0.13695313  0.73734610  1
  O  O35  1  0.13214616  0.64308142  0.74584067  1
  O  O36  1  0.99791147  0.21616453  0.82558096  1
  O  O37  1  0.86317092  0.91293430  0.60942284  1
  O  O38  1  0.23051830  0.99128682  0.67827260  1
  O  O39  1  0.42230039  0.79759534  0.53292040  1
  O  O40  1  0.92607095  0.29365844  0.54889920  1
  O  O41  1  0.36023609  0.41705293  0.59576277  1
  O  O42  1  0.66259088  0.56659712  0.39531619  1
  O  O43  1  0.05169512  0.71911688  0.46182681  1
  O  O44  1  0.56065909  0.21912499  0.45903587  1
  O  O45  1  0.78821505  0.99205556  0.30824380  1
  O  O46  1  0.85111508  0.37277970  0.24772016  1
  O  O47  1  0.15362691  0.06659001  0.39810713  1
  O  O48  1  0.98936630  0.79182504  0.17700810  1
  O  O49  1  0.35404991  0.86866207  0.26138023  1
  O  O50  1  0.29198461  0.48811866  0.32422260  1
  O  O51  1  0.48376670  0.29442818  0.17887040  1
  O  O52  1  0.58213884  0.64263258  0.11130233  1
  O  O53  1  0.09367615  0.14876187  0.11979690  1
  O  O54  1  0.71637453  0.06954947  0.03156104  1
  O  O55  1  0.21425977  0.56306977  0.01982539  1
