# generated using pymatgen
data_Sr15Pd5O24
_symmetry_space_group_name_H-M   'P 1'
_cell_length_a   6.91871366
_cell_length_b   6.91871366
_cell_length_c   13.82475929
_cell_angle_alpha   90.18374216
_cell_angle_beta   90.18374216
_cell_angle_gamma   90.15242337
_symmetry_Int_Tables_number   1
_chemical_formula_structural   Sr15Pd5O24
_chemical_formula_sum   'Sr15 Pd5 O24'
_cell_volume   661.76268797
_cell_formula_units_Z   1
loop_
 _symmetry_equiv_pos_site_id
 _symmetry_equiv_pos_as_xyz
  1  'x, y, z'
loop_
 _atom_site_type_symbol
 _atom_site_label
 _atom_site_symmetry_multiplicity
 _atom_site_fract_x
 _atom_site_fract_y
 _atom_site_fract_z
 _atom_site_occupancy
  Sr  Sr0  1  0.12026793  0.75060341  0.19128649  1
  Sr  Sr1  1  0.10772298  0.74955905  0.69508329  1
  Sr  Sr2  1  0.25070675  0.61973589  0.44185620  1
  Sr  Sr3  1  0.24931382  0.61935398  0.93868192  1
  Sr  Sr4  1  0.61773977  0.87811878  0.11958123  1
  Sr  Sr5  1  0.62188122  0.88226023  0.63041877  1
  Sr  Sr6  1  0.24946754  0.24920263  0.12524084  1
  Sr  Sr7  1  0.74934576  0.75065424  0.37500000  1
  Sr  Sr8  1  0.25079737  0.25053246  0.62475916  1
  Sr  Sr9  1  0.39085955  0.10914045  0.87500000  1
  Sr  Sr10  1  0.38168242  0.11831758  0.37500000  1
  Sr  Sr11  1  0.74939659  0.37973207  0.55871351  1
  Sr  Sr12  1  0.75044095  0.39227702  0.05491671  1
  Sr  Sr13  1  0.88026411  0.24929325  0.30814380  1
  Sr  Sr14  1  0.88064602  0.25068618  0.81131808  1
  Pd  Pd15  1  0.99890643  0.99931761  0.99904450  1
  Pd  Pd16  1  0.50068239  0.50109357  0.75095550  1
  Pd  Pd17  1  0.50012962  0.49981978  0.24951782  1
  Pd  Pd18  1  0.75116039  0.74883961  0.87500000  1
  Pd  Pd19  1  0.00018022  0.99987038  0.50048218  1
  O  O20  1  0.05811274  0.92594528  0.35680319  1
  O  O21  1  0.04825046  0.92224653  0.85771194  1
  O  O22  1  0.28379656  0.94130861  0.03606984  1
  O  O23  1  0.28639259  0.94183442  0.53693615  1
  O  O24  1  0.44140003  0.78640538  0.28591254  1
  O  O25  1  0.45186919  0.78417008  0.79013642  1
  O  O26  1  0.07229917  0.28578195  0.47060442  1
  O  O27  1  0.21421905  0.42770083  0.27939558  1
  O  O28  1  0.21569241  0.42623571  0.77890107  1
  O  O29  1  0.07376429  0.28430759  0.97109893  1
  O  O30  1  0.42454559  0.55732799  0.10697838  1
  O  O31  1  0.42921035  0.55920730  0.60774543  1
  O  O32  1  0.57405472  0.44188726  0.39319681  1
  O  O33  1  0.57775347  0.45174954  0.89228806  1
  O  O34  1  0.78343056  0.57940394  0.72876570  1
  O  O35  1  0.78717848  0.57390477  0.21884303  1
  O  O36  1  0.92609523  0.71282152  0.53115697  1
  O  O37  1  0.92059606  0.71656944  0.02123430  1
  O  O38  1  0.55816558  0.21360741  0.21306385  1
  O  O39  1  0.55869139  0.21620344  0.71393016  1
  O  O40  1  0.71582992  0.04813081  0.95986358  1
  O  O41  1  0.71359462  0.05859997  0.46408746  1
  O  O42  1  0.94267201  0.07545441  0.64302162  1
  O  O43  1  0.94079270  0.07078965  0.14225457  1
