# generated using pymatgen
data_Li2TiO3
_symmetry_space_group_name_H-M   'P 1'
_cell_length_a   5.08712433
_cell_length_b   5.03823166
_cell_length_c   7.62320871
_cell_angle_alpha   90.44468493
_cell_angle_beta   70.79906044
_cell_angle_gamma   118.11150122
_symmetry_Int_Tables_number   1
_chemical_formula_structural   Li2TiO3
_chemical_formula_sum   'Li6 Ti3 O9'
_cell_volume   160.18634810
_cell_formula_units_Z   3
loop_
 _symmetry_equiv_pos_site_id
 _symmetry_equiv_pos_as_xyz
  1  'x, y, z'
loop_
 _atom_site_type_symbol
 _atom_site_label
 _atom_site_symmetry_multiplicity
 _atom_site_fract_x
 _atom_site_fract_y
 _atom_site_fract_z
 _atom_site_occupancy
  Li  Li0  1  0.12112185  0.22412148  0.33589881  1
  Li  Li1  1  0.33934391  0.66346991  0.00127325  1
  Li  Li2  1  0.21621209  0.44764109  0.66539375  1
  Li  Li3  1  0.43443415  0.88698952  0.33076819  1
  Li  Li4  1  0.66516436  0.33828734  0.99889004  1
  Li  Li5  1  0.89039064  0.77282366  0.66777696  1
  Ti  Ti6  1  0.55772557  0.09359258  0.66671870  1
  Ti  Ti7  1  0.77777800  0.55555600  0.33333300  1
  Ti  Ti8  1  0.99783043  0.01751842  0.99994830  1
  O  O9  1  0.38014502  0.19079675  0.49284798  1
  O  O10  1  0.17541098  0.92031425  0.17381902  1
  O  O11  1  0.89444271  0.28489506  0.16048290  1
  O  O12  1  0.59376016  0.63468162  0.16373677  1
  O  O13  1  0.41796221  0.34590724  0.84151830  1
  O  O14  1  0.77777800  0.05555600  0.83333300  1
  O  O15  1  0.13759279  0.76520376  0.82514870  1
  O  O16  1  0.96179484  0.47642938  0.50292923  1
  O  O17  1  0.66111329  0.82621694  0.50618410  1
