# generated using pymatgen
data_Na3(WO3)4
_symmetry_space_group_name_H-M   'P 1'
_cell_length_a   6.83206716
_cell_length_b   6.83206716
_cell_length_c   11.15127124
_cell_angle_alpha   90.09917849
_cell_angle_beta   89.90082151
_cell_angle_gamma   109.80170733
_symmetry_Int_Tables_number   1
_chemical_formula_structural   Na3(WO3)4
_chemical_formula_sum   'Na6 W8 O24'
_cell_volume   489.73099858
_cell_formula_units_Z   2
loop_
 _symmetry_equiv_pos_site_id
 _symmetry_equiv_pos_as_xyz
  1  'x, y, z'
loop_
 _atom_site_type_symbol
 _atom_site_label
 _atom_site_symmetry_multiplicity
 _atom_site_fract_x
 _atom_site_fract_y
 _atom_site_fract_z
 _atom_site_occupancy
  Na  Na0  1  0.00060358  0.99939642  0.00192279  1
  Na  Na1  1  0.75057721  0.24942279  0.25179679  1
  Na  Na2  1  0.49941571  0.50058429  0.00175458  1
  Na  Na3  1  0.75060042  0.24939958  0.74790639  1
  Na  Na4  1  0.49950029  0.50049971  0.49807447  1
  Na  Na5  1  0.24936746  0.75063254  0.74831315  1
  W  W6  1  0.49894979  0.99884168  0.00194301  1
  W  W7  1  0.24876060  0.24881346  0.25196119  1
  W  W8  1  0.75118654  0.75123940  0.25196119  1
  W  W9  1  0.49860546  0.99873501  0.49781700  1
  W  W10  1  0.00115832  0.50105021  0.00194301  1
  W  W11  1  0.00126499  0.50139454  0.49781700  1
  W  W12  1  0.75116827  0.75082959  0.74795047  1
  W  W13  1  0.24917041  0.24883173  0.74795047  1
  O  O14  1  0.84810284  0.61594349  0.11657868  1
  O  O15  1  0.38405651  0.15189716  0.11657868  1
  O  O16  1  0.40245142  0.13671620  0.37314404  1
  O  O17  1  0.86328380  0.59754858  0.37314404  1
  O  O18  1  0.98889798  0.01110202  0.74987855  1
  O  O19  1  0.49326888  0.50673112  0.24902978  1
  O  O20  1  0.25060804  0.74939196  0.01102213  1
  O  O21  1  0.74755053  0.25244947  0.51256877  1
  O  O22  1  0.09933063  0.36457033  0.12678997  1
  O  O23  1  0.63542967  0.90066937  0.12678997  1
  O  O24  1  0.35877211  0.11709654  0.62004994  1
  O  O25  1  0.11649881  0.35799411  0.38250252  1
  O  O26  1  0.88290346  0.64122789  0.62004994  1
  O  O27  1  0.64200589  0.88350119  0.38250252  1
  O  O28  1  0.37004641  0.09933864  0.87041549  1
  O  O29  1  0.90066136  0.62995359  0.87041549  1
  O  O30  1  0.51294423  0.48705577  0.75182398  1
  O  O31  1  0.25199982  0.74800018  0.48992240  1
  O  O32  1  0.00487405  0.99512595  0.25021036  1
  O  O33  1  0.74975207  0.25024793  0.98546266  1
  O  O34  1  0.13102835  0.40233672  0.62988849  1
  O  O35  1  0.59766328  0.86897165  0.62988849  1
  O  O36  1  0.61661524  0.84907642  0.88111382  1
  O  O37  1  0.15092358  0.38338476  0.88111382  1
