# generated using pymatgen
data_Nb9AsO25
_symmetry_space_group_name_H-M   'P 1'
_cell_length_a   15.96847233
_cell_length_b   3.89214738
_cell_length_c   15.96847233
_cell_angle_alpha   90.00000000
_cell_angle_beta   90.00000000
_cell_angle_gamma   90.00000000
_symmetry_Int_Tables_number   1
_chemical_formula_structural   Nb9AsO25
_chemical_formula_sum   'Nb18 As2 O50'
_cell_volume   992.46686723
_cell_formula_units_Z   2
loop_
 _symmetry_equiv_pos_site_id
 _symmetry_equiv_pos_as_xyz
  1  'x, y, z'
loop_
 _atom_site_type_symbol
 _atom_site_label
 _atom_site_symmetry_multiplicity
 _atom_site_fract_x
 _atom_site_fract_y
 _atom_site_fract_z
 _atom_site_occupancy
  Nb  Nb0  1  0.89297117  0.99934599  0.21875847  1
  Nb  Nb1  1  0.88423086  0.00680629  0.67302359  1
  Nb  Nb2  1  0.82697641  0.49319371  0.38423086  1
  Nb  Nb3  1  0.78124153  0.99934599  0.89297117  1
  Nb  Nb4  1  0.71875847  0.50065401  0.60702883  1
  Nb  Nb5  1  0.67302359  0.00680629  0.11576914  1
  Nb  Nb6  1  0.61576914  0.49319371  0.82697641  1
  Nb  Nb7  1  0.60702883  0.50065401  0.28124153  1
  Nb  Nb8  1  0.50000000  0.46157917  0.50000000  1
  Nb  Nb9  1  0.39297117  0.50065401  0.71875847  1
  Nb  Nb10  1  0.38423086  0.49319371  0.17302359  1
  Nb  Nb11  1  0.32697641  0.00680629  0.88423086  1
  Nb  Nb12  1  0.28124153  0.50065401  0.39297117  1
  Nb  Nb13  1  0.21875847  0.99934599  0.10702883  1
  Nb  Nb14  1  0.17302359  0.49319371  0.61576914  1
  Nb  Nb15  1  0.11576914  0.00680629  0.32697641  1
  Nb  Nb16  1  0.10702883  0.99934599  0.78124153  1
  Nb  Nb17  1  0.00000000  0.03842083  0.00000000  1
  As  As18  1  0.50000000  0.75000000  0.00000000  1
  As  As19  1  0.00000000  0.75000000  0.50000000  1
  O  O20  1  0.98837467  0.99971014  0.71860795  1
  O  O21  1  0.94912274  0.51217997  0.42510320  1
  O  O22  1  0.94938212  0.00275536  0.11664902  1
  O  O23  1  0.92510320  0.98782003  0.55087726  1
  O  O24  1  0.88780003  0.49992155  0.25118196  1
  O  O25  1  0.88335098  0.00275536  0.94938212  1
  O  O26  1  0.85326638  0.49704243  0.65741433  1
  O  O27  1  0.84258567  0.00295757  0.35326638  1
  O  O28  1  0.82482579  0.99637827  0.78257529  1
  O  O29  1  0.78257529  0.99637827  0.17517421  1
  O  O30  1  0.78139205  0.50028986  0.48837467  1
  O  O31  1  0.75118196  0.00007845  0.61219997  1
  O  O32  1  0.74881804  0.49992155  0.88780003  1
  O  O33  1  0.71860795  0.99971014  0.01162533  1
  O  O34  1  0.71742471  0.50362173  0.32482579  1
  O  O35  1  0.67517421  0.50362173  0.71742471  1
  O  O36  1  0.65741433  0.49704243  0.14673362  1
  O  O37  1  0.64673362  0.00295757  0.84258567  1
  O  O38  1  0.61664902  0.49724464  0.55061788  1
  O  O39  1  0.61219997  0.00007845  0.24881804  1
  O  O40  1  0.57489680  0.51217997  0.94912274  1
  O  O41  1  0.55061788  0.49724464  0.38335098  1
  O  O42  1  0.55087726  0.98782003  0.07489680  1
  O  O43  1  0.51162533  0.50028986  0.78139205  1
  O  O44  1  0.50000000  0.99156240  0.50000000  1
  O  O45  1  0.48837467  0.50028986  0.21860795  1
  O  O46  1  0.44912274  0.98782003  0.92510320  1
  O  O47  1  0.44938212  0.49724464  0.61664902  1
  O  O48  1  0.42510320  0.51217997  0.05087726  1
  O  O49  1  0.38780003  0.00007845  0.75118196  1
  O  O50  1  0.38335098  0.49724464  0.44938212  1
  O  O51  1  0.35326638  0.00295757  0.15741433  1
  O  O52  1  0.34258567  0.49704243  0.85326638  1
  O  O53  1  0.32482579  0.50362173  0.28257529  1
  O  O54  1  0.28257529  0.50362173  0.67517421  1
  O  O55  1  0.28139205  0.99971014  0.98837467  1
  O  O56  1  0.25118196  0.49992155  0.11219997  1
  O  O57  1  0.24881804  0.00007845  0.38780003  1
  O  O58  1  0.21860795  0.50028986  0.51162533  1
  O  O59  1  0.21742471  0.99637827  0.82482579  1
  O  O60  1  0.17517421  0.99637827  0.21742471  1
  O  O61  1  0.15741433  0.00295757  0.64673362  1
  O  O62  1  0.14673362  0.49704243  0.34258567  1
  O  O63  1  0.11664902  0.00275536  0.05061788  1
  O  O64  1  0.11219997  0.49992155  0.74881804  1
  O  O65  1  0.07489680  0.98782003  0.44912274  1
  O  O66  1  0.05061788  0.00275536  0.88335098  1
  O  O67  1  0.05087726  0.51217997  0.57489680  1
  O  O68  1  0.01162533  0.99971014  0.28139205  1
  O  O69  1  0.00000000  0.50843760  0.00000000  1
