# generated using pymatgen
data_V3O5F
_symmetry_space_group_name_H-M   'P 1'
_cell_length_a   10.29778397
_cell_length_b   6.43631875
_cell_length_c   3.06615491
_cell_angle_alpha   90.00000000
_cell_angle_beta   90.00000000
_cell_angle_gamma   108.28398900
_symmetry_Int_Tables_number   1
_chemical_formula_structural   V3O5F
_chemical_formula_sum   'V6 O10 F2'
_cell_volume   192.96405305
_cell_formula_units_Z   2
loop_
 _symmetry_equiv_pos_site_id
 _symmetry_equiv_pos_as_xyz
  1  'x, y, z'
loop_
 _atom_site_type_symbol
 _atom_site_label
 _atom_site_symmetry_multiplicity
 _atom_site_fract_x
 _atom_site_fract_y
 _atom_site_fract_z
 _atom_site_occupancy
  V  V0  1  0.01656159  0.00907391  0.00000000  1
  V  V1  1  0.34229753  0.15393369  0.50000000  1
  V  V2  1  0.99838956  0.49912308  0.50000000  1
  V  V3  1  0.32179797  0.67321781  0.00000000  1
  V  V4  1  0.66959498  0.33526895  0.00000000  1
  V  V5  1  0.64385433  0.82131910  0.50000000  1
  O  O6  1  0.13471215  0.07205774  0.50000000  1
  O  O7  1  0.99777001  0.29344873  0.00000000  1
  O  O8  1  -0.00039934  0.70704747  0.00000000  1
  O  O9  1  0.66657375  0.03076536  0.00000000  1
  O  O10  1  0.18865981  0.59124929  0.50000000  1
  O  O11  1  0.54252117  0.27512766  0.50000000  1
  O  O12  1  0.46312405  0.72605123  0.50000000  1
  O  O13  1  0.80297586  0.40219173  0.50000000  1
  O  O14  1  0.33543151  0.96840688  0.00000000  1
  O  O15  1  0.66862995  0.63813028  0.00000000  1
  F  F16  1  0.33554838  0.36710197  0.00000000  1
  F  F17  1  0.87195677  0.93648611  0.50000000  1
