# generated using pymatgen
data_Li8VFe7(PO4)12
_symmetry_space_group_name_H-M   'P 1'
_cell_length_a   8.65158127
_cell_length_b   8.76392512
_cell_length_c   12.17788571
_cell_angle_alpha   90.18943784
_cell_angle_beta   90.05692498
_cell_angle_gamma   90.04113193
_symmetry_Int_Tables_number   1
_chemical_formula_structural   Li8VFe7(PO4)12
_chemical_formula_sum   'Li8 V1 Fe7 P12 O48'
_cell_volume   923.34359901
_cell_formula_units_Z   1
loop_
 _symmetry_equiv_pos_site_id
 _symmetry_equiv_pos_as_xyz
  1  'x, y, z'
loop_
 _atom_site_type_symbol
 _atom_site_label
 _atom_site_symmetry_multiplicity
 _atom_site_fract_x
 _atom_site_fract_y
 _atom_site_fract_z
 _atom_site_occupancy
  Li  Li0  1  0.21720726  0.72246269  0.18136584  1
  Li  Li1  1  0.21818278  0.77721363  0.81829158  1
  Li  Li2  1  0.28230839  0.22277882  0.31959794  1
  Li  Li3  1  0.28280426  0.27800279  0.68192886  1
  Li  Li4  1  0.71653125  0.72487676  0.31738309  1
  Li  Li5  1  0.71524418  0.78188626  0.68123848  1
  Li  Li6  1  0.78408195  0.22214924  0.18156580  1
  Li  Li7  1  0.78429635  0.27794573  0.82047153  1
  V  V8  1  0.75389449  0.46154318  0.61060370  1
  Fe  Fe9  1  0.24788833  0.95970364  0.61358143  1
  Fe  Fe10  1  0.24900392  0.54193970  0.38667337  1
  Fe  Fe11  1  0.25112548  0.04100779  0.11304779  1
  Fe  Fe12  1  0.25122942  0.45866718  0.88725339  1
  Fe  Fe13  1  0.74995527  0.54113372  0.11113297  1
  Fe  Fe14  1  0.74845015  0.96075263  0.88794584  1
  Fe  Fe15  1  0.75052096  0.03732114  0.38690198  1
  P  P16  1  0.03961504  0.24865384  0.49859414  1
  P  P17  1  0.10532628  0.39315436  0.14724339  1
  P  P18  1  0.10588456  0.10657620  0.85269674  1
  P  P19  1  0.39590924  0.60377942  0.64614429  1
  P  P20  1  0.39402076  0.89347234  0.35348718  1
  P  P21  1  0.46085144  0.74980186  0.00032291  1
  P  P22  1  0.53977324  0.25050064  0.00059457  1
  P  P23  1  0.60561426  0.39280437  0.35334614  1
  P  P24  1  0.60457926  0.10892572  0.64473895  1
  P  P25  1  0.89483648  0.60757923  0.85008727  1
  P  P26  1  0.89461106  0.89281563  0.14710347  1
  P  P27  1  0.96084431  0.74797276  0.49927737  1
  O  O28  1  0.05486445  0.63839905  0.43033938  1
  O  O29  1  0.05255415  0.85304457  0.57532795  1
  O  O30  1  0.07335387  0.89497810  0.15627110  1
  O  O31  1  0.07251233  0.60371856  0.84073451  1
  O  O32  1  0.14095293  0.16657445  0.58412773  1
  O  O33  1  0.14507438  0.34021991  0.42198077  1
  O  O34  1  0.15488436  0.43372903  0.03011042  1
  O  O35  1  0.15595572  0.06671796  0.96971863  1
  O  O36  1  0.16217915  0.23249260  0.18072612  1
  O  O37  1  0.16222606  0.26790847  0.81946896  1
  O  O38  1  0.17457809  0.51473603  0.22571139  1
  O  O39  1  0.17473755  0.98476437  0.77403742  1
  O  O40  1  0.32565004  0.01495617  0.27468538  1
  O  O41  1  0.32856582  0.48413844  0.72536318  1
  O  O42  1  0.34704448  0.76688728  0.68063462  1
  O  O43  1  0.33691474  0.73256440  0.31994265  1
  O  O44  1  0.34906710  0.56632667  0.52891930  1
  O  O45  1  0.34273943  0.93470432  0.47068411  1
  O  O46  1  0.35203745  0.83719941  0.07983369  1
  O  O47  1  0.35185705  0.66216705  0.92062918  1
  O  O48  1  0.42732823  0.11147482  0.65714509  1
  O  O49  1  0.42868730  0.39384315  0.34926857  1
  O  O50  1  0.44398458  0.14210522  0.07112888  1
  O  O51  1  0.44400015  0.35829771  0.92917768  1
  O  O52  1  0.55679759  0.64229353  0.07191148  1
  O  O53  1  0.55670973  0.85734197  0.92866730  1
  O  O54  1  0.57907899  0.59458109  0.65408388  1
  O  O55  1  0.57247462  0.89519057  0.34366212  1
  O  O56  1  0.64748563  0.33819159  0.08115749  1
  O  O57  1  0.64833054  0.16427682  0.92010898  1
  O  O58  1  0.65452979  0.06895771  0.52902216  1
  O  O59  1  0.66105249  0.43067256  0.47679144  1
  O  O60  1  0.66537502  0.23394290  0.32257320  1
  O  O61  1  0.66576137  0.27643521  0.67385580  1
  O  O62  1  0.67744650  0.51691172  0.28117939  1
  O  O63  1  0.67700385  0.99338886  0.72520689  1
  O  O64  1  0.82594467  0.01376519  0.22623016  1
  O  O65  1  0.82601957  0.48621101  0.76565299  1
  O  O66  1  0.83762247  0.73139502  0.17956911  1
  O  O67  1  0.83547248  0.76714202  0.81688303  1
  O  O68  1  0.84037535  0.56053205  0.96403384  1
  O  O69  1  0.84421913  0.93288889  0.03014933  1
  O  O70  1  0.84852622  0.65120669  0.57848618  1
  O  O71  1  0.84723793  0.83325099  0.42405001  1
  O  O72  1  0.92699112  0.10510129  0.84374965  1
  O  O73  1  0.92631006  0.39587282  0.15583860  1
  O  O74  1  0.94107448  0.14216411  0.43018139  1
  O  O75  1  0.93181965  0.36091637  0.56837183  1
