# generated using pymatgen
data_LiFeSiO4
_symmetry_space_group_name_H-M   'P 1'
_cell_length_a   9.97793190
_cell_length_b   10.20023184
_cell_length_c   17.20849406
_cell_angle_alpha   105.66117792
_cell_angle_beta   106.85274688
_cell_angle_gamma   60.71834601
_symmetry_Int_Tables_number   1
_chemical_formula_structural   LiFeSiO4
_chemical_formula_sum   'Li16 Fe16 Si16 O64'
_cell_volume   1444.70627348
_cell_formula_units_Z   16
loop_
 _symmetry_equiv_pos_site_id
 _symmetry_equiv_pos_as_xyz
  1  'x, y, z'
loop_
 _atom_site_type_symbol
 _atom_site_label
 _atom_site_symmetry_multiplicity
 _atom_site_fract_x
 _atom_site_fract_y
 _atom_site_fract_z
 _atom_site_occupancy
  Li  Li0  1  0.62688709  0.99364356  0.18473106  1
  Li  Li1  1  0.06521090  0.98752464  0.68672890  1
  Li  Li2  1  0.81740276  0.88352416  0.43571053  1
  Li  Li3  1  0.38213135  0.82024079  0.43687038  1
  Li  Li4  1  0.73604921  0.88458729  0.93563794  1
  Li  Li5  1  0.23508719  0.82024302  0.93727222  1
  Li  Li6  1  0.11896275  0.56524717  0.18799550  1
  Li  Li7  1  0.63399336  0.48752464  0.18672890  1
  Li  Li8  1  0.00426989  0.55538296  0.68744181  1
  Li  Li9  1  0.56419941  0.49364356  0.68473106  1
  Li  Li10  1  0.31500143  0.38458729  0.43563794  1
  Li  Li11  1  0.88194201  0.32024302  0.43727222  1
  Li  Li12  1  0.73478360  0.38352416  0.93571053  1
  Li  Li13  1  0.23449824  0.32024079  0.93687038  1
  Li  Li14  1  0.12778996  0.05538296  0.18744181  1
  Li  Li15  1  0.50378558  0.06524717  0.68799550  1
  Fe  Fe16  1  0.49774141  0.94106612  0.31245113  1
  Fe  Fe17  1  0.37408177  0.00222626  0.81261590  1
  Fe  Fe18  1  0.87036401  0.94464094  0.81276837  1
  Fe  Fe19  1  0.76461375  0.67952211  0.06110382  1
  Fe  Fe20  1  0.26143427  0.61437625  0.06267866  1
  Fe  Fe21  1  0.11875956  0.68218092  0.56189048  1
  Fe  Fe22  1  0.68676927  0.61314847  0.56210823  1
  Fe  Fe23  1  0.43630787  0.50222626  0.31261590  1
  Fe  Fe24  1  0.99776241  0.44464094  0.31276837  1
  Fe  Fe25  1  0.36942142  0.50691673  0.81171295  1
  Fe  Fe26  1  0.87364360  0.44106612  0.81245113  1
  Fe  Fe27  1  0.76095000  0.18218092  0.06189048  1
  Fe  Fe28  1  0.26219049  0.11314847  0.06210823  1
  Fe  Fe29  1  0.61696796  0.17952211  0.56110382  1
  Fe  Fe30  1  0.18686714  0.11437625  0.56267866  1
  Fe  Fe31  1  0.93537480  0.00691673  0.31171295  1
  Si  Si32  1  0.93992240  0.87210845  0.12235760  1
  Si  Si33  1  0.44220284  0.80871894  0.12430150  1
  Si  Si34  1  0.81192157  0.86866604  0.62300651  1
  Si  Si35  1  0.37416978  0.81317026  0.62491678  1
  Si  Si36  1  0.12471714  0.68895926  0.37405395  1
  Si  Si37  1  0.68609702  0.62659606  0.37497626  1
  Si  Si38  1  0.56286190  0.68458886  0.87379125  1
  Si  Si39  1  0.06033550  0.62916628  0.87551046  1
  Si  Si40  1  0.94241889  0.36866604  0.12300651  1
  Si  Si41  1  0.43757674  0.31317026  0.12491678  1
  Si  Si42  1  0.31032774  0.37210845  0.62235760  1
  Si  Si43  1  0.87338072  0.30871894  0.62430150  1
  Si  Si44  1  0.62633949  0.18458886  0.37379125  1
  Si  Si45  1  0.18600968  0.12916628  0.37551046  1
  Si  Si46  1  0.56037756  0.18895926  0.87405395  1
  Si  Si47  1  0.06228419  0.12659606  0.87497626  1
  O  O48  1  0.36628109  0.99417013  0.38872607  1
  O  O49  1  0.32279140  0.90041789  0.04678322  1
  O  O50  1  0.86164576  0.92457395  0.20476903  1
  O  O51  1  0.37279561  0.91670408  0.20760318  1
  O  O52  1  0.82229562  0.82149573  0.04513615  1
  O  O53  1  0.61927312  0.78997146  0.13395736  1
  O  O54  1  0.98725836  0.86470777  0.38268508  1
  O  O55  1  0.02901614  0.99237936  0.88850773  1
  O  O56  1  0.32173017  0.90147514  0.54543562  1
  O  O57  1  0.41814708  0.92776328  0.70487453  1
  O  O58  1  0.92093014  0.91277255  0.70827419  1
  O  O59  1  0.11394453  0.72576589  0.13487033  1
  O  O60  1  0.90332187  0.82463804  0.54683946  1
  O  O61  1  0.68416577  0.77698682  0.35585320  1
  O  O62  1  0.22772781  0.79132219  0.63532160  1
  O  O63  1  0.44642893  0.64084645  0.11041527  1
  O  O64  1  0.53715018  0.85948005  0.88209594  1
  O  O65  1  0.28021127  0.68770362  0.35781968  1
  O  O66  1  0.79724400  0.72117917  0.63372030  1
  O  O67  1  0.60792116  0.67023628  0.45621813  1
  O  O68  1  0.89231140  0.77979032  0.85613695  1
  O  O69  1  0.06906130  0.57760504  0.29703062  1
  O  O70  1  0.57907797  0.56221499  0.29770867  1
  O  O71  1  0.16986334  0.61072731  0.45622216  1
  O  O72  1  0.94979901  0.51616170  0.10646552  1
  O  O73  1  0.52313362  0.64521414  0.61152718  1
  O  O74  1  0.38974740  0.68970797  0.85845105  1
  O  O75  1  0.17678570  0.67204185  0.95678360  1
  O  O76  1  0.86711223  0.49237936  0.38850773  1
  O  O77  1  0.32223030  0.40147514  0.04543562  1
  O  O78  1  0.35896416  0.42776328  0.20487453  1
  O  O79  1  0.87457151  0.41277255  0.20827419  1
  O  O80  1  0.15092197  0.56814937  0.79694952  1
  O  O81  1  0.65305896  0.56929744  0.79775466  1
  O  O82  1  0.13832364  0.51838314  0.60510324  1
  O  O83  1  0.67619436  0.60790633  0.95663962  1
  O  O84  1  0.81887955  0.32463804  0.04683946  1
  O  O85  1  0.61627260  0.29132219  0.13532160  1
  O  O86  1  0.02827485  0.49417013  0.88872607  1
  O  O87  1  0.48546572  0.35948005  0.38209594  1
  O  O88  1  0.82357293  0.40041789  0.54678322  1
  O  O89  1  0.41854932  0.42457395  0.70476903  1
  O  O90  1  0.91810349  0.41670408  0.70760318  1
  O  O91  1  0.11529713  0.22117917  0.13372030  1
  O  O92  1  0.18403522  0.27979032  0.35613695  1
  O  O93  1  0.40134380  0.32149573  0.54513615  1
  O  O94  1  0.44317842  0.14521414  0.11152718  1
  O  O95  1  0.72471278  0.28997146  0.63395736  1
  O  O96  1  0.53071896  0.36470777  0.88268508  1
  O  O97  1  0.77899567  0.18970797  0.35845105  1
  O  O98  1  0.29515991  0.22576589  0.63487033  1
  O  O99  1  0.10795605  0.17204185  0.45678360  1
  O  O100  1  0.89470061  0.27698682  0.85585320  1
  O  O101  1  0.07787818  0.06814937  0.29694952  1
  O  O102  1  0.57539725  0.06929744  0.29775466  1
  O  O103  1  0.94839646  0.01838314  0.10510324  1
  O  O104  1  0.67253892  0.10790633  0.45663962  1
  O  O105  1  0.02313989  0.14084645  0.61041527  1
  O  O106  1  0.38990479  0.18770362  0.85781968  1
  O  O107  1  0.17806069  0.17023628  0.95621813  1
  O  O108  1  0.65036328  0.07760504  0.79703062  1
  O  O109  1  0.15641571  0.06221499  0.79770867  1
  O  O110  1  0.67563251  0.11072731  0.95622216  1
  O  O111  1  0.64050481  0.01616170  0.60646552  1
