# generated using pymatgen
data_Al3CrO6
_symmetry_space_group_name_H-M   'P 1'
_cell_length_a   5.24148363
_cell_length_b   4.87519992
_cell_length_c   7.17810008
_cell_angle_alpha   90.00000313
_cell_angle_beta   95.70325582
_cell_angle_gamma   90.00000188
_symmetry_Int_Tables_number   1
_chemical_formula_structural   Al3CrO6
_chemical_formula_sum   'Al6 Cr2 O12'
_cell_volume   182.51604283
_cell_formula_units_Z   2
loop_
 _symmetry_equiv_pos_site_id
 _symmetry_equiv_pos_as_xyz
  1  'x, y, z'
loop_
 _atom_site_type_symbol
 _atom_site_label
 _atom_site_symmetry_multiplicity
 _atom_site_fract_x
 _atom_site_fract_y
 _atom_site_fract_z
 _atom_site_occupancy
  Al  Al0  1  0.29375232  0.00126274  0.85302726  1
  Al  Al1  1  0.80071724  0.50132558  0.85044844  1
  Al  Al2  1  0.20461437  0.50220408  0.64665821  1
  Al  Al3  1  0.29375232  0.99873726  0.35302726  1
  Al  Al4  1  0.80071724  0.49867442  0.35044844  1
  Al  Al5  1  0.20461437  0.49779592  0.14665821  1
  Cr  Cr6  1  0.70026480  0.00154736  0.64934128  1
  Cr  Cr7  1  0.70026480  0.99845264  0.14934128  1
  O  O8  1  0.64576734  0.16534234  0.89725948  1
  O  O9  1  0.85307484  0.36382979  0.59521997  1
  O  O10  1  0.15320431  0.34239480  0.90317050  1
  O  O11  1  0.33762382  0.15393942  0.59460247  1
  O  O12  1  0.49928503  0.68881549  0.75419640  1
  O  O13  1  0.01169691  0.79902831  0.75607698  1
  O  O14  1  0.49928503  0.31118451  0.25419640  1
  O  O15  1  0.64576734  0.83465766  0.39725948  1
  O  O16  1  0.85307484  0.63617021  0.09521997  1
  O  O17  1  0.15320431  0.65760520  0.40317050  1
  O  O18  1  0.01169691  0.20097169  0.25607698  1
  O  O19  1  0.33762382  0.84606058  0.09460247  1
