# generated using pymatgen
data_Li2MnP4(H4O5)4
_symmetry_space_group_name_H-M   'P 1'
_cell_length_a   7.18232374
_cell_length_b   10.67853776
_cell_length_c   11.05556267
_cell_angle_alpha   90.00000000
_cell_angle_beta   79.75403920
_cell_angle_gamma   90.00000000
_symmetry_Int_Tables_number   1
_chemical_formula_structural   Li2MnP4(H4O5)4
_chemical_formula_sum   'Li4 Mn2 P8 H32 O40'
_cell_volume   834.40367991
_cell_formula_units_Z   2
loop_
 _symmetry_equiv_pos_site_id
 _symmetry_equiv_pos_as_xyz
  1  'x, y, z'
loop_
 _atom_site_type_symbol
 _atom_site_label
 _atom_site_symmetry_multiplicity
 _atom_site_fract_x
 _atom_site_fract_y
 _atom_site_fract_z
 _atom_site_occupancy
  Li  Li0  1  0.25193479  0.66005513  0.54435771  1
  Li  Li1  1  0.24806521  0.16005513  0.95564229  1
  Li  Li2  1  0.75193479  0.83994487  0.04435771  1
  Li  Li3  1  0.74806521  0.33994487  0.45564229  1
  Mn  Mn4  1  0.00000000  0.00000000  0.50000000  1
  Mn  Mn5  1  0.50000000  0.50000000  0.00000000  1
  P  P6  1  0.23137936  0.76128915  0.08401237  1
  P  P7  1  0.26862064  0.26128915  0.41598763  1
  P  P8  1  0.23811359  0.95539943  0.72477068  1
  P  P9  1  0.26188641  0.45539943  0.77522932  1
  P  P10  1  0.73811359  0.54460057  0.22477068  1
  P  P11  1  0.76188641  0.04460057  0.27522932  1
  P  P12  1  0.73137936  0.73871085  0.58401237  1
  P  P13  1  0.76862064  0.23871085  0.91598763  1
  H  H14  1  0.14861502  0.40178106  0.10659838  1
  H  H15  1  0.14136544  0.03981624  0.19112035  1
  H  H16  1  0.12239210  0.43436054  0.39597452  1
  H  H17  1  0.18164784  0.62247371  0.31198964  1
  H  H18  1  0.19263217  0.82706786  0.34155730  1
  H  H19  1  0.07425137  0.28955726  0.78804062  1
  H  H20  1  0.30736783  0.32706786  0.15844270  1
  H  H21  1  0.31835216  0.12247371  0.18801036  1
  H  H22  1  0.16582325  0.58646000  0.92393152  1
  H  H23  1  0.15436449  0.89548406  0.94618373  1
  H  H24  1  0.37760790  0.93436054  0.10402548  1
  H  H25  1  0.35863456  0.53981624  0.30887965  1
  H  H26  1  0.35138498  0.90178106  0.39340162  1
  H  H27  1  0.34563551  0.39548406  0.55381627  1
  H  H28  1  0.33417675  0.08646000  0.57606848  1
  H  H29  1  0.42574863  0.78955726  0.71195938  1
  H  H30  1  0.57425137  0.21044274  0.28804062  1
  H  H31  1  0.66582325  0.91354000  0.42393152  1
  H  H32  1  0.65436449  0.60451594  0.44618373  1
  H  H33  1  0.64861502  0.09821894  0.60659838  1
  H  H34  1  0.64136544  0.46018376  0.69112035  1
  H  H35  1  0.62239210  0.06563946  0.89597452  1
  H  H36  1  0.84563551  0.10451594  0.05381627  1
  H  H37  1  0.83417675  0.41354000  0.07606848  1
  H  H38  1  0.68164784  0.87752629  0.81198964  1
  H  H39  1  0.69263217  0.67293214  0.84155730  1
  H  H40  1  0.92574863  0.71044274  0.21195938  1
  H  H41  1  0.80736783  0.17293214  0.65844270  1
  H  H42  1  0.81835216  0.37752629  0.68801036  1
  H  H43  1  0.87760790  0.56563946  0.60402548  1
  H  H44  1  0.85863456  0.96018376  0.80887965  1
  H  H45  1  0.85138498  0.59821894  0.89340162  1
  O  O46  1  0.08784525  0.83488177  0.01687789  1
  O  O47  1  0.13299489  0.74271283  0.21780433  1
  O  O48  1  0.08282840  0.34413370  0.42153228  1
  O  O49  1  0.04592594  0.97394430  0.68782202  1
  O  O50  1  0.26272319  0.06217077  0.13540447  1
  O  O51  1  0.27177799  0.35968464  0.08112224  1
  O  O52  1  0.28773478  0.63970302  0.01563891  1
  O  O53  1  0.21226522  0.13970302  0.48436109  1
  O  O54  1  0.22822201  0.85968464  0.41887776  1
  O  O55  1  0.23727681  0.56217077  0.36459553  1
  O  O56  1  0.10674439  0.54018239  0.85908628  1
  O  O57  1  0.20598426  0.31291664  0.80515590  1
  O  O58  1  0.41717160  0.84413370  0.07846772  1
  O  O59  1  0.25305107  0.48591237  0.64124914  1
  O  O60  1  0.36700511  0.24271283  0.28219567  1
  O  O61  1  0.24694893  0.98591237  0.85875086  1
  O  O62  1  0.29401574  0.81291664  0.69484410  1
  O  O63  1  0.41215475  0.33488177  0.48312211  1
  O  O64  1  0.39325561  0.04018239  0.64091372  1
  O  O65  1  0.54592594  0.52605570  0.18782202  1
  O  O66  1  0.45407406  0.47394430  0.81217798  1
  O  O67  1  0.60674439  0.95981761  0.35908628  1
  O  O68  1  0.58784525  0.66511823  0.51687789  1
  O  O69  1  0.70598426  0.18708336  0.30515590  1
  O  O70  1  0.75305107  0.01408763  0.14124914  1
  O  O71  1  0.63299489  0.75728717  0.71780433  1
  O  O72  1  0.74694893  0.51408763  0.35875086  1
  O  O73  1  0.58282840  0.15586630  0.92153228  1
  O  O74  1  0.79401574  0.68708336  0.19484410  1
  O  O75  1  0.89325561  0.45981761  0.14091372  1
  O  O76  1  0.76272319  0.43782923  0.63540447  1
  O  O77  1  0.77177799  0.14031536  0.58112224  1
  O  O78  1  0.78773478  0.86029698  0.51563891  1
  O  O79  1  0.71226522  0.36029698  0.98436109  1
  O  O80  1  0.72822201  0.64031536  0.91887776  1
  O  O81  1  0.73727681  0.93782923  0.86459553  1
  O  O82  1  0.95407406  0.02605570  0.31217798  1
  O  O83  1  0.91717160  0.65586630  0.57846772  1
  O  O84  1  0.86700511  0.25728717  0.78219567  1
  O  O85  1  0.91215475  0.16511823  0.98312211  1
