# generated using pymatgen
data_LiFeSiO4
_symmetry_space_group_name_H-M   'P 1'
_cell_length_a   9.99064173
_cell_length_b   10.20204388
_cell_length_c   16.44282140
_cell_angle_alpha   82.33910422
_cell_angle_beta   90.00008493
_cell_angle_gamma   60.68298161
_symmetry_Int_Tables_number   1
_chemical_formula_structural   LiFeSiO4
_chemical_formula_sum   'Li16 Fe16 Si16 O64'
_cell_volume   1444.10628572
_cell_formula_units_Z   16
loop_
 _symmetry_equiv_pos_site_id
 _symmetry_equiv_pos_as_xyz
  1  'x, y, z'
loop_
 _atom_site_type_symbol
 _atom_site_label
 _atom_site_symmetry_multiplicity
 _atom_site_fract_x
 _atom_site_fract_y
 _atom_site_fract_z
 _atom_site_occupancy
  Li  Li0  1  0.80936874  0.98830678  0.99754096  1
  Li  Li1  1  0.20232303  0.98830682  0.49754117  1
  Li  Li2  1  0.57711610  0.72125778  0.74708259  1
  Li  Li3  1  0.07541216  0.66238838  0.74888252  1
  Li  Li4  1  0.30974871  0.54985532  0.99911924  1
  Li  Li5  1  0.70162661  0.72125666  0.24708267  1
  Li  Li6  1  0.80800053  0.48757196  0.99681892  1
  Li  Li7  1  0.26219882  0.66238915  0.24888268  1
  Li  Li8  1  0.14039622  0.54985426  0.49911889  1
  Li  Li9  1  0.70442754  0.48757137  0.49681938  1
  Li  Li10  1  0.56843275  0.22736946  0.74798537  1
  Li  Li11  1  0.08229906  0.15551544  0.74697543  1
  Li  Li12  1  0.30910622  0.05102083  0.99806211  1
  Li  Li13  1  0.20419816  0.22736880  0.24798490  1
  Li  Li14  1  0.76218629  0.15551603  0.24697519  1
  Li  Li15  1  0.63987358  0.05101994  0.49806206  1
  Fe  Fe16  1  0.27114993  0.84888986  0.87178044  1
  Fe  Fe17  1  0.77262247  0.78126405  0.87198210  1
  Fe  Fe18  1  0.87996118  0.84888852  0.37177982  1
  Fe  Fe19  1  0.44611497  0.78126386  0.37198277  1
  Fe  Fe20  1  0.32115121  0.67470901  0.62185515  1
  Fe  Fe21  1  0.88148046  0.60947507  0.62079997  1
  Fe  Fe22  1  0.00414137  0.67471065  0.12185580  1
  Fe  Fe23  1  0.50904486  0.60947498  0.12079796  1
  Fe  Fe24  1  0.27431982  0.34801353  0.87266257  1
  Fe  Fe25  1  0.77095735  0.28260261  0.87041915  1
  Fe  Fe26  1  0.37766743  0.34801243  0.37266246  1
  Fe  Fe27  1  0.94644272  0.28260329  0.37041856  1
  Fe  Fe28  1  0.82119988  0.17033975  0.62108804  1
  Fe  Fe29  1  0.38253754  0.11328293  0.62059785  1
  Fe  Fe30  1  0.00846084  0.17034024  0.12108822  1
  Fe  Fe31  1  0.50417766  0.11328327  0.12059616  1
  Si  Si32  1  0.91691916  0.98123207  0.80890251  1
  Si  Si33  1  0.10184664  0.98123438  0.30890173  1
  Si  Si34  1  0.98057902  0.85226623  0.56010804  1
  Si  Si35  1  0.53821645  0.79714711  0.55870684  1
  Si  Si36  1  0.16715445  0.85226697  0.06010786  1
  Si  Si37  1  0.66463765  0.79714677  0.05870660  1
  Si  Si38  1  0.41942088  0.53977422  0.81106314  1
  Si  Si39  1  0.92063281  0.47700608  0.80924485  1
  Si  Si40  1  0.04080518  0.53977667  0.31106221  1
  Si  Si41  1  0.60236005  0.47700473  0.30924486  1
  Si  Si42  1  0.47957839  0.35575213  0.56004272  1
  Si  Si43  1  0.03983790  0.29451841  0.55815234  1
  Si  Si44  1  0.16466782  0.35575404  0.06004315  1
  Si  Si45  1  0.66564262  0.29451864  0.05815207  1
  Si  Si46  1  0.42138457  0.03602169  0.81106079  1
  Si  Si47  1  0.54259475  0.03602277  0.31105989  1
  O  O48  1  0.33525308  0.99230446  0.88691865  1
  O  O49  1  0.09007295  0.95890287  0.79803607  1
  O  O50  1  0.58932609  0.88871336  0.80074242  1
  O  O51  1  0.74286896  0.83849153  0.97809443  1
  O  O52  1  0.67244059  0.99230507  0.38691948  1
  O  O53  1  0.54658591  0.94796316  0.57690496  1
  O  O54  1  0.23823793  0.77573604  0.97688594  1
  O  O55  1  0.92784472  0.81386677  0.82186334  1
  O  O56  1  0.95102306  0.95890280  0.29803646  1
  O  O57  1  0.14052895  0.85725760  0.57595699  1
  O  O58  1  0.52196046  0.88871445  0.30074219  1
  O  O59  1  0.41863979  0.83849166  0.47809430  1
  O  O60  1  0.50545035  0.94796449  0.07690500  1
  O  O61  1  0.46999202  0.73686720  0.63780833  1
  O  O62  1  0.96682871  0.73704905  0.63588712  1
  O  O63  1  0.43742898  0.68544992  0.82840858  1
  O  O64  1  0.98602391  0.77573603  0.47688649  1
  O  O65  1  0.25829024  0.81386386  0.32186406  1
  O  O66  1  0.00221450  0.85725714  0.07595722  1
  O  O67  1  0.71158901  0.66198522  0.54486619  1
  O  O68  1  0.83956860  0.56869262  0.88687981  1
  O  O69  1  0.29959433  0.59306387  0.72874369  1
  O  O70  1  0.80955528  0.58437281  0.72585353  1
  O  O71  1  0.79314188  0.73686751  0.13780800  1
  O  O72  1  0.29612400  0.73704864  0.13588709  1
  O  O73  1  0.87712095  0.68544982  0.32840887  1
  O  O74  1  0.33998743  0.48975697  0.88838319  1
  O  O75  1  0.09252028  0.45871425  0.79988599  1
  O  O76  1  0.33771948  0.53156585  0.55116134  1
  O  O77  1  0.62642491  0.66198614  0.04486612  1
  O  O78  1  0.59174084  0.56869161  0.38688088  1
  O  O79  1  0.10734225  0.59306390  0.22874430  1
  O  O80  1  0.60607244  0.58437214  0.22585363  1
  O  O81  1  0.58684274  0.39263941  0.79862566  1
  O  O82  1  0.74043584  0.33903550  0.97669080  1
  O  O83  1  0.17025657  0.48975628  0.38838317  1
  O  O84  1  0.04646158  0.44511868  0.57775656  1
  O  O85  1  0.24055417  0.27666043  0.97811975  1
  O  O86  1  0.93231035  0.30887502  0.82296288  1
  O  O87  1  0.44876608  0.45871301  0.29988693  1
  O  O88  1  0.13071531  0.53156618  0.05116106  1
  O  O89  1  0.64288567  0.35526885  0.57496870  1
  O  O90  1  0.02051819  0.39263972  0.29862559  1
  O  O91  1  0.92052804  0.33903502  0.47669101  1
  O  O92  1  0.50841842  0.44512046  0.07775638  1
  O  O93  1  0.46375355  0.24425468  0.63755090  1
  O  O94  1  0.97226193  0.22908529  0.63538993  1
  O  O95  1  0.48278547  0.27666094  0.47812004  1
  O  O96  1  0.43715680  0.18314238  0.82843679  1
  O  O97  1  0.75881491  0.30887397  0.32296362  1
  O  O98  1  0.00184528  0.35526993  0.07496948  1
  O  O99  1  0.21411800  0.16123492  0.54452954  1
  O  O100  1  0.84189877  0.06934457  0.88872415  1
  O  O101  1  0.79787812  0.09684190  0.72929581  1
  O  O102  1  0.31173282  0.08129024  0.72532187  1
  O  O103  1  0.29198980  0.24425392  0.13755125  1
  O  O104  1  0.79865318  0.22908449  0.13538977  1
  O  O105  1  0.37970105  0.18314245  0.32843574  1
  O  O106  1  0.62464511  0.16123605  0.04452875  1
  O  O107  1  0.83558654  0.02699550  0.55190236  1
  O  O108  1  0.08875661  0.06934423  0.38872434  1
  O  O109  1  0.10528060  0.09684130  0.22929587  1
  O  O110  1  0.60697664  0.08128929  0.22532250  1
  O  O111  1  0.13741841  0.02699464  0.05190339  1
