# generated using pymatgen
data_Li8TiNi7O16
_symmetry_space_group_name_H-M   'P 1'
_cell_length_a   6.47883311
_cell_length_b   6.51635262
_cell_length_c   7.70438104
_cell_angle_alpha   104.36208307
_cell_angle_beta   65.20247632
_cell_angle_gamma   107.91282460
_symmetry_Int_Tables_number   1
_chemical_formula_structural   Li8TiNi7O16
_chemical_formula_sum   'Li8 Ti1 Ni7 O16'
_cell_volume   278.28079965
_cell_formula_units_Z   1
loop_
 _symmetry_equiv_pos_site_id
 _symmetry_equiv_pos_as_xyz
  1  'x, y, z'
loop_
 _atom_site_type_symbol
 _atom_site_label
 _atom_site_symmetry_multiplicity
 _atom_site_fract_x
 _atom_site_fract_y
 _atom_site_fract_z
 _atom_site_occupancy
  Li  Li0  1  0.67678636  0.18015872  0.93128736  1
  Li  Li1  1  0.81230239  0.31199174  0.55569890  1
  Li  Li2  1  0.05713338  0.55084353  0.80993802  1
  Li  Li3  1  0.44034031  0.92951624  0.68590159  1
  Li  Li4  1  0.55741663  0.06983818  0.31590465  1
  Li  Li5  1  0.93487964  0.44749654  0.19286129  1
  Li  Li6  1  0.18904212  0.69013865  0.44253267  1
  Li  Li7  1  0.32276535  0.81353679  0.07053882  1
  Ti  Ti8  1  0.00009934  0.00391811  0.01056172  1
  Ni  Ni9  1  0.37654465  0.37376612  0.87326417  1
  Ni  Ni10  1  0.87289277  0.87203097  0.37794342  1
  Ni  Ni11  1  0.74977381  0.74808065  0.74841026  1
  Ni  Ni12  1  0.12271993  0.12461044  0.62580680  1
  Ni  Ni13  1  0.50246098  0.49902048  0.49929150  1
  Ni  Ni14  1  0.24920139  0.25148665  0.25225141  1
  Ni  Ni15  1  0.62384163  0.62467476  0.12494663  1
  O  O16  1  0.32667813  0.08136867  0.96930560  1
  O  O17  1  0.71265079  0.48897780  0.84557739  1
  O  O18  1  0.03463705  0.25946579  0.89253111  1
  O  O19  1  0.43277895  0.64575490  0.75616839  1
  O  O20  1  0.45996845  0.23757419  0.59309235  1
  O  O21  1  0.78780826  0.01244539  0.65688387  1
  O  O22  1  0.82019362  0.58765494  0.47078185  1
  O  O23  1  0.07269108  0.85129644  0.72889562  1
  O  O24  1  0.90991874  0.15146392  0.26750461  1
  O  O25  1  0.18003901  0.40435347  0.53271826  1
  O  O26  1  0.20272627  0.98275306  0.36759031  1
  O  O27  1  0.53779488  0.75645161  0.40712290  1
  O  O28  1  0.58378063  0.36600652  0.23631367  1
  O  O29  1  0.95310599  0.72234001  0.09085505  1
  O  O30  1  0.30579478  0.52992746  0.14721176  1
  O  O31  1  0.66494066  0.90186925  0.03732305  1
