# generated using pymatgen
data_Li4TiV3O8
_symmetry_space_group_name_H-M   'P 1'
_cell_length_a   5.96509244
_cell_length_b   6.00819206
_cell_length_c   6.00488855
_cell_angle_alpha   90.05367999
_cell_angle_beta   60.19787733
_cell_angle_gamma   59.77799718
_symmetry_Int_Tables_number   1
_chemical_formula_structural   Li4TiV3O8
_chemical_formula_sum   'Li4 Ti1 V3 O8'
_cell_volume   152.04860840
_cell_formula_units_Z   1
loop_
 _symmetry_equiv_pos_site_id
 _symmetry_equiv_pos_as_xyz
  1  'x, y, z'
loop_
 _atom_site_type_symbol
 _atom_site_label
 _atom_site_symmetry_multiplicity
 _atom_site_fract_x
 _atom_site_fract_y
 _atom_site_fract_z
 _atom_site_occupancy
  Li  Li0  1  0.49404077  0.00684404  0.50097996  1
  Li  Li1  1  0.49189190  0.50956826  0.49786552  1
  Li  Li2  1  0.99043213  0.00857992  0.50234379  1
  Li  Li3  1  0.99256647  0.50583493  0.50037280  1
  Ti  Ti4  1  0.99512940  0.00469865  0.00054930  1
  V  V5  1  0.49481103  0.50410976  0.00041422  1
  V  V6  1  0.49571099  0.00456150  0.00062545  1
  V  V7  1  0.99579152  0.50453030  -0.00003812  1
  O  O8  1  0.00957693  0.23509727  0.23034838  1
  O  O9  1  0.00837571  0.76097881  0.23121063  1
  O  O10  1  0.52156222  0.24179125  0.23306787  1
  O  O11  1  0.49459894  0.25441124  0.77172613  1
  O  O12  1  0.49549629  0.75438515  0.22978556  1
  O  O13  1  0.46916473  0.76750969  0.76729262  1
  O  O14  1  0.98042362  0.24920951  0.77125861  1
  O  O15  1  0.98131237  0.77425673  0.77050829  1
