# generated using pymatgen
data_Li2FeP4(H4O5)4
_symmetry_space_group_name_H-M   'P 1'
_cell_length_a   7.12821383
_cell_length_b   10.66736933
_cell_length_c   10.97776948
_cell_angle_alpha   90.00000000
_cell_angle_beta   99.53751851
_cell_angle_gamma   90.00000000
_symmetry_Int_Tables_number   1
_chemical_formula_structural   Li2FeP4(H4O5)4
_chemical_formula_sum   'Li4 Fe2 P8 H32 O40'
_cell_volume   823.20341800
_cell_formula_units_Z   2
loop_
 _symmetry_equiv_pos_site_id
 _symmetry_equiv_pos_as_xyz
  1  'x, y, z'
loop_
 _atom_site_type_symbol
 _atom_site_label
 _atom_site_symmetry_multiplicity
 _atom_site_fract_x
 _atom_site_fract_y
 _atom_site_fract_z
 _atom_site_occupancy
  Li  Li0  1  0.25214887  0.33932529  0.95272694  1
  Li  Li1  1  0.24785113  0.83932529  0.54727306  1
  Li  Li2  1  0.75214887  0.16067471  0.45272694  1
  Li  Li3  1  0.74785113  0.66067471  0.04727306  1
  Fe  Fe4  1  0.00000000  0.00000000  0.00000000  1
  Fe  Fe5  1  0.50000000  0.50000000  0.50000000  1
  P  P6  1  0.23928518  0.04401021  0.77678559  1
  P  P7  1  0.26071482  0.54401021  0.72321441  1
  P  P8  1  0.23659116  0.23871748  0.41651254  1
  P  P9  1  0.26340884  0.73871748  0.08348746  1
  P  P10  1  0.73659116  0.26128252  0.91651354  1
  P  P11  1  0.76340884  0.76128252  0.58348646  1
  P  P12  1  0.73928518  0.45598979  0.27678559  1
  P  P13  1  0.76071482  0.95598979  0.22321441  1
  H  H14  1  0.06654887  0.70846815  0.71158851  1
  H  H15  1  0.16836659  0.41190461  0.57429059  1
  H  H16  1  0.15567752  0.10379997  0.55532846  1
  H  H17  1  0.15426892  0.59450872  0.39823102  1
  H  H18  1  0.13841812  0.96287317  0.31679265  1
  H  H19  1  0.11675733  0.56513973  0.09988788  1
  H  H20  1  0.34432248  0.60379997  0.94467154  1
  H  H21  1  0.33163341  0.91190461  0.92570941  1
  H  H22  1  0.18944311  0.17040014  0.15718376  1
  H  H23  1  0.18956221  0.37692434  0.18545113  1
  H  H24  1  0.31043779  0.87692434  0.31454887  1
  H  H25  1  0.43345113  0.20846815  0.78841149  1
  H  H26  1  0.31055689  0.67040014  0.34281624  1
  H  H27  1  0.38324267  0.06513973  0.40011212  1
  H  H28  1  0.36158188  0.46287317  0.18320735  1
  H  H29  1  0.34573108  0.09450872  0.10176898  1
  H  H30  1  0.65426892  0.90549128  0.89823102  1
  H  H31  1  0.63841812  0.53712683  0.81679265  1
  H  H32  1  0.61675733  0.93486027  0.59988788  1
  H  H33  1  0.68944311  0.32959986  0.65718376  1
  H  H34  1  0.56654887  0.79153185  0.21158851  1
  H  H35  1  0.68956221  0.12307566  0.68545113  1
  H  H36  1  0.81043779  0.62307566  0.81454887  1
  H  H37  1  0.81055689  0.82959986  0.84281624  1
  H  H38  1  0.66836659  0.08809539  0.07429059  1
  H  H39  1  0.65567752  0.39620003  0.05532846  1
  H  H40  1  0.88324267  0.43486027  0.90011212  1
  H  H41  1  0.86158188  0.03712683  0.68320735  1
  H  H42  1  0.84573108  0.40549128  0.60176898  1
  H  H43  1  0.84432248  0.89620003  0.44467154  1
  H  H44  1  0.83163341  0.58809539  0.42570941  1
  H  H45  1  0.93345113  0.29153185  0.28841149  1
  O  O46  1  0.04458668  0.02796602  0.81522422  1
  O  O47  1  0.10723246  0.45723934  0.64064683  1
  O  O48  1  0.09080591  0.16570728  0.48388238  1
  O  O49  1  0.19984491  0.68604165  0.69389520  1
  O  O50  1  0.25583466  0.51328010  0.85827918  1
  O  O51  1  0.14221433  0.25762938  0.28185016  1
  O  O52  1  0.24416534  0.01328010  0.64172082  1
  O  O53  1  0.07615735  0.65550634  0.07638537  1
  O  O54  1  0.30015509  0.18604165  0.80610480  1
  O  O55  1  0.39276754  0.95723934  0.85935317  1
  O  O56  1  0.25951323  0.93751139  0.37019366  1
  O  O57  1  0.27839348  0.63615184  0.42149327  1
  O  O58  1  0.29082591  0.36150791  0.48446149  1
  O  O59  1  0.20917409  0.86150791  0.01553851  1
  O  O60  1  0.22160652  0.13615184  0.07850673  1
  O  O61  1  0.24048677  0.43751139  0.12980634  1
  O  O62  1  0.45541332  0.52796602  0.68477578  1
  O  O63  1  0.42384265  0.15550634  0.42361463  1
  O  O64  1  0.35778567  0.75762938  0.21814984  1
  O  O65  1  0.59080591  0.33429272  0.98388238  1
  O  O66  1  0.40919409  0.66570728  0.01611762  1
  O  O67  1  0.64221433  0.24237062  0.78185016  1
  O  O68  1  0.57615735  0.84449366  0.57638537  1
  O  O69  1  0.54458668  0.47203398  0.31522422  1
  O  O70  1  0.75951323  0.56248861  0.87019366  1
  O  O71  1  0.77839348  0.86384816  0.92149327  1
  O  O72  1  0.79082591  0.13849209  0.98446149  1
  O  O73  1  0.70917409  0.63849209  0.51553851  1
  O  O74  1  0.72160652  0.36384816  0.57850673  1
  O  O75  1  0.74048677  0.06248861  0.62980634  1
  O  O76  1  0.60723246  0.04276066  0.14064683  1
  O  O77  1  0.69984491  0.81395835  0.19389520  1
  O  O78  1  0.92384265  0.34449366  0.92361463  1
  O  O79  1  0.75583466  0.98671990  0.35827918  1
  O  O80  1  0.85778567  0.74237062  0.71814984  1
  O  O81  1  0.74416534  0.48671990  0.14172082  1
  O  O82  1  0.80015509  0.31395835  0.30610480  1
  O  O83  1  0.90919409  0.83429272  0.51611762  1
  O  O84  1  0.89276754  0.54276066  0.35935317  1
  O  O85  1  0.95541332  0.97203398  0.18477578  1
