# generated using pymatgen
data_Ti4(Fe2O5)3
_symmetry_space_group_name_H-M   'P 1'
_cell_length_a   8.91544837
_cell_length_b   7.64729480
_cell_length_c   9.16157631
_cell_angle_alpha   71.48277710
_cell_angle_beta   99.32294906
_cell_angle_gamma   113.49411887
_symmetry_Int_Tables_number   1
_chemical_formula_structural   Ti4(Fe2O5)3
_chemical_formula_sum   'Ti8 Fe12 O30'
_cell_volume   542.73938449
_cell_formula_units_Z   2
loop_
 _symmetry_equiv_pos_site_id
 _symmetry_equiv_pos_as_xyz
  1  'x, y, z'
loop_
 _atom_site_type_symbol
 _atom_site_label
 _atom_site_symmetry_multiplicity
 _atom_site_fract_x
 _atom_site_fract_y
 _atom_site_fract_z
 _atom_site_occupancy
  Ti  Ti0  1  0.85648985  0.85962334  0.42580878  1
  Ti  Ti1  1  0.94459788  0.74309815  0.17498012  1
  Ti  Ti2  1  0.74351015  0.34037666  0.77419122  1
  Ti  Ti3  1  0.65540212  0.45690185  0.02501988  1
  Ti  Ti4  1  0.46079980  0.06309667  0.62189745  1
  Ti  Ti5  1  0.33929977  0.53178143  0.97276165  1
  Ti  Ti6  1  0.26070023  0.66821857  0.22723835  1
  Ti  Ti7  1  0.13920020  0.13690333  0.57810255  1
  Fe  Fe8  1  0.74495358  0.84293844  0.77729806  1
  Fe  Fe9  1  0.94285890  0.23902964  0.17422765  1
  Fe  Fe10  1  0.85504642  0.35706156  0.42270194  1
  Fe  Fe11  1  0.53902715  0.93385783  0.37638514  1
  Fe  Fe12  1  0.34074624  0.03825511  0.97281497  1
  Fe  Fe13  1  0.54406709  0.43739822  0.37603301  1
  Fe  Fe14  1  0.45987719  0.56327903  0.62320232  1
  Fe  Fe15  1  0.65714110  0.96097036  0.02577235  1
  Fe  Fe16  1  0.06097285  0.26614217  0.82361486  1
  Fe  Fe17  1  0.25925376  0.16174489  0.22718503  1
  Fe  Fe18  1  0.14012281  0.63672097  0.57679768  1
  Fe  Fe19  1  0.05593291  0.76260178  0.82396699  1
  O  O20  1  0.98501039  0.02361198  0.75544750  1
  O  O21  1  0.88102130  0.20664777  0.96151073  1
  O  O22  1  0.91211137  0.38983603  0.65208003  1
  O  O23  1  0.97322687  0.16363600  0.41798759  1
  O  O24  1  0.80984203  0.57140822  0.83851098  1
  O  O25  1  0.79015797  0.62859178  0.36148902  1
  O  O26  1  0.59051726  0.22222885  0.96762687  1
  O  O27  1  0.83248010  0.43037587  0.16622311  1
  O  O28  1  0.62677313  0.03636400  0.78201241  1
  O  O29  1  0.68788863  0.81016397  0.54791997  1
  O  O30  1  0.51817620  0.59049243  0.85316012  1
  O  O31  1  0.71897870  0.99335223  0.23848927  1
  O  O32  1  0.76751990  0.76962413  0.03377689  1
  O  O33  1  0.57383566  0.36596624  0.63000259  1
  O  O34  1  0.61498961  0.17638802  0.44455250  1
  O  O35  1  0.38599381  0.82491441  0.56732108  1
  O  O36  1  0.42484280  0.63075155  0.37036165  1
  O  O37  1  0.23854871  0.24305719  0.97844025  1
  O  O38  1  0.49178823  0.41263385  0.15160969  1
  O  O39  1  0.28965751  0.01642869  0.74875251  1
  O  O40  1  0.31034249  0.18357131  0.45124749  1
  O  O41  1  0.17515720  0.56924845  0.82963835  1
  O  O42  1  0.36145129  0.95694281  0.22155975  1
  O  O43  1  0.42247170  0.77274027  0.04087641  1
  O  O44  1  0.21400619  0.37508559  0.63267892  1
  O  O45  1  0.17752830  0.42725973  0.15912359  1
  O  O46  1  0.02616434  0.83403376  0.56999741  1
  O  O47  1  0.08182380  0.60950757  0.34683988  1
  O  O48  1  0.10821177  0.78736615  0.04839031  1
  O  O49  1  0.00948274  0.97777115  0.23237313  1
