# generated using pymatgen
data_Te6MoW3S2
_symmetry_space_group_name_H-M   'P 1'
_cell_length_a   3.45736977
_cell_length_b   3.45738348
_cell_length_c   39.42829136
_cell_angle_alpha   90.00033162
_cell_angle_beta   90.00000000
_cell_angle_gamma   119.99986891
_symmetry_Int_Tables_number   1
_chemical_formula_structural   Te6MoW3S2
_chemical_formula_sum   'Te6 Mo1 W3 S2'
_cell_volume   408.16197762
_cell_formula_units_Z   1
loop_
 _symmetry_equiv_pos_site_id
 _symmetry_equiv_pos_as_xyz
  1  'x, y, z'
loop_
 _atom_site_type_symbol
 _atom_site_label
 _atom_site_symmetry_multiplicity
 _atom_site_fract_x
 _atom_site_fract_y
 _atom_site_fract_z
 _atom_site_occupancy
  Te  Te0  1  0.33335884  0.66671869  0.32888971  1
  Te  Te1  1  0.33335019  0.66670137  0.70470175  1
  Te  Te2  1  0.66664940  0.33329780  0.42252192  1
  Te  Te3  1  0.66665167  0.33330235  0.51677951  1
  Te  Te4  1  0.33334931  0.66669961  0.23458548  1
  Te  Te5  1  0.33335042  0.66670185  0.61042444  1
  Mo  Mo6  1  0.33330863  0.66661726  0.09395509  1
  W  W7  1  0.33331232  0.66662464  0.46966948  1
  W  W8  1  0.66668880  0.33337761  0.28175689  1
  W  W9  1  0.66668623  0.33337246  0.65758154  1
  S  S10  1  0.66664516  0.33328933  0.05612757  1
  S  S11  1  0.66664902  0.33329704  0.13175462  1
