# generated using pymatgen
data_Li3MnFeCo(PO4)3
_symmetry_space_group_name_H-M   'P 1'
_cell_length_a   10.46144990
_cell_length_b   6.09222945
_cell_length_c   14.27934143
_cell_angle_alpha   90.00000000
_cell_angle_beta   89.94739895
_cell_angle_gamma   90.00000000
_symmetry_Int_Tables_number   1
_chemical_formula_structural   Li3MnFeCo(PO4)3
_chemical_formula_sum   'Li12 Mn4 Fe4 Co4 P12 O48'
_cell_volume   910.07278235
_cell_formula_units_Z   4
loop_
 _symmetry_equiv_pos_site_id
 _symmetry_equiv_pos_as_xyz
  1  'x, y, z'
loop_
 _atom_site_type_symbol
 _atom_site_label
 _atom_site_symmetry_multiplicity
 _atom_site_fract_x
 _atom_site_fract_y
 _atom_site_fract_z
 _atom_site_occupancy
  Li  Li0  1  0.99819021  0.49939871  0.66700108  1
  Li  Li1  1  0.99906629  0.00045074  0.99955189  1
  Li  Li2  1  0.99906629  0.49954926  0.99955189  1
  Li  Li3  1  0.99915989  0.00023289  0.33347803  1
  Li  Li4  1  0.99915989  0.49976711  0.33347803  1
  Li  Li5  1  0.99819021  0.00060129  0.66700108  1
  Li  Li6  1  0.50204177  0.00022785  0.50048790  1
  Li  Li7  1  0.50204177  0.49977215  0.50048790  1
  Li  Li8  1  0.50056050  0.00036254  0.16662242  1
  Li  Li9  1  0.50056050  0.49963746  0.16662242  1
  Li  Li10  1  0.50142518  0.00081374  0.83343799  1
  Li  Li11  1  0.50142518  0.49918626  0.83343799  1
  Mn  Mn12  1  0.21782029  0.75000000  0.49344183  1
  Mn  Mn13  1  0.21802647  0.75000000  0.82623315  1
  Mn  Mn14  1  0.28064842  0.25000000  0.32628900  1
  Mn  Mn15  1  0.71959689  0.75000000  0.00744373  1
  Fe  Fe16  1  0.21965156  0.75000000  0.15976102  1
  Fe  Fe17  1  0.28161231  0.25000000  0.65907116  1
  Fe  Fe18  1  0.28120087  0.25000000  0.99267861  1
  Fe  Fe19  1  0.72021743  0.75000000  0.34078832  1
  Co  Co20  1  0.72074531  0.75000000  0.67318803  1
  Co  Co21  1  0.77905951  0.25000000  0.83866990  1
  Co  Co22  1  0.77848302  0.25000000  0.50735971  1
  Co  Co23  1  0.77984263  0.25000000  0.17301192  1
  P  P24  1  0.09309680  0.25000000  0.80489259  1
  P  P25  1  0.09332355  0.25000000  0.13862467  1
  P  P26  1  0.09119816  0.25000000  0.47294165  1
  P  P27  1  0.40753110  0.75000000  0.30460387  1
  P  P28  1  0.40850931  0.75000000  0.64012287  1
  P  P29  1  0.40576613  0.75000000  0.97345225  1
  P  P30  1  0.59680930  0.25000000  0.36129860  1
  P  P31  1  0.59477276  0.25000000  0.02847603  1
  P  P32  1  0.59630165  0.25000000  0.69395693  1
  P  P33  1  0.90450453  0.75000000  0.85951533  1
  P  P34  1  0.90541055  0.75000000  0.19448908  1
  P  P35  1  0.90304700  0.75000000  0.52775549  1
  O  O36  1  0.04234453  0.75000000  0.23610121  1
  O  O37  1  0.03960541  0.75000000  0.56978825  1
  O  O38  1  0.04089572  0.75000000  0.90229585  1
  O  O39  1  0.09653790  0.25000000  0.58022694  1
  O  O40  1  0.09776046  0.25000000  0.91238727  1
  O  O41  1  0.09504960  0.25000000  0.24603428  1
  O  O42  1  0.16424556  0.04786049  0.09471716  1
  O  O43  1  0.16424556  0.45213951  0.09471716  1
  O  O44  1  0.16140613  0.04853413  0.42778285  1
  O  O45  1  0.16140613  0.45146587  0.42778285  1
  O  O46  1  0.16349542  0.04906588  0.75936303  1
  O  O47  1  0.16349542  0.45093412  0.75936303  1
  O  O48  1  0.33721447  0.54744021  0.59655152  1
  O  O49  1  0.33721447  0.95255979  0.59655152  1
  O  O50  1  0.33663396  0.54981853  0.25948067  1
  O  O51  1  0.33663396  0.95018147  0.25948067  1
  O  O52  1  0.33505445  0.54702470  0.93002729  1
  O  O53  1  0.33505445  0.95297530  0.93002729  1
  O  O54  1  0.40404145  0.75000000  0.41203564  1
  O  O55  1  0.40400814  0.75000000  0.08068752  1
  O  O56  1  0.40597081  0.75000000  0.74741042  1
  O  O57  1  0.45979024  0.25000000  0.40319540  1
  O  O58  1  0.45673205  0.25000000  0.06839300  1
  O  O59  1  0.45910324  0.25000000  0.73507000  1
  O  O60  1  0.54542963  0.75000000  0.26463450  1
  O  O61  1  0.54194375  0.75000000  0.93068265  1
  O  O62  1  0.54540466  0.75000000  0.59796012  1
  O  O63  1  0.59782456  0.25000000  0.25359835  1
  O  O64  1  0.59886824  0.25000000  0.92071543  1
  O  O65  1  0.59854705  0.25000000  0.58637012  1
  O  O66  1  0.66469778  0.04916033  0.07410343  1
  O  O67  1  0.66738157  0.04792098  0.40543537  1
  O  O68  1  0.66753520  0.04712828  0.73860742  1
  O  O69  1  0.66753520  0.45287172  0.73860742  1
  O  O70  1  0.66469778  0.45083967  0.07410343  1
  O  O71  1  0.66738157  0.45207902  0.40543537  1
  O  O72  1  0.83463624  0.54568596  0.90306617  1
  O  O73  1  0.83463624  0.95431404  0.90306617  1
  O  O74  1  0.83458456  0.54705462  0.23833990  1
  O  O75  1  0.83201625  0.54702815  0.57194646  1
  O  O76  1  0.83458456  0.95294538  0.23833990  1
  O  O77  1  0.83201625  0.95297185  0.57194646  1
  O  O78  1  0.90317764  0.75000000  0.75203948  1
  O  O79  1  0.90228758  0.75000000  0.42047994  1
  O  O80  1  0.90519337  0.75000000  0.08687920  1
  O  O81  1  0.95497896  0.25000000  0.76521089  1
  O  O82  1  0.95522338  0.25000000  0.09698180  1
  O  O83  1  0.95341322  0.25000000  0.43275982  1
