# generated using pymatgen
data_Li3CoNi3O8
_symmetry_space_group_name_H-M   'P 1'
_cell_length_a   5.83593299
_cell_length_b   5.76211001
_cell_length_c   5.76210989
_cell_angle_alpha   59.99999936
_cell_angle_beta   60.41757778
_cell_angle_gamma   90.00000333
_symmetry_Int_Tables_number   1
_chemical_formula_structural   Li3CoNi3O8
_chemical_formula_sum   'Li3 Co1 Ni3 O8'
_cell_volume   137.87034162
_cell_formula_units_Z   1
loop_
 _symmetry_equiv_pos_site_id
 _symmetry_equiv_pos_as_xyz
  1  'x, y, z'
loop_
 _atom_site_type_symbol
 _atom_site_label
 _atom_site_symmetry_multiplicity
 _atom_site_fract_x
 _atom_site_fract_y
 _atom_site_fract_z
 _atom_site_occupancy
  Li  Li0  1  0.50000000  0.00000000  0.00000000  1
  Li  Li1  1  0.50000000  0.00000000  0.50000000  1
  Li  Li2  1  0.50000000  0.50000000  0.50000000  1
  Co  Co3  1  0.00000000  0.00000000  0.00000000  1
  Ni  Ni4  1  0.00000000  0.00000000  0.50000000  1
  Ni  Ni5  1  0.00000000  0.50000000  0.00000000  1
  Ni  Ni6  1  0.00000000  0.50000000  0.50000000  1
  O  O7  1  0.21650589  0.22831412  0.01180924  1
  O  O8  1  0.21650589  0.22831412  0.54337076  1
  O  O9  1  0.21650589  0.75987664  0.01180924  1
  O  O10  1  0.21827455  0.73942518  0.52115063  1
  O  O11  1  0.78172545  0.26057482  0.47884937  1
  O  O12  1  0.78349411  0.24012336  0.98819076  1
  O  O13  1  0.78349411  0.77168588  0.45662924  1
  O  O14  1  0.78349411  0.77168588  0.98819076  1
