# generated using pymatgen
data_NaSnPHO4F
_symmetry_space_group_name_H-M   'P 1'
_cell_length_a   4.86981588
_cell_length_b   5.32485063
_cell_length_c   19.13870118
_cell_angle_alpha   90.00000000
_cell_angle_beta   90.00000000
_cell_angle_gamma   90.00000000
_symmetry_Int_Tables_number   1
_chemical_formula_structural   NaSnPHO4F
_chemical_formula_sum   'Na4 Sn4 P4 H4 O16 F4'
_cell_volume   496.28646712
_cell_formula_units_Z   4
loop_
 _symmetry_equiv_pos_site_id
 _symmetry_equiv_pos_as_xyz
  1  'x, y, z'
loop_
 _atom_site_type_symbol
 _atom_site_label
 _atom_site_symmetry_multiplicity
 _atom_site_fract_x
 _atom_site_fract_y
 _atom_site_fract_z
 _atom_site_occupancy
  Na  Na0  1  0.23036458  0.75000000  0.00917915  1
  Na  Na1  1  0.26963542  0.25000000  0.50917915  1
  Na  Na2  1  0.73036458  0.75000000  0.49082085  1
  Na  Na3  1  0.76963542  0.25000000  0.99082085  1
  Sn  Sn4  1  0.22723488  0.25000000  0.13816386  1
  Sn  Sn5  1  0.27276512  0.75000000  0.63816386  1
  Sn  Sn6  1  0.72723488  0.25000000  0.36183614  1
  Sn  Sn7  1  0.77276512  0.75000000  0.86183614  1
  P  P8  1  0.20738107  0.25000000  0.87242610  1
  P  P9  1  0.29261893  0.75000000  0.37242610  1
  P  P10  1  0.70738107  0.25000000  0.62757390  1
  P  P11  1  0.79261893  0.75000000  0.12757390  1
  H  H12  1  0.07754595  0.75000000  0.22142867  1
  H  H13  1  0.42245405  0.25000000  0.72142867  1
  H  H14  1  0.57754595  0.75000000  0.27857133  1
  H  H15  1  0.92245405  0.25000000  0.77857133  1
  O  O16  1  0.01772239  0.25000000  0.62541700  1
  O  O17  1  0.07811584  0.01260938  0.90615740  1
  O  O18  1  0.07811584  0.48739062  0.90615740  1
  O  O19  1  0.12065270  0.25000000  0.78992041  1
  O  O20  1  0.37934730  0.75000000  0.28992041  1
  O  O21  1  0.42188416  0.51260938  0.40615740  1
  O  O22  1  0.42188416  0.98739062  0.40615740  1
  O  O23  1  0.48227761  0.75000000  0.12541700  1
  O  O24  1  0.51772239  0.25000000  0.87458300  1
  O  O25  1  0.57811584  0.01260938  0.59384260  1
  O  O26  1  0.57811584  0.48739062  0.59384260  1
  O  O27  1  0.62065270  0.25000000  0.71007959  1
  O  O28  1  0.87934730  0.75000000  0.21007959  1
  O  O29  1  0.92188416  0.51260938  0.09384260  1
  O  O30  1  0.92188416  0.98739062  0.09384260  1
  O  O31  1  0.98227761  0.75000000  0.37458300  1
  F  F32  1  0.15054321  0.75000000  0.53498511  1
  F  F33  1  0.34945679  0.25000000  0.03498511  1
  F  F34  1  0.65054321  0.75000000  0.96501489  1
  F  F35  1  0.84945679  0.25000000  0.46501489  1
