# generated using pymatgen
data_RbCuSb2H2Se4O
_symmetry_space_group_name_H-M   'P 1'
_cell_length_a   11.36635831
_cell_length_b   4.11704224
_cell_length_c   21.42183095
_cell_angle_alpha   90.00000000
_cell_angle_beta   90.00000000
_cell_angle_gamma   90.00000000
_symmetry_Int_Tables_number   1
_chemical_formula_structural   RbCuSb2H2Se4O
_chemical_formula_sum   'Rb4 Cu4 Sb8 H8 Se16 O4'
_cell_volume   1002.45123001
_cell_formula_units_Z   4
loop_
 _symmetry_equiv_pos_site_id
 _symmetry_equiv_pos_as_xyz
  1  'x, y, z'
loop_
 _atom_site_type_symbol
 _atom_site_label
 _atom_site_symmetry_multiplicity
 _atom_site_fract_x
 _atom_site_fract_y
 _atom_site_fract_z
 _atom_site_occupancy
  Rb  Rb0  1  0.15344458  0.75000000  0.58080705  1
  Rb  Rb1  1  0.34655542  0.25000000  0.08080705  1
  Rb  Rb2  1  0.65344458  0.75000000  0.91919295  1
  Rb  Rb3  1  0.84655542  0.25000000  0.41919295  1
  Cu  Cu4  1  0.09373548  0.75000000  0.77420046  1
  Cu  Cu5  1  0.40626452  0.25000000  0.27420046  1
  Cu  Cu6  1  0.59373548  0.75000000  0.72579954  1
  Cu  Cu7  1  0.90626452  0.25000000  0.22579954  1
  Sb  Sb8  1  0.03420574  0.25000000  0.91838015  1
  Sb  Sb9  1  0.13768410  0.75000000  0.26209946  1
  Sb  Sb10  1  0.36231590  0.25000000  0.76209946  1
  Sb  Sb11  1  0.46579426  0.75000000  0.41838015  1
  Sb  Sb12  1  0.53420574  0.25000000  0.58161985  1
  Sb  Sb13  1  0.63768410  0.75000000  0.23790054  1
  Sb  Sb14  1  0.86231590  0.25000000  0.73790054  1
  Sb  Sb15  1  0.96579426  0.75000000  0.08161985  1
  H  H16  1  0.09617907  0.56659219  0.42815969  1
  H  H17  1  0.09617907  0.93340781  0.42815969  1
  H  H18  1  0.40382093  0.06659219  0.92815969  1
  H  H19  1  0.40382093  0.43340781  0.92815969  1
  H  H20  1  0.59617907  0.56659219  0.07184031  1
  H  H21  1  0.59617907  0.93340781  0.07184031  1
  H  H22  1  0.90382093  0.06659219  0.57184031  1
  H  H23  1  0.90382093  0.43340781  0.57184031  1
  Se  Se24  1  0.08601038  0.25000000  0.70923831  1
  Se  Se25  1  0.07496092  0.25000000  0.15208722  1
  Se  Se26  1  0.13997402  0.75000000  0.00089907  1
  Se  Se27  1  0.21393868  0.25000000  0.33817239  1
  Se  Se28  1  0.28606132  0.75000000  0.83817239  1
  Se  Se29  1  0.36002598  0.25000000  0.50089907  1
  Se  Se30  1  0.42503908  0.75000000  0.65208722  1
  Se  Se31  1  0.41398962  0.75000000  0.20923831  1
  Se  Se32  1  0.58601038  0.25000000  0.79076169  1
  Se  Se33  1  0.57496092  0.25000000  0.34791278  1
  Se  Se34  1  0.63997402  0.75000000  0.49910093  1
  Se  Se35  1  0.71393868  0.25000000  0.16182761  1
  Se  Se36  1  0.78606132  0.75000000  0.66182761  1
  Se  Se37  1  0.86002598  0.25000000  0.99910093  1
  Se  Se38  1  0.92503908  0.75000000  0.84791278  1
  Se  Se39  1  0.91398962  0.75000000  0.29076169  1
  O  O40  1  0.05918986  0.75000000  0.45010676  1
  O  O41  1  0.44081014  0.25000000  0.95010676  1
  O  O42  1  0.55918986  0.75000000  0.04989324  1
  O  O43  1  0.94081014  0.25000000  0.54989324  1
