# generated using pymatgen
data_Mg11Mn2O13
_symmetry_space_group_name_H-M   'P 1'
_cell_length_a   3.03854562
_cell_length_b   19.97259013
_cell_length_c   4.30211381
_cell_angle_alpha   96.18277191
_cell_angle_beta   90.00000000
_cell_angle_gamma   85.63741675
_symmetry_Int_Tables_number   1
_chemical_formula_structural   Mg11Mn2O13
_chemical_formula_sum   'Mg11 Mn2 O13'
_cell_volume   258.80554941
_cell_formula_units_Z   1
loop_
 _symmetry_equiv_pos_site_id
 _symmetry_equiv_pos_as_xyz
  1  'x, y, z'
loop_
 _atom_site_type_symbol
 _atom_site_label
 _atom_site_symmetry_multiplicity
 _atom_site_fract_x
 _atom_site_fract_y
 _atom_site_fract_z
 _atom_site_occupancy
  Mg  Mg0  1  0.92198115  0.15603870  0.07801885  1
  Mg  Mg1  1  0.61468192  0.77063516  0.38531808  1
  Mg  Mg2  1  0.53912862  0.92174376  0.46087138  1
  Mg  Mg3  1  0.77032685  0.45934630  0.22967315  1
  Mg  Mg4  1  0.84615400  0.30769200  0.15384600  1
  Mg  Mg5  1  0.38424604  0.23150792  0.61575396  1
  Mg  Mg6  1  0.46042239  0.07915623  0.53957761  1
  Mg  Mg7  1  0.30806196  0.38387708  0.69193804  1
  Mg  Mg8  1  0.23188561  0.53622877  0.76811439  1
  Mg  Mg9  1  0.15317938  0.69364124  0.84682062  1
  Mg  Mg10  1  0.07762508  0.84474984  0.92237492  1
  Mn  Mn11  1  0.69239118  0.61521765  0.30760882  1
  Mn  Mn12  1  0.99991682  0.00016635  0.00008318  1
  O  O13  1  0.45888599  0.08222802  0.04111401  1
  O  O14  1  0.30825964  0.38348172  0.19174036  1
  O  O15  1  0.38404836  0.23190328  0.11595164  1
  O  O16  1  0.23342201  0.53315698  0.26657799  1
  O  O17  1  0.15141551  0.69716899  0.34858449  1
  O  O18  1  0.07674909  0.84650082  0.42325091  1
  O  O19  1  0.76980327  0.46039347  0.73019673  1
  O  O20  1  0.92250473  0.15499153  0.57749527  1
  O  O21  1  0.84615400  0.30769200  0.65384600  1
  O  O22  1  0.69248749  0.61502502  0.80751251  1
  O  O23  1  0.99982051  0.00035998  0.50017949  1
  O  O24  1  0.61555791  0.76888318  0.88444209  1
  O  O25  1  0.54089149  0.91821601  0.95910851  1
