# generated using pymatgen
data_Na9Ni11O20
_symmetry_space_group_name_H-M   'P 1'
_cell_length_a   7.76933460
_cell_length_b   8.04933064
_cell_length_c   7.04900614
_cell_angle_alpha   91.47090978
_cell_angle_beta   88.44692594
_cell_angle_gamma   65.25492256
_symmetry_Int_Tables_number   1
_chemical_formula_structural   Na9Ni11O20
_chemical_formula_sum   'Na9 Ni11 O20'
_cell_volume   399.87308098
_cell_formula_units_Z   1
loop_
 _symmetry_equiv_pos_site_id
 _symmetry_equiv_pos_as_xyz
  1  'x, y, z'
loop_
 _atom_site_type_symbol
 _atom_site_label
 _atom_site_symmetry_multiplicity
 _atom_site_fract_x
 _atom_site_fract_y
 _atom_site_fract_z
 _atom_site_occupancy
  Na  Na0  1  0.90209395  0.90154218  0.39553615  1
  Na  Na1  1  0.89859242  0.40071703  0.89892315  1
  Na  Na2  1  0.69790605  0.69845782  0.20446385  1
  Na  Na3  1  0.49864290  0.50301471  0.00256232  1
  Na  Na4  1  0.70140758  0.19928297  0.70107685  1
  Na  Na5  1  0.30000000  0.80000000  0.30000000  1
  Na  Na6  1  0.50101891  0.99727198  0.49971883  1
  Na  Na7  1  0.09898109  0.60272802  0.10028117  1
  Na  Na8  1  0.10135710  0.09698529  0.59743768  1
  Ni  Ni9  1  0.80000000  0.80000000  0.80000000  1
  Ni  Ni10  1  0.80000000  0.30000000  0.30000000  1
  Ni  Ni11  1  0.59486461  0.10206140  0.09260750  1
  Ni  Ni12  1  0.59962749  0.59791331  0.60472335  1
  Ni  Ni13  1  0.39576720  0.90846702  0.89362517  1
  Ni  Ni14  1  0.40088819  0.39947069  0.40693044  1
  Ni  Ni15  1  0.20423280  0.69153298  0.70637483  1
  Ni  Ni16  1  0.19911181  0.20052931  0.19306956  1
  Ni  Ni17  1  0.30000000  0.30000000  0.80000000  1
  Ni  Ni18  1  0.00037251  0.00208669  0.99527665  1
  Ni  Ni19  1  0.00513539  0.49793860  0.50739250  1
  O  O20  1  0.96015971  0.41652608  0.22218196  1
  O  O21  1  0.96457420  0.91198532  0.72428949  1
  O  O22  1  0.82310808  0.87455890  0.06364517  1
  O  O23  1  0.77689192  0.72544110  0.53635483  1
  O  O24  1  0.84795556  0.37677149  0.57676823  1
  O  O25  1  0.75204444  0.22322851  0.02323177  1
  O  O26  1  0.43793313  0.98599393  0.17836509  1
  O  O27  1  0.55879502  0.52070991  0.33037043  1
  O  O28  1  0.63984029  0.18347392  0.37781804  1
  O  O29  1  0.63542580  0.68801468  0.87571051  1
  O  O30  1  0.42919257  0.46501251  0.69276393  1
  O  O31  1  0.53256500  0.04529701  0.81376616  1
  O  O32  1  0.35481485  0.32039350  0.10536288  1
  O  O33  1  0.35243880  0.81674228  0.61994659  1
  O  O34  1  0.16206687  0.61400607  0.42163491  1
  O  O35  1  0.24518515  0.27960650  0.49463712  1
  O  O36  1  0.24756120  0.78325772  0.98005341  1
  O  O37  1  0.17080743  0.13498749  0.90723607  1
  O  O38  1  0.06743500  0.55470299  0.78623384  1
  O  O39  1  0.04120498  0.07929009  0.26962957  1
