# generated using pymatgen
data_Mn2F7
_symmetry_space_group_name_H-M   'P 1'
_cell_length_a   7.36953866
_cell_length_b   13.06846493
_cell_length_c   5.20996011
_cell_angle_alpha   90.00000000
_cell_angle_beta   90.00000000
_cell_angle_gamma   98.24295691
_symmetry_Int_Tables_number   1
_chemical_formula_structural   Mn2F7
_chemical_formula_sum   'Mn8 F28'
_cell_volume   496.58003110
_cell_formula_units_Z   4
loop_
 _symmetry_equiv_pos_site_id
 _symmetry_equiv_pos_as_xyz
  1  'x, y, z'
loop_
 _atom_site_type_symbol
 _atom_site_label
 _atom_site_symmetry_multiplicity
 _atom_site_fract_x
 _atom_site_fract_y
 _atom_site_fract_z
 _atom_site_occupancy
  Mn  Mn0  1  0.02562180  0.10899098  0.76618588  1
  Mn  Mn1  1  0.07865079  0.32049938  0.26355829  1
  Mn  Mn2  1  0.42105001  0.67977129  0.77002662  1
  Mn  Mn3  1  0.47438633  0.89005768  0.25628852  1
  Mn  Mn4  1  0.52561367  0.10994232  0.75628852  1
  Mn  Mn5  1  0.57894999  0.32022871  0.27002662  1
  Mn  Mn6  1  0.92134921  0.67950062  0.76355829  1
  Mn  Mn7  1  0.97437820  0.89100902  0.26618588  1
  F  F8  1  0.00347654  0.80366184  0.94287793  1
  F  F9  1  0.05434799  0.39260592  0.54012158  1
  F  F10  1  0.17039090  0.67883597  0.65810389  1
  F  F11  1  0.22282258  0.88286246  0.36524642  1
  F  F12  1  0.15610747  0.42655292  0.06863908  1
  F  F13  1  0.05379232  0.01035575  0.07903043  1
  F  F14  1  0.10931983  0.22841675  0.96353650  1
  F  F15  1  0.40779791  0.81398767  0.94993066  1
  F  F16  1  0.35490221  0.61926852  0.06165719  1
  F  F17  1  0.27295006  0.09916727  0.65618665  1
  F  F18  1  0.32479605  0.30325086  0.36764420  1
  F  F19  1  0.43474680  0.56637122  0.59946863  1
  F  F20  1  0.49158378  0.76093991  0.47451053  1
  F  F21  1  0.54153826  0.97435370  0.53795998  1
  F  F22  1  0.45846174  0.02564630  0.03795998  1
  F  F23  1  0.50841622  0.23906009  0.97451053  1
  F  F24  1  0.56525320  0.43362878  0.09946863  1
  F  F25  1  0.67520395  0.69674914  0.86764420  1
  F  F26  1  0.72704994  0.90083273  0.15618665  1
  F  F27  1  0.64509779  0.38073148  0.56165719  1
  F  F28  1  0.59220209  0.18601233  0.44993066  1
  F  F29  1  0.89068017  0.77158325  0.46353650  1
  F  F30  1  0.94620768  0.98964425  0.57903043  1
  F  F31  1  0.84389253  0.57344708  0.56863908  1
  F  F32  1  0.77717742  0.11713754  0.86524642  1
  F  F33  1  0.82960910  0.32116403  0.15810389  1
  F  F34  1  0.94565201  0.60739408  0.04012158  1
  F  F35  1  0.99652346  0.19633816  0.44287793  1
