# generated using pymatgen
data_Li2CoSiO4
_symmetry_space_group_name_H-M   'P 1'
_cell_length_a   6.28078238
_cell_length_b   10.75073530
_cell_length_c   5.02803700
_cell_angle_alpha   90.00000000
_cell_angle_beta   90.00000000
_cell_angle_gamma   90.00000000
_symmetry_Int_Tables_number   1
_chemical_formula_structural   Li2CoSiO4
_chemical_formula_sum   'Li8 Co4 Si4 O16'
_cell_volume   339.50828738
_cell_formula_units_Z   4
loop_
 _symmetry_equiv_pos_site_id
 _symmetry_equiv_pos_as_xyz
  1  'x, y, z'
loop_
 _atom_site_type_symbol
 _atom_site_label
 _atom_site_symmetry_multiplicity
 _atom_site_fract_x
 _atom_site_fract_y
 _atom_site_fract_z
 _atom_site_occupancy
  Li  Li0  1  0.00454795  0.83017803  0.75812848  1
  Li  Li1  1  0.25070480  0.08734226  0.75750364  1
  Li  Li2  1  0.24929520  0.58734226  0.75750364  1
  Li  Li3  1  0.49545205  0.33017803  0.75812848  1
  Li  Li4  1  0.50454795  0.66982197  0.25812848  1
  Li  Li5  1  0.75070480  0.41265774  0.25750364  1
  Li  Li6  1  0.74929520  0.91265774  0.25750364  1
  Li  Li7  1  0.99545205  0.16982197  0.25812848  1
  Co  Co8  1  0.24019401  0.41472364  0.26033606  1
  Co  Co9  1  0.25980599  0.91472364  0.26033606  1
  Co  Co10  1  0.74019401  0.08527636  0.76033606  1
  Co  Co11  1  0.75980599  0.58527636  0.76033606  1
  Si  Si12  1  0.00522897  0.66716862  0.26355790  1
  Si  Si13  1  0.49477103  0.16716862  0.26355790  1
  Si  Si14  1  0.50522897  0.83283138  0.76355790  1
  Si  Si15  1  0.99477103  0.33283138  0.76355790  1
  O  O16  1  0.99463926  0.33279744  0.09125072  1
  O  O17  1  0.00733264  0.81309561  0.15615600  1
  O  O18  1  0.27792870  0.09362214  0.15751423  1
  O  O19  1  0.21304666  0.40489219  0.65867696  1
  O  O20  1  0.28695334  0.90489219  0.65867696  1
  O  O21  1  0.22207130  0.59362214  0.15751423  1
  O  O22  1  0.49266736  0.31309561  0.15615600  1
  O  O23  1  0.50536074  0.83279744  0.09125072  1
  O  O24  1  0.49463926  0.16720256  0.59125072  1
  O  O25  1  0.50733264  0.68690439  0.65615600  1
  O  O26  1  0.77792870  0.40637786  0.65751423  1
  O  O27  1  0.71304666  0.09510781  0.15867696  1
  O  O28  1  0.78695334  0.59510781  0.15867696  1
  O  O29  1  0.72207130  0.90637786  0.65751423  1
  O  O30  1  0.99266736  0.18690439  0.65615600  1
  O  O31  1  0.00536074  0.66720256  0.59125072  1
