# generated using pymatgen
data_CoPO4
_symmetry_space_group_name_H-M   'P 1'
_cell_length_a   10.30495750
_cell_length_b   6.94458150
_cell_length_c   5.03142087
_cell_angle_alpha   90.00000000
_cell_angle_beta   90.00000000
_cell_angle_gamma   90.00000000
_symmetry_Int_Tables_number   1
_chemical_formula_structural   CoPO4
_chemical_formula_sum   'Co4 P4 O16'
_cell_volume   360.06667718
_cell_formula_units_Z   4
loop_
 _symmetry_equiv_pos_site_id
 _symmetry_equiv_pos_as_xyz
  1  'x, y, z'
loop_
 _atom_site_type_symbol
 _atom_site_label
 _atom_site_symmetry_multiplicity
 _atom_site_fract_x
 _atom_site_fract_y
 _atom_site_fract_z
 _atom_site_occupancy
  Co  Co0  1  0.09136976  0.77829594  0.74230778  1
  Co  Co1  1  0.40863024  0.27829594  0.24230778  1
  Co  Co2  1  0.59136976  0.72170406  0.74230778  1
  Co  Co3  1  0.90863024  0.22170406  0.24230778  1
  P  P4  1  0.17074058  0.01710394  0.24909594  1
  P  P5  1  0.32925942  0.51710394  0.74909594  1
  P  P6  1  0.67074058  0.48289606  0.24909594  1
  P  P7  1  0.82925942  0.98289606  0.74909594  1
  O  O8  1  0.08543978  0.19719011  0.18550448  1
  O  O9  1  0.11944183  0.83670359  0.10278162  1
  O  O10  1  0.18743528  0.56039695  0.66433246  1
  O  O11  1  0.16763083  0.98007716  0.55179372  1
  O  O12  1  0.33236917  0.48007716  0.05179372  1
  O  O13  1  0.31256472  0.06039695  0.16433246  1
  O  O14  1  0.38055817  0.33670359  0.60278162  1
  O  O15  1  0.41456022  0.69719011  0.68550448  1
  O  O16  1  0.58543978  0.30280989  0.18550448  1
  O  O17  1  0.61944183  0.66329641  0.10278162  1
  O  O18  1  0.68743528  0.93960305  0.66433246  1
  O  O19  1  0.66763083  0.51992284  0.55179372  1
  O  O20  1  0.83236917  0.01992284  0.05179372  1
  O  O21  1  0.81256472  0.43960305  0.16433246  1
  O  O22  1  0.88055817  0.16329641  0.60278162  1
  O  O23  1  0.91456022  0.80280989  0.68550448  1
