# generated using pymatgen
data_Ca5MnO6
_symmetry_space_group_name_H-M   'P 1'
_cell_length_a   3.38158877
_cell_length_b   5.85102250
_cell_length_c   8.92790088
_cell_angle_alpha   70.76198304
_cell_angle_beta   100.91679030
_cell_angle_gamma   90.00000000
_symmetry_Int_Tables_number   1
_chemical_formula_structural   Ca5MnO6
_chemical_formula_sum   'Ca5 Mn1 O6'
_cell_volume   163.39142080
_cell_formula_units_Z   1
loop_
 _symmetry_equiv_pos_site_id
 _symmetry_equiv_pos_as_xyz
  1  'x, y, z'
loop_
 _atom_site_type_symbol
 _atom_site_label
 _atom_site_symmetry_multiplicity
 _atom_site_fract_x
 _atom_site_fract_y
 _atom_site_fract_z
 _atom_site_occupancy
  Ca  Ca0  1  0.83470681  0.49653412  0.66941362  1
  Ca  Ca1  1  0.33536566  0.99968730  0.67073032  1
  Ca  Ca2  1  0.16529319  0.50346588  0.33058638  1
  Ca  Ca3  1  0.50000000  0.50000000  0.00000000  1
  Ca  Ca4  1  0.66463434  0.00031270  0.32926968  1
  Mn  Mn5  1  0.00000000  0.00000000  0.00000000  1
  O  O6  1  0.91793818  0.75348857  0.83587536  1
  O  O7  1  0.42031874  0.24020556  0.84063748  1
  O  O8  1  0.25088997  0.74608779  0.50177993  1
  O  O9  1  0.57968126  0.75979444  0.15936252  1
  O  O10  1  0.74911003  0.25391221  0.49822007  1
  O  O11  1  0.08206182  0.24651143  0.16412464  1
