# generated using pymatgen
data_TeMoWSeS2
_symmetry_space_group_name_H-M   'P 1'
_cell_length_a   3.31094156
_cell_length_b   3.31095823
_cell_length_c   37.78488551
_cell_angle_alpha   90.00167604
_cell_angle_beta   90.00000000
_cell_angle_gamma   119.99983345
_symmetry_Int_Tables_number   1
_chemical_formula_structural   TeMoWSeS2
_chemical_formula_sum   'Te2 Mo2 W2 Se2 S4'
_cell_volume   358.71925424
_cell_formula_units_Z   2
loop_
 _symmetry_equiv_pos_site_id
 _symmetry_equiv_pos_as_xyz
  1  'x, y, z'
loop_
 _atom_site_type_symbol
 _atom_site_label
 _atom_site_symmetry_multiplicity
 _atom_site_fract_x
 _atom_site_fract_y
 _atom_site_fract_z
 _atom_site_occupancy
  Te  Te0  1  0.33334684  0.66669468  0.70866504  1
  Te  Te1  1  0.33335257  0.66670613  0.60692493  1
  Mo  Mo2  1  0.33329558  0.66659117  0.09392064  1
  Mo  Mo3  1  0.66667097  0.33334195  0.28179787  1
  W  W4  1  0.33332828  0.66665657  0.46939619  1
  W  W5  1  0.66667874  0.33335749  0.65779749  1
  Se  Se6  1  0.66665487  0.33330874  0.42481899  1
  Se  Se7  1  0.66666301  0.33332501  0.51408692  1
  S  S8  1  0.33335306  0.66670711  0.32221127  1
  S  S9  1  0.66664560  0.33329021  0.05347823  1
  S  S10  1  0.66665065  0.33330030  0.13431460  1
  S  S11  1  0.33335983  0.66672066  0.24133583  1
