# generated using pymatgen
data_WO2F
_symmetry_space_group_name_H-M   'P 1'
_cell_length_a   5.55958772
_cell_length_b   5.75175732
_cell_length_c   5.55958681
_cell_angle_alpha   120.90662890
_cell_angle_beta   60.85013600
_cell_angle_gamma   120.90661954
_symmetry_Int_Tables_number   1
_chemical_formula_structural   WO2F
_chemical_formula_sum   'W2 O4 F2'
_cell_volume   124.71346754
_cell_formula_units_Z   2
loop_
 _symmetry_equiv_pos_site_id
 _symmetry_equiv_pos_as_xyz
  1  'x, y, z'
loop_
 _atom_site_type_symbol
 _atom_site_label
 _atom_site_symmetry_multiplicity
 _atom_site_fract_x
 _atom_site_fract_y
 _atom_site_fract_z
 _atom_site_occupancy
  W  W0  1  0.69689834  0.15751737  0.74916689  1
  W  W1  1  0.24916689  0.65751737  0.19689834  1
  O  O2  1  0.99599742  0.40297839  0.93691131  1
  O  O3  1  0.46185296  0.39849958  0.98991127  1
  O  O4  1  0.43691131  0.90297839  0.49599742  1
  O  O5  1  0.48991128  0.89849958  0.96185296  1
  F  F6  1  0.94217708  0.40465166  0.46951572  1
  F  F7  1  0.96951572  0.90465166  0.44217708  1
