# generated using pymatgen
data_MnFe3(PO4)4
_symmetry_space_group_name_H-M   'P 1'
_cell_length_a   9.93721403
_cell_length_b   7.72642524
_cell_length_c   7.73878074
_cell_angle_alpha   101.27660782
_cell_angle_beta   90.00000000
_cell_angle_gamma   90.00000000
_symmetry_Int_Tables_number   1
_chemical_formula_structural   MnFe3(PO4)4
_chemical_formula_sum   'Mn2 Fe6 P8 O32'
_cell_volume   582.70610168
_cell_formula_units_Z   2
loop_
 _symmetry_equiv_pos_site_id
 _symmetry_equiv_pos_as_xyz
  1  'x, y, z'
loop_
 _atom_site_type_symbol
 _atom_site_label
 _atom_site_symmetry_multiplicity
 _atom_site_fract_x
 _atom_site_fract_y
 _atom_site_fract_z
 _atom_site_occupancy
  Mn  Mn0  1  0.78516945  0.15976990  0.40452643  1
  Mn  Mn1  1  0.71483055  0.65976990  0.40452643  1
  Fe  Fe2  1  0.77424233  0.63717805  0.89485354  1
  Fe  Fe3  1  0.72575767  0.13717805  0.89485354  1
  Fe  Fe4  1  0.27301652  0.35928570  0.60959250  1
  Fe  Fe5  1  0.27377758  0.86062654  0.10984211  1
  Fe  Fe6  1  0.22698348  0.85928570  0.60959250  1
  Fe  Fe7  1  0.22622242  0.36062654  0.10984211  1
  P  P8  1  0.90142728  0.41638864  0.16376358  1
  P  P9  1  0.90031834  0.91224496  0.66506963  1
  P  P10  1  0.59968166  0.41224496  0.66506963  1
  P  P11  1  0.59857272  0.91638864  0.16376358  1
  P  P12  1  0.40165871  0.08478629  0.83405394  1
  P  P13  1  0.40283527  0.58520505  0.33529685  1
  P  P14  1  0.09834129  0.58478629  0.83405394  1
  P  P15  1  0.09716473  0.08520505  0.33529685  1
  O  O16  1  0.94600880  0.05059722  0.30147412  1
  O  O17  1  0.94839409  0.55124805  0.79748020  1
  O  O18  1  0.88046819  0.25941654  0.01114630  1
  O  O19  1  0.87837435  0.75916388  0.50817471  1
  O  O20  1  0.82679471  0.08577766  0.63973657  1
  O  O21  1  0.82776746  0.38871848  0.33638672  1
  O  O22  1  0.82731212  0.88371683  0.83740705  1
  O  O23  1  0.83041644  0.58738881  0.13065398  1
  O  O24  1  0.67268788  0.38371683  0.83740705  1
  O  O25  1  0.66958356  0.08738881  0.13065398  1
  O  O26  1  0.67223254  0.88871848  0.33638672  1
  O  O27  1  0.67320529  0.58577766  0.63973657  1
  O  O28  1  0.62162565  0.25916388  0.50817471  1
  O  O29  1  0.61953181  0.75941654  0.01114630  1
  O  O30  1  0.55160591  0.05124805  0.79748020  1
  O  O31  1  0.55399120  0.55059722  0.30147412  1
  O  O32  1  0.44909799  0.44301759  0.69492043  1
  O  O33  1  0.44734302  0.94767236  0.19784434  1
  O  O34  1  0.38177531  0.73965385  0.48915658  1
  O  O35  1  0.37938363  0.23851373  0.98834438  1
  O  O36  1  0.32578489  0.11267932  0.66190430  1
  O  O37  1  0.32923652  0.41210795  0.36331548  1
  O  O38  1  0.32712189  0.91200448  0.86233962  1
  O  O39  1  0.32897701  0.61283812  0.16271764  1
  O  O40  1  0.17421511  0.61267932  0.66190430  1
  O  O41  1  0.17076348  0.91210795  0.36331548  1
  O  O42  1  0.17287811  0.41200448  0.86233962  1
  O  O43  1  0.17102299  0.11283812  0.16271764  1
  O  O44  1  0.12061637  0.73851373  0.98834438  1
  O  O45  1  0.11822469  0.23965385  0.48915658  1
  O  O46  1  0.05090201  0.94301759  0.69492043  1
  O  O47  1  0.05265698  0.44767236  0.19784434  1
