# generated using pymatgen
data_Li2Fe(SiO3)2
_symmetry_space_group_name_H-M   'P 1'
_cell_length_a   5.21075920
_cell_length_b   10.33477833
_cell_length_c   5.21093299
_cell_angle_alpha   104.22342762
_cell_angle_beta   88.43181538
_cell_angle_gamma   75.81555868
_symmetry_Int_Tables_number   1
_chemical_formula_structural   Li2Fe(SiO3)2
_chemical_formula_sum   'Li4 Fe2 Si4 O12'
_cell_volume   262.57618687
_cell_formula_units_Z   2
loop_
 _symmetry_equiv_pos_site_id
 _symmetry_equiv_pos_as_xyz
  1  'x, y, z'
loop_
 _atom_site_type_symbol
 _atom_site_label
 _atom_site_symmetry_multiplicity
 _atom_site_fract_x
 _atom_site_fract_y
 _atom_site_fract_z
 _atom_site_occupancy
  Li  Li0  1  0.52912930  0.82844617  0.91252582  1
  Li  Li1  1  0.10758022  0.67057384  0.83340840  1
  Li  Li2  1  0.83772996  0.32843937  0.10414118  1
  Li  Li3  1  0.91672751  0.17067266  0.52542426  1
  Fe  Fe4  1  0.72827578  0.49924278  0.72421872  1
  Fe  Fe5  1  0.97871934  0.99973142  0.97450617  1
  Si  Si6  1  0.16307032  0.83505067  0.40334566  1
  Si  Si7  1  0.74849272  0.66401990  0.31777341  1
  Si  Si8  1  0.32204043  0.33483104  0.74692758  1
  Si  Si9  1  0.40765129  0.16410892  0.16131447  1
  O  O10  1  0.04952456  0.99096442  0.58892647  1
  O  O11  1  0.18354538  0.82861402  0.08704811  1
  O  O12  1  0.97434164  0.73620270  0.47763214  1
  O  O13  1  0.46081120  0.76311228  0.49127064  1
  O  O14  1  0.76249302  0.67050617  0.00804146  1
  O  O15  1  0.79144933  0.50829113  0.34786314  1
  O  O16  1  0.35187806  0.49042636  0.78779225  1
  O  O17  1  0.01234157  0.32827139  0.76003601  1
  O  O18  1  0.49603155  0.23477253  0.45999244  1
  O  O19  1  0.48129505  0.26420834  0.97491671  1
  O  O20  1  0.09130909  0.17065523  0.18126883  1
  O  O21  1  0.59300669  0.00847564  0.04594514  1
