# generated using pymatgen
data_Na2FePCO7
_symmetry_space_group_name_H-M   'P 1'
_cell_length_a   10.35602841
_cell_length_b   10.50723899
_cell_length_c   6.52654130
_cell_angle_alpha   90.00000000
_cell_angle_beta   90.00000000
_cell_angle_gamma   59.83160045
_symmetry_Int_Tables_number   1
_chemical_formula_structural   Na2FePCO7
_chemical_formula_sum   'Na8 Fe4 P4 C4 O28'
_cell_volume   613.98265948
_cell_formula_units_Z   4
loop_
 _symmetry_equiv_pos_site_id
 _symmetry_equiv_pos_as_xyz
  1  'x, y, z'
loop_
 _atom_site_type_symbol
 _atom_site_label
 _atom_site_symmetry_multiplicity
 _atom_site_fract_x
 _atom_site_fract_y
 _atom_site_fract_z
 _atom_site_occupancy
  Na  Na0  1  0.91984174  0.42171951  0.74204301  1
  Na  Na1  1  0.91984174  0.92171951  0.75795699  1
  Na  Na2  1  0.73650257  0.25852505  0.98716506  1
  Na  Na3  1  0.73650257  0.75852505  0.51283494  1
  Na  Na4  1  0.26349743  0.24147495  0.01283494  1
  Na  Na5  1  0.26349743  0.74147495  0.48716506  1
  Na  Na6  1  0.08015826  0.07828049  0.25795699  1
  Na  Na7  1  0.08015826  0.57828049  0.24204301  1
  Fe  Fe8  1  0.65393493  0.06480255  0.25340492  1
  Fe  Fe9  1  0.65393493  0.56480255  0.24659508  1
  Fe  Fe10  1  0.34606507  0.43519745  0.74659508  1
  Fe  Fe11  1  0.34606507  0.93519745  0.75340492  1
  P  P12  1  0.57566032  0.06694294  0.75033776  1
  P  P13  1  0.57566032  0.56694294  0.74966224  1
  P  P14  1  0.42433968  0.43305706  0.24966224  1
  P  P15  1  0.42433968  0.93305706  0.25033776  1
  C  C16  1  0.93481127  0.39794470  0.24840216  1
  C  C17  1  0.93481127  0.89794470  0.25159784  1
  C  C18  1  0.06518873  0.10205530  0.75159784  1
  C  C19  1  0.06518873  0.60205530  0.74840216  1
  O  O20  1  0.92494002  0.18505422  0.76155234  1
  O  O21  1  0.92494002  0.68505422  0.73844766  1
  O  O22  1  0.87090448  0.04168627  0.23240711  1
  O  O23  1  0.87090448  0.54168627  0.26759289  1
  O  O24  1  0.84198413  0.34742102  0.24023932  1
  O  O25  1  0.84198413  0.84742102  0.25976068  1
  O  O26  1  0.67472466  0.05214788  0.93818415  1
  O  O27  1  0.67655365  0.04034771  0.56113465  1
  O  O28  1  0.67655365  0.54034771  0.93886535  1
  O  O29  1  0.67472466  0.55214788  0.56181585  1
  O  O30  1  0.56893093  0.28041720  0.24817020  1
  O  O31  1  0.56893093  0.78041720  0.25182980  1
  O  O32  1  0.53114412  0.44528815  0.74950387  1
  O  O33  1  0.53114412  0.94528815  0.75049613  1
  O  O34  1  0.46885588  0.05471185  0.25049613  1
  O  O35  1  0.46885588  0.55471185  0.24950387  1
  O  O36  1  0.43106907  0.21958280  0.75182980  1
  O  O37  1  0.43106907  0.71958280  0.74817020  1
  O  O38  1  0.32344635  0.45965229  0.43886535  1
  O  O39  1  0.32527534  0.44785212  0.06181585  1
  O  O40  1  0.32344635  0.95965229  0.06113465  1
  O  O41  1  0.32527534  0.94785212  0.43818415  1
  O  O42  1  0.15801587  0.15257898  0.75976068  1
  O  O43  1  0.15801587  0.65257898  0.74023932  1
  O  O44  1  0.12909552  0.45831373  0.76759289  1
  O  O45  1  0.12909552  0.95831373  0.73240711  1
  O  O46  1  0.07505998  0.31494578  0.23844766  1
  O  O47  1  0.07505998  0.81494578  0.26155234  1
