# generated using pymatgen
data_Li9Mn14O32
_symmetry_space_group_name_H-M   'P 1'
_cell_length_a   5.87159713
_cell_length_b   5.87159713
_cell_length_c   19.43612177
_cell_angle_alpha   98.87988549
_cell_angle_beta   98.87988549
_cell_angle_gamma   59.92841663
_symmetry_Int_Tables_number   1
_chemical_formula_structural   Li9Mn14O32
_chemical_formula_sum   'Li9 Mn14 O32'
_cell_volume   570.60194098
_cell_formula_units_Z   1
loop_
 _symmetry_equiv_pos_site_id
 _symmetry_equiv_pos_as_xyz
  1  'x, y, z'
loop_
 _atom_site_type_symbol
 _atom_site_label
 _atom_site_symmetry_multiplicity
 _atom_site_fract_x
 _atom_site_fract_y
 _atom_site_fract_z
 _atom_site_occupancy
  Li  Li0  1  0.90526350  0.90526350  0.22263165  1
  Li  Li1  1  0.60093385  0.60093385  0.28271095  1
  Li  Li2  1  0.64837201  0.64837201  0.46632916  1
  Li  Li3  1  0.12493773  0.12493773  0.37536213  1
  Li  Li4  1  0.34601099  0.34601099  0.52819122  1
  Li  Li5  1  0.75005342  0.75005342  0.74958635  1
  Li  Li6  1  0.40483347  0.40483347  0.71440544  1
  Li  Li7  1  0.09480187  0.09480187  0.78511040  1
  Li  Li8  1  0.15620388  0.15620388  0.96764976  1
  Mn  Mn9  1  0.50040627  0.50040627  0.00063799  1
  Mn  Mn10  1  0.37529500  0.87498098  0.12494755  1
  Mn  Mn11  1  0.87498098  0.37529500  0.12494755  1
  Mn  Mn12  1  0.37428479  0.37428479  0.12452935  1
  Mn  Mn13  1  0.12516307  0.62528168  0.37538926  1
  Mn  Mn14  1  0.24981157  0.24981157  0.25337466  1
  Mn  Mn15  1  0.62528168  0.12516307  0.37538926  1
  Mn  Mn16  1  0.37922684  0.87306865  0.62544826  1
  Mn  Mn17  1  0.87365588  0.87365588  0.62574271  1
  Mn  Mn18  1  0.87306865  0.37922684  0.62544826  1
  Mn  Mn19  1  0.00022822  0.00022822  0.49756089  1
  Mn  Mn20  1  0.62761477  0.62761477  0.87440379  1
  Mn  Mn21  1  0.11882513  0.62759467  0.87431941  1
  Mn  Mn22  1  0.62759467  0.11882513  0.87431941  1
  O  O23  1  0.66789308  0.66789308  0.06532820  1
  O  O24  1  0.23022673  0.66912357  0.06593521  1
  O  O25  1  0.66912357  0.23022673  0.06593521  1
  O  O26  1  0.55941735  0.55941735  0.17881583  1
  O  O27  1  0.43474777  0.97847144  0.31090389  1
  O  O28  1  0.07909835  0.52516419  0.18249222  1
  O  O29  1  0.18881860  0.18881860  0.07040108  1
  O  O30  1  0.93072487  0.93072487  0.32355696  1
  O  O31  1  0.08002083  0.08002083  0.18516363  1
  O  O32  1  0.82693366  0.82693366  0.43439879  1
  O  O33  1  0.27221408  0.81485753  0.43921854  1
  O  O34  1  0.52516419  0.07909835  0.18249222  1
  O  O35  1  0.42278048  0.42278048  0.31585907  1
  O  O36  1  0.97847144  0.43474777  0.31090389  1
  O  O37  1  0.16858105  0.72727975  0.56680150  1
  O  O38  1  0.31914133  0.31914133  0.42693015  1
  O  O39  1  0.81485753  0.27221408  0.43921854  1
  O  O40  1  0.69082618  0.69082618  0.57217193  1
  O  O41  1  0.57308162  0.57308162  0.67719457  1
  O  O42  1  0.03254817  0.57189082  0.67724642  1
  O  O43  1  0.72727975  0.16858105  0.56680150  1
  O  O44  1  0.92781981  0.92781981  0.82283780  1
  O  O45  1  0.16891373  0.16891373  0.56511069  1
  O  O46  1  0.46659678  0.92764838  0.82282354  1
  O  O47  1  0.92764838  0.46659678  0.82282354  1
  O  O48  1  0.06012034  0.06012034  0.67780805  1
  O  O49  1  0.80933691  0.80933691  0.92696643  1
  O  O50  1  0.44042592  0.44042592  0.82240126  1
  O  O51  1  0.57189082  0.03254817  0.67724642  1
  O  O52  1  0.33124063  0.77225456  0.93487876  1
  O  O53  1  0.33120125  0.33120125  0.93476899  1
  O  O54  1  0.77225456  0.33124063  0.93487876  1
