# generated using pymatgen
data_Li5Fe(SiO4)2
_symmetry_space_group_name_H-M   'P 1'
_cell_length_a   5.25361704
_cell_length_b   5.25361704
_cell_length_c   6.32003315
_cell_angle_alpha   89.81911678
_cell_angle_beta   90.18088322
_cell_angle_gamma   89.09899509
_symmetry_Int_Tables_number   1
_chemical_formula_structural   Li5Fe(SiO4)2
_chemical_formula_sum   'Li5 Fe1 Si2 O8'
_cell_volume   174.41269069
_cell_formula_units_Z   1
loop_
 _symmetry_equiv_pos_site_id
 _symmetry_equiv_pos_as_xyz
  1  'x, y, z'
loop_
 _atom_site_type_symbol
 _atom_site_label
 _atom_site_symmetry_multiplicity
 _atom_site_fract_x
 _atom_site_fract_y
 _atom_site_fract_z
 _atom_site_occupancy
  Li  Li0  1  0.19815168  0.82613963  0.51230853  1
  Li  Li1  1  0.67023455  0.67023455  0.75000000  1
  Li  Li2  1  0.31905466  0.31905466  0.75000000  1
  Li  Li3  1  0.30380180  0.30380180  0.25000000  1
  Li  Li4  1  0.82613963  0.19815168  0.98769147  1
  Fe  Fe5  1  0.67644146  0.67644146  0.25000000  1
  Si  Si6  1  0.18094909  0.83244485  0.99346071  1
  Si  Si7  1  0.83244485  0.18094909  0.50653929  1
  O  O8  1  0.31419816  0.70349619  0.21445676  1
  O  O9  1  0.29997245  0.69668856  0.78541517  1
  O  O10  1  0.13961410  0.19907330  0.50003806  1
  O  O11  1  0.77547486  0.86426466  0.48962950  1
  O  O12  1  0.19907330  0.13961410  0.99996194  1
  O  O13  1  0.86426466  0.77547486  0.01037050  1
  O  O14  1  0.69668856  0.29997245  0.71458483  1
  O  O15  1  0.70349619  0.31419816  0.28554324  1
