# generated using pymatgen
data_LiV2(PO4)2
_symmetry_space_group_name_H-M   'P 1'
_cell_length_a   10.33911621
_cell_length_b   4.83055360
_cell_length_c   5.91902873
_cell_angle_alpha   89.07141090
_cell_angle_beta   90.00000000
_cell_angle_gamma   90.00000000
_symmetry_Int_Tables_number   1
_chemical_formula_structural   LiV2(PO4)2
_chemical_formula_sum   'Li2 V4 P4 O16'
_cell_volume   295.57910552
_cell_formula_units_Z   2
loop_
 _symmetry_equiv_pos_site_id
 _symmetry_equiv_pos_as_xyz
  1  'x, y, z'
loop_
 _atom_site_type_symbol
 _atom_site_label
 _atom_site_symmetry_multiplicity
 _atom_site_fract_x
 _atom_site_fract_y
 _atom_site_fract_z
 _atom_site_occupancy
  Li  Li0  1  0.25120242  0.50519227  0.23848428  1
  Li  Li1  1  0.75120242  0.99480773  0.76151572  1
  V  V2  1  0.02593375  0.97681005  0.00314271  1
  V  V3  1  0.47561674  0.03079693  0.49960415  1
  V  V4  1  0.52593375  0.52318995  0.99685729  1
  V  V5  1  0.97561674  0.46920307  0.50039585  1
  P  P6  1  0.15812166  0.90299140  0.50343937  1
  P  P7  1  0.34496371  0.08021946  0.00036082  1
  P  P8  1  0.65812166  0.59700860  0.49656063  1
  P  P9  1  0.84496371  0.41978054  0.99963918  1
  O  O10  1  0.07931537  0.76205391  0.70072359  1
  O  O11  1  0.09040870  0.74542903  0.29901773  1
  O  O12  1  0.14097424  0.21666818  0.49029778  1
  O  O13  1  0.20691552  0.19129301  0.00713419  1
  O  O14  1  0.30062185  0.81614998  0.49919942  1
  O  O15  1  0.35577471  0.76677316  0.01353133  1
  O  O16  1  0.42353045  0.20734746  0.79282778  1
  O  O17  1  0.41854087  0.22421111  0.20852342  1
  O  O18  1  0.57931537  0.73794609  0.29927641  1
  O  O19  1  0.59040870  0.75457097  0.70098227  1
  O  O20  1  0.64097424  0.28333182  0.50970222  1
  O  O21  1  0.70691552  0.30870699  0.99286581  1
  O  O22  1  0.80062185  0.68385002  0.50080058  1
  O  O23  1  0.85577471  0.73322684  0.98646867  1
  O  O24  1  0.92353045  0.29265254  0.20717222  1
  O  O25  1  0.91854087  0.27578889  0.79147658  1
