# generated using pymatgen
data_Na2FePCO7
_symmetry_space_group_name_H-M   'P 1'
_cell_length_a   8.95327037
_cell_length_b   10.47406216
_cell_length_c   6.53492271
_cell_angle_alpha   90.00000000
_cell_angle_beta   90.00000000
_cell_angle_gamma   89.75332281
_symmetry_Int_Tables_number   1
_chemical_formula_structural   Na2FePCO7
_chemical_formula_sum   'Na8 Fe4 P4 C4 O28'
_cell_volume   612.82048853
_cell_formula_units_Z   4
loop_
 _symmetry_equiv_pos_site_id
 _symmetry_equiv_pos_as_xyz
  1  'x, y, z'
loop_
 _atom_site_type_symbol
 _atom_site_label
 _atom_site_symmetry_multiplicity
 _atom_site_fract_x
 _atom_site_fract_y
 _atom_site_fract_z
 _atom_site_occupancy
  Na  Na0  1  0.08030848  0.38248413  0.24025070  1
  Na  Na1  1  0.08030848  0.88248413  0.25974930  1
  Na  Na2  1  0.26312104  0.12580319  0.01277631  1
  Na  Na3  1  0.26312104  0.62580319  0.48722369  1
  Na  Na4  1  0.73687896  0.37419681  0.51277631  1
  Na  Na5  1  0.73687896  0.87419681  0.98722369  1
  Na  Na6  1  0.91969152  0.11751587  0.74025070  1
  Na  Na7  1  0.91969152  0.61751587  0.75974930  1
  Fe  Fe8  1  0.34641919  0.39242517  0.75551451  1
  Fe  Fe9  1  0.34641919  0.89242517  0.74448549  1
  Fe  Fe10  1  0.65358081  0.10757483  0.25551451  1
  Fe  Fe11  1  0.65358081  0.60757483  0.24448549  1
  P  P12  1  0.42378843  0.35419083  0.25195012  1
  P  P13  1  0.42378843  0.85419083  0.24804988  1
  P  P14  1  0.57621157  0.14580917  0.75195012  1
  P  P15  1  0.57621157  0.64580917  0.74804988  1
  C  C16  1  0.06458947  0.36480209  0.74448932  1
  C  C17  1  0.06458947  0.86480209  0.75551068  1
  C  C18  1  0.93541053  0.13519791  0.24448932  1
  C  C19  1  0.93541053  0.63519791  0.25551068  1
  O  O20  1  0.07643274  0.14867538  0.23797404  1
  O  O21  1  0.07643274  0.64867538  0.26202596  1
  O  O22  1  0.12842388  0.47757260  0.73486779  1
  O  O23  1  0.12842388  0.97757260  0.76513221  1
  O  O24  1  0.15664444  0.26800708  0.76267410  1
  O  O25  1  0.15664444  0.76800708  0.73732590  1
  O  O26  1  0.32360140  0.37874650  0.06191459  1
  O  O27  1  0.32414587  0.38900325  0.43879827  1
  O  O28  1  0.32414587  0.88900325  0.06120173  1
  O  O29  1  0.32360140  0.87874650  0.43808541  1
  O  O30  1  0.43133738  0.06600404  0.75310679  1
  O  O31  1  0.43133738  0.56600404  0.74689321  1
  O  O32  1  0.46809655  0.21008337  0.25109059  1
  O  O33  1  0.46809655  0.71008337  0.24890941  1
  O  O34  1  0.53190345  0.28991663  0.75109059  1
  O  O35  1  0.53190345  0.78991663  0.74890941  1
  O  O36  1  0.56866262  0.43399596  0.25310679  1
  O  O37  1  0.56866262  0.93399596  0.24689321  1
  O  O38  1  0.67639860  0.12125350  0.56191459  1
  O  O39  1  0.67585413  0.11099675  0.93879827  1
  O  O40  1  0.67585413  0.61099675  0.56120173  1
  O  O41  1  0.67639860  0.62125350  0.93808541  1
  O  O42  1  0.84335656  0.23199292  0.26267410  1
  O  O43  1  0.84335656  0.73199292  0.23732590  1
  O  O44  1  0.87157612  0.02242740  0.23486779  1
  O  O45  1  0.87157612  0.52242740  0.26513221  1
  O  O46  1  0.92356726  0.35132462  0.73797404  1
  O  O47  1  0.92356726  0.85132462  0.76202596  1
