# generated using pymatgen
data_Li4Cr3NiO8
_symmetry_space_group_name_H-M   'P 1'
_cell_length_a   10.21745766
_cell_length_b   10.21747520
_cell_length_c   14.44805438
_cell_angle_alpha   19.49338661
_cell_angle_beta   19.49343989
_cell_angle_gamma   33.60390332
_symmetry_Int_Tables_number   1
_chemical_formula_structural   Li4Cr3NiO8
_chemical_formula_sum   'Li4 Cr3 Ni1 O8'
_cell_volume   145.38349373
_cell_formula_units_Z   1
loop_
 _symmetry_equiv_pos_site_id
 _symmetry_equiv_pos_as_xyz
  1  'x, y, z'
loop_
 _atom_site_type_symbol
 _atom_site_label
 _atom_site_symmetry_multiplicity
 _atom_site_fract_x
 _atom_site_fract_y
 _atom_site_fract_z
 _atom_site_occupancy
  Li  Li0  1  0.00000394  0.00000417  0.49999534  1
  Li  Li1  1  0.00000113  0.50000580  0.49999591  1
  Li  Li2  1  0.50000336  0.00000291  0.49999688  1
  Li  Li3  1  0.50000093  0.50000206  0.49999950  1
  Cr  Cr4  1  0.00002727  0.49997790  -0.00000357  1
  Cr  Cr5  1  0.50001178  0.00002155  -0.00002397  1
  Cr  Cr6  1  0.49996191  0.49999069  0.00002493  1
  Ni  Ni7  1  0.99999045  -0.00000783  0.00001142  1
  O  O8  1  -0.00017640  -0.00017424  0.25731915  1
  O  O9  1  0.00252962  0.48852806  0.26331637  1
  O  O10  1  0.48849286  0.00251285  0.26334743  1
  O  O11  1  0.00017749  0.00017646  0.74268084  1
  O  O12  1  0.50932594  0.50930993  0.24523907  1
  O  O13  1  0.99747308  0.51147224  0.73668469  1
  O  O14  1  0.51150564  0.99748858  0.73665493  1
  O  O15  1  0.49067301  0.49068888  0.75476207  1
