# generated using pymatgen
data_Cr7Ni20Mo3
_symmetry_space_group_name_H-M   'P 1'
_cell_length_a   6.23265412
_cell_length_b   11.64311791
_cell_length_c   15.27450401
_cell_angle_alpha   70.29754638
_cell_angle_beta   89.50201545
_cell_angle_gamma   89.58041823
_symmetry_Int_Tables_number   1
_chemical_formula_structural   Cr7Ni20Mo3
_chemical_formula_sum   'Cr21 Ni60 Mo9'
_cell_volume   1043.49022364
_cell_formula_units_Z   3
loop_
 _symmetry_equiv_pos_site_id
 _symmetry_equiv_pos_as_xyz
  1  'x, y, z'
loop_
 _atom_site_type_symbol
 _atom_site_label
 _atom_site_symmetry_multiplicity
 _atom_site_fract_x
 _atom_site_fract_y
 _atom_site_fract_z
 _atom_site_occupancy
  Cr  Cr0  1  0.33551488  0.93154608  0.43336505  1
  Cr  Cr1  1  0.00571715  0.79767967  0.29725878  1
  Cr  Cr2  1  0.33432091  0.73347235  0.23312277  1
  Cr  Cr3  1  0.99955356  0.60125093  0.09912238  1
  Cr  Cr4  1  0.66889003  0.66726770  0.16577525  1
  Cr  Cr5  1  0.33245780  0.53434620  0.03193963  1
  Cr  Cr6  1  -0.00016475  0.79885908  0.80181919  1
  Cr  Cr7  1  0.67285069  0.86403673  0.86631647  1
  Cr  Cr8  1  0.33609187  0.73107179  0.73371607  1
  Cr  Cr9  1  0.65870949  0.66679751  0.66992671  1
  Cr  Cr10  1  0.33842426  0.53224092  0.53247199  1
  Cr  Cr11  1  0.99204268  0.40366496  0.40088653  1
  Cr  Cr12  1  0.66530098  0.46795311  0.46677647  1
  Cr  Cr13  1  0.34080424  0.13191027  0.13053970  1
  Cr  Cr14  1  0.99651256  0.00021122  0.00113641  1
  Cr  Cr15  1  0.66727050  0.06649279  0.06540634  1
  Cr  Cr16  1  0.99949028  0.40044700  0.90047526  1
  Cr  Cr17  1  0.66494417  0.46774009  0.96575192  1
  Cr  Cr18  1  0.33386589  0.33372598  0.83384745  1
  Cr  Cr19  1  0.66009378  0.26887890  0.76916611  1
  Cr  Cr20  1  0.33153614  0.13354888  0.63429430  1
  Ni  Ni21  1  0.32981925  0.73135585  0.40070254  1
  Ni  Ni22  1  0.00319238  0.60013554  0.26621826  1
  Ni  Ni23  1  0.66702811  0.66480355  0.33292668  1
  Ni  Ni24  1  0.33599579  0.53578151  0.19861409  1
  Ni  Ni25  1  0.99808029  0.40263687  0.06449444  1
  Ni  Ni26  1  0.66631469  0.46995834  0.13094597  1
  Ni  Ni27  1  0.33145499  0.33326295  0.99936553  1
  Ni  Ni28  1  0.33212426  0.73126535  0.89870352  1
  Ni  Ni29  1  0.00041522  0.60025841  0.76948309  1
  Ni  Ni30  1  0.66621608  0.66582923  0.83404375  1
  Ni  Ni31  1  0.33605949  0.53318830  0.70131821  1
  Ni  Ni32  1  0.99862565  0.40165563  0.56461729  1
  Ni  Ni33  1  0.66382348  0.46576326  0.63467317  1
  Ni  Ni34  1  0.33352961  0.33428722  0.50239712  1
  Ni  Ni35  1  0.99832869  0.20051658  0.36749892  1
  Ni  Ni36  1  0.67006981  0.27040214  0.43507252  1
  Ni  Ni37  1  0.33370450  0.12834498  0.30121661  1
  Ni  Ni38  1  -0.00121392  0.99690245  0.16495336  1
  Ni  Ni39  1  0.66381457  0.06513633  0.23004229  1
  Ni  Ni40  1  0.33428851  0.93300510  0.10141655  1
  Ni  Ni41  1  0.99752669  0.79780246  0.96745085  1
  Ni  Ni42  1  0.67082230  0.86593479  0.03393637  1
  Ni  Ni43  1  0.00182335  0.19889917  0.86868924  1
  Ni  Ni44  1  0.66698972  0.26674402  0.93277966  1
  Ni  Ni45  1  0.33573954  0.13506607  0.80003041  1
  Ni  Ni46  1  0.00238334  0.99686172  0.66991997  1
  Ni  Ni47  1  0.66193692  0.06484332  0.73710055  1
  Ni  Ni48  1  0.33481316  0.92922836  0.60220049  1
  Ni  Ni49  1  0.00356748  0.79770830  0.46555724  1
  Ni  Ni50  1  0.66629132  0.86146988  0.53639344  1
  Ni  Ni51  1  0.33561644  0.73386497  0.56677078  1
  Ni  Ni52  1  0.99766452  0.60006332  0.43107912  1
  Ni  Ni53  1  0.66264779  0.66344952  0.50093325  1
  Ni  Ni54  1  0.33321569  0.53619315  0.36765862  1
  Ni  Ni55  1  -0.00093398  0.40606275  0.23094629  1
  Ni  Ni56  1  0.66960321  0.47144458  0.29974918  1
  Ni  Ni57  1  0.33329178  0.33667158  0.16255606  1
  Ni  Ni58  1  0.33459872  0.73209538  0.06718867  1
  Ni  Ni59  1  0.99918319  0.60141471  0.93289274  1
  Ni  Ni60  1  0.66519844  0.66837697  0.99857269  1
  Ni  Ni61  1  0.33312908  0.53348451  0.86591229  1
  Ni  Ni62  1  -0.00011769  0.40002865  0.73591498  1
  Ni  Ni63  1  0.66732654  0.46796599  0.79986572  1
  Ni  Ni64  1  0.33333203  0.33648164  0.66669581  1
  Ni  Ni65  1  0.00378434  0.20348638  0.53195998  1
  Ni  Ni66  1  0.66257546  0.27056673  0.60073014  1
  Ni  Ni67  1  0.33524209  0.13323287  0.46710118  1
  Ni  Ni68  1  0.00183920  0.99811441  0.33151375  1
  Ni  Ni69  1  0.66443736  0.06636805  0.39977552  1
  Ni  Ni70  1  0.32973772  0.93303125  0.26516379  1
  Ni  Ni71  1  0.00302193  0.79969784  0.13227804  1
  Ni  Ni72  1  0.66765990  0.86599612  0.19739916  1
  Ni  Ni73  1  0.99903739  0.19995695  0.03107571  1
  Ni  Ni74  1  0.66334473  0.26822428  0.09551238  1
  Ni  Ni75  1  0.33424272  0.13542353  0.96688332  1
  Ni  Ni76  1  0.99678030  0.99758923  0.83484126  1
  Ni  Ni77  1  0.67059751  0.06843156  0.90062313  1
  Ni  Ni78  1  0.33258279  0.93236539  0.76527302  1
  Ni  Ni79  1  -0.00017640  0.79808845  0.63696926  1
  Ni  Ni80  1  0.66751235  0.86326533  0.70320594  1
  Mo  Mo81  1  0.66488396  0.86546860  0.36632600  1
  Mo  Mo82  1  0.33521597  0.93267625  0.93336721  1
  Mo  Mo83  1  0.00022990  0.59933788  0.60085703  1
  Mo  Mo84  1  0.32443468  0.33662579  0.33459484  1
  Mo  Mo85  1  0.00798724  0.19912280  0.19682142  1
  Mo  Mo86  1  0.66570876  0.26827871  0.26519837  1
  Mo  Mo87  1  0.99850879  0.20029484  0.70074307  1
  Mo  Mo88  1  0.00768099  0.99679393  0.49924597  1
  Mo  Mo89  1  0.66158221  0.06777523  0.56992740  1
