# generated using pymatgen
data_Na2FePCO7
_symmetry_space_group_name_H-M   'P 1'
_cell_length_a   10.34882632
_cell_length_b   8.36248799
_cell_length_c   8.39091812
_cell_angle_alpha   77.38755262
_cell_angle_beta   71.22450026
_cell_angle_gamma   107.54380748
_symmetry_Int_Tables_number   1
_chemical_formula_structural   Na2FePCO7
_chemical_formula_sum   'Na8 Fe4 P4 C4 O28'
_cell_volume   614.24134412
_cell_formula_units_Z   4
loop_
 _symmetry_equiv_pos_site_id
 _symmetry_equiv_pos_as_xyz
  1  'x, y, z'
loop_
 _atom_site_type_symbol
 _atom_site_label
 _atom_site_symmetry_multiplicity
 _atom_site_fract_x
 _atom_site_fract_y
 _atom_site_fract_z
 _atom_site_occupancy
  Na  Na0  1  0.91850119  0.70636574  0.54973348  1
  Na  Na1  1  0.91900644  0.20962841  0.05585232  1
  Na  Na2  1  0.73184759  0.74774123  0.27027354  1
  Na  Na3  1  0.73146752  0.47806826  0.00194965  1
  Na  Na4  1  0.26302399  0.74998054  0.23975419  1
  Na  Na5  1  0.26425145  0.25185364  0.73524409  1
  Na  Na6  1  0.07260737  0.28110191  0.44935823  1
  Na  Na7  1  0.08688156  0.79283507  0.93902379  1
  Fe  Fe8  1  0.65684139  0.30006813  0.44977513  1
  Fe  Fe9  1  0.65353805  0.82116542  0.92856899  1
  Fe  Fe10  1  0.34545794  0.19696734  0.06705849  1
  Fe  Fe11  1  0.34595818  0.69728253  0.56721439  1
  P  P12  1  0.57610099  0.55656288  0.69138986  1
  P  P13  1  0.57563023  0.05815340  0.19268732  1
  P  P14  1  0.42609216  0.44484822  0.30931388  1
  P  P15  1  0.42226835  0.94271332  0.81123902  1
  C  C16  1  0.93688753  0.48663074  0.26667416  1
  C  C17  1  0.93526175  0.97494192  0.77836446  1
  C  C18  1  0.06529149  0.01677896  0.22128482  1
  C  C19  1  0.06508994  0.52140425  0.72608329  1
  O  O20  1  0.92477728  0.92850401  0.30122018  1
  O  O21  1  0.92474497  0.44436095  0.81736864  1
  O  O22  1  0.87429992  0.33824078  0.40628645  1
  O  O23  1  0.87085939  0.82615249  0.91999628  1
  O  O24  1  0.84410384  0.53407641  0.21131780  1
  O  O25  1  0.84348846  0.02235343  0.72224992  1
  O  O26  1  0.67688092  0.97922567  0.08387458  1
  O  O27  1  0.67040325  0.66207620  0.77528581  1
  O  O28  1  0.68182034  0.49433921  0.56595223  1
  O  O29  1  0.67456449  0.18039976  0.26012698  1
  O  O30  1  0.57097070  0.59631845  0.15375605  1
  O  O31  1  0.56712887  0.08963975  0.65942528  1
  O  O32  1  0.53016370  0.17738459  0.06968420  1
  O  O33  1  0.53029831  0.67938625  0.57231972  1
  O  O34  1  0.46336622  0.82333695  0.94105822  1
  O  O35  1  0.47343306  0.33042061  0.43388910  1
  O  O36  1  0.43214662  0.90516878  0.34384159  1
  O  O37  1  0.43322839  0.39890466  0.83773667  1
  O  O38  1  0.32456526  0.82565414  0.73926770  1
  O  O39  1  0.32490364  0.52183030  0.42003925  1
  O  O40  1  0.32798810  0.32857327  0.23709598  1
  O  O41  1  0.32074787  0.01921885  0.92193518  1
  O  O42  1  0.15812615  0.96996910  0.27573696  1
  O  O43  1  0.15827995  0.46820779  0.77372240  1
  O  O44  1  0.12767691  0.16425447  0.08027687  1
  O  O45  1  0.12746223  0.66371707  0.57967537  1
  O  O46  1  0.07667794  0.57653279  0.19111180  1
  O  O47  1  0.07488713  0.06419635  0.70244069  1
