# generated using pymatgen
data_Na2LiTi3Al(PO4)6
_symmetry_space_group_name_H-M   'P 1'
_cell_length_a   8.79902840
_cell_length_b   8.57521163
_cell_length_c   8.57654877
_cell_angle_alpha   60.08459857
_cell_angle_beta   61.10695178
_cell_angle_gamma   61.13340107
_symmetry_Int_Tables_number   1
_chemical_formula_structural   Na2LiTi3Al(PO4)6
_chemical_formula_sum   'Na2 Li1 Ti3 Al1 P6 O24'
_cell_volume   465.49216021
_cell_formula_units_Z   1
loop_
 _symmetry_equiv_pos_site_id
 _symmetry_equiv_pos_as_xyz
  1  'x, y, z'
loop_
 _atom_site_type_symbol
 _atom_site_label
 _atom_site_symmetry_multiplicity
 _atom_site_fract_x
 _atom_site_fract_y
 _atom_site_fract_z
 _atom_site_occupancy
  Na  Na0  1  0.99016458  0.00494321  0.01217817  1
  Na  Na1  1  0.50376227  0.49000253  0.49684567  1
  Li  Li2  1  0.24964701  0.83945368  0.66047636  1
  Ti  Ti3  1  0.06042783  0.63864681  0.64522894  1
  Ti  Ti4  1  0.43725564  0.85522165  0.86187121  1
  Ti  Ti5  1  0.93249892  0.35563070  0.35612502  1
  Al  Al6  1  0.56637136  0.14417852  0.14497937  1
  P  P7  1  0.25634284  0.24687544  0.52994591  1
  P  P8  1  0.25507646  0.96552237  0.25148599  1
  P  P9  1  0.25605474  0.52717951  0.96765460  1
  P  P10  1  0.74752144  0.45479684  0.04071652  1
  P  P11  1  0.75312124  0.03758662  0.75654921  1
  P  P12  1  0.74224566  0.75722420  0.45766865  1
  O  O13  1  0.07810219  0.13336633  0.28366903  1
  O  O14  1  0.07970433  0.50196502  0.13456565  1
  O  O15  1  0.07875531  0.28238871  0.50341908  1
  O  O16  1  0.26316209  0.06686496  0.71369896  1
  O  O17  1  0.23663124  0.41846427  0.56422654  1
  O  O18  1  0.42628298  0.21645554  0.36230628  1
  O  O19  1  0.26548701  0.93441367  0.08236900  1
  O  O20  1  0.23849349  0.78510119  0.43401809  1
  O  O21  1  0.23899469  0.56523680  0.77750510  1
  O  O22  1  0.57813452  0.63121021  0.00411341  1
  O  O23  1  0.73218262  0.27582673  0.06224252  1
  O  O24  1  0.58273483  0.99977097  0.78520431  1
  O  O25  1  0.42547054  0.99671521  0.21843462  1
  O  O26  1  0.26457221  0.72068171  0.93261296  1
  O  O27  1  0.42497138  0.36039542  0.99919122  1
  O  O28  1  0.76240021  0.43663266  0.22087811  1
  O  O29  1  0.76343435  0.21987165  0.58018603  1
  O  O30  1  0.73276067  0.06195913  0.93020277  1
  O  O31  1  0.56888684  0.78576135  0.63037488  1
  O  O32  1  0.76229964  0.57942219  0.43603995  1
  O  O33  1  0.73142318  0.92951466  0.27720756  1
  O  O34  1  0.91541703  0.71998682  0.49777168  1
  O  O35  1  0.91996925  0.49318587  0.86770482  1
  O  O36  1  0.92923741  0.86854585  0.71933279  1
