# generated using pymatgen
data_TeMoWSeS2
_symmetry_space_group_name_H-M   'P 1'
_cell_length_a   3.31107952
_cell_length_b   3.31091402
_cell_length_c   37.74017797
_cell_angle_alpha   90.00031192
_cell_angle_beta   90.00004673
_cell_angle_gamma   119.99952101
_symmetry_Int_Tables_number   1
_chemical_formula_structural   TeMoWSeS2
_chemical_formula_sum   'Te2 Mo2 W2 Se2 S4'
_cell_volume   358.30608633
_cell_formula_units_Z   2
loop_
 _symmetry_equiv_pos_site_id
 _symmetry_equiv_pos_as_xyz
  1  'x, y, z'
loop_
 _atom_site_type_symbol
 _atom_site_label
 _atom_site_symmetry_multiplicity
 _atom_site_fract_x
 _atom_site_fract_y
 _atom_site_fract_z
 _atom_site_occupancy
  Te  Te0  1  0.66664701  0.33329801  0.41863061  1
  Te  Te1  1  0.66663310  0.33327038  0.52048024  1
  Mo  Mo2  1  0.33331059  0.66662109  0.09394643  1
  Mo  Mo3  1  0.66667911  0.33338039  0.28177103  1
  W  W4  1  0.33330940  0.66661971  0.46956046  1
  W  W5  1  0.66668042  0.33336630  0.65765862  1
  Se  Se6  1  0.33335467  0.66671320  0.70237007  1
  Se  Se7  1  0.33334959  0.66670253  0.61293551  1
  S  S8  1  0.33337192  0.66671881  0.32222791  1
  S  S9  1  0.66664407  0.33329128  0.05344681  1
  S  S10  1  0.66664762  0.33329895  0.13441871  1
  S  S11  1  0.33337250  0.66671934  0.24130159  1
