# generated using pymatgen
data_Li6Co5(P2O7)4
_symmetry_space_group_name_H-M   'P 1'
_cell_length_a   6.35494909
_cell_length_b   8.47533613
_cell_length_c   10.05197486
_cell_angle_alpha   107.77419342
_cell_angle_beta   90.32113811
_cell_angle_gamma   92.77006979
_symmetry_Int_Tables_number   1
_chemical_formula_structural   Li6Co5(P2O7)4
_chemical_formula_sum   'Li6 Co5 P8 O28'
_cell_volume   514.83951063
_cell_formula_units_Z   1
loop_
 _symmetry_equiv_pos_site_id
 _symmetry_equiv_pos_as_xyz
  1  'x, y, z'
loop_
 _atom_site_type_symbol
 _atom_site_label
 _atom_site_symmetry_multiplicity
 _atom_site_fract_x
 _atom_site_fract_y
 _atom_site_fract_z
 _atom_site_occupancy
  Li  Li0  1  0.00000000  0.50000000  0.50000000  1
  Li  Li1  1  0.01916642  0.16246316  0.60932530  1
  Li  Li2  1  0.09306607  0.60695331  0.12415530  1
  Li  Li3  1  0.50000000  0.50000000  0.50000000  1
  Li  Li4  1  0.90693393  0.39304669  0.87584470  1
  Li  Li5  1  0.98083358  0.83753684  0.39067470  1
  Co  Co6  1  0.31105576  0.88676958  0.64395140  1
  Co  Co7  1  0.35736782  0.88185084  0.06027457  1
  Co  Co8  1  0.50000000  0.50000000  0.00000000  1
  Co  Co9  1  0.64263218  0.11814916  0.93972543  1
  Co  Co10  1  0.68894424  0.11323042  0.35604860  1
  P  P11  1  0.15174330  0.20651172  0.01713212  1
  P  P12  1  0.18727415  0.18114114  0.31129599  1
  P  P13  1  0.26394663  0.54015674  0.73836295  1
  P  P14  1  0.47542549  0.75416283  0.32030798  1
  P  P15  1  0.52457451  0.24583717  0.67969202  1
  P  P16  1  0.73605337  0.45984326  0.26163705  1
  P  P17  1  0.81272585  0.81885886  0.68870401  1
  P  P18  1  0.84825670  0.79348828  0.98286788  1
  O  O19  1  0.04378398  0.83879450  0.07802807  1
  O  O20  1  0.01767662  0.08473254  0.36977575  1
  O  O21  1  0.06915165  0.42468571  0.72305847  1
  O  O22  1  0.07926856  0.20061286  0.16835324  1
  O  O23  1  0.22258445  0.38639033  0.02740354  1
  O  O24  1  0.23727370  0.35341525  0.40947581  1
  O  O25  1  0.25799920  0.64901236  0.64086567  1
  O  O26  1  0.29928945  0.80671172  0.42377691  1
  O  O27  1  0.33656325  0.63418062  0.88897949  1
  O  O28  1  0.32672035  0.13033882  0.65079057  1
  O  O29  1  0.32646191  0.08064068  0.96980566  1
  O  O30  1  0.39294399  0.70921952  0.16674137  1
  O  O31  1  0.38495058  0.07985782  0.26094656  1
  O  O32  1  0.45889346  0.42311939  0.66852461  1
  O  O33  1  0.54110654  0.57688061  0.33147539  1
  O  O34  1  0.61504942  0.92014218  0.73905344  1
  O  O35  1  0.60705601  0.29078048  0.83325863  1
  O  O36  1  0.67353809  0.91935932  0.03019434  1
  O  O37  1  0.67327965  0.86966118  0.34920943  1
  O  O38  1  0.66343675  0.36581938  0.11102051  1
  O  O39  1  0.70071055  0.19328828  0.57622309  1
  O  O40  1  0.74200080  0.35098764  0.35913433  1
  O  O41  1  0.76272630  0.64658475  0.59052419  1
  O  O42  1  0.77741555  0.61360967  0.97259646  1
  O  O43  1  0.92073144  0.79938714  0.83164676  1
  O  O44  1  0.93084835  0.57531429  0.27694153  1
  O  O45  1  0.98232338  0.91526746  0.63022425  1
  O  O46  1  0.95621602  0.16120550  0.92197193  1
