# generated using pymatgen
data_Rb8SnO6
_symmetry_space_group_name_H-M   'P 1'
_cell_length_a   7.54932908
_cell_length_b   7.54945699
_cell_length_c   15.72966629
_cell_angle_alpha   90.00022859
_cell_angle_beta   89.99938070
_cell_angle_gamma   120.00286335
_symmetry_Int_Tables_number   1
_chemical_formula_structural   Rb8SnO6
_chemical_formula_sum   'Rb16 Sn2 O12'
_cell_volume   776.35737248
_cell_formula_units_Z   2
loop_
 _symmetry_equiv_pos_site_id
 _symmetry_equiv_pos_as_xyz
  1  'x, y, z'
loop_
 _atom_site_type_symbol
 _atom_site_label
 _atom_site_symmetry_multiplicity
 _atom_site_fract_x
 _atom_site_fract_y
 _atom_site_fract_z
 _atom_site_occupancy
  Rb  Rb0  1  0.99998575  0.71735635  0.77238008  1
  Rb  Rb1  1  0.99999884  0.60443311  0.12041528  1
  Rb  Rb2  1  0.99998086  0.39556266  0.62041830  1
  Rb  Rb3  1  0.99999671  0.28263967  0.27237857  1
  Rb  Rb4  1  0.33332411  0.66668650  0.41677741  1
  Rb  Rb5  1  0.33331312  0.66663973  0.91677558  1
  Rb  Rb6  1  0.28260849  0.28260793  0.77237608  1
  Rb  Rb7  1  0.39557587  0.39559262  0.12041829  1
  Rb  Rb8  1  0.60440943  0.60440725  0.62041616  1
  Rb  Rb9  1  0.28262176  0.00001587  0.27237999  1
  Rb  Rb10  1  0.71737082  0.71739062  0.27238048  1
  Rb  Rb11  1  0.39557034  0.99998855  0.62041756  1
  Rb  Rb12  1  0.66664085  0.33331626  0.91677509  1
  Rb  Rb13  1  0.66667544  0.33336161  0.41677633  1
  Rb  Rb14  1  0.60441757  0.00001049  0.12041711  1
  Rb  Rb15  1  0.71736123  0.99998853  0.77238390  1
  Sn  Sn16  1  0.00003962  0.00006360  0.99346771  1
  Sn  Sn17  1  -0.00002746  -0.00004836  0.49346790  1
  O  O18  1  0.99998644  0.74712518  0.95280569  1
  O  O19  1  0.00000203  0.25287752  0.45281148  1
  O  O20  1  0.33333092  0.66666565  0.22918334  1
  O  O21  1  0.99999189  0.00000085  0.12340630  1
  O  O22  1  0.99999357  0.99999880  0.62340559  1
  O  O23  1  0.33333149  0.66667708  0.72918252  1
  O  O24  1  0.25282883  0.25283051  0.95282243  1
  O  O25  1  0.25286103  0.00000597  0.45281799  1
  O  O26  1  0.74715303  0.74716153  0.45281962  1
  O  O27  1  0.66667406  0.33332464  0.72918251  1
  O  O28  1  0.66664724  0.33332204  0.22918307  1
  O  O29  1  0.74713314  0.99999623  0.95281966  1
