# generated using pymatgen
data_Cu2(SO4)3
_symmetry_space_group_name_H-M   'P 1'
_cell_length_a   7.82272039
_cell_length_b   7.82272039
_cell_length_c   9.75112371
_cell_angle_alpha   61.79947552
_cell_angle_beta   118.20052448
_cell_angle_gamma   118.05308246
_symmetry_Int_Tables_number   1
_chemical_formula_structural   Cu2(SO4)3
_chemical_formula_sum   'Cu4 S6 O24'
_cell_volume   439.40874112
_cell_formula_units_Z   2
loop_
 _symmetry_equiv_pos_site_id
 _symmetry_equiv_pos_as_xyz
  1  'x, y, z'
loop_
 _atom_site_type_symbol
 _atom_site_label
 _atom_site_symmetry_multiplicity
 _atom_site_fract_x
 _atom_site_fract_y
 _atom_site_fract_z
 _atom_site_occupancy
  Cu  Cu0  1  0.63343827  0.86509652  0.97020438  1
  Cu  Cu1  1  0.13490348  0.36656173  0.47020438  1
  Cu  Cu2  1  0.86509652  0.63343827  0.52979562  1
  Cu  Cu3  1  0.36656173  0.13490348  0.02979562  1
  S  S4  1  0.24503832  0.53854899  0.83269648  1
  S  S5  1  0.46145101  0.75496168  0.33269648  1
  S  S6  1  0.96810122  0.96810122  0.75000000  1
  S  S7  1  0.03189878  0.03189878  0.25000000  1
  S  S8  1  0.53854899  0.24503832  0.66730352  1
  S  S9  1  0.75496168  0.46145101  0.16730352  1
  O  O10  1  0.17204407  0.97829009  0.88640872  1
  O  O11  1  0.02170991  0.82795593  0.38640872  1
  O  O12  1  0.14170420  0.47699608  0.94466577  1
  O  O13  1  0.40171322  0.75020659  0.81000582  1
  O  O14  1  0.11093795  0.55258891  0.65671245  1
  O  O15  1  0.52300392  0.85829580  0.44466577  1
  O  O16  1  0.80953740  0.93483072  0.80693529  1
  O  O17  1  0.35744641  0.39645736  0.87605237  1
  O  O18  1  0.24979341  0.59828678  0.31000582  1
  O  O19  1  0.44741109  0.88906205  0.15671245  1
  O  O20  1  0.06516928  0.19046260  0.30693529  1
  O  O21  1  0.39645736  0.35744641  0.62394763  1
  O  O22  1  0.60354264  0.64255359  0.37605237  1
  O  O23  1  0.93483072  0.80953740  0.69306471  1
  O  O24  1  0.55258891  0.11093795  0.84328755  1
  O  O25  1  0.75020659  0.40171322  0.68999418  1
  O  O26  1  0.64255359  0.60354264  0.12394763  1
  O  O27  1  0.19046260  0.06516928  0.19306471  1
  O  O28  1  0.47699608  0.14170420  0.55533423  1
  O  O29  1  0.88906205  0.44741109  0.34328755  1
  O  O30  1  0.59828678  0.24979341  0.18999418  1
  O  O31  1  0.85829580  0.52300392  0.05533423  1
  O  O32  1  0.97829009  0.17204407  0.61359128  1
  O  O33  1  0.82795593  0.02170991  0.11359128  1
