# generated using pymatgen
data_Na5Fe2P2(CO7)2
_symmetry_space_group_name_H-M   'P 1'
_cell_length_a   8.98107452
_cell_length_b   10.45419759
_cell_length_c   6.67101292
_cell_angle_alpha   90.00000000
_cell_angle_beta   90.00000000
_cell_angle_gamma   89.68102373
_symmetry_Int_Tables_number   1
_chemical_formula_structural   Na5Fe2P2(CO7)2
_chemical_formula_sum   'Na10 Fe4 P4 C4 O28'
_cell_volume   626.33121360
_cell_formula_units_Z   2
loop_
 _symmetry_equiv_pos_site_id
 _symmetry_equiv_pos_as_xyz
  1  'x, y, z'
loop_
 _atom_site_type_symbol
 _atom_site_label
 _atom_site_symmetry_multiplicity
 _atom_site_fract_x
 _atom_site_fract_y
 _atom_site_fract_z
 _atom_site_occupancy
  Na  Na0  1  0.07498625  0.38625061  0.24971095  1
  Na  Na1  1  0.08899358  0.87640772  0.24168002  1
  Na  Na2  1  0.26506500  0.12120938  0.00472729  1
  Na  Na3  1  0.26457695  0.11912431  0.49710240  1
  Na  Na4  1  0.26030312  0.63144609  0.48869329  1
  Na  Na5  1  0.73969688  0.36855391  0.98869329  1
  Na  Na6  1  0.73493500  0.87879062  0.50472729  1
  Na  Na7  1  0.73542305  0.88087569  0.99710240  1
  Na  Na8  1  0.91100642  0.12359228  0.74168002  1
  Na  Na9  1  0.92501375  0.61374939  0.74971095  1
  Fe  Fe10  1  0.35262433  0.39888398  0.75819195  1
  Fe  Fe11  1  0.34821780  0.88319661  0.75458481  1
  Fe  Fe12  1  0.65178220  0.11680339  0.25458481  1
  Fe  Fe13  1  0.64737567  0.60111602  0.25819195  1
  P  P14  1  0.41471421  0.35567757  0.25109149  1
  P  P15  1  0.42290624  0.85192209  0.25150988  1
  P  P16  1  0.57709376  0.14807791  0.75150988  1
  P  P17  1  0.58528579  0.64432243  0.75109149  1
  C  C18  1  0.07213726  0.36331009  0.75052125  1
  C  C19  1  0.05412897  0.86648233  0.74474419  1
  C  C20  1  0.94587103  0.13351767  0.24474419  1
  C  C21  1  0.92786274  0.63668991  0.25052125  1
  O  O22  1  0.08969146  0.14221535  0.25028862  1
  O  O23  1  0.06823767  0.64888976  0.26741130  1
  O  O24  1  0.13507370  0.47518863  0.73705414  1
  O  O25  1  0.11748309  0.97922201  0.75269644  1
  O  O26  1  0.16478702  0.26521067  0.74775087  1
  O  O27  1  0.13647885  0.76510174  0.73381669  1
  O  O28  1  0.31767116  0.38431277  0.06161301  1
  O  O29  1  0.32250564  0.39749476  0.43827233  1
  O  O30  1  0.32296084  0.88428412  0.06990377  1
  O  O31  1  0.32361625  0.88095755  0.43701675  1
  O  O32  1  0.42966405  0.07289020  0.75133961  1
  O  O33  1  0.43470310  0.57246228  0.74005190  1
  O  O34  1  0.44468721  0.20988934  0.25978128  1
  O  O35  1  0.46626281  0.70545016  0.25798077  1
  O  O36  1  0.53373719  0.29454984  0.75798077  1
  O  O37  1  0.55531279  0.79011066  0.75978128  1
  O  O38  1  0.56529690  0.42753772  0.24005190  1
  O  O39  1  0.57033595  0.92710980  0.25133961  1
  O  O40  1  0.67703916  0.11571588  0.56990377  1
  O  O41  1  0.67638375  0.11904245  0.93701675  1
  O  O42  1  0.68232884  0.61568723  0.56161301  1
  O  O43  1  0.67749436  0.60250524  0.93827233  1
  O  O44  1  0.86352115  0.23489826  0.23381669  1
  O  O45  1  0.83521298  0.73478933  0.24775087  1
  O  O46  1  0.88251691  0.02077799  0.25269644  1
  O  O47  1  0.86492630  0.52481137  0.23705414  1
  O  O48  1  0.93176233  0.35111024  0.76741130  1
  O  O49  1  0.91030854  0.85778465  0.75028862  1
