# generated using pymatgen
data_Li2FePCO7
_symmetry_space_group_name_H-M   'P 1'
_cell_length_a   8.30268178
_cell_length_b   5.07660240
_cell_length_c   6.51401561
_cell_angle_alpha   89.51894308
_cell_angle_beta   91.21485697
_cell_angle_gamma   85.02297664
_symmetry_Int_Tables_number   1
_chemical_formula_structural   Li2FePCO7
_chemical_formula_sum   'Li4 Fe2 P2 C2 O14'
_cell_volume   273.45080197
_cell_formula_units_Z   2
loop_
 _symmetry_equiv_pos_site_id
 _symmetry_equiv_pos_as_xyz
  1  'x, y, z'
loop_
 _atom_site_type_symbol
 _atom_site_label
 _atom_site_symmetry_multiplicity
 _atom_site_fract_x
 _atom_site_fract_y
 _atom_site_fract_z
 _atom_site_occupancy
  Li  Li0  1  0.09836634  0.76162787  0.26345491  1
  Li  Li1  1  0.27536096  0.24919313  0.02977842  1
  Li  Li2  1  0.72463904  0.75080687  0.97022158  1
  Li  Li3  1  0.90163366  0.23837213  0.73654509  1
  Fe  Fe4  1  0.32967732  0.79841858  0.73924934  1
  Fe  Fe5  1  0.67032268  0.20158142  0.26075066  1
  P  P6  1  0.42023995  0.72312249  0.23956936  1
  P  P7  1  0.57976005  0.27687751  0.76043064  1
  C  C8  1  0.04049259  0.70121777  0.76706053  1
  C  C9  1  0.95950741  0.29878223  0.23293947  1
  O  O10  1  0.07607395  0.94687243  0.74664065  1
  O  O11  1  0.10165956  0.36788088  0.21505232  1
  O  O12  1  0.16573874  0.52506693  0.76503572  1
  O  O13  1  0.30147207  0.82817520  0.06368236  1
  O  O14  1  0.32254538  0.78270833  0.43611970  1
  O  O15  1  0.42004250  0.14346083  0.76769998  1
  O  O16  1  0.46051004  0.41904388  0.21568288  1
  O  O17  1  0.53948996  0.58095612  0.78431712  1
  O  O18  1  0.57995750  0.85653917  0.23230002  1
  O  O19  1  0.67745462  0.21729167  0.56388030  1
  O  O20  1  0.69852793  0.17182480  0.93631764  1
  O  O21  1  0.83426126  0.47493307  0.23496428  1
  O  O22  1  0.89834044  0.63211912  0.78494768  1
  O  O23  1  0.92392605  0.05312757  0.25335935  1
