# generated using pymatgen
data_Li2FePCO7
_symmetry_space_group_name_H-M   'P 1'
_cell_length_a   16.65941618
_cell_length_b   5.08790982
_cell_length_c   6.50220389
_cell_angle_alpha   90.00000000
_cell_angle_beta   90.00000000
_cell_angle_gamma   84.92581573
_symmetry_Int_Tables_number   1
_chemical_formula_structural   Li2FePCO7
_chemical_formula_sum   'Li8 Fe4 P4 C4 O28'
_cell_volume   548.97735436
_cell_formula_units_Z   4
loop_
 _symmetry_equiv_pos_site_id
 _symmetry_equiv_pos_as_xyz
  1  'x, y, z'
loop_
 _atom_site_type_symbol
 _atom_site_label
 _atom_site_symmetry_multiplicity
 _atom_site_fract_x
 _atom_site_fract_y
 _atom_site_fract_z
 _atom_site_occupancy
  Li  Li0  1  0.04785592  0.76107299  0.26969965  1
  Li  Li1  1  0.13935135  0.24705567  0.03237977  1
  Li  Li2  1  0.36064865  0.75294433  0.53237977  1
  Li  Li3  1  0.45214408  0.23892701  0.76969965  1
  Li  Li4  1  0.54785592  0.76107299  0.23030035  1
  Li  Li5  1  0.63935135  0.24705567  0.46762023  1
  Li  Li6  1  0.86064865  0.75294433  0.96762023  1
  Li  Li7  1  0.95214408  0.23892701  0.73030035  1
  Fe  Fe8  1  0.16499780  0.79983001  0.73467932  1
  Fe  Fe9  1  0.33500220  0.20016999  0.23467932  1
  Fe  Fe10  1  0.66499780  0.79983001  0.76532068  1
  Fe  Fe11  1  0.83500220  0.20016999  0.26532068  1
  P  P12  1  0.20954563  0.72370757  0.24425436  1
  P  P13  1  0.29045437  0.27629243  0.74425436  1
  P  P14  1  0.70954463  0.72370757  0.25574564  1
  P  P15  1  0.79045537  0.27629243  0.75574564  1
  C  C16  1  0.02051579  0.70131300  0.77305128  1
  C  C17  1  0.47948421  0.29868700  0.27305128  1
  C  C18  1  0.52051579  0.70131300  0.72694872  1
  C  C19  1  0.97948421  0.29868700  0.22694872  1
  O  O20  1  0.03786773  0.94758450  0.75422649  1
  O  O21  1  0.05025171  0.36886455  0.21239820  1
  O  O22  1  0.08360024  0.52674252  0.77170516  1
  O  O23  1  0.15829007  0.83118975  0.05835378  1
  O  O24  1  0.15204790  0.78126651  0.43069261  1
  O  O25  1  0.21127665  0.14420725  0.77035510  1
  O  O26  1  0.23028189  0.42042347  0.21793491  1
  O  O27  1  0.26971811  0.57957653  0.71793491  1
  O  O28  1  0.28872335  0.85579275  0.27035510  1
  O  O29  1  0.34170993  0.16881025  0.55835378  1
  O  O30  1  0.34795210  0.21873349  0.93069261  1
  O  O31  1  0.41639976  0.47325748  0.27170516  1
  O  O32  1  0.44974829  0.63113545  0.71239820  1
  O  O33  1  0.46213227  0.05241550  0.25422649  1
  O  O34  1  0.53786773  0.94758450  0.74577351  1
  O  O35  1  0.55025171  0.36886455  0.28760180  1
  O  O36  1  0.58360024  0.52674252  0.72829484  1
  O  O37  1  0.65204790  0.78126651  0.06930739  1
  O  O38  1  0.65829007  0.83118975  0.44164622  1
  O  O39  1  0.71127665  0.14420725  0.72964490  1
  O  O40  1  0.73028189  0.42042347  0.28206509  1
  O  O41  1  0.76971811  0.57957653  0.78206509  1
  O  O42  1  0.78872335  0.85579275  0.22964490  1
  O  O43  1  0.84795210  0.21873349  0.56930739  1
  O  O44  1  0.84170993  0.16881025  0.94164622  1
  O  O45  1  0.91639976  0.47325748  0.22829484  1
  O  O46  1  0.94974829  0.63113545  0.78760180  1
  O  O47  1  0.96213227  0.05241550  0.24577351  1
