# generated using pymatgen
data_Li4V3Fe3(WO8)2
_symmetry_space_group_name_H-M   'P 1'
_cell_length_a   6.04681076
_cell_length_b   6.05266289
_cell_length_c   9.82020056
_cell_angle_alpha   90.43934586
_cell_angle_beta   88.96389311
_cell_angle_gamma   119.99748808
_symmetry_Int_Tables_number   1
_chemical_formula_structural   Li4V3Fe3(WO8)2
_chemical_formula_sum   'Li4 V3 Fe3 W2 O16'
_cell_volume   311.21698115
_cell_formula_units_Z   1
loop_
 _symmetry_equiv_pos_site_id
 _symmetry_equiv_pos_as_xyz
  1  'x, y, z'
loop_
 _atom_site_type_symbol
 _atom_site_label
 _atom_site_symmetry_multiplicity
 _atom_site_fract_x
 _atom_site_fract_y
 _atom_site_fract_z
 _atom_site_occupancy
  Li  Li0  1  0.34122297  0.67282844  0.90474167  1
  Li  Li1  1  0.99358873  0.99485602  0.98874567  1
  Li  Li2  1  0.99637762  0.99837821  0.48796516  1
  Li  Li3  1  0.67722644  0.33907894  0.40646132  1
  V  V4  1  0.64818988  0.82482459  0.22218786  1
  V  V5  1  0.82076636  0.65436732  0.71618713  1
  V  V6  1  0.83017882  0.17470234  0.71685396  1
  Fe  Fe7  1  0.16457005  0.82693073  0.21207940  1
  Fe  Fe8  1  0.16534500  0.33808685  0.21031392  1
  Fe  Fe9  1  0.33810513  0.16675512  0.71130224  1
  W  W10  1  0.32659983  0.66301719  0.48885777  1
  W  W11  1  0.65906250  0.32770983  0.98853192  1
  O  O12  1  0.16393636  0.81846000  0.58545137  1
  O  O13  1  0.05106411  0.52365630  0.35823715  1
  O  O14  1  0.36760726  0.68355602  0.11152616  1
  O  O15  1  0.97373832  0.98760903  0.29654596  1
  O  O16  1  0.99201020  0.99441168  0.80045236  1
  O  O17  1  0.17417581  0.34799703  0.58501685  1
  O  O18  1  0.49822824  0.96115372  0.35150844  1
  O  O19  1  0.49861693  0.53761924  0.35071711  1
  O  O20  1  0.34147363  0.17222009  0.08076338  1
  O  O21  1  0.64963275  0.82928046  0.59251993  1
  O  O22  1  0.53656284  0.49445955  0.85210507  1
  O  O23  1  0.52877551  0.04386122  0.85505349  1
  O  O24  1  0.67508340  0.33619278  0.60803831  1
  O  O25  1  0.81414612  0.64690215  0.08826887  1
  O  O26  1  0.96033371  0.47438015  0.84799577  1
  O  O27  1  0.81338547  0.16700498  0.08941075  1
