# generated using pymatgen
data_Li2Ni2(SO4)3
_symmetry_space_group_name_H-M   'P 1'
_cell_length_a   7.75336162
_cell_length_b   7.75336162
_cell_length_c   8.74660986
_cell_angle_alpha   68.44846580
_cell_angle_beta   111.55153420
_cell_angle_gamma   113.21296567
_symmetry_Int_Tables_number   1
_chemical_formula_structural   Li2Ni2(SO4)3
_chemical_formula_sum   'Li4 Ni4 S6 O24'
_cell_volume   433.94912584
_cell_formula_units_Z   2
loop_
 _symmetry_equiv_pos_site_id
 _symmetry_equiv_pos_as_xyz
  1  'x, y, z'
loop_
 _atom_site_type_symbol
 _atom_site_label
 _atom_site_symmetry_multiplicity
 _atom_site_fract_x
 _atom_site_fract_y
 _atom_site_fract_z
 _atom_site_occupancy
  Li  Li0  1  0.32688489  0.86161794  0.55462202  1
  Li  Li1  1  0.13838206  0.67311511  0.05462202  1
  Li  Li2  1  0.86161794  0.32688489  0.94537798  1
  Li  Li3  1  0.67311511  0.13838206  0.44537798  1
  Ni  Ni4  1  0.63069957  0.87465366  0.98215236  1
  Ni  Ni5  1  0.12534634  0.36930043  0.48215236  1
  Ni  Ni6  1  0.87465366  0.63069957  0.51784764  1
  Ni  Ni7  1  0.36930043  0.12534634  0.01784764  1
  S  S8  1  0.25029813  0.53878771  0.82298594  1
  S  S9  1  0.46121229  0.74970187  0.32298594  1
  S  S10  1  0.94089304  0.94089304  0.75000000  1
  S  S11  1  0.05910696  0.05910696  0.25000000  1
  S  S12  1  0.53878771  0.25029813  0.67701406  1
  S  S13  1  0.74970187  0.46121229  0.17701406  1
  O  O14  1  0.12988849  0.94997995  0.88526147  1
  O  O15  1  0.05002005  0.87011151  0.38526147  1
  O  O16  1  0.12335473  0.50038019  0.92893187  1
  O  O17  1  0.38883281  0.73896262  0.81139877  1
  O  O18  1  0.13171767  0.54363531  0.63824613  1
  O  O19  1  0.49961981  0.87664527  0.42893187  1
  O  O20  1  0.78303530  0.90273844  0.82292818  1
  O  O21  1  0.34954300  0.39241301  0.88285686  1
  O  O22  1  0.26103738  0.61116719  0.31139877  1
  O  O23  1  0.45636469  0.86828233  0.13824613  1
  O  O24  1  0.09726156  0.21696470  0.32292818  1
  O  O25  1  0.39241301  0.34954300  0.61714314  1
  O  O26  1  0.60758699  0.65045700  0.38285686  1
  O  O27  1  0.90273844  0.78303530  0.67707182  1
  O  O28  1  0.54363531  0.13171767  0.86175387  1
  O  O29  1  0.73896262  0.38883281  0.68860123  1
  O  O30  1  0.65045700  0.60758699  0.11714314  1
  O  O31  1  0.21696470  0.09726156  0.17707182  1
  O  O32  1  0.50038019  0.12335473  0.57106813  1
  O  O33  1  0.86828233  0.45636469  0.36175387  1
  O  O34  1  0.61116719  0.26103738  0.18860123  1
  O  O35  1  0.87664527  0.49961981  0.07106813  1
  O  O36  1  0.94997995  0.12988849  0.61473853  1
  O  O37  1  0.87011151  0.05002005  0.11473853  1
