# generated using pymatgen
data_Li24Mn5Cr7O36
_symmetry_space_group_name_H-M   'P 1'
_cell_length_a   5.02843003
_cell_length_b   13.25390265
_cell_length_c   9.75249515
_cell_angle_alpha   97.05966972
_cell_angle_beta   95.02217828
_cell_angle_gamma   100.72110810
_symmetry_Int_Tables_number   1
_chemical_formula_structural   Li24Mn5Cr7O36
_chemical_formula_sum   'Li24 Mn5 Cr7 O36'
_cell_volume   629.70513610
_cell_formula_units_Z   1
loop_
 _symmetry_equiv_pos_site_id
 _symmetry_equiv_pos_as_xyz
  1  'x, y, z'
loop_
 _atom_site_type_symbol
 _atom_site_label
 _atom_site_symmetry_multiplicity
 _atom_site_fract_x
 _atom_site_fract_y
 _atom_site_fract_z
 _atom_site_occupancy
  Li  Li0  1  0.82946243  0.16655833  0.99967152  1
  Li  Li1  1  0.95030792  0.38678228  0.99939911  1
  Li  Li2  1  0.99953148  0.74964583  0.24955046  1
  Li  Li3  1  0.66460046  0.08353561  0.25065194  1
  Li  Li4  1  0.95457021  0.88775040  0.50150710  1
  Li  Li5  1  0.61606655  0.22012634  0.49948070  1
  Li  Li6  1  0.83795397  0.66708651  0.49911890  1
  Li  Li7  1  0.49897556  0.99994068  0.50085359  1
  Li  Li8  1  0.71698197  0.44566051  0.50014878  1
  Li  Li9  1  0.66652571  0.58368713  0.74979695  1
  Li  Li10  1  0.50147892  0.49954426  0.00077180  1
  Li  Li11  1  0.71171038  0.94609682  0.99926326  1
  Li  Li12  1  0.38368342  0.27952999  0.99995038  1
  Li  Li13  1  0.61610243  0.72072836  0.00020313  1
  Li  Li14  1  0.28638064  0.05319960  0.00028653  1
  Li  Li15  1  0.33525836  0.41583216  0.24960615  1
  Li  Li16  1  0.28030930  0.55498373  0.50111412  1
  Li  Li17  1  0.16494808  0.33204152  0.50080149  1
  Li  Li18  1  0.37955350  0.77944788  0.50003399  1
  Li  Li19  1  0.05373184  0.11260563  0.49882304  1
  Li  Li20  1  0.33325147  0.91675608  0.75018659  1
  Li  Li21  1  0.16772172  0.83419429  0.99939477  1
  Li  Li22  1  0.00060026  0.25142290  0.75021700  1
  Li  Li23  1  0.05121081  0.61385170  0.00023039  1
  Mn  Mn24  1  0.88748148  0.52781848  0.24843908  1
  Mn  Mn25  1  0.44580148  0.13892876  0.75079645  1
  Mn  Mn26  1  0.22668290  0.19457294  0.25267526  1
  Mn  Mn27  1  0.22094474  0.69400605  0.74959097  1
  Mn  Mn28  1  0.10999653  0.47220070  0.74969267  1
  Cr  Cr29  1  0.89436984  0.02979214  0.75152907  1
  Cr  Cr30  1  0.78321854  0.30543343  0.24995170  1
  Cr  Cr31  1  0.77210854  0.80409551  0.74847778  1
  Cr  Cr32  1  0.55679013  0.36312462  0.74993852  1
  Cr  Cr33  1  0.55675934  0.85880178  0.24913385  1
  Cr  Cr34  1  0.43940825  0.63573081  0.24937571  1
  Cr  Cr35  1  0.10647206  0.97384015  0.25048291  1
  O  O36  1  0.00270543  0.07108254  0.13876545  1
  O  O37  1  0.93477260  0.21374356  0.36459730  1
  O  O38  1  0.99637739  0.57114747  0.63851465  1
  O  O39  1  0.86213257  0.35765425  0.63672942  1
  O  O40  1  0.73572159  0.11654846  0.63732087  1
  O  O41  1  0.66543615  0.40634598  0.13663562  1
  O  O42  1  0.93130142  0.71621553  0.86306145  1
  O  O43  1  0.81025447  0.47496181  0.86090279  1
  O  O44  1  0.59220063  0.04910557  0.86571256  1
  O  O45  1  0.84567506  0.85676663  0.13693270  1
  O  O46  1  0.74178050  0.61818423  0.13483699  1
  O  O47  1  0.52229495  0.19178338  0.13899886  1
  O  O48  1  0.66677832  0.26216317  0.86211667  1
  O  O49  1  0.81958802  0.97642824  0.36227912  1
  O  O50  1  0.59767306  0.54933138  0.36326869  1
  O  O51  1  0.47582079  0.31021150  0.36201562  1
  O  O52  1  0.66135128  0.76184611  0.36159649  1
  O  O53  1  0.34029939  0.09795246  0.36338625  1
  O  O54  1  0.67165727  0.90352096  0.63761129  1
  O  O55  1  0.33683613  0.23833741  0.63905494  1
  O  O56  1  0.52132282  0.69000155  0.63820038  1
  O  O57  1  0.40183361  0.45092639  0.63649866  1
  O  O58  1  0.19567740  0.02468838  0.63779690  1
  O  O59  1  0.33369587  0.73525671  0.13744228  1
  O  O60  1  0.47162240  0.80836922  0.86173366  1
  O  O61  1  0.25935957  0.38278681  0.86489775  1
  O  O62  1  0.14373003  0.14257972  0.86146824  1
  O  O63  1  0.39979263  0.95162510  0.13557120  1
  O  O64  1  0.18959471  0.52422585  0.13871023  1
  O  O65  1  0.06811410  0.28430419  0.13667154  1
  O  O66  1  0.33466526  0.59533699  0.86135862  1
  O  O67  1  0.26750227  0.88325935  0.36339594  1
  O  O68  1  0.13724857  0.64236371  0.36268030  1
  O  O69  1  0.99595753  0.42806920  0.36104827  1
  O  O70  1  0.07383817  0.78410236  0.63466565  1
  O  O71  1  0.99443482  0.92942188  0.86237801  1
