# generated using pymatgen
data_Na5LiMn2P2(CO7)2
_symmetry_space_group_name_H-M   'P 1'
_cell_length_a   8.96753737
_cell_length_b   6.77339013
_cell_length_c   5.17144907
_cell_angle_alpha   90.26026693
_cell_angle_beta   89.91412027
_cell_angle_gamma   89.44631747
_symmetry_Int_Tables_number   1
_chemical_formula_structural   Na5LiMn2P2(CO7)2
_chemical_formula_sum   'Na5 Li1 Mn2 P2 C2 O14'
_cell_volume   314.09878837
_cell_formula_units_Z   1
loop_
 _symmetry_equiv_pos_site_id
 _symmetry_equiv_pos_as_xyz
  1  'x, y, z'
loop_
 _atom_site_type_symbol
 _atom_site_label
 _atom_site_symmetry_multiplicity
 _atom_site_fract_x
 _atom_site_fract_y
 _atom_site_fract_z
 _atom_site_occupancy
  Na  Na0  1  0.08409737  0.24677308  0.76007291  1
  Na  Na1  1  0.25869464  0.49808550  0.24708151  1
  Na  Na2  1  0.74109185  0.50182874  0.75291438  1
  Na  Na3  1  0.74147291  0.99790162  0.75203978  1
  Na  Na4  1  0.91776697  0.75166232  0.23991121  1
  Li  Li5  1  0.26721395  0.00748957  0.24061371  1
  Mn  Mn6  1  0.35980491  0.75276887  0.77869758  1
  Mn  Mn7  1  0.63745792  0.25004822  0.22186912  1
  P  P8  1  0.40898278  0.24737107  0.70252551  1
  P  P9  1  0.58629728  0.75359650  0.29978112  1
  C  C10  1  0.06025507  0.75214383  0.73438851  1
  C  C11  1  0.94385774  0.24493922  0.26378383  1
  O  O12  1  0.08786121  0.23568990  0.28340319  1
  O  O13  1  0.12260310  0.75205960  0.96207175  1
  O  O14  1  0.14452228  0.75523286  0.52839847  1
  O  O15  1  0.31803120  0.06792309  0.79928806  1
  O  O16  1  0.31826703  0.43502997  0.78159764  1
  O  O17  1  0.42202006  0.23697336  0.39976942  1
  O  O18  1  0.42609623  0.76222095  0.18478686  1
  O  O19  1  0.56892195  0.24977882  0.81735051  1
  O  O20  1  0.57224912  0.75141491  0.60095202  1
  O  O21  1  0.67555018  0.56652713  0.21169586  1
  O  O22  1  0.68114768  0.93398039  0.21635012  1
  O  O23  1  0.85955955  0.25012865  0.47002645  1
  O  O24  1  0.87973821  0.24965091  0.03737849  1
  O  O25  1  0.91643983  0.74878192  0.71325197  1
