# generated using pymatgen
data_Na5Mn2P2(CO7)2
_symmetry_space_group_name_H-M   'P 1'
_cell_length_a   9.06919204
_cell_length_b   6.60360571
_cell_length_c   5.25978666
_cell_angle_alpha   90.35011867
_cell_angle_beta   88.93954959
_cell_angle_gamma   89.39913121
_symmetry_Int_Tables_number   1
_chemical_formula_structural   Na5Mn2P2(CO7)2
_chemical_formula_sum   'Na5 Mn2 P2 C2 O14'
_cell_volume   314.92776696
_cell_formula_units_Z   1
loop_
 _symmetry_equiv_pos_site_id
 _symmetry_equiv_pos_as_xyz
  1  'x, y, z'
loop_
 _atom_site_type_symbol
 _atom_site_label
 _atom_site_symmetry_multiplicity
 _atom_site_fract_x
 _atom_site_fract_y
 _atom_site_fract_z
 _atom_site_occupancy
  Na  Na0  1  0.08897978  0.23392159  0.76516029  1
  Na  Na1  1  0.26007080  0.49449464  0.24655729  1
  Na  Na2  1  0.74104080  0.50354494  0.75073152  1
  Na  Na3  1  0.74080672  0.99562189  0.75014015  1
  Na  Na4  1  0.92806662  0.75927577  0.24317204  1
  Mn  Mn5  1  0.34919056  0.76033010  0.78238185  1
  Mn  Mn6  1  0.64507727  0.24978032  0.22090000  1
  P  P7  1  0.42060854  0.25345526  0.69910072  1
  P  P8  1  0.57961112  0.74896218  0.29774729  1
  C  C9  1  0.05943148  0.74145135  0.72872493  1
  C  C10  1  0.93569577  0.25376202  0.27208939  1
  O  O11  1  0.07454765  0.26777362  0.27611720  1
  O  O12  1  0.12544916  0.74342600  0.94747231  1
  O  O13  1  0.13867344  0.73700557  0.52347310  1
  O  O14  1  0.32492888  0.06781038  0.76706083  1
  O  O15  1  0.32356094  0.44063208  0.77876272  1
  O  O16  1  0.45100201  0.26391589  0.40620323  1
  O  O17  1  0.43308193  0.74204203  0.16102016  1
  O  O18  1  0.57104444  0.25062869  0.83415600  1
  O  O19  1  0.55477330  0.75177612  0.59414636  1
  O  O20  1  0.68274291  0.56348586  0.22771304  1
  O  O21  1  0.67637141  0.93554698  0.22292419  1
  O  O22  1  0.85401958  0.24524187  0.47923803  1
  O  O23  1  0.86582818  0.24607934  0.05316879  1
  O  O24  1  0.91625271  0.74793450  0.72325958  1
