# generated using pymatgen
data_Li24Mn5Cr7O36
_symmetry_space_group_name_H-M   'P 1'
_cell_length_a   5.01709564
_cell_length_b   13.29553168
_cell_length_c   9.73421779
_cell_angle_alpha   97.15712013
_cell_angle_beta   94.75210798
_cell_angle_gamma   100.60249709
_symmetry_Int_Tables_number   1
_chemical_formula_structural   Li24Mn5Cr7O36
_chemical_formula_sum   'Li24 Mn5 Cr7 O36'
_cell_volume   629.52682409
_cell_formula_units_Z   1
loop_
 _symmetry_equiv_pos_site_id
 _symmetry_equiv_pos_as_xyz
  1  'x, y, z'
loop_
 _atom_site_type_symbol
 _atom_site_label
 _atom_site_symmetry_multiplicity
 _atom_site_fract_x
 _atom_site_fract_y
 _atom_site_fract_z
 _atom_site_occupancy
  Li  Li0  1  0.83247433  0.16627081  0.00168271  1
  Li  Li1  1  0.95503381  0.38603393  0.00054459  1
  Li  Li2  1  0.99917119  0.74922825  0.25000245  1
  Li  Li3  1  0.66796484  0.08365983  0.24951850  1
  Li  Li4  1  0.95489077  0.88760489  0.50054535  1
  Li  Li5  1  0.61740382  0.22117052  0.50164722  1
  Li  Li6  1  0.83423730  0.66701612  0.49920140  1
  Li  Li7  1  0.50012048  0.00029565  0.50093443  1
  Li  Li8  1  0.71377264  0.44502828  0.49936823  1
  Li  Li9  1  0.66223934  0.58397473  0.74998986  1
  Li  Li10  1  0.50204654  0.50029355  0.99933790  1
  Li  Li11  1  0.71436746  0.94822851  0.99966246  1
  Li  Li12  1  0.38015169  0.27903560  0.99893155  1
  Li  Li13  1  0.61604159  0.71804026  0.99811404  1
  Li  Li14  1  0.28492108  0.05393865  0.00102916  1
  Li  Li15  1  0.32968541  0.41632405  0.25026862  1
  Li  Li16  1  0.28546535  0.55342818  0.49964492  1
  Li  Li17  1  0.16597748  0.33371895  0.49976771  1
  Li  Li18  1  0.38026092  0.77864088  0.50068953  1
  Li  Li19  1  0.05014926  0.11244278  0.49852836  1
  Li  Li20  1  0.33281291  0.91736589  0.75029652  1
  Li  Li21  1  0.16568977  0.83314257  0.99816123  1
  Li  Li22  1  0.99977512  0.25138468  0.74939823  1
  Li  Li23  1  0.05121693  0.61451432  0.00074524  1
  Mn  Mn24  1  0.89071799  0.52721789  0.25058531  1
  Mn  Mn25  1  0.55383457  0.36033371  0.74868904  1
  Mn  Mn26  1  0.44535876  0.13985361  0.75074890  1
  Mn  Mn27  1  0.21851647  0.19389527  0.24677722  1
  Mn  Mn28  1  0.22382894  0.69388936  0.75060753  1
  Cr  Cr29  1  0.89525343  0.03101825  0.75113215  1
  Cr  Cr30  1  0.76996525  0.30615293  0.25075249  1
  Cr  Cr31  1  0.77459259  0.80664570  0.74902677  1
  Cr  Cr32  1  0.55948043  0.85857507  0.25218656  1
  Cr  Cr33  1  0.43906240  0.63618234  0.24910437  1
  Cr  Cr34  1  0.10405125  0.47299899  0.75031786  1
  Cr  Cr35  1  0.11612471  0.97444225  0.25053550  1
  O  O36  1  0.99629029  0.07340845  0.13619296  1
  O  O37  1  0.93126454  0.21622521  0.36343297  1
  O  O38  1  0.00347161  0.57035823  0.63881238  1
  O  O39  1  0.84959384  0.35472527  0.63597703  1
  O  O40  1  0.73568706  0.11757929  0.63639293  1
  O  O41  1  0.67133515  0.40371781  0.13840732  1
  O  O42  1  0.93132743  0.71417431  0.86439796  1
  O  O43  1  0.81196060  0.47425544  0.86157375  1
  O  O44  1  0.59200104  0.04944634  0.86497549  1
  O  O45  1  0.85364459  0.85893920  0.13842797  1
  O  O46  1  0.74100511  0.61804320  0.13570407  1
  O  O47  1  0.51880911  0.18893664  0.13705446  1
  O  O48  1  0.66846156  0.26226952  0.86186271  1
  O  O49  1  0.81509329  0.97823287  0.36359073  1
  O  O50  1  0.59810189  0.54854802  0.36374244  1
  O  O51  1  0.47668136  0.30864372  0.36123452  1
  O  O52  1  0.66554793  0.76188998  0.36302838  1
  O  O53  1  0.33174552  0.09491384  0.36091918  1
  O  O54  1  0.67323019  0.90488190  0.63838732  1
  O  O55  1  0.32965464  0.23761881  0.63818253  1
  O  O56  1  0.51955665  0.68844067  0.63692002  1
  O  O57  1  0.40245469  0.45087249  0.63630157  1
  O  O58  1  0.19728162  0.02478456  0.63770987  1
  O  O59  1  0.33701445  0.73619128  0.13796952  1
  O  O60  1  0.47819021  0.80872411  0.86155407  1
  O  O61  1  0.26477459  0.38206232  0.86417658  1
  O  O62  1  0.14412661  0.14289485  0.86189182  1
  O  O63  1  0.39694280  0.95154094  0.13582129  1
  O  O64  1  0.18837161  0.52295298  0.13763393  1
  O  O65  1  0.07163894  0.28526179  0.13543752  1
  O  O66  1  0.33703674  0.59747030  0.86382133  1
  O  O67  1  0.27153455  0.88178999  0.36573231  1
  O  O68  1  0.13995390  0.64287957  0.36186175  1
  O  O69  1  0.00413687  0.43084952  0.36365722  1
  O  O70  1  0.06876851  0.78396114  0.63612778  1
  O  O71  1  0.99665166  0.93052516  0.86260738  1
