# generated using pymatgen
data_Li24Mn5Cr7O36
_symmetry_space_group_name_H-M   'P 1'
_cell_length_a   5.03296846
_cell_length_b   13.28283260
_cell_length_c   9.76438684
_cell_angle_alpha   97.00743168
_cell_angle_beta   94.96458346
_cell_angle_gamma   100.57241000
_symmetry_Int_Tables_number   1
_chemical_formula_structural   Li24Mn5Cr7O36
_chemical_formula_sum   'Li24 Mn5 Cr7 O36'
_cell_volume   632.91348643
_cell_formula_units_Z   1
loop_
 _symmetry_equiv_pos_site_id
 _symmetry_equiv_pos_as_xyz
  1  'x, y, z'
loop_
 _atom_site_type_symbol
 _atom_site_label
 _atom_site_symmetry_multiplicity
 _atom_site_fract_x
 _atom_site_fract_y
 _atom_site_fract_z
 _atom_site_occupancy
  Li  Li0  1  0.83642119  0.16661834  0.99972636  1
  Li  Li1  1  0.95323133  0.38720704  0.99920556  1
  Li  Li2  1  0.99855158  0.74916835  0.24946733  1
  Li  Li3  1  0.66526430  0.08356896  0.24937932  1
  Li  Li4  1  0.95125313  0.88764124  0.50235644  1
  Li  Li5  1  0.61796160  0.21888480  0.49970597  1
  Li  Li6  1  0.83509124  0.66712981  0.49980217  1
  Li  Li7  1  0.50516212  0.00088075  0.49969686  1
  Li  Li8  1  0.72011645  0.44745676  0.50068022  1
  Li  Li9  1  0.67043195  0.58364871  0.74945762  1
  Li  Li10  1  0.50078677  0.49964056  0.00001302  1
  Li  Li11  1  0.71076637  0.94507031  0.99785908  1
  Li  Li12  1  0.37841315  0.27907176  0.00028247  1
  Li  Li13  1  0.62061878  0.72146915  0.99942433  1
  Li  Li14  1  0.28492952  0.05392231  0.00148883  1
  Li  Li15  1  0.33094744  0.41598777  0.25027083  1
  Li  Li16  1  0.27726078  0.55208272  0.49911550  1
  Li  Li17  1  0.16658839  0.33304366  0.50016762  1
  Li  Li18  1  0.37934953  0.78033321  0.49961075  1
  Li  Li19  1  0.04851448  0.11319407  0.49891052  1
  Li  Li20  1  0.33294563  0.91535673  0.75010951  1
  Li  Li21  1  0.16926635  0.83390601  0.99927970  1
  Li  Li22  1  0.00027599  0.24944958  0.74972246  1
  Li  Li23  1  0.04630556  0.61320697  0.00060574  1
  Mn  Mn24  1  0.88628574  0.02747156  0.74916125  1
  Mn  Mn25  1  0.89128795  0.52826345  0.25131975  1
  Mn  Mn26  1  0.77970118  0.80709823  0.75168139  1
  Mn  Mn27  1  0.22292356  0.19371107  0.25031714  1
  Mn  Mn28  1  0.11167133  0.47217080  0.74979369  1
  Cr  Cr29  1  0.77210077  0.30659203  0.24953016  1
  Cr  Cr30  1  0.56349617  0.36150782  0.75211617  1
  Cr  Cr31  1  0.43586768  0.13637059  0.74787882  1
  Cr  Cr32  1  0.55049850  0.86098573  0.24820220  1
  Cr  Cr33  1  0.44413466  0.63711428  0.25128129  1
  Cr  Cr34  1  0.22904709  0.69354169  0.74947608  1
  Cr  Cr35  1  0.10317602  0.97112673  0.24952886  1
  O  O36  1  0.00420694  0.07158617  0.13900955  1
  O  O37  1  0.93259882  0.21554113  0.36397754  1
  O  O38  1  0.99613165  0.56918383  0.63721910  1
  O  O39  1  0.85908692  0.35781634  0.63860462  1
  O  O40  1  0.74106650  0.11758709  0.63491264  1
  O  O41  1  0.66943618  0.40456244  0.13839496  1
  O  O42  1  0.93146732  0.71573264  0.86344803  1
  O  O43  1  0.81273144  0.47743334  0.86188956  1
  O  O44  1  0.59855977  0.05032226  0.86293308  1
  O  O45  1  0.85786621  0.85839284  0.13765286  1
  O  O46  1  0.73944601  0.61798204  0.13546753  1
  O  O47  1  0.51804525  0.18893981  0.13730011  1
  O  O48  1  0.66058495  0.26360959  0.86299250  1
  O  O49  1  0.80719835  0.97376029  0.36292434  1
  O  O50  1  0.59701972  0.54806102  0.36370600  1
  O  O51  1  0.48142615  0.30884735  0.36147311  1
  O  O52  1  0.66239652  0.76007341  0.36211789  1
  O  O53  1  0.33641825  0.09664695  0.36262967  1
  O  O54  1  0.66451917  0.90470500  0.63869978  1
  O  O55  1  0.33796375  0.23599890  0.63746321  1
  O  O56  1  0.51998692  0.69216379  0.63884379  1
  O  O57  1  0.40204202  0.45041775  0.63699549  1
  O  O58  1  0.18893726  0.02347922  0.63852448  1
  O  O59  1  0.33775229  0.73790638  0.13736131  1
  O  O60  1  0.48357344  0.81176535  0.86297533  1
  O  O61  1  0.26064391  0.38229246  0.86516228  1
  O  O62  1  0.13729993  0.14146779  0.86184324  1
  O  O63  1  0.40592186  0.95162787  0.13439166  1
  O  O64  1  0.18965115  0.52483214  0.13907699  1
  O  O65  1  0.06834165  0.28477559  0.13657294  1
  O  O66  1  0.33007430  0.59628397  0.86152613  1
  O  O67  1  0.26519666  0.88488410  0.36443489  1
  O  O68  1  0.13706561  0.64307911  0.36227606  1
  O  O69  1  0.00429968  0.43072201  0.36284021  1
  O  O70  1  0.06831045  0.78473807  0.63642692  1
  O  O71  1  0.00209276  0.92888343  0.86130520  1
