# generated using pymatgen
data_Li2Cr4O13
_symmetry_space_group_name_H-M   'P 1'
_cell_length_a   8.51344255
_cell_length_b   9.60754192
_cell_length_c   14.87174343
_cell_angle_alpha   90.00000000
_cell_angle_beta   102.69042633
_cell_angle_gamma   90.00000000
_symmetry_Int_Tables_number   1
_chemical_formula_structural   Li2Cr4O13
_chemical_formula_sum   'Li8 Cr16 O52'
_cell_volume   1186.69300346
_cell_formula_units_Z   4
loop_
 _symmetry_equiv_pos_site_id
 _symmetry_equiv_pos_as_xyz
  1  'x, y, z'
loop_
 _atom_site_type_symbol
 _atom_site_label
 _atom_site_symmetry_multiplicity
 _atom_site_fract_x
 _atom_site_fract_y
 _atom_site_fract_z
 _atom_site_occupancy
  Li  Li0  1  0.31054984  0.99926906  0.98284532  1
  Li  Li1  1  0.19079743  0.99873365  0.50682621  1
  Li  Li2  1  0.31054984  0.50073094  0.48284532  1
  Li  Li3  1  0.19079743  0.50126635  0.00682621  1
  Li  Li4  1  0.80920257  0.49873365  0.99317379  1
  Li  Li5  1  0.68945016  0.49926806  0.51715468  1
  Li  Li6  1  0.80920257  0.00126635  0.49317379  1
  Li  Li7  1  0.68945016  0.00073194  0.01715468  1
  Cr  Cr8  1  0.04112130  0.28910860  0.59147090  1
  Cr  Cr9  1  0.13768861  0.24136440  0.81891471  1
  Cr  Cr10  1  0.25031959  0.72317516  0.67576227  1
  Cr  Cr11  1  0.04112130  0.21089140  0.09147090  1
  Cr  Cr12  1  0.13768861  0.25863560  0.31891471  1
  Cr  Cr13  1  0.47005058  0.71493035  0.90453562  1
  Cr  Cr14  1  0.25031959  0.77682484  0.17576227  1
  Cr  Cr15  1  0.52994942  0.21493035  0.59546438  1
  Cr  Cr16  1  0.47005058  0.78506965  0.40453562  1
  Cr  Cr17  1  0.74968041  0.22317516  0.82423773  1
  Cr  Cr18  1  0.52994942  0.28506965  0.09546438  1
  Cr  Cr19  1  0.86231139  0.74136440  0.68108529  1
  Cr  Cr20  1  0.95887870  0.78910860  0.90852910  1
  Cr  Cr21  1  0.74968041  0.27682484  0.32423773  1
  Cr  Cr22  1  0.86231139  0.75863560  0.18108529  1
  Cr  Cr23  1  0.95887870  0.71089140  0.40852910  1
  O  O24  1  0.05529364  0.66822564  0.68678928  1
  O  O25  1  0.13067981  0.86098960  0.90732218  1
  O  O26  1  0.00851931  0.12980452  0.55092127  1
  O  O27  1  0.15888473  0.37695597  0.88345792  1
  O  O28  1  0.15904192  0.28802012  0.71036848  1
  O  O29  1  0.13250351  0.37995424  0.52668893  1
  O  O30  1  0.27394142  0.12855540  0.86051103  1
  O  O31  1  0.05529364  0.83177436  0.18678928  1
  O  O32  1  0.13067981  0.63901040  0.40732218  1
  O  O33  1  0.00851931  0.37019548  0.05092127  1
  O  O34  1  0.35482443  0.62274774  0.95425970  1
  O  O35  1  0.23427818  0.87686719  0.63234063  1
  O  O36  1  0.15888473  0.12304403  0.38345792  1
  O  O37  1  0.15904192  0.21197988  0.21036848  1
  O  O38  1  0.31135979  0.61801911  0.60695091  1
  O  O39  1  0.38196456  0.72217842  0.78071909  1
  O  O40  1  0.13250351  0.12004576  0.02668893  1
  O  O41  1  0.35491465  0.14140649  0.58045866  1
  O  O42  1  0.49202841  0.87312441  0.94781520  1
  O  O43  1  0.27394142  0.37144460  0.36051103  1
  O  O44  1  0.35482443  0.87725226  0.45425970  1
  O  O45  1  0.23427818  0.62313281  0.13234063  1
  O  O46  1  0.31135979  0.88198089  0.10695091  1
  O  O47  1  0.38196456  0.77782158  0.28071909  1
  O  O48  1  0.50797159  0.37312441  0.55218480  1
  O  O49  1  0.64508535  0.64140649  0.91954134  1
  O  O50  1  0.35491465  0.35859351  0.08045866  1
  O  O51  1  0.49202841  0.62687559  0.44781520  1
  O  O52  1  0.61803544  0.22217842  0.71928091  1
  O  O53  1  0.68864021  0.11801911  0.89304909  1
  O  O54  1  0.76572182  0.37686719  0.86765937  1
  O  O55  1  0.64517557  0.12274774  0.54574030  1
  O  O56  1  0.72605858  0.62855540  0.63948897  1
  O  O57  1  0.50797159  0.12687559  0.05218480  1
  O  O58  1  0.64508535  0.85859351  0.41954134  1
  O  O59  1  0.86749649  0.87995424  0.97331107  1
  O  O60  1  0.61803544  0.27782158  0.21928091  1
  O  O61  1  0.68864021  0.38198089  0.39304909  1
  O  O62  1  0.84095808  0.78802012  0.78963152  1
  O  O63  1  0.84111527  0.87695597  0.61654208  1
  O  O64  1  0.76572182  0.12313281  0.36765937  1
  O  O65  1  0.64517557  0.37725226  0.04574030  1
  O  O66  1  0.99148069  0.62980452  0.94907873  1
  O  O67  1  0.86932019  0.36098960  0.59267782  1
  O  O68  1  0.94470636  0.16822564  0.81321072  1
  O  O69  1  0.72605858  0.87144460  0.13948897  1
  O  O70  1  0.86749649  0.62004576  0.47331107  1
  O  O71  1  0.84095808  0.71197988  0.28963152  1
  O  O72  1  0.84111527  0.62304403  0.11654208  1
  O  O73  1  0.99148069  0.87019548  0.44907873  1
  O  O74  1  0.86932019  0.13901040  0.09267782  1
  O  O75  1  0.94470636  0.33177436  0.31321072  1
