# generated using pymatgen
data_Li2VPCO7
_symmetry_space_group_name_H-M   'P 1'
_cell_length_a   8.39820624
_cell_length_b   5.08144358
_cell_length_c   6.45214737
_cell_angle_alpha   90.00000000
_cell_angle_beta   90.00000000
_cell_angle_gamma   84.94409490
_symmetry_Int_Tables_number   1
_chemical_formula_structural   Li2VPCO7
_chemical_formula_sum   'Li4 V2 P2 C2 O14'
_cell_volume   274.27414256
_cell_formula_units_Z   2
loop_
 _symmetry_equiv_pos_site_id
 _symmetry_equiv_pos_as_xyz
  1  'x, y, z'
loop_
 _atom_site_type_symbol
 _atom_site_label
 _atom_site_symmetry_multiplicity
 _atom_site_fract_x
 _atom_site_fract_y
 _atom_site_fract_z
 _atom_site_occupancy
  Li  Li0  1  0.09735391  0.76518015  0.24597351  1
  Li  Li1  1  0.28051043  0.25363293  0.46008391  1
  Li  Li2  1  0.71948957  0.74636707  0.96008391  1
  Li  Li3  1  0.90264609  0.23481985  0.74597351  1
  V  V4  1  0.32343438  0.80227382  0.75858844  1
  V  V5  1  0.67656562  0.19772618  0.25858844  1
  P  P6  1  0.41802174  0.71904480  0.25196992  1
  P  P7  1  0.58197826  0.28095520  0.75196992  1
  C  C8  1  0.03990451  0.70109304  0.74894536  1
  C  C9  1  0.96009549  0.29890696  0.24894536  1
  O  O10  1  0.07497729  0.94778722  0.75393568  1
  O  O11  1  0.09833704  0.37213230  0.27642704  1
  O  O12  1  0.16520242  0.52797481  0.71887347  1
  O  O13  1  0.30336827  0.78009179  0.06479058  1
  O  O14  1  0.31285644  0.83042144  0.43759529  1
  O  O15  1  0.42547443  0.14613200  0.72962238  1
  O  O16  1  0.45672369  0.41822920  0.28120742  1
  O  O17  1  0.54327631  0.58177080  0.78120742  1
  O  O18  1  0.57452557  0.85386800  0.22962238  1
  O  O19  1  0.69663173  0.21990821  0.56479058  1
  O  O20  1  0.68714356  0.16957856  0.93759529  1
  O  O21  1  0.83479758  0.47202519  0.21887347  1
  O  O22  1  0.90166296  0.62786770  0.77642704  1
  O  O23  1  0.92502271  0.05221278  0.25393568  1
