# generated using pymatgen
data_Tl6WO12
_symmetry_space_group_name_H-M   'P 1'
_cell_length_a   6.54346157
_cell_length_b   6.54346156
_cell_length_c   6.54346192
_cell_angle_alpha   98.42520660
_cell_angle_beta   98.42520667
_cell_angle_gamma   98.42521227
_symmetry_Int_Tables_number   1
_chemical_formula_structural   Tl6WO12
_chemical_formula_sum   'Tl6 W1 O12'
_cell_volume   270.08605128
_cell_formula_units_Z   1
loop_
 _symmetry_equiv_pos_site_id
 _symmetry_equiv_pos_as_xyz
  1  'x, y, z'
loop_
 _atom_site_type_symbol
 _atom_site_label
 _atom_site_symmetry_multiplicity
 _atom_site_fract_x
 _atom_site_fract_y
 _atom_site_fract_z
 _atom_site_occupancy
  Tl  Tl0  1  0.39464847  0.86521120  0.69518966  1
  Tl  Tl1  1  0.30481034  0.60535153  0.13478880  1
  Tl  Tl2  1  0.13478880  0.30481034  0.60535153  1
  Tl  Tl3  1  0.86521120  0.69518966  0.39464847  1
  Tl  Tl4  1  0.69518966  0.39464847  0.86521120  1
  Tl  Tl5  1  0.60535153  0.13478880  0.30481034  1
  W  W6  1  0.00000000  0.00000000  0.00000000  1
  O  O7  1  0.03215853  0.91850950  0.70767032  1
  O  O8  1  0.29232968  0.96784147  0.08149050  1
  O  O9  1  0.17431031  0.60233547  0.41951467  1
  O  O10  1  0.58048533  0.82568969  0.39766453  1
  O  O11  1  0.08149050  0.29232968  0.96784147  1
  O  O12  1  0.39766453  0.58048533  0.82568969  1
  O  O13  1  0.60233547  0.41951467  0.17431031  1
  O  O14  1  0.91850950  0.70767032  0.03215853  1
  O  O15  1  0.41951467  0.17431031  0.60233547  1
  O  O16  1  0.82568969  0.39766453  0.58048533  1
  O  O17  1  0.70767032  0.03215853  0.91850950  1
  O  O18  1  0.96784147  0.08149050  0.29232968  1
