# generated using pymatgen
data_Li2MnCrO4
_symmetry_space_group_name_H-M   'P 1'
_cell_length_a   6.03475357
_cell_length_b   10.24858659
_cell_length_c   10.24075081
_cell_angle_alpha   72.36789538
_cell_angle_beta   91.95776360
_cell_angle_gamma   88.76121084
_symmetry_Int_Tables_number   1
_chemical_formula_structural   Li2MnCrO4
_chemical_formula_sum   'Li16 Mn8 Cr8 O32'
_cell_volume   602.91973702
_cell_formula_units_Z   8
loop_
 _symmetry_equiv_pos_site_id
 _symmetry_equiv_pos_as_xyz
  1  'x, y, z'
loop_
 _atom_site_type_symbol
 _atom_site_label
 _atom_site_symmetry_multiplicity
 _atom_site_fract_x
 _atom_site_fract_y
 _atom_site_fract_z
 _atom_site_occupancy
  Li  Li0  1  0.50555651  0.00303491  0.99888759  1
  Li  Li1  1  0.75526550  0.25011574  0.00032754  1
  Li  Li2  1  0.74596106  0.25039512  0.50079809  1
  Li  Li3  1  0.24141105  0.24849160  0.00103668  1
  Li  Li4  1  0.99444349  0.99696509  0.50111241  1
  Li  Li5  1  0.00528778  0.25036902  0.24814613  1
  Li  Li6  1  0.24803016  0.24955645  0.49892513  1
  Li  Li7  1  0.49849882  0.24944488  0.74828827  1
  Li  Li8  1  0.99640543  0.49682825  0.00040965  1
  Li  Li9  1  0.50359457  0.50317175  0.49959035  1
  Li  Li10  1  0.75403894  0.74960488  0.99920191  1
  Li  Li11  1  0.25196984  0.75044355  0.00107487  1
  Li  Li12  1  0.49471222  0.74963098  0.25185387  1
  Li  Li13  1  0.74473450  0.74988426  0.49967246  1
  Li  Li14  1  0.25858895  0.75150840  0.49896332  1
  Li  Li15  1  0.00150118  0.75055512  0.75171173  1
  Mn  Mn16  1  0.75000000  0.00000000  0.25000000  1
  Mn  Mn17  1  0.75000000  0.00000000  0.75000000  1
  Mn  Mn18  1  0.49019278  0.00116040  0.50007175  1
  Mn  Mn19  1  0.00980722  0.99883960  -0.00007175  1
  Mn  Mn20  1  0.25000000  0.00000000  0.25000000  1
  Mn  Mn21  1  0.49982944  0.50050045  0.99935614  1
  Mn  Mn22  1  0.25000000  0.50000000  0.75000000  1
  Mn  Mn23  1  0.00017056  0.49949955  0.50064386  1
  Cr  Cr24  1  0.25000000  0.00000000  0.75000000  1
  Cr  Cr25  1  0.50317603  0.25080729  0.24677940  1
  Cr  Cr26  1  0.75000000  0.50000000  0.25000000  1
  Cr  Cr27  1  0.25000000  0.50000000  0.25000000  1
  Cr  Cr28  1  0.75000000  0.50000000  0.75000000  1
  Cr  Cr29  1  0.99653636  0.24933607  0.75106776  1
  Cr  Cr30  1  0.50346364  0.75066393  0.74893224  1
  Cr  Cr31  1  0.99682397  0.74919271  0.25322060  1
  O  O32  1  0.02270531  0.11372067  0.12158658  1
  O  O33  1  0.74683492  0.12521060  0.36428723  1
  O  O34  1  0.98932814  0.11453342  0.63838985  1
  O  O35  1  0.52053898  0.12283816  0.13091444  1
  O  O36  1  0.72343444  0.37772392  0.12786902  1
  O  O37  1  0.47328881  0.11458106  0.62047148  1
  O  O38  1  0.27434914  0.12751615  0.36345810  1
  O  O39  1  0.77549966  0.11995191  0.86755253  1
  O  O40  1  0.50973384  0.38340548  0.36031364  1
  O  O41  1  0.75083999  0.37139037  0.63389086  1
  O  O42  1  0.25392420  0.37279929  0.13327833  1
  O  O43  1  0.24764539  0.12908118  0.86409163  1
  O  O44  1  0.99026616  0.61659452  0.13968636  1
  O  O45  1  0.22078643  0.37622749  0.63186823  1
  O  O46  1  0.50234725  0.39463408  0.86529305  1
  O  O47  1  0.00952949  0.39094608  0.37063839  1
  O  O48  1  0.49047051  0.60905392  0.12936261  1
  O  O49  1  0.77656556  0.62227608  0.37213098  1
  O  O50  1  0.99765275  0.60536592  0.63470695  1
  O  O51  1  0.24607580  0.62720071  0.36672167  1
  O  O52  1  0.51167036  0.62652772  0.63066816  1
  O  O53  1  0.98832964  0.37347128  0.86933184  1
  O  O54  1  0.74916001  0.62860963  0.86610914  1
  O  O55  1  0.75316508  0.87478940  0.13571277  1
  O  O56  1  0.22565086  0.87248385  0.13654190  1
  O  O57  1  0.47729469  0.88627933  0.37841342  1
  O  O58  1  0.72450034  0.88004809  0.63244747  1
  O  O59  1  0.27921357  0.62377251  0.86813177  1
  O  O60  1  0.51067186  0.88546658  0.86161015  1
  O  O61  1  0.97946102  0.87716184  0.36908556  1
  O  O62  1  0.25235461  0.87091882  0.63590837  1
  O  O63  1  0.02671119  0.88541894  0.87952852  1
