# generated using pymatgen
data_Li24Ti7Cr5O36
_symmetry_space_group_name_H-M   'P 1'
_cell_length_a   5.06743830
_cell_length_b   5.07323130
_cell_length_c   29.40887273
_cell_angle_alpha   85.05711091
_cell_angle_beta   94.82407847
_cell_angle_gamma   59.90957921
_symmetry_Int_Tables_number   1
_chemical_formula_structural   Li24Ti7Cr5O36
_chemical_formula_sum   'Li24 Ti7 Cr5 O36'
_cell_volume   644.58453955
_cell_formula_units_Z   1
loop_
 _symmetry_equiv_pos_site_id
 _symmetry_equiv_pos_as_xyz
  1  'x, y, z'
loop_
 _atom_site_type_symbol
 _atom_site_label
 _atom_site_symmetry_multiplicity
 _atom_site_fract_x
 _atom_site_fract_y
 _atom_site_fract_z
 _atom_site_occupancy
  Li  Li0  1  0.99632330  0.49733139  0.66667826  1
  Li  Li1  1  0.25015968  0.25003053  0.91673501  1
  Li  Li2  1  0.15707047  0.66509473  0.83305414  1
  Li  Li3  1  0.00316887  0.49730901  0.33333482  1
  Li  Li4  1  0.24857078  0.25329561  0.58336694  1
  Li  Li5  1  0.49636727  0.00067527  0.83321589  1
  Li  Li6  1  0.15993384  0.66519053  0.49980298  1
  Li  Li7  1  0.99722497  0.49918535  0.00020248  1
  Li  Li8  1  0.24608595  0.25251388  0.24998322  1
  Li  Li9  1  0.49909582  0.99452177  0.49985113  1
  Li  Li10  1  0.33409181  0.84267543  0.99999289  1
  Li  Li11  1  0.15076734  0.66887031  0.16646074  1
  Li  Li12  1  0.50003568  0.99995258  0.16665748  1
  Li  Li13  1  0.66505712  0.16242083  0.66684539  1
  Li  Li14  1  0.33690568  0.83906063  0.66649582  1
  Li  Li15  1  0.66972694  0.15417777  0.33367661  1
  Li  Li16  1  0.32769940  0.84939929  0.33304079  1
  Li  Li17  1  0.84637846  0.33435120  0.83328875  1
  Li  Li18  1  0.66857594  0.15670030  0.00048706  1
  Li  Li19  1  0.75407828  0.74790772  0.74998752  1
  Li  Li20  1  0.83989073  0.33942841  0.50001150  1
  Li  Li21  1  0.74841039  0.75335910  0.41666591  1
  Li  Li22  1  0.84917369  0.33121406  0.16684220  1
  Li  Li23  1  0.75385762  0.74770058  0.08335753  1
  Ti  Ti24  1  0.41246193  0.41949386  0.74984340  1
  Ti  Ti25  1  0.41972450  0.41232685  0.41674943  1
  Ti  Ti26  1  0.58234147  0.58224660  0.91664461  1
  Ti  Ti27  1  0.41269807  0.41974775  0.08320752  1
  Ti  Ti28  1  0.58697467  0.58041302  0.25014499  1
  Ti  Ti29  1  0.91679652  0.91700099  0.91669751  1
  Ti  Ti30  1  0.91880951  0.91180293  0.58349516  1
  Cr  Cr31  1  0.08627407  0.08101111  0.75009192  1
  Cr  Cr32  1  0.08142136  0.08606314  0.41655632  1
  Cr  Cr33  1  0.08652469  0.08106502  0.08353867  1
  Cr  Cr34  1  0.58090625  0.58532707  0.58315348  1
  Cr  Cr35  1  0.91354804  0.91871454  0.24984564  1
  O  O36  1  0.14611675  0.35803280  0.78880156  1
  O  O37  1  0.34861410  0.14193728  0.71184752  1
  O  O38  1  0.14210207  0.34874052  0.45478704  1
  O  O39  1  0.28813208  0.56687383  0.95465118  1
  O  O40  1  0.06811576  0.78487844  0.71175148  1
  O  O41  1  0.35869284  0.14608672  0.37782463  1
  O  O42  1  0.21200286  0.93278083  0.87880630  1
  O  O43  1  0.14644217  0.35736359  0.12228796  1
  O  O44  1  0.28388735  0.56841739  0.62158523  1
  O  O45  1  0.06777256  0.79281106  0.37947991  1
  O  O46  1  0.56767001  0.28848588  0.87865344  1
  O  O47  1  0.42434519  0.72295647  0.78731276  1
  O  O48  1  0.34888533  0.14180527  0.04534231  1
  O  O49  1  0.22301533  0.92468999  0.54600351  1
  O  O50  1  0.28230590  0.57368811  0.28726767  1
  O  O51  1  0.79247046  0.06820973  0.78718473  1
  O  O52  1  0.06862929  0.78426723  0.04525153  1
  O  O53  1  0.56772281  0.29338122  0.54603271  1
  O  O54  1  0.42664512  0.71832401  0.45371781  1
  O  O55  1  0.93286750  0.21190339  0.95452722  1
  O  O56  1  0.20752477  0.93168653  0.21278586  1
  O  O57  1  0.71833135  0.42675618  0.71289042  1
  O  O58  1  0.78480945  0.06937535  0.45495529  1
  O  O59  1  0.64401967  0.85555236  0.95525663  1
  O  O60  1  0.57617456  0.27726538  0.21248576  1
  O  O61  1  0.42382048  0.72280354  0.12088285  1
  O  O62  1  0.92643866  0.21789431  0.62039010  1
  O  O63  1  0.72298312  0.42481287  0.37924295  1
  O  O64  1  0.85543872  0.64511044  0.87806697  1
  O  O65  1  0.79262266  0.06808658  0.12054008  1
  O  O66  1  0.64115157  0.84854078  0.62145711  1
  O  O67  1  0.93167360  0.21535771  0.28806815  1
  O  O68  1  0.71805203  0.42687385  0.04626161  1
  O  O69  1  0.85800331  0.64631206  0.54441401  1
  O  O70  1  0.65182434  0.85767786  0.28809303  1
  O  O71  1  0.85356408  0.64268129  0.21109294  1
