# generated using pymatgen
data_Li4Mn3Nb2Fe3O16
_symmetry_space_group_name_H-M   'P 1'
_cell_length_a   6.04046474
_cell_length_b   5.95007074
_cell_length_c   9.81999233
_cell_angle_alpha   90.01261513
_cell_angle_beta   91.93817355
_cell_angle_gamma   119.49375202
_symmetry_Int_Tables_number   1
_chemical_formula_structural   Li4Mn3Nb2Fe3O16
_chemical_formula_sum   'Li4 Mn3 Nb2 Fe3 O16'
_cell_volume   306.97073725
_cell_formula_units_Z   1
loop_
 _symmetry_equiv_pos_site_id
 _symmetry_equiv_pos_as_xyz
  1  'x, y, z'
loop_
 _atom_site_type_symbol
 _atom_site_label
 _atom_site_symmetry_multiplicity
 _atom_site_fract_x
 _atom_site_fract_y
 _atom_site_fract_z
 _atom_site_occupancy
  Li  Li0  1  0.32535481  0.66269106  0.90366692  1
  Li  Li1  1  0.99144928  0.99578808  0.98985982  1
  Li  Li2  1  0.00319886  0.00162847  0.48912572  1
  Li  Li3  1  0.67027657  0.33512064  0.40236117  1
  Mn  Mn4  1  0.65915265  0.82959595  0.21143415  1
  Mn  Mn5  1  0.83145295  0.66124379  0.71431056  1
  Mn  Mn6  1  0.83153209  0.17029582  0.71430570  1
  Nb  Nb7  1  0.33589804  0.66777792  0.49166805  1
  Nb  Nb8  1  0.64227734  0.32116540  0.99385152  1
  Fe  Fe9  1  0.17126362  0.83057907  0.21780017  1
  Fe  Fe10  1  0.17129443  0.34070474  0.21779511  1
  Fe  Fe11  1  0.34192260  0.17087811  0.71744144  1
  O  O12  1  0.18840125  0.84535317  0.58781431  1
  O  O13  1  0.03946003  0.51980244  0.34346795  1
  O  O14  1  0.33628762  0.66811047  0.11109025  1
  O  O15  1  0.99035433  0.99524625  0.30224522  1
  O  O16  1  0.00244109  0.00125353  0.80278758  1
  O  O17  1  0.18819669  0.34308006  0.58793157  1
  O  O18  1  0.47977910  0.96480332  0.34537478  1
  O  O19  1  0.47946561  0.51457886  0.34556386  1
  O  O20  1  0.33030587  0.16511965  0.09702956  1
  O  O21  1  0.68149667  0.84067378  0.59347737  1
  O  O22  1  0.50414370  0.47255026  0.84982657  1
  O  O23  1  0.50431232  0.03163969  0.84983151  1
  O  O24  1  0.66963569  0.33479280  0.61309636  1
  O  O25  1  0.83714530  0.66378803  0.08849991  1
  O  O26  1  0.95609514  0.47817913  0.83781765  1
  O  O27  1  0.83740935  0.17386151  0.08836721  1
