# generated using pymatgen
data_Li24Ti5Cr7O36
_symmetry_space_group_name_H-M   'P 1'
_cell_length_a   5.05217313
_cell_length_b   13.41488003
_cell_length_c   9.78099574
_cell_angle_alpha   97.28461062
_cell_angle_beta   94.65969414
_cell_angle_gamma   100.89067878
_symmetry_Int_Tables_number   1
_chemical_formula_structural   Li24Ti5Cr7O36
_chemical_formula_sum   'Li24 Ti5 Cr7 O36'
_cell_volume   641.93024624
_cell_formula_units_Z   1
loop_
 _symmetry_equiv_pos_site_id
 _symmetry_equiv_pos_as_xyz
  1  'x, y, z'
loop_
 _atom_site_type_symbol
 _atom_site_label
 _atom_site_symmetry_multiplicity
 _atom_site_fract_x
 _atom_site_fract_y
 _atom_site_fract_z
 _atom_site_occupancy
  Li  Li0  1  0.83203794  0.16723449  0.99906478  1
  Li  Li1  1  0.95203600  0.38583559  0.99809521  1
  Li  Li2  1  0.99803144  0.75079442  0.25080862  1
  Li  Li3  1  0.66799348  0.08291252  0.24947855  1
  Li  Li4  1  0.95340923  0.88806288  0.50118661  1
  Li  Li5  1  0.62777064  0.22121926  0.49948902  1
  Li  Li6  1  0.83352899  0.66749741  0.49948376  1
  Li  Li7  1  0.50078939  0.00032945  0.49880637  1
  Li  Li8  1  0.71165106  0.44421557  0.49722757  1
  Li  Li9  1  0.66737091  0.58354040  0.74974376  1
  Li  Li10  1  0.49083138  0.50001493  0.00303327  1
  Li  Li11  1  0.72043272  0.94887052  0.00164197  1
  Li  Li12  1  0.38629437  0.28188883  0.00323333  1
  Li  Li13  1  0.61728980  0.71924246  0.00199462  1
  Li  Li14  1  0.27701489  0.05091309  0.99805791  1
  Li  Li15  1  0.33556740  0.41750207  0.25000125  1
  Li  Li16  1  0.29382543  0.55581674  0.50145112  1
  Li  Li17  1  0.15787424  0.33429515  0.50118053  1
  Li  Li18  1  0.37601743  0.77722161  0.49870897  1
  Li  Li19  1  0.04355665  0.11229753  0.50138803  1
  Li  Li20  1  0.33183870  0.91546437  0.74960389  1
  Li  Li21  1  0.17514717  0.83277149  0.99817716  1
  Li  Li22  1  0.99801239  0.25009934  0.75003827  1
  Li  Li23  1  0.04718904  0.61261273  0.99821812  1
  Ti  Ti24  1  0.88225169  0.52617137  0.24241455  1
  Ti  Ti25  1  0.78173336  0.80676028  0.75273015  1
  Ti  Ti26  1  0.55892553  0.36168296  0.75313826  1
  Ti  Ti27  1  0.43889587  0.13882214  0.74521146  1
  Ti  Ti28  1  0.22739053  0.19168189  0.25513112  1
  Cr  Cr29  1  0.88361696  0.02683555  0.75094386  1
  Cr  Cr30  1  0.78458032  0.30582264  0.24921462  1
  Cr  Cr31  1  0.56072600  0.86481529  0.25287924  1
  Cr  Cr32  1  0.43810905  0.64194197  0.25170490  1
  Cr  Cr33  1  0.21908034  0.69263844  0.74694160  1
  Cr  Cr34  1  0.11764918  0.47466000  0.75099295  1
  Cr  Cr35  1  0.10855812  0.96797148  0.24814884  1
  O  O36  1  0.00119025  0.06874058  0.13830374  1
  O  O37  1  0.93154603  0.21327963  0.36680079  1
  O  O38  1  0.00029001  0.57596982  0.63796883  1
  O  O39  1  0.86027301  0.35941652  0.63808935  1
  O  O40  1  0.73432094  0.11922754  0.63346674  1
  O  O41  1  0.66113299  0.40528771  0.13445074  1
  O  O42  1  0.93845410  0.71363856  0.86556628  1
  O  O43  1  0.81391141  0.47863600  0.86127718  1
  O  O44  1  0.60324777  0.04670792  0.86457832  1
  O  O45  1  0.86654358  0.85837488  0.13760947  1
  O  O46  1  0.73583352  0.62079833  0.13583923  1
  O  O47  1  0.52784262  0.19052060  0.13806787  1
  O  O48  1  0.66531859  0.26196440  0.86374485  1
  O  O49  1  0.80000743  0.97451523  0.36215937  1
  O  O50  1  0.59571029  0.55095683  0.36447843  1
  O  O51  1  0.48152188  0.31056261  0.36165786  1
  O  O52  1  0.66780870  0.76622654  0.36299152  1
  O  O53  1  0.33326887  0.09251092  0.36301873  1
  O  O54  1  0.66864262  0.90780935  0.63872181  1
  O  O55  1  0.33246911  0.23786660  0.63484725  1
  O  O56  1  0.52007157  0.68926199  0.63885849  1
  O  O57  1  0.39553113  0.45339924  0.63463537  1
  O  O58  1  0.18464208  0.02152864  0.63794490  1
  O  O59  1  0.33636808  0.73683186  0.14040532  1
  O  O60  1  0.47335933  0.80777558  0.86247280  1
  O  O61  1  0.26425180  0.38092908  0.86625776  1
  O  O62  1  0.13785182  0.14155969  0.86157118  1
  O  O63  1  0.40966308  0.94744409  0.13489318  1
  O  O64  1  0.18745786  0.52289465  0.13597276  1
  O  O65  1  0.06280424  0.28509958  0.13538745  1
  O  O66  1  0.33439679  0.59194408  0.86101366  1
  O  O67  1  0.25480652  0.88395094  0.36419317  1
  O  O68  1  0.15217759  0.64466599  0.36336068  1
  O  O69  1  0.99667229  0.42560000  0.36150375  1
  O  O70  1  0.06820682  0.78611385  0.63287501  1
  O  O71  1  0.00538061  0.92753230  0.86545292  1
