# generated using pymatgen
data_Li24Ti5Cr7O36
_symmetry_space_group_name_H-M   'P 1'
_cell_length_a   5.06972694
_cell_length_b   13.35764908
_cell_length_c   9.78922379
_cell_angle_alpha   97.19702759
_cell_angle_beta   94.98820378
_cell_angle_gamma   100.87935359
_symmetry_Int_Tables_number   1
_chemical_formula_structural   Li24Ti5Cr7O36
_chemical_formula_sum   'Li24 Ti5 Cr7 O36'
_cell_volume   641.70385970
_cell_formula_units_Z   1
loop_
 _symmetry_equiv_pos_site_id
 _symmetry_equiv_pos_as_xyz
  1  'x, y, z'
loop_
 _atom_site_type_symbol
 _atom_site_label
 _atom_site_symmetry_multiplicity
 _atom_site_fract_x
 _atom_site_fract_y
 _atom_site_fract_z
 _atom_site_occupancy
  Li  Li0  1  0.82919493  0.16835625  0.99984716  1
  Li  Li1  1  0.95454395  0.38609821  0.00022390  1
  Li  Li2  1  0.00216960  0.75022392  0.24871837  1
  Li  Li3  1  0.66575443  0.08233493  0.24966303  1
  Li  Li4  1  0.95106887  0.88752956  0.50097393  1
  Li  Li5  1  0.62015196  0.22100210  0.49976901  1
  Li  Li6  1  0.82922291  0.66631982  0.50064222  1
  Li  Li7  1  0.49970396  0.00026475  0.49936076  1
  Li  Li8  1  0.71603719  0.44533252  0.49917933  1
  Li  Li9  1  0.66682772  0.58252219  0.74997594  1
  Li  Li10  1  0.49185403  0.50176368  0.00028264  1
  Li  Li11  1  0.71934721  0.94737912  0.00098402  1
  Li  Li12  1  0.38563715  0.28096458  0.00160451  1
  Li  Li13  1  0.61730162  0.71978817  0.00156217  1
  Li  Li14  1  0.28008555  0.05174553  0.99824692  1
  Li  Li15  1  0.33448286  0.41706959  0.25043717  1
  Li  Li16  1  0.29044809  0.55412695  0.50070324  1
  Li  Li17  1  0.16101641  0.33531446  0.49980838  1
  Li  Li18  1  0.37696345  0.77763907  0.49796607  1
  Li  Li19  1  0.05088327  0.11284871  0.50093525  1
  Li  Li20  1  0.33389403  0.91764765  0.74972490  1
  Li  Li21  1  0.17157536  0.83235580  0.00037085  1
  Li  Li22  1  0.99966459  0.24983540  0.74993536  1
  Li  Li23  1  0.05026006  0.61226683  0.99923797  1
  Ti  Ti24  1  0.89224324  0.52741017  0.25328042  1
  Ti  Ti25  1  0.77831643  0.80815370  0.75157018  1
  Ti  Ti26  1  0.55577924  0.35941621  0.75108458  1
  Ti  Ti27  1  0.22173243  0.19378815  0.25041950  1
  Ti  Ti28  1  0.22266399  0.69359036  0.74867258  1
  Cr  Cr29  1  0.88997994  0.03172630  0.74968583  1
  Cr  Cr30  1  0.77432367  0.30467486  0.24914679  1
  Cr  Cr31  1  0.44058311  0.13575215  0.74908352  1
  Cr  Cr32  1  0.55384715  0.86505023  0.24842491  1
  Cr  Cr33  1  0.44974765  0.64153454  0.25050166  1
  Cr  Cr34  1  0.11056567  0.47250469  0.75007346  1
  Cr  Cr35  1  0.10612844  0.96913572  0.24917418  1
  O  O36  1  0.99907023  0.06883424  0.13742015  1
  O  O37  1  0.92603949  0.21513715  0.36491726  1
  O  O38  1  0.99591529  0.56988642  0.63682045  1
  O  O39  1  0.85817020  0.35604155  0.63767090  1
  O  O40  1  0.74187893  0.11663116  0.63512434  1
  O  O41  1  0.66703241  0.40234600  0.13697218  1
  O  O42  1  0.93101270  0.71536372  0.86639979  1
  O  O43  1  0.81693722  0.47720662  0.86255795  1
  O  O44  1  0.59092301  0.05091916  0.86393121  1
  O  O45  1  0.86439541  0.85878688  0.13787095  1
  O  O46  1  0.72975222  0.61921347  0.13548850  1
  O  O47  1  0.52720882  0.18957575  0.13739907  1
  O  O48  1  0.66490633  0.26039736  0.86268938  1
  O  O49  1  0.80248699  0.97336276  0.36280985  1
  O  O50  1  0.60061276  0.54804022  0.36674078  1
  O  O51  1  0.47897370  0.30990034  0.36316334  1
  O  O52  1  0.66285584  0.76142528  0.35976623  1
  O  O53  1  0.33217438  0.09361640  0.36283815  1
  O  O54  1  0.66716741  0.90671425  0.63776175  1
  O  O55  1  0.33316436  0.23587921  0.63688277  1
  O  O56  1  0.52330588  0.68989029  0.63613373  1
  O  O57  1  0.39692978  0.45228306  0.63605825  1
  O  O58  1  0.19702960  0.02541040  0.63737678  1
  O  O59  1  0.33514991  0.74132315  0.13789266  1
  O  O60  1  0.47722553  0.81064570  0.86423699  1
  O  O61  1  0.26208014  0.38075215  0.86577627  1
  O  O62  1  0.13508746  0.14076280  0.86196343  1
  O  O63  1  0.40771716  0.95034037  0.13463046  1
  O  O64  1  0.19374463  0.52544233  0.13820523  1
  O  O65  1  0.07002477  0.28485739  0.13426958  1
  O  O66  1  0.33626263  0.59387193  0.86237782  1
  O  O67  1  0.25711258  0.88393572  0.36397949  1
  O  O68  1  0.14789472  0.64455936  0.36243291  1
  O  O69  1  0.00252241  0.42701669  0.36235681  1
  O  O70  1  0.07011912  0.78497930  0.63319759  1
  O  O71  1  0.00311181  0.93118855  0.86261532  1
