# generated using pymatgen
data_Li24Ti5Cr7O36
_symmetry_space_group_name_H-M   'P 1'
_cell_length_a   5.07581497
_cell_length_b   13.35391030
_cell_length_c   9.80184088
_cell_angle_alpha   97.13600291
_cell_angle_beta   95.07569918
_cell_angle_gamma   100.84012335
_symmetry_Int_Tables_number   1
_chemical_formula_structural   Li24Ti5Cr7O36
_chemical_formula_sum   'Li24 Ti5 Cr7 O36'
_cell_volume   643.20081858
_cell_formula_units_Z   1
loop_
 _symmetry_equiv_pos_site_id
 _symmetry_equiv_pos_as_xyz
  1  'x, y, z'
loop_
 _atom_site_type_symbol
 _atom_site_label
 _atom_site_symmetry_multiplicity
 _atom_site_fract_x
 _atom_site_fract_y
 _atom_site_fract_z
 _atom_site_occupancy
  Li  Li0  1  0.83264889  0.16657492  0.00004269  1
  Li  Li1  1  0.94679135  0.38463206  0.99962292  1
  Li  Li2  1  0.00178712  0.75030348  0.24913579  1
  Li  Li3  1  0.66616672  0.08294996  0.24979551  1
  Li  Li4  1  0.95448424  0.88944738  0.50346704  1
  Li  Li5  1  0.62024776  0.22194819  0.49945301  1
  Li  Li6  1  0.82909084  0.66638342  0.50059804  1
  Li  Li7  1  0.49939761  0.99980284  0.49976784  1
  Li  Li8  1  0.71529462  0.44530634  0.49899729  1
  Li  Li9  1  0.66609716  0.58225990  0.74995949  1
  Li  Li10  1  0.49348872  0.50162046  0.99988054  1
  Li  Li11  1  0.71889726  0.94832097  0.99928598  1
  Li  Li12  1  0.38730981  0.28162166  0.00197723  1
  Li  Li13  1  0.61706386  0.71981922  0.00090814  1
  Li  Li14  1  0.28025281  0.05173539  0.99867535  1
  Li  Li15  1  0.33413290  0.41713402  0.25034161  1
  Li  Li16  1  0.29005592  0.55498448  0.50015578  1
  Li  Li17  1  0.16679303  0.33333516  0.50006390  1
  Li  Li18  1  0.37694970  0.77772635  0.49810523  1
  Li  Li19  1  0.04711657  0.11126321  0.50026979  1
  Li  Li20  1  0.33428517  0.91765739  0.74980831  1
  Li  Li21  1  0.17029929  0.83231955  0.00014572  1
  Li  Li22  1  0.00082622  0.25075556  0.75021131  1
  Li  Li23  1  0.05259961  0.61371597  0.00045301  1
  Ti  Ti24  1  0.89224789  0.52755623  0.25326729  1
  Ti  Ti25  1  0.77602650  0.80673291  0.74962099  1
  Ti  Ti26  1  0.44363767  0.13943884  0.75024358  1
  Ti  Ti27  1  0.22213998  0.19317882  0.24968143  1
  Ti  Ti28  1  0.22180042  0.69227032  0.75018404  1
  Cr  Cr29  1  0.89180756  0.02982933  0.75011363  1
  Cr  Cr30  1  0.77437035  0.30521242  0.24969118  1
  Cr  Cr31  1  0.55756283  0.36464679  0.75040789  1
  Cr  Cr32  1  0.55569197  0.86498721  0.24856448  1
  Cr  Cr33  1  0.44909116  0.64124152  0.24988394  1
  Cr  Cr34  1  0.10752890  0.46823658  0.74954120  1
  Cr  Cr35  1  0.10776550  0.96862519  0.24978918  1
  O  O36  1  -0.00022305  0.06896563  0.13801907  1
  O  O37  1  0.92746210  0.21518377  0.36485303  1
  O  O38  1  0.99843205  0.56848459  0.63780266  1
  O  O39  1  0.86425551  0.35833592  0.63858318  1
  O  O40  1  0.74095919  0.11730351  0.63540197  1
  O  O41  1  0.66623322  0.40236026  0.13705064  1
  O  O42  1  0.93079124  0.71528312  0.86624447  1
  O  O43  1  0.80152022  0.47421629  0.86193473  1
  O  O44  1  0.59572004  0.04870163  0.86553133  1
  O  O45  1  0.86484367  0.85922734  0.13810051  1
  O  O46  1  0.72841958  0.61879873  0.13527212  1
  O  O47  1  0.52492140  0.18946571  0.13731881  1
  O  O48  1  0.66654882  0.26422529  0.86214955  1
  O  O49  1  0.80258452  0.97320512  0.36237907  1
  O  O50  1  0.60037263  0.54820298  0.36629248  1
  O  O51  1  0.48210442  0.31004020  0.36262050  1
  O  O52  1  0.66179545  0.76149836  0.35891446  1
  O  O53  1  0.33224245  0.09381324  0.36311457  1
  O  O54  1  0.66440244  0.90628073  0.63763615  1
  O  O55  1  0.33496071  0.23965497  0.63724390  1
  O  O56  1  0.52354534  0.68975262  0.63599926  1
  O  O57  1  0.40844994  0.44953701  0.63632018  1
  O  O58  1  0.18985814  0.02345535  0.63656357  1
  O  O59  1  0.33428452  0.74069781  0.13807207  1
  O  O60  1  0.47751460  0.80959505  0.86362106  1
  O  O61  1  0.25729722  0.38335431  0.86425117  1
  O  O62  1  0.13875292  0.14280408  0.86237808  1
  O  O63  1  0.40690981  0.94952466  0.13532822  1
  O  O64  1  0.19146880  0.52491439  0.13747742  1
  O  O65  1  0.06789725  0.28516638  0.13498536  1
  O  O66  1  0.33272170  0.59305791  0.86203044  1
  O  O67  1  0.25774966  0.88371551  0.36381039  1
  O  O68  1  0.14855602  0.64423536  0.36212340  1
  O  O69  1  0.00337890  0.42770346  0.36302248  1
  O  O70  1  0.06821733  0.78404537  0.63347689  1
  O  O71  1  0.00330434  0.93161530  0.86196446  1
