# generated using pymatgen
data_YMg14Bi
_symmetry_space_group_name_H-M   'P 1'
_cell_length_a   6.51245240
_cell_length_b   6.51245185
_cell_length_c   10.51774496
_cell_angle_alpha   90.00000000
_cell_angle_beta   90.00000000
_cell_angle_gamma   120.00000281
_symmetry_Int_Tables_number   1
_chemical_formula_structural   YMg14Bi
_chemical_formula_sum   'Y1 Mg14 Bi1'
_cell_volume   386.31568554
_cell_formula_units_Z   1
loop_
 _symmetry_equiv_pos_site_id
 _symmetry_equiv_pos_as_xyz
  1  'x, y, z'
loop_
 _atom_site_type_symbol
 _atom_site_label
 _atom_site_symmetry_multiplicity
 _atom_site_fract_x
 _atom_site_fract_y
 _atom_site_fract_z
 _atom_site_occupancy
  Y  Y0  1  0.16666700  0.33333300  0.12500000  1
  Mg  Mg1  1  0.17297306  0.83648603  0.12500000  1
  Mg  Mg2  1  0.16307635  0.83153768  0.62500000  1
  Mg  Mg3  1  0.66351397  0.32702694  0.12500000  1
  Mg  Mg4  1  0.66846232  0.33692365  0.62500000  1
  Mg  Mg5  1  0.66351397  0.83648603  0.12500000  1
  Mg  Mg6  1  0.66846232  0.83153768  0.62500000  1
  Mg  Mg7  1  0.33489052  0.16510948  0.37435863  1
  Mg  Mg8  1  0.33489052  0.16510948  0.87564137  1
  Mg  Mg9  1  0.33489052  0.66978205  0.37435863  1
  Mg  Mg10  1  0.33489052  0.66978205  0.87564137  1
  Mg  Mg11  1  0.83021795  0.16510948  0.37435863  1
  Mg  Mg12  1  0.83021795  0.16510948  0.87564137  1
  Mg  Mg13  1  0.83333300  0.66666700  0.36996953  1
  Mg  Mg14  1  0.83333300  0.66666700  0.88003047  1
  Bi  Bi15  1  0.16666700  0.33333300  0.62500000  1
