# generated using pymatgen
data_Li4TiCrO6
_symmetry_space_group_name_H-M   'P 1'
_cell_length_a   5.06539600
_cell_length_b   8.76788217
_cell_length_c   9.80324134
_cell_angle_alpha   98.37742905
_cell_angle_beta   94.92118918
_cell_angle_gamma   90.05600761
_symmetry_Int_Tables_number   1
_chemical_formula_structural   Li4TiCrO6
_chemical_formula_sum   'Li16 Ti4 Cr4 O24'
_cell_volume   429.11567479
_cell_formula_units_Z   4
loop_
 _symmetry_equiv_pos_site_id
 _symmetry_equiv_pos_as_xyz
  1  'x, y, z'
loop_
 _atom_site_type_symbol
 _atom_site_label
 _atom_site_symmetry_multiplicity
 _atom_site_fract_x
 _atom_site_fract_y
 _atom_site_fract_z
 _atom_site_occupancy
  Li  Li0  1  0.98765370  0.16531248  0.50006768  1
  Li  Li1  1  0.87501504  0.37541440  0.74986858  1
  Li  Li2  1  0.75077139  0.25146163  0.99860156  1
  Li  Li3  1  0.74198097  0.92018458  0.99902710  1
  Li  Li4  1  0.76065942  0.57686006  0.99833375  1
  Li  Li5  1  0.62503429  0.12277640  0.24964261  1
  Li  Li6  1  0.51053421  0.33247480  0.49992036  1
  Li  Li7  1  0.50017436  0.00234818  0.49845126  1
  Li  Li8  1  0.49150037  0.66447814  0.49803980  1
  Li  Li9  1  0.37530770  0.87452592  0.74959992  1
  Li  Li10  1  0.24593026  0.75116662  0.00097924  1
  Li  Li11  1  0.24294346  0.42228738  0.00110007  1
  Li  Li12  1  0.25703649  0.07759954  0.00060588  1
  Li  Li13  1  0.12458175  0.62265027  0.25025777  1
  Li  Li14  1  0.01110782  0.83366592  0.50206766  1
  Li  Li15  1  0.99502445  0.50245634  0.50147262  1
  Ti  Ti16  1  0.62605113  0.79326590  0.25025705  1
  Ti  Ti17  1  0.37975005  0.54266828  0.75373567  1
  Ti  Ti18  1  0.36888723  0.20806528  0.74630653  1
  Ti  Ti19  1  0.12573905  0.29345299  0.25106789  1
  Cr  Cr20  1  0.88136153  0.71117888  0.75111352  1
  Cr  Cr21  1  0.86767001  0.03914705  0.74914770  1
  Cr  Cr22  1  0.62426531  0.45680448  0.24901573  1
  Cr  Cr23  1  0.12443048  0.95690032  0.24977219  1
  O  O24  1  0.96521573  0.10379495  0.13861218  1
  O  O25  1  0.93557769  0.78817091  0.13799954  1
  O  O26  1  0.93191779  0.42677230  0.13331032  1
  O  O27  1  0.81808480  0.96513065  0.36433011  1
  O  O28  1  0.81625481  0.32580885  0.36430431  1
  O  O29  1  0.78570895  0.64064165  0.36138959  1
  O  O30  1  0.71211051  0.86272816  0.63862565  1
  O  O31  1  0.68090098  0.53862972  0.63851773  1
  O  O32  1  0.67378722  0.17873921  0.63376246  1
  O  O33  1  0.46457346  0.60402111  0.13820519  1
  O  O34  1  0.57614933  0.71755947  0.86232991  1
  O  O35  1  0.58094693  0.07077816  0.86473227  1
  O  O36  1  0.43093089  0.92675990  0.13309168  1
  O  O37  1  0.43530944  0.28778143  0.13782927  1
  O  O38  1  0.53543029  0.39374026  0.86428456  1
  O  O39  1  0.31729809  0.82581241  0.36470690  1
  O  O40  1  0.31853092  0.46555602  0.36438801  1
  O  O41  1  0.28598928  0.14065592  0.36181146  1
  O  O42  1  0.21394854  0.35691698  0.63543803  1
  O  O43  1  0.16962537  0.68004199  0.63538273  1
  O  O44  1  0.17416971  0.03250316  0.63831580  1
  O  O45  1  0.07613358  0.57186344  0.86647790  1
  O  O46  1  0.07028598  0.21134704  0.86220462  1
  O  O47  1  0.03771027  0.88709946  0.86149961  1
