# generated using pymatgen
data_Li24Ti7Cr5O36
_symmetry_space_group_name_H-M   'P 1'
_cell_length_a   5.06155269
_cell_length_b   13.44221981
_cell_length_c   9.81615898
_cell_angle_alpha   97.44217258
_cell_angle_beta   94.55867621
_cell_angle_gamma   100.93476477
_symmetry_Int_Tables_number   1
_chemical_formula_structural   Li24Ti7Cr5O36
_chemical_formula_sum   'Li24 Ti7 Cr5 O36'
_cell_volume   646.50254006
_cell_formula_units_Z   1
loop_
 _symmetry_equiv_pos_site_id
 _symmetry_equiv_pos_as_xyz
  1  'x, y, z'
loop_
 _atom_site_type_symbol
 _atom_site_label
 _atom_site_symmetry_multiplicity
 _atom_site_fract_x
 _atom_site_fract_y
 _atom_site_fract_z
 _atom_site_occupancy
  Li  Li0  1  0.83928704  0.16514937  0.99988308  1
  Li  Li1  1  0.94753854  0.38736033  0.99924876  1
  Li  Li2  1  0.99916631  0.74933462  0.24989324  1
  Li  Li3  1  0.66703621  0.08483365  0.24961681  1
  Li  Li4  1  0.95560968  0.88863684  0.50056130  1
  Li  Li5  1  0.61904655  0.22052929  0.50027625  1
  Li  Li6  1  0.83772567  0.66612016  0.49895707  1
  Li  Li7  1  0.50620271  0.99929389  0.50139235  1
  Li  Li8  1  0.71012534  0.44703853  0.50013730  1
  Li  Li9  1  0.66332665  0.58282120  0.74994659  1
  Li  Li10  1  0.50766749  0.49875239  0.99972632  1
  Li  Li11  1  0.71446080  0.94720061  0.99900693  1
  Li  Li12  1  0.38333974  0.27977084  0.00068716  1
  Li  Li13  1  0.61291797  0.71909182  0.99797695  1
  Li  Li14  1  0.28106472  0.05363316  0.00040491  1
  Li  Li15  1  0.33352141  0.41706795  0.25005955  1
  Li  Li16  1  0.28387421  0.55384678  0.50003141  1
  Li  Li17  1  0.17176928  0.33227606  0.50001202  1
  Li  Li18  1  0.37539185  0.77907228  0.50084538  1
  Li  Li19  1  0.04181856  0.11239458  0.49867064  1
  Li  Li20  1  0.33025096  0.91619285  0.75021350  1
  Li  Li21  1  0.17032677  0.83293649  0.99990677  1
  Li  Li22  1  0.99666041  0.24893177  0.75006907  1
  Li  Li23  1  0.05088828  0.61395894  0.00130309  1
  Ti  Ti24  1  0.77908673  0.30425293  0.25072782  1
  Ti  Ti25  1  0.78060244  0.80651149  0.75036929  1
  Ti  Ti26  1  0.44778085  0.13988263  0.75095984  1
  Ti  Ti27  1  0.55617901  0.86062952  0.25075482  1
  Ti  Ti28  1  0.44414412  0.63791067  0.24964329  1
  Ti  Ti29  1  0.11353808  0.47292083  0.75028386  1
  Ti  Ti30  1  0.11070288  0.97435372  0.24884367  1
  Cr  Cr31  1  0.88730737  0.02695902  0.74931507  1
  Cr  Cr32  1  0.88913386  0.52566344  0.24996796  1
  Cr  Cr33  1  0.55335412  0.36001235  0.74949755  1
  Cr  Cr34  1  0.22611120  0.19625347  0.25054358  1
  Cr  Cr35  1  0.21975571  0.69333771  0.74939287  1
  O  O36  1  0.99901547  0.07364855  0.13844214  1
  O  O37  1  0.92765508  0.21563757  0.36655916  1
  O  O38  1  0.00122069  0.57444875  0.63852069  1
  O  O39  1  0.85129342  0.35634255  0.63801340  1
  O  O40  1  0.73511322  0.11939829  0.63361516  1
  O  O41  1  0.66649730  0.40524676  0.13814992  1
  O  O42  1  0.93647209  0.71436849  0.86428326  1
  O  O43  1  0.80540863  0.47514827  0.86130085  1
  O  O44  1  0.60377696  0.04748654  0.86435698  1
  O  O45  1  0.85761684  0.85739367  0.13642900  1
  O  O46  1  0.73762201  0.61752160  0.13508360  1
  O  O47  1  0.52557909  0.19031912  0.13622344  1
  O  O48  1  0.66939339  0.26115392  0.86440242  1
  O  O49  1  0.80964422  0.97742398  0.36368453  1
  O  O50  1  0.60004033  0.54651700  0.36451800  1
  O  O51  1  0.46999816  0.30905923  0.36197297  1
  O  O52  1  0.66574114  0.76179989  0.36391260  1
  O  O53  1  0.33476935  0.09898257  0.36161935  1
  O  O54  1  0.66874864  0.90788507  0.63817247  1
  O  O55  1  0.33550971  0.24098524  0.63861809  1
  O  O56  1  0.51781257  0.68989389  0.63817819  1
  O  O57  1  0.40104156  0.45233627  0.63333261  1
  O  O58  1  0.18584450  0.02314464  0.63819445  1
  O  O59  1  0.33193036  0.73681900  0.13667056  1
  O  O60  1  0.47241756  0.80899689  0.86152805  1
  O  O61  1  0.27018492  0.38079835  0.86446406  1
  O  O62  1  0.13880541  0.14213342  0.86139916  1
  O  O63  1  0.40399831  0.95190578  0.13422001  1
  O  O64  1  0.18420155  0.52117622  0.13756509  1
  O  O65  1  0.07595600  0.28326771  0.13561626  1
  O  O66  1  0.33539479  0.59454689  0.86369011  1
  O  O67  1  0.26327369  0.88312804  0.36591033  1
  O  O68  1  0.14068741  0.64232756  0.36197037  1
  O  O69  1  0.00016426  0.42960754  0.36306842  1
  O  O70  1  0.06824712  0.78599076  0.63347259  1
  O  O71  1  0.00220774  0.92823081  0.86371565  1
