# generated using pymatgen
data_Li7Mn5O12
_symmetry_space_group_name_H-M   'P 1'
_cell_length_a   5.10334652
_cell_length_b   5.10334627
_cell_length_c   9.66789182
_cell_angle_alpha   85.06915263
_cell_angle_beta   94.93084245
_cell_angle_gamma   60.64609338
_symmetry_Int_Tables_number   1
_chemical_formula_structural   Li7Mn5O12
_chemical_formula_sum   'Li7 Mn5 O12'
_cell_volume   216.26015836
_cell_formula_units_Z   1
loop_
 _symmetry_equiv_pos_site_id
 _symmetry_equiv_pos_as_xyz
  1  'x, y, z'
loop_
 _atom_site_type_symbol
 _atom_site_label
 _atom_site_symmetry_multiplicity
 _atom_site_fract_x
 _atom_site_fract_y
 _atom_site_fract_z
 _atom_site_occupancy
  Li  Li0  1  0.25728811  0.25728811  0.75000000  1
  Li  Li1  1  0.17542777  0.65144877  0.51451451  1
  Li  Li2  1  0.32156318  0.84766987  0.98444026  1
  Li  Li3  1  0.65144877  0.17542777  0.98548549  1
  Li  Li4  1  0.84766987  0.32156318  0.51555974  1
  Li  Li5  1  0.74406017  0.74406017  0.25000000  1
  Li  Li6  1  0.92114082  0.92114082  0.75000000  1
  Mn  Mn7  1  0.07308080  0.07308080  0.25000000  1
  Mn  Mn8  1  0.00461125  0.50803329  0.99007757  1
  Mn  Mn9  1  0.50803329  0.00461125  0.50992243  1
  Mn  Mn10  1  0.41455139  0.41455139  0.25000000  1
  Mn  Mn11  1  0.58060040  0.58060040  0.75000000  1
  O  O12  1  0.94057160  0.25123944  0.87278163  1
  O  O13  1  0.25123944  0.94057160  0.62721837  1
  O  O14  1  0.15982545  0.34409144  0.37640504  1
  O  O15  1  0.34409144  0.15982545  0.12359496  1
  O  O16  1  0.30411743  0.55033657  0.86693150  1
  O  O17  1  0.55033657  0.30411743  0.63306850  1
  O  O18  1  0.42104376  0.72004937  0.35738639  1
  O  O19  1  0.72004937  0.42104376  0.14261361  1
  O  O20  1  0.65016937  0.83783853  0.88072500  1
  O  O21  1  0.83783853  0.65016937  0.61927500  1
  O  O22  1  0.75562939  0.06561183  0.37125100  1
  O  O23  1  0.06561183  0.75562939  0.12874900  1
