# generated using pymatgen
data_Li4CrO4
_symmetry_space_group_name_H-M   'P 1'
_cell_length_a   5.43612468
_cell_length_b   5.43612468
_cell_length_c   6.16168766
_cell_angle_alpha   90.00000000
_cell_angle_beta   90.00000000
_cell_angle_gamma   93.62140846
_symmetry_Int_Tables_number   1
_chemical_formula_structural   Li4CrO4
_chemical_formula_sum   'Li8 Cr2 O8'
_cell_volume   181.72322257
_cell_formula_units_Z   2
loop_
 _symmetry_equiv_pos_site_id
 _symmetry_equiv_pos_as_xyz
  1  'x, y, z'
loop_
 _atom_site_type_symbol
 _atom_site_label
 _atom_site_symmetry_multiplicity
 _atom_site_fract_x
 _atom_site_fract_y
 _atom_site_fract_z
 _atom_site_occupancy
  Li  Li0  1  0.16104310  0.83895690  0.50000000  1
  Li  Li1  1  0.16104310  0.83895690  0.00000000  1
  Li  Li2  1  0.12560301  0.42120369  0.75000000  1
  Li  Li3  1  0.57879631  0.87439699  0.25000000  1
  Li  Li4  1  0.87439699  0.57879631  0.25000000  1
  Li  Li5  1  0.42120369  0.12560301  0.75000000  1
  Li  Li6  1  0.83895690  0.16104310  0.00000000  1
  Li  Li7  1  0.83895690  0.16104310  0.50000000  1
  Cr  Cr8  1  0.33921150  0.33921150  0.25000000  1
  Cr  Cr9  1  0.66078850  0.66078850  0.75000000  1
  O  O10  1  0.26572069  0.65937777  0.25000000  1
  O  O11  1  0.34062223  0.73427931  0.75000000  1
  O  O12  1  0.20318372  0.20318372  0.49501687  1
  O  O13  1  0.79681628  0.79681628  0.50498313  1
  O  O14  1  0.79681628  0.79681628  0.99501687  1
  O  O15  1  0.20318372  0.20318372  0.00498313  1
  O  O16  1  0.73427931  0.34062223  0.75000000  1
  O  O17  1  0.65937777  0.26572069  0.25000000  1
