# generated using pymatgen
data_Li2Mn3NbO8
_symmetry_space_group_name_H-M   'P 1'
_cell_length_a   5.97644992
_cell_length_b   6.04435326
_cell_length_c   9.91504838
_cell_angle_alpha   86.11985070
_cell_angle_beta   91.96100218
_cell_angle_gamma   120.37656926
_symmetry_Int_Tables_number   1
_chemical_formula_structural   Li2Mn3NbO8
_chemical_formula_sum   'Li4 Mn6 Nb2 O16'
_cell_volume   308.29143350
_cell_formula_units_Z   2
loop_
 _symmetry_equiv_pos_site_id
 _symmetry_equiv_pos_as_xyz
  1  'x, y, z'
loop_
 _atom_site_type_symbol
 _atom_site_label
 _atom_site_symmetry_multiplicity
 _atom_site_fract_x
 _atom_site_fract_y
 _atom_site_fract_z
 _atom_site_occupancy
  Li  Li0  1  0.33199096  0.67505544  0.90379961  1
  Li  Li1  1  0.00113921  0.00222034  0.98916189  1
  Li  Li2  1  0.99886079  0.00108012  0.48916189  1
  Li  Li3  1  0.66800904  0.34306448  0.40379961  1
  Mn  Mn4  1  0.17195736  0.83140315  0.21542238  1
  Mn  Mn5  1  0.16655154  0.33759782  0.21408248  1
  Mn  Mn6  1  0.66218202  0.83155998  0.21331023  1
  Mn  Mn7  1  0.33781798  0.16937795  0.71331023  1
  Mn  Mn8  1  0.82804264  0.65944478  0.71542238  1
  Mn  Mn9  1  0.83344846  0.17104628  0.71408248  1
  Nb  Nb10  1  0.33373797  0.68757222  0.48970619  1
  Nb  Nb11  1  0.66626203  0.35383525  0.98970619  1
  O  O12  1  0.17444305  0.82737584  0.58758820  1
  O  O13  1  0.03703661  0.53448565  0.34693738  1
  O  O14  1  0.33191382  0.67376724  0.11572809  1
  O  O15  1  0.00159045  0.99087252  0.30241194  1
  O  O16  1  0.99840955  0.98928207  0.80241194  1
  O  O17  1  0.15650568  0.31836211  0.59383317  1
  O  O18  1  0.49758618  0.97356568  0.35713938  1
  O  O19  1  0.47434057  0.51433473  0.33392309  1
  O  O20  1  0.33530353  0.14011677  0.09087696  1
  O  O21  1  0.66469647  0.80481324  0.59087696  1
  O  O22  1  0.50241382  0.47597951  0.85713938  1
  O  O23  1  0.52565943  0.03999316  0.83392309  1
  O  O24  1  0.66808618  0.34185342  0.61572809  1
  O  O25  1  0.82555695  0.65293279  0.08758820  1
  O  O26  1  0.96296339  0.49744904  0.84693738  1
  O  O27  1  0.84349432  0.16185542  0.09383317  1
