# generated using pymatgen
data_Li2Cr4O13
_symmetry_space_group_name_H-M   'P 1'
_cell_length_a   8.75156983
_cell_length_b   9.55412752
_cell_length_c   14.96579083
_cell_angle_alpha   90.00000000
_cell_angle_beta   103.68216574
_cell_angle_gamma   90.00000000
_symmetry_Int_Tables_number   1
_chemical_formula_structural   Li2Cr4O13
_chemical_formula_sum   'Li8 Cr16 O52'
_cell_volume   1215.83421557
_cell_formula_units_Z   4
loop_
 _symmetry_equiv_pos_site_id
 _symmetry_equiv_pos_as_xyz
  1  'x, y, z'
loop_
 _atom_site_type_symbol
 _atom_site_label
 _atom_site_symmetry_multiplicity
 _atom_site_fract_x
 _atom_site_fract_y
 _atom_site_fract_z
 _atom_site_occupancy
  Li  Li0  1  0.04887962  0.99621214  0.72746185  1
  Li  Li1  1  0.04887962  0.50378786  0.22746185  1
  Li  Li2  1  0.43346379  0.99352643  0.74639763  1
  Li  Li3  1  0.56653621  0.49352643  0.75360237  1
  Li  Li4  1  0.43346379  0.50647357  0.24639763  1
  Li  Li5  1  0.56653621  0.00647357  0.25360237  1
  Li  Li6  1  0.95112038  0.49621214  0.77253815  1
  Li  Li7  1  0.95112038  0.00378786  0.27253815  1
  Cr  Cr8  1  0.13574250  0.24580251  0.93589811  1
  Cr  Cr9  1  0.13574250  0.25419749  0.43589811  1
  Cr  Cr10  1  0.21423860  0.29130745  0.66121338  1
  Cr  Cr11  1  0.27817742  0.72255362  0.84092463  1
  Cr  Cr12  1  0.21423860  0.20869255  0.16121338  1
  Cr  Cr13  1  0.27817742  0.77744638  0.34092463  1
  Cr  Cr14  1  0.51732458  0.25889673  0.93382331  1
  Cr  Cr15  1  0.48267542  0.75889673  0.56617669  1
  Cr  Cr16  1  0.51732458  0.24110327  0.43382331  1
  Cr  Cr17  1  0.48267542  0.74110327  0.06617669  1
  Cr  Cr18  1  0.72182258  0.22255362  0.65907537  1
  Cr  Cr19  1  0.78576140  0.79130745  0.83878662  1
  Cr  Cr20  1  0.72182258  0.27744638  0.15907537  1
  Cr  Cr21  1  0.78576140  0.70869255  0.33878662  1
  Cr  Cr22  1  0.86425750  0.74580251  0.56410189  1
  Cr  Cr23  1  0.86425750  0.75419749  0.06410189  1
  O  O24  1  0.01729833  0.37355827  0.90111766  1
  O  O25  1  0.10084072  0.12115005  0.86200209  1
  O  O26  1  0.11018527  0.64796372  0.83602162  1
  O  O27  1  0.12280336  0.38266652  0.72371828  1
  O  O28  1  0.01729833  0.12644173  0.40111766  1
  O  O29  1  0.11321528  0.31646693  0.54029681  1
  O  O30  1  0.22256466  0.12487930  0.69027874  1
  O  O31  1  0.25179461  0.86860123  0.78099334  1
  O  O32  1  0.10084072  0.37884995  0.36200109  1
  O  O33  1  0.33027579  0.30847730  0.94902731  1
  O  O34  1  0.11018527  0.85203628  0.33602162  1
  O  O35  1  0.36128656  0.77366531  0.96053225  1
  O  O36  1  0.12280336  0.11733348  0.22371828  1
  O  O37  1  0.39289108  0.61556009  0.80394011  1
  O  O38  1  0.11321528  0.18353307  0.04029681  1
  O  O39  1  0.22256466  0.37512070  0.19027874  1
  O  O40  1  0.25179461  0.63139877  0.28099334  1
  O  O41  1  0.39280204  0.34875930  0.67553658  1
  O  O42  1  0.33027579  0.19152270  0.44902731  1
  O  O43  1  0.41711209  0.88427414  0.61861295  1
  O  O44  1  0.49777167  0.11978780  0.87231811  1
  O  O45  1  0.36128656  0.72633469  0.46053225  1
  O  O46  1  0.50222833  0.61978780  0.62768189  1
  O  O47  1  0.58288791  0.38427414  0.88138705  1
  O  O48  1  0.39289108  0.88443991  0.30394011  1
  O  O49  1  0.60719796  0.84875930  0.82446342  1
  O  O50  1  0.39280204  0.15124070  0.17553658  1
  O  O51  1  0.60710892  0.11556009  0.69605989  1
  O  O52  1  0.41711209  0.61572586  0.11861295  1
  O  O53  1  0.49777167  0.38021220  0.37231811  1
  O  O54  1  0.63871344  0.27366531  0.53946775  1
  O  O55  1  0.50222833  0.88021220  0.12768189  1
  O  O56  1  0.58288791  0.11572586  0.38138705  1
  O  O57  1  0.66972421  0.80847730  0.55097269  1
  O  O58  1  0.60719796  0.65124070  0.32446342  1
  O  O59  1  0.74820539  0.36860123  0.71900666  1
  O  O60  1  0.77743534  0.62487930  0.80972126  1
  O  O61  1  0.88678472  0.81646693  0.95970319  1
  O  O62  1  0.60710892  0.38443991  0.19605989  1
  O  O63  1  0.87719664  0.88266652  0.77628172  1
  O  O64  1  0.63871344  0.22633469  0.03946775  1
  O  O65  1  0.88981473  0.14796372  0.66397838  1
  O  O66  1  0.66972421  0.69152270  0.05097269  1
  O  O67  1  0.89915928  0.62115005  0.63799791  1
  O  O68  1  0.74820539  0.13139877  0.21900666  1
  O  O69  1  0.77743534  0.87512070  0.30972126  1
  O  O70  1  0.88678472  0.68353307  0.45970319  1
  O  O71  1  0.98270167  0.87355827  0.59888234  1
  O  O72  1  0.87719664  0.61733348  0.27628172  1
  O  O73  1  0.88981473  0.35203628  0.16397838  1
  O  O74  1  0.89915928  0.87884995  0.13799791  1
  O  O75  1  0.98270167  0.62644173  0.09888234  1
