# generated using pymatgen
data_LiTi11O20
_symmetry_space_group_name_H-M   'P 1'
_cell_length_a   7.26148455
_cell_length_b   7.69494622
_cell_length_c   13.24645348
_cell_angle_alpha   90.42437864
_cell_angle_beta   92.73453824
_cell_angle_gamma   104.09049338
_symmetry_Int_Tables_number   1
_chemical_formula_structural   LiTi11O20
_chemical_formula_sum   'Li2 Ti22 O40'
_cell_volume   716.94296516
_cell_formula_units_Z   2
loop_
 _symmetry_equiv_pos_site_id
 _symmetry_equiv_pos_as_xyz
  1  'x, y, z'
loop_
 _atom_site_type_symbol
 _atom_site_label
 _atom_site_symmetry_multiplicity
 _atom_site_fract_x
 _atom_site_fract_y
 _atom_site_fract_z
 _atom_site_occupancy
  Li  Li0  1  0.39325224  0.94915209  0.77837058  1
  Li  Li1  1  0.60674776  0.05084791  0.22162942  1
  Ti  Ti2  1  0.01268627  0.92868032  0.20115355  1
  Ti  Ti3  1  0.03716914  0.43545835  0.70901103  1
  Ti  Ti4  1  0.00362358  0.29840265  0.12668114  1
  Ti  Ti5  1  0.00694978  0.20701241  0.36931197  1
  Ti  Ti6  1  0.32036089  0.94262298  0.42612881  1
  Ti  Ti7  1  0.31193984  0.71375373  0.08088751  1
  Ti  Ti8  1  0.32536343  0.57402383  0.51380433  1
  Ti  Ti9  1  0.33635121  0.43384101  0.92703558  1
  Ti  Ti10  1  0.35657079  0.63181397  0.28807907  1
  Ti  Ti11  1  0.30291599  0.20372865  0.58632351  1
  Ti  Ti12  1  0.32085547  0.08279968  0.00712832  1
  Ti  Ti13  1  0.67914453  0.91720032  0.99287168  1
  Ti  Ti14  1  0.69708401  0.79627135  0.41367649  1
  Ti  Ti15  1  0.64342921  0.36818603  0.71192093  1
  Ti  Ti16  1  0.66364879  0.56615899  0.07296442  1
  Ti  Ti17  1  0.67463657  0.42597617  0.48619567  1
  Ti  Ti18  1  0.68806016  0.28624627  0.91911249  1
  Ti  Ti19  1  0.67963911  0.05737702  0.57387119  1
  Ti  Ti20  1  0.99305022  0.79298759  0.63068803  1
  Ti  Ti21  1  0.99637642  0.70159735  0.87331886  1
  Ti  Ti22  1  0.96283086  0.56454165  0.29098897  1
  Ti  Ti23  1  0.98731373  0.07131968  0.79884645  1
  O  O24  1  0.11995795  0.88343984  0.76627900  1
  O  O25  1  0.17200000  0.82394270  0.97675201  1
  O  O26  1  0.17133813  0.95432677  0.54910219  1
  O  O27  1  0.16303358  0.73972037  0.20152209  1
  O  O28  1  0.16111670  0.54092066  0.83490193  1
  O  O29  1  0.16507604  0.61715768  0.62053299  1
  O  O30  1  0.18569921  0.67870320  0.40396578  1
  O  O31  1  0.14334387  0.40417152  0.26799301  1
  O  O32  1  0.15170213  0.23653173  0.69510097  1
  O  O33  1  0.17393696  0.17897743  0.90178422  1
  O  O34  1  0.18006748  0.32733059  0.47797629  1
  O  O35  1  0.17558263  0.46270031  0.04671103  1
  O  O36  1  0.16373080  0.03831407  0.33582092  1
  O  O37  1  0.16199873  0.11310570  0.11883697  1
  O  O38  1  0.48461107  0.95355900  0.09450765  1
  O  O39  1  0.49675231  0.67971573  0.97034990  1
  O  O40  1  0.49897362  0.88255398  0.32852643  1
  O  O41  1  0.50333432  0.82665190  0.52483892  1
  O  O42  1  0.49012991  0.45362400  0.60351960  1
  O  O43  1  0.49122353  0.60416653  0.17290661  1
  O  O44  1  0.50877647  0.39583347  0.82709339  1
  O  O45  1  0.50987009  0.54637600  0.39648040  1
  O  O46  1  0.49666568  0.17334810  0.47516108  1
  O  O47  1  0.50102638  0.11744602  0.67147357  1
  O  O48  1  0.50324769  0.32028427  0.02965010  1
  O  O49  1  0.51538893  0.04644100  0.90549235  1
  O  O50  1  0.83800127  0.88689430  0.88116303  1
  O  O51  1  0.83626920  0.96168593  0.66417908  1
  O  O52  1  0.82441737  0.53729969  0.95328897  1
  O  O53  1  0.81993252  0.67266941  0.52202371  1
  O  O54  1  0.82606304  0.82102257  0.09821578  1
  O  O55  1  0.84829787  0.76346827  0.30489903  1
  O  O56  1  0.85665613  0.59582848  0.73200699  1
  O  O57  1  0.81430079  0.32129680  0.59603422  1
  O  O58  1  0.83492396  0.38284232  0.37946701  1
  O  O59  1  0.83888330  0.45907934  0.16509807  1
  O  O60  1  0.83696642  0.26027963  0.79847791  1
  O  O61  1  0.82866187  0.04567323  0.45089781  1
  O  O62  1  0.82800000  0.17605730  0.02324799  1
  O  O63  1  0.88004205  0.11656016  0.23372100  1
