# generated using pymatgen
data_Li4Cr3CuO8
_symmetry_space_group_name_H-M   'P 1'
_cell_length_a   10.25053971
_cell_length_b   10.25054004
_cell_length_c   14.49703095
_cell_angle_alpha   19.46583609
_cell_angle_beta   19.46582760
_cell_angle_gamma   33.54878208
_symmetry_Int_Tables_number   1
_chemical_formula_structural   Li4Cr3CuO8
_chemical_formula_sum   'Li4 Cr3 Cu1 O8'
_cell_volume   146.49165444
_cell_formula_units_Z   1
loop_
 _symmetry_equiv_pos_site_id
 _symmetry_equiv_pos_as_xyz
  1  'x, y, z'
loop_
 _atom_site_type_symbol
 _atom_site_label
 _atom_site_symmetry_multiplicity
 _atom_site_fract_x
 _atom_site_fract_y
 _atom_site_fract_z
 _atom_site_occupancy
  Li  Li0  1  0.00000027  0.00000019  0.49999965  1
  Li  Li1  1  0.00000013  0.49999997  0.49999983  1
  Li  Li2  1  0.50000017  0.00000021  0.49999967  1
  Li  Li3  1  0.50000016  0.50000020  0.49999965  1
  Cr  Cr4  1  -0.00000801  0.49999054  0.00001151  1
  Cr  Cr5  1  0.50000208  0.00000390  -0.00000421  1
  Cr  Cr6  1  0.50000145  0.50000210  -0.00000212  1
  Cu  Cu7  1  0.00000279  0.00000081  -0.00000153  1
  O  O8  1  -0.00000424  -0.00000360  0.25797596  1
  O  O9  1  0.00004347  0.49578348  0.26109147  1
  O  O10  1  0.49578353  0.00004362  0.26109123  1
  O  O11  1  0.00000420  0.00000466  0.74202432  1
  O  O12  1  0.50411612  0.50411716  0.25284916  1
  O  O13  1  0.99995687  0.50421686  0.73890793  1
  O  O14  1  0.50421552  0.99995638  0.73890816  1
  O  O15  1  0.49588450  0.49588353  0.74715032  1
