# generated using pymatgen
data_LiV(SO4)2
_symmetry_space_group_name_H-M   'P 1'
_cell_length_a   9.05460426
_cell_length_b   9.00222416
_cell_length_c   9.03522420
_cell_angle_alpha   55.67975059
_cell_angle_beta   55.40850004
_cell_angle_gamma   55.40067802
_symmetry_Int_Tables_number   1
_chemical_formula_structural   LiV(SO4)2
_chemical_formula_sum   'Li3 V3 S6 O24'
_cell_volume   466.30224846
_cell_formula_units_Z   3
loop_
 _symmetry_equiv_pos_site_id
 _symmetry_equiv_pos_as_xyz
  1  'x, y, z'
loop_
 _atom_site_type_symbol
 _atom_site_label
 _atom_site_symmetry_multiplicity
 _atom_site_fract_x
 _atom_site_fract_y
 _atom_site_fract_z
 _atom_site_occupancy
  Li  Li0  1  0.17158073  0.13119567  0.15748683  1
  Li  Li1  1  0.17816984  0.40940820  0.78103943  1
  Li  Li2  1  0.78085254  0.17922192  0.40906605  1
  V  V3  1  0.35592444  0.35303761  0.34797187  1
  V  V4  1  0.63911784  0.64618019  0.64561582  1
  V  V5  1  0.84871452  0.85348353  0.85504937  1
  S  S6  1  0.03527548  0.74223757  0.47104403  1
  S  S7  1  0.46567418  0.03958444  0.74685075  1
  S  S8  1  0.74808456  0.47088769  0.03263477  1
  S  S9  1  0.24919808  0.54442615  0.95353338  1
  S  S10  1  0.53720411  0.95764654  0.25454101  1
  S  S11  1  0.95573419  0.25030595  0.54159013  1
  O  O12  1  0.11069143  0.29435505  0.50555294  1
  O  O13  1  0.29919688  0.50532133  0.10530303  1
  O  O14  1  0.00506870  0.94519375  0.34936791  1
  O  O15  1  0.51814451  0.10962113  0.29724272  1
  O  O16  1  0.02629642  0.69954437  0.66441431  1
  O  O17  1  0.22992251  0.61136396  0.38519617  1
  O  O18  1  0.37964317  0.24055620  0.61545227  1
  O  O19  1  0.34034000  0.01737979  0.94466120  1
  O  O20  1  0.62784508  0.37506577  0.23368132  1
  O  O21  1  0.04513446  0.68139277  0.98514033  1
  O  O22  1  0.27512950  0.36665988  0.95543633  1
  O  O23  1  0.35248609  0.97502840  0.28799444  1
  O  O24  1  0.66132259  0.02801612  0.70067024  1
  O  O25  1  0.71054287  0.66149886  0.02022557  1
  O  O26  1  0.95127578  0.34333044  0.99908233  1
  O  O27  1  0.37567667  0.63869291  0.76190703  1
  O  O28  1  0.67059834  0.98686312  0.04897373  1
  O  O29  1  0.63192302  0.76594681  0.37920745  1
  O  O30  1  0.76581112  0.37761715  0.63774797  1
  O  O31  1  0.95882868  0.27474105  0.36457924  1
  O  O32  1  0.49649966  0.90009664  0.68624716  1
  O  O33  1  0.98285398  0.04577670  0.67876025  1
  O  O34  1  0.68264308  0.50052188  0.89790380  1
  O  O35  1  0.88999294  0.68800045  0.50402782  1
