# generated using pymatgen
data_Li24Ti5Cr7O36
_symmetry_space_group_name_H-M   'P 1'
_cell_length_a   5.05823437
_cell_length_b   13.40285359
_cell_length_c   9.79399005
_cell_angle_alpha   97.15466234
_cell_angle_beta   94.81454635
_cell_angle_gamma   100.68910394
_symmetry_Int_Tables_number   1
_chemical_formula_structural   Li24Ti5Cr7O36
_chemical_formula_sum   'Li24 Ti5 Cr7 O36'
_cell_volume   643.46707560
_cell_formula_units_Z   1
loop_
 _symmetry_equiv_pos_site_id
 _symmetry_equiv_pos_as_xyz
  1  'x, y, z'
loop_
 _atom_site_type_symbol
 _atom_site_label
 _atom_site_symmetry_multiplicity
 _atom_site_fract_x
 _atom_site_fract_y
 _atom_site_fract_z
 _atom_site_occupancy
  Li  Li0  1  0.82485511  0.16783983  0.00102320  1
  Li  Li1  1  0.95437700  0.38689210  0.99957192  1
  Li  Li2  1  0.99963535  0.75108803  0.25106495  1
  Li  Li3  1  0.66883703  0.08283487  0.25094877  1
  Li  Li4  1  0.95177970  0.88686651  0.49961095  1
  Li  Li5  1  0.62328259  0.22069347  0.49987211  1
  Li  Li6  1  0.83381529  0.66685840  0.49838497  1
  Li  Li7  1  0.49543500  0.00062322  0.50051964  1
  Li  Li8  1  0.71332901  0.44444128  0.49743134  1
  Li  Li9  1  0.66660081  0.58308604  0.75036566  1
  Li  Li10  1  0.49199905  0.50000311  0.00203721  1
  Li  Li11  1  0.71643848  0.94776889  0.00260209  1
  Li  Li12  1  0.38518179  0.28005440  0.00103804  1
  Li  Li13  1  0.61665986  0.71963037  0.00150995  1
  Li  Li14  1  0.28534325  0.05319457  0.99810353  1
  Li  Li15  1  0.33385967  0.41744140  0.24961251  1
  Li  Li16  1  0.29207208  0.55507417  0.50127635  1
  Li  Li17  1  0.15606283  0.33410192  0.50031067  1
  Li  Li18  1  0.38051203  0.77858062  0.49957600  1
  Li  Li19  1  0.05371969  0.11424571  0.50156518  1
  Li  Li20  1  0.33584730  0.91650141  0.75051942  1
  Li  Li21  1  0.17242045  0.83310278  0.99727269  1
  Li  Li22  1  0.00103633  0.25124322  0.74964072  1
  Li  Li23  1  0.04745547  0.61280239  0.99782986  1
  Ti  Ti24  1  0.89250056  0.02809640  0.75318015  1
  Ti  Ti25  1  0.88182601  0.52630150  0.24229111  1
  Ti  Ti26  1  0.77771470  0.80595759  0.75216443  1
  Ti  Ti27  1  0.54647758  0.35968896  0.74258335  1
  Ti  Ti28  1  0.22491652  0.19224799  0.25330119  1
  Cr  Cr29  1  0.78208101  0.30614771  0.24976967  1
  Cr  Cr30  1  0.44951763  0.14030066  0.75053755  1
  Cr  Cr31  1  0.56256262  0.86486266  0.25302912  1
  Cr  Cr32  1  0.43726048  0.64148249  0.25137152  1
  Cr  Cr33  1  0.22794054  0.69269498  0.75082729  1
  Cr  Cr34  1  0.10097611  0.47349146  0.75017230  1
  Cr  Cr35  1  0.10999331  0.96847718  0.24878730  1
  O  O36  1  0.00183339  0.06921890  0.13763696  1
  O  O37  1  0.93159807  0.21327607  0.36634921  1
  O  O38  1  0.99702725  0.56683307  0.63764744  1
  O  O39  1  0.85222726  0.35545186  0.63594216  1
  O  O40  1  0.72893331  0.11959575  0.63580787  1
  O  O41  1  0.66056200  0.40524956  0.13394086  1
  O  O42  1  0.93301169  0.71302048  0.86404048  1
  O  O43  1  0.81785888  0.47732345  0.86271912  1
  O  O44  1  0.59901764  0.04725012  0.86687225  1
  O  O45  1  0.86679434  0.85903276  0.13824969  1
  O  O46  1  0.73462467  0.62026751  0.13520188  1
  O  O47  1  0.52811024  0.19092873  0.13838020  1
  O  O48  1  0.66395735  0.25899328  0.86160233  1
  O  O49  1  0.80314602  0.97413881  0.36306702  1
  O  O50  1  0.59565686  0.55014869  0.36431173  1
  O  O51  1  0.48093663  0.31082913  0.36121275  1
  O  O52  1  0.66942070  0.76508770  0.36292483  1
  O  O53  1  0.33382331  0.09308416  0.36257839  1
  O  O54  1  0.66888175  0.90436041  0.63639178  1
  O  O55  1  0.32758167  0.23867072  0.63476624  1
  O  O56  1  0.51529294  0.68816500  0.63739483  1
  O  O57  1  0.40101404  0.45319194  0.63508222  1
  O  O58  1  0.19405623  0.02464883  0.63880353  1
  O  O59  1  0.33627508  0.73664771  0.14047882  1
  O  O60  1  0.48095743  0.81058483  0.86486321  1
  O  O61  1  0.26153075  0.38364840  0.86387714  1
  O  O62  1  0.14812109  0.14512886  0.86157313  1
  O  O63  1  0.40905596  0.94747237  0.13563014  1
  O  O64  1  0.18639755  0.52283030  0.13572990  1
  O  O65  1  0.06209421  0.28562289  0.13524970  1
  O  O66  1  0.33695542  0.59928094  0.86170544  1
  O  O67  1  0.25700771  0.88387787  0.36474734  1
  O  O68  1  0.15058684  0.64418562  0.36292544  1
  O  O69  1  0.99660660  0.42548522  0.36114077  1
  O  O70  1  0.07196738  0.78281156  0.63616527  1
  O  O71  1  0.00275650  0.92893623  0.86529021  1
