# generated using pymatgen
data_Sr3LaBr9
_symmetry_space_group_name_H-M   'P 1'
_cell_length_a   7.81068802
_cell_length_b   30.66120734
_cell_length_c   7.26976644
_cell_angle_alpha   90.00000000
_cell_angle_beta   90.00000000
_cell_angle_gamma   91.91437527
_symmetry_Int_Tables_number   1
_chemical_formula_structural   Sr3LaBr9
_chemical_formula_sum   'Sr12 La4 Br36'
_cell_volume   1740.02921068
_cell_formula_units_Z   4
loop_
 _symmetry_equiv_pos_site_id
 _symmetry_equiv_pos_as_xyz
  1  'x, y, z'
loop_
 _atom_site_type_symbol
 _atom_site_label
 _atom_site_symmetry_multiplicity
 _atom_site_fract_x
 _atom_site_fract_y
 _atom_site_fract_z
 _atom_site_occupancy
  Sr  Sr0  1  0.32785144  0.93298758  0.96982989  1
  Sr  Sr1  1  0.29637638  0.69217323  0.00347812  1
  Sr  Sr2  1  0.32785144  0.43298758  0.03017011  1
  Sr  Sr3  1  0.29637638  0.19217323  0.99652188  1
  Sr  Sr4  1  0.68306794  0.56875969  0.98790869  1
  Sr  Sr5  1  0.71693780  0.80923176  0.98485426  1
  Sr  Sr6  1  0.68306794  0.06875969  0.01209131  1
  Sr  Sr7  1  0.71693780  0.30923176  0.01514574  1
  Sr  Sr8  1  0.78548850  0.69209642  0.52073751  1
  Sr  Sr9  1  0.82263846  0.93171464  0.51496966  1
  Sr  Sr10  1  0.78548850  0.19209642  0.47926249  1
  Sr  Sr11  1  0.82263846  0.43171464  0.48503034  1
  La  La12  1  0.20431656  0.80700099  0.52073500  1
  La  La13  1  0.17986271  0.56743682  0.54476689  1
  La  La14  1  0.20431656  0.30700099  0.47926500  1
  La  La15  1  0.17986271  0.06743682  0.45523311  1
  Br  Br16  1  0.01580557  0.86964631  0.80038574  1
  Br  Br17  1  0.00990719  0.75135058  0.82111696  1
  Br  Br18  1  0.00194651  0.62884024  0.81781100  1
  Br  Br19  1  0.01580557  0.36964631  0.19961426  1
  Br  Br20  1  0.00990719  0.25135058  0.17888304  1
  Br  Br21  1  0.10832936  0.99148512  0.70970181  1
  Br  Br22  1  0.00194651  0.12884024  0.18218900  1
  Br  Br23  1  0.15045833  0.89454578  0.32618980  1
  Br  Br24  1  0.10832936  0.49148512  0.29029819  1
  Br  Br25  1  0.15624785  0.70618210  0.39336202  1
  Br  Br26  1  0.15045833  0.39454578  0.67381020  1
  Br  Br27  1  0.15624785  0.20618210  0.60663798  1
  Br  Br28  1  0.35713107  0.79554480  0.15174288  1
  Br  Br29  1  0.35399644  0.59992429  0.20019488  1
  Br  Br30  1  0.35713107  0.29554480  0.84825712  1
  Br  Br31  1  0.35399644  0.09992429  0.79980512  1
  Br  Br32  1  0.41590765  0.51026972  0.75345219  1
  Br  Br33  1  0.49765978  0.86803852  0.68308599  1
  Br  Br34  1  0.49389531  0.75083096  0.69499638  1
  Br  Br35  1  0.48266083  0.62877229  0.70195905  1
  Br  Br36  1  0.41590765  0.01026972  0.24654781  1
  Br  Br37  1  0.49765978  0.36803852  0.31691401  1
  Br  Br38  1  0.49389531  0.25083096  0.30500362  1
  Br  Br39  1  0.48266083  0.12877229  0.29804095  1
  Br  Br40  1  0.60492578  0.98946047  0.76203311  1
  Br  Br41  1  0.60492578  0.48946047  0.23796689  1
  Br  Br42  1  0.65514519  0.90019004  0.15676649  1
  Br  Br43  1  0.67097202  0.69917043  0.11942519  1
  Br  Br44  1  0.65514519  0.40019004  0.84323351  1
  Br  Br45  1  0.67097202  0.19917043  0.88057481  1
  Br  Br46  1  0.84599611  0.79704768  0.38700077  1
  Br  Br47  1  0.86741265  0.59930711  0.35027240  1
  Br  Br48  1  0.84599611  0.29704768  0.61299923  1
  Br  Br49  1  0.86741265  0.09930711  0.64972760  1
  Br  Br50  1  0.92579658  0.50980543  0.75828973  1
  Br  Br51  1  0.92579658  0.00980543  0.24171027  1
