# generated using pymatgen
data_Ca3Sn5S13
_symmetry_space_group_name_H-M   'P 1'
_cell_length_a   6.24526651
_cell_length_b   25.54882929
_cell_length_c   15.86426647
_cell_angle_alpha   95.51576370
_cell_angle_beta   90.00000000
_cell_angle_gamma   90.00000000
_symmetry_Int_Tables_number   1
_chemical_formula_structural   Ca3Sn5S13
_chemical_formula_sum   'Ca12 Sn20 S52'
_cell_volume   2519.57002368
_cell_formula_units_Z   4
loop_
 _symmetry_equiv_pos_site_id
 _symmetry_equiv_pos_as_xyz
  1  'x, y, z'
loop_
 _atom_site_type_symbol
 _atom_site_label
 _atom_site_symmetry_multiplicity
 _atom_site_fract_x
 _atom_site_fract_y
 _atom_site_fract_z
 _atom_site_occupancy
  Ca  Ca0  1  0.36566784  0.04859692  0.17914831  1
  Ca  Ca1  1  0.86566784  0.95140308  0.32085169  1
  Ca  Ca2  1  0.63433216  0.95140308  0.82085169  1
  Ca  Ca3  1  0.13433216  0.04859692  0.67914831  1
  Ca  Ca4  1  0.56075345  0.21818190  0.28192420  1
  Ca  Ca5  1  0.06075345  0.78181810  0.21807580  1
  Ca  Ca6  1  0.43924655  0.78181810  0.71807580  1
  Ca  Ca7  1  0.93924655  0.21818190  0.78192420  1
  Ca  Ca8  1  0.19120616  0.40114408  0.42520226  1
  Ca  Ca9  1  0.69120616  0.59885592  0.07479774  1
  Ca  Ca10  1  0.80879384  0.59885592  0.57479774  1
  Ca  Ca11  1  0.30879384  0.40114408  0.92520226  1
  Sn  Sn12  1  0.30126796  0.07832760  0.89184371  1
  Sn  Sn13  1  0.80126796  0.92167240  0.60815629  1
  Sn  Sn14  1  0.69873204  0.92167240  0.10815629  1
  Sn  Sn15  1  0.19873204  0.07832760  0.39184371  1
  Sn  Sn16  1  0.80942476  0.12589912  0.02644387  1
  Sn  Sn17  1  0.30942476  0.87410088  0.47355613  1
  Sn  Sn18  1  0.19057524  0.87410088  0.97355613  1
  Sn  Sn19  1  0.69057524  0.12589912  0.52644387  1
  Sn  Sn20  1  0.64631701  0.28149904  0.03663624  1
  Sn  Sn21  1  0.14631701  0.71850096  0.46336376  1
  Sn  Sn22  1  0.35368299  0.71850096  0.96336376  1
  Sn  Sn23  1  0.85368299  0.28149904  0.53663624  1
  Sn  Sn24  1  0.16592936  0.31777025  0.17674910  1
  Sn  Sn25  1  0.66592936  0.68222975  0.32325090  1
  Sn  Sn26  1  0.83407064  0.68222975  0.82325090  1
  Sn  Sn27  1  0.33407064  0.31777025  0.67674910  1
  Sn  Sn28  1  0.17347786  0.48765866  0.17465671  1
  Sn  Sn29  1  0.67347786  0.51234134  0.32534329  1
  Sn  Sn30  1  0.82652214  0.51234134  0.82534329  1
  Sn  Sn31  1  0.32652214  0.48765866  0.67465671  1
  S  S32  1  0.19971822  0.99410245  0.82687796  1
  S  S33  1  0.69971822  0.00589755  0.67312204  1
  S  S34  1  0.80028178  0.00589755  0.17312204  1
  S  S35  1  0.30028178  0.99410245  0.32687796  1
  S  S36  1  0.25689199  0.13943639  0.78944276  1
  S  S37  1  0.75689199  0.86056361  0.71055724  1
  S  S38  1  0.74310801  0.86056361  0.21055724  1
  S  S39  1  0.24310801  0.13943639  0.28944276  1
  S  S40  1  0.68047899  0.05778915  0.91976378  1
  S  S41  1  0.18047899  0.94221085  0.58023622  1
  S  S42  1  0.31952101  0.94221085  0.08023622  1
  S  S43  1  0.81952101  0.05778915  0.41976378  1
  S  S44  1  0.19014592  0.10635448  0.03758680  1
  S  S45  1  0.69014592  0.89364552  0.46241320  1
  S  S46  1  0.80985408  0.89364552  0.96241320  1
  S  S47  1  0.30985408  0.10635448  0.53758680  1
  S  S48  1  0.77443125  0.20317347  0.94669340  1
  S  S49  1  0.27443125  0.79682653  0.55330660  1
  S  S50  1  0.22556875  0.79682653  0.05330660  1
  S  S51  1  0.72556875  0.20317347  0.44669340  1
  S  S52  1  0.64672362  0.13529837  0.16018744  1
  S  S53  1  0.14672362  0.86470163  0.33981256  1
  S  S54  1  0.35327638  0.86470163  0.83981256  1
  S  S55  1  0.85327638  0.13529837  0.66018744  1
  S  S56  1  0.70260855  0.34944480  0.95113501  1
  S  S57  1  0.20260855  0.65055520  0.54886499  1
  S  S58  1  0.29739145  0.65055520  0.04886499  1
  S  S59  1  0.79739145  0.34944480  0.45113501  1
  S  S60  1  0.28910556  0.24985655  0.07120272  1
  S  S61  1  0.78910556  0.75014345  0.42879728  1
  S  S62  1  0.71089444  0.75014345  0.92879728  1
  S  S63  1  0.21089444  0.24985655  0.57120272  1
  S  S64  1  0.78314067  0.29693826  0.18370941  1
  S  S65  1  0.28314067  0.70306174  0.31629059  1
  S  S66  1  0.21685933  0.70306174  0.81629059  1
  S  S67  1  0.71685933  0.29693826  0.68370941  1
  S  S68  1  0.31079249  0.31205629  0.31327620  1
  S  S69  1  0.81079249  0.68794371  0.18672380  1
  S  S70  1  0.68920751  0.68794371  0.68672380  1
  S  S71  1  0.18920751  0.31205629  0.81327620  1
  S  S72  1  0.25506134  0.39784641  0.10890869  1
  S  S73  1  0.75506134  0.60215359  0.39109131  1
  S  S74  1  0.74493866  0.60215359  0.89109131  1
  S  S75  1  0.24493866  0.39784641  0.60890869  1
  S  S76  1  0.28542273  0.54274133  0.07415102  1
  S  S77  1  0.78542273  0.45725867  0.42584898  1
  S  S78  1  0.71457727  0.45725867  0.92584898  1
  S  S79  1  0.21457727  0.54274133  0.57415102  1
  S  S80  1  0.77918616  0.50471601  0.17591370  1
  S  S81  1  0.27918616  0.49528399  0.32408630  1
  S  S82  1  0.22081384  0.49528399  0.82408630  1
  S  S83  1  0.72081384  0.50471601  0.67591370  1
