# generated using pymatgen
data_Na5LiMn2P2(CO7)2
_symmetry_space_group_name_H-M   'P 1'
_cell_length_a   8.98679072
_cell_length_b   6.76709285
_cell_length_c   10.37496075
_cell_angle_alpha   90.30921807
_cell_angle_beta   89.96520786
_cell_angle_gamma   89.39054764
_symmetry_Int_Tables_number   1
_chemical_formula_structural   Na5LiMn2P2(CO7)2
_chemical_formula_sum   'Na10 Li2 Mn4 P4 C4 O28'
_cell_volume   630.90248226
_cell_formula_units_Z   2
loop_
 _symmetry_equiv_pos_site_id
 _symmetry_equiv_pos_as_xyz
  1  'x, y, z'
loop_
 _atom_site_type_symbol
 _atom_site_label
 _atom_site_symmetry_multiplicity
 _atom_site_fract_x
 _atom_site_fract_y
 _atom_site_fract_z
 _atom_site_occupancy
  Na  Na0  1  0.08330558  0.24554398  0.88056075  1
  Na  Na1  1  0.08282381  0.24786177  0.37926558  1
  Na  Na2  1  0.25809771  0.00120143  0.62343069  1
  Na  Na3  1  0.25895653  0.49874523  0.62330034  1
  Na  Na4  1  0.25822888  0.49837232  0.12388416  1
  Na  Na5  1  0.74177112  0.50162768  0.87611584  1
  Na  Na6  1  0.74104347  0.50125477  0.37669966  1
  Na  Na7  1  0.74190229  0.99879857  0.37656931  1
  Na  Na8  1  0.91717619  0.75213823  0.62073442  1
  Na  Na9  1  0.91669442  0.75445602  0.11943925  1
  Li  Li10  1  0.26855449  0.00947100  0.12062391  1
  Li  Li11  1  0.73144551  0.99052900  0.87937609  1
  Mn  Mn12  1  0.36137274  0.75174313  0.89028225  1
  Mn  Mn13  1  0.36167980  0.75089960  0.38845094  1
  Mn  Mn14  1  0.63832020  0.24910040  0.61154906  1
  Mn  Mn15  1  0.63862726  0.24825687  0.10971775  1
  P  P16  1  0.41415981  0.24595871  0.85211725  1
  P  P17  1  0.40995792  0.24687987  0.34950392  1
  P  P18  1  0.59004208  0.75312013  0.65049608  1
  P  P19  1  0.58584019  0.75404129  0.14788275  1
  C  C20  1  0.05637061  0.75691513  0.86889071  1
  C  C21  1  0.06072434  0.75149214  0.36678042  1
  C  C22  1  0.93927566  0.24850786  0.63321958  1
  C  C23  1  0.94362939  0.24308487  0.13110929  1
  O  O24  1  0.08306814  0.25178376  0.64413617  1
  O  O25  1  0.08814522  0.23280930  0.14074899  1
  O  O26  1  0.12016828  0.75161730  0.98136552  1
  O  O27  1  0.12234625  0.75123776  0.48044862  1
  O  O28  1  0.13949498  0.75121343  0.76566443  1
  O  O29  1  0.14487243  0.75474220  0.26437039  1
  O  O30  1  0.31895479  0.06754429  0.89646735  1
  O  O31  1  0.32676113  0.43483296  0.89517305  1
  O  O32  1  0.31888776  0.06628490  0.39509094  1
  O  O33  1  0.31829023  0.43428654  0.38868678  1
  O  O34  1  0.42725762  0.24589111  0.70200647  1
  O  O35  1  0.43197553  0.74967393  0.59089772  1
  O  O36  1  0.42408209  0.23706178  0.19879270  1
  O  O37  1  0.42535832  0.76433636  0.09163690  1
  O  O38  1  0.57464168  0.23566364  0.90836310  1
  O  O39  1  0.57591791  0.76293822  0.80120730  1
  O  O40  1  0.56802447  0.25032607  0.40910228  1
  O  O41  1  0.57274238  0.75410889  0.29799353  1
  O  O42  1  0.68170977  0.56571346  0.61131322  1
  O  O43  1  0.68111224  0.93371510  0.60490906  1
  O  O44  1  0.67323887  0.56516704  0.10482695  1
  O  O45  1  0.68104521  0.93245571  0.10353265  1
  O  O46  1  0.85512757  0.24525780  0.73562961  1
  O  O47  1  0.86050502  0.24878657  0.23433557  1
  O  O48  1  0.87765375  0.24876224  0.51955138  1
  O  O49  1  0.87983172  0.24838270  0.01863448  1
  O  O50  1  0.91185478  0.76719070  0.85925101  1
  O  O51  1  0.91693186  0.74821624  0.35586383  1
