# generated using pymatgen
data_Li2NbCr3O8
_symmetry_space_group_name_H-M   'P 1'
_cell_length_a   6.03967433
_cell_length_b   6.03967427
_cell_length_c   6.03967407
_cell_angle_alpha   59.90535208
_cell_angle_beta   59.90535522
_cell_angle_gamma   59.90535491
_symmetry_Int_Tables_number   1
_chemical_formula_structural   Li2NbCr3O8
_chemical_formula_sum   'Li2 Nb1 Cr3 O8'
_cell_volume   155.45047445
_cell_formula_units_Z   1
loop_
 _symmetry_equiv_pos_site_id
 _symmetry_equiv_pos_as_xyz
  1  'x, y, z'
loop_
 _atom_site_type_symbol
 _atom_site_label
 _atom_site_symmetry_multiplicity
 _atom_site_fract_x
 _atom_site_fract_y
 _atom_site_fract_z
 _atom_site_occupancy
  Li  Li0  1  0.12731206  0.12731206  0.12731206  1
  Li  Li1  1  0.87268794  0.87268794  0.87268794  1
  Nb  Nb2  1  0.50000000  0.50000000  0.50000000  1
  Cr  Cr3  1  0.00000000  0.50000000  0.50000000  1
  Cr  Cr4  1  0.50000000  0.00000000  0.50000000  1
  Cr  Cr5  1  0.50000000  0.50000000  0.00000000  1
  O  O6  1  0.26520417  0.26520417  0.26520417  1
  O  O7  1  0.26370079  0.26370079  0.71550325  1
  O  O8  1  0.26370079  0.71550325  0.26370079  1
  O  O9  1  0.71550325  0.26370079  0.26370079  1
  O  O10  1  0.28449675  0.73629921  0.73629921  1
  O  O11  1  0.73629921  0.28449675  0.73629921  1
  O  O12  1  0.73629921  0.73629921  0.28449675  1
  O  O13  1  0.73479583  0.73479583  0.73479583  1
