# generated using pymatgen
data_Na5LiMn2P2(CO7)2
_symmetry_space_group_name_H-M   'P 1'
_cell_length_a   8.98345639
_cell_length_b   6.76685088
_cell_length_c   10.36674026
_cell_angle_alpha   90.00000000
_cell_angle_beta   89.93058265
_cell_angle_gamma   90.00000000
_symmetry_Int_Tables_number   1
_chemical_formula_structural   Na5LiMn2P2(CO7)2
_chemical_formula_sum   'Na10 Li2 Mn4 P4 C4 O28'
_cell_volume   630.19066963
_cell_formula_units_Z   2
loop_
 _symmetry_equiv_pos_site_id
 _symmetry_equiv_pos_as_xyz
  1  'x, y, z'
loop_
 _atom_site_type_symbol
 _atom_site_label
 _atom_site_symmetry_multiplicity
 _atom_site_fract_x
 _atom_site_fract_y
 _atom_site_fract_z
 _atom_site_occupancy
  Na  Na0  1  0.08343364  0.24975927  0.88059574  1
  Na  Na1  1  0.08283796  0.25263457  0.37929229  1
  Na  Na2  1  0.25856850  0.00137440  0.62356479  1
  Na  Na3  1  0.25851044  0.49890898  0.62322804  1
  Na  Na4  1  0.25803697  0.00185983  0.12416219  1
  Na  Na5  1  0.74196303  0.50185983  0.87583781  1
  Na  Na6  1  0.74143150  0.50137440  0.37643521  1
  Na  Na7  1  0.74149056  0.99890898  0.37677196  1
  Na  Na8  1  0.91716204  0.75263457  0.62070771  1
  Na  Na9  1  0.91656636  0.74975927  0.11940426  1
  Li  Li10  1  0.26870892  0.49092915  0.12035141  1
  Li  Li11  1  0.73129208  0.99092915  0.87964859  1
  Mn  Mn12  1  0.36142877  0.74732315  0.89024835  1
  Mn  Mn13  1  0.36173322  0.74938948  0.38843037  1
  Mn  Mn14  1  0.63826678  0.24938948  0.61156963  1
  Mn  Mn15  1  0.63857123  0.24732315  0.10975165  1
  P  P16  1  0.41388131  0.24558267  0.85216250  1
  P  P17  1  0.40987422  0.25317649  0.34949036  1
  P  P18  1  0.59012578  0.75317649  0.65050964  1
  P  P19  1  0.58611869  0.74558267  0.14783750  1
  C  C20  1  0.05649092  0.75490180  0.86887638  1
  C  C21  1  0.06069965  0.74861511  0.36673798  1
  C  C22  1  0.93930035  0.24861511  0.63326202  1
  C  C23  1  0.94350908  0.25490180  0.13112362  1
  O  O24  1  0.08320549  0.24987249  0.64408825  1
  O  O25  1  0.08789257  0.26782410  0.14078902  1
  O  O26  1  0.12018987  0.74822333  0.98141317  1
  O  O27  1  0.12235764  0.75049936  0.48042007  1
  O  O28  1  0.13959135  0.74782177  0.76559660  1
  O  O29  1  0.14495822  0.74592485  0.26420625  1
  O  O30  1  0.31918554  0.06322376  0.89259853  1
  O  O31  1  0.32572457  0.43058413  0.89921069  1
  O  O32  1  0.31884232  0.06672587  0.38868412  1
  O  O33  1  0.31820597  0.43482053  0.39527724  1
  O  O34  1  0.42720223  0.25155262  0.70195223  1
  O  O35  1  0.43191103  0.75059007  0.59101288  1
  O  O36  1  0.42391936  0.26177107  0.19860644  1
  O  O37  1  0.42562548  0.73611015  0.09161570  1
  O  O38  1  0.57437452  0.23611015  0.90838430  1
  O  O39  1  0.57608064  0.76177107  0.80139356  1
  O  O40  1  0.56808897  0.25059007  0.40898712  1
  O  O41  1  0.57279777  0.75155262  0.29804777  1
  O  O42  1  0.68115768  0.56672587  0.61131588  1
  O  O43  1  0.68179403  0.93482053  0.60472276  1
  O  O44  1  0.68081446  0.56322376  0.10740147  1
  O  O45  1  0.67427543  0.93058413  0.10078931  1
  O  O46  1  0.85504178  0.24592485  0.73579375  1
  O  O47  1  0.86040865  0.24782177  0.23440340  1
  O  O48  1  0.87764236  0.25049936  0.51957993  1
  O  O49  1  0.87981013  0.24822333  0.01858683  1
  O  O50  1  0.91210743  0.76782410  0.85921098  1
  O  O51  1  0.91679451  0.74987249  0.35591175  1
