# generated using pymatgen
data_Na5LiMn2P2(CO7)2
_symmetry_space_group_name_H-M   'P 1'
_cell_length_a   8.98329959
_cell_length_b   6.76701077
_cell_length_c   10.37511040
_cell_angle_alpha   90.34279779
_cell_angle_beta   89.96713102
_cell_angle_gamma   89.35944438
_symmetry_Int_Tables_number   1
_chemical_formula_structural   Na5LiMn2P2(CO7)2
_chemical_formula_sum   'Na10 Li2 Mn4 P4 C4 O28'
_cell_volume   630.65301232
_cell_formula_units_Z   2
loop_
 _symmetry_equiv_pos_site_id
 _symmetry_equiv_pos_as_xyz
  1  'x, y, z'
loop_
 _atom_site_type_symbol
 _atom_site_label
 _atom_site_symmetry_multiplicity
 _atom_site_fract_x
 _atom_site_fract_y
 _atom_site_fract_z
 _atom_site_occupancy
  Na  Na0  1  0.08256949  0.24394063  0.87903685  1
  Na  Na1  1  0.08361758  0.24794167  0.38050447  1
  Na  Na2  1  0.25778641  0.49836535  0.62370464  1
  Na  Na3  1  0.25835829  0.00092908  0.12371816  1
  Na  Na4  1  0.25914400  0.49902806  0.12331391  1
  Na  Na5  1  0.74221359  0.50163465  0.87629536  1
  Na  Na6  1  0.74085500  0.50097194  0.37668609  1
  Na  Na7  1  0.74164171  0.99907092  0.37628184  1
  Na  Na8  1  0.91743051  0.75605937  0.62096315  1
  Na  Na9  1  0.91638242  0.75205833  0.11949553  1
  Li  Li10  1  0.27010917  0.01212871  0.61891424  1
  Li  Li11  1  0.72989083  0.98787129  0.88108576  1
  Mn  Mn12  1  0.36118408  0.75018827  0.88684339  1
  Mn  Mn13  1  0.36193600  0.75276760  0.39182137  1
  Mn  Mn14  1  0.63881592  0.24981173  0.61315661  1
  Mn  Mn15  1  0.63806400  0.24723240  0.10817863  1
  P  P16  1  0.41256795  0.24162994  0.84855278  1
  P  P17  1  0.41170935  0.25056071  0.35317569  1
  P  P18  1  0.58743205  0.75837006  0.65144722  1
  P  P19  1  0.58829065  0.74943929  0.14682431  1
  C  C20  1  0.05591574  0.75790723  0.86725705  1
  C  C21  1  0.06064611  0.75100046  0.36839767  1
  C  C22  1  0.94408426  0.24209277  0.63274295  1
  C  C23  1  0.93935389  0.24899954  0.13160233  1
  O  O24  1  0.08845923  0.23079890  0.64239239  1
  O  O25  1  0.08342445  0.25246843  0.14256575  1
  O  O26  1  0.11924877  0.75056210  0.98033088  1
  O  O27  1  0.12276057  0.75279581  0.48144344  1
  O  O28  1  0.13971136  0.75279827  0.76470811  1
  O  O29  1  0.14431569  0.75293040  0.26560345  1
  O  O30  1  0.31848397  0.06486249  0.89524587  1
  O  O31  1  0.32678150  0.43247038  0.89034142  1
  O  O32  1  0.31978368  0.06912844  0.39751748  1
  O  O33  1  0.31943163  0.43692077  0.39312666  1
  O  O34  1  0.42266141  0.23436057  0.69769695  1
  O  O35  1  0.42596783  0.76580315  0.59600272  1
  O  O36  1  0.42887674  0.24621687  0.20303130  1
  O  O37  1  0.43065061  0.74903918  0.08646777  1
  O  O38  1  0.57403217  0.23419685  0.90399728  1
  O  O39  1  0.57733859  0.76563943  0.80230305  1
  O  O40  1  0.56934939  0.25096082  0.41353223  1
  O  O41  1  0.57112326  0.75378313  0.29696870  1
  O  O42  1  0.67321850  0.56752962  0.60965858  1
  O  O43  1  0.68151603  0.93513751  0.60475413  1
  O  O44  1  0.68056837  0.56307923  0.10687334  1
  O  O45  1  0.68021632  0.93087156  0.10248252  1
  O  O46  1  0.86028864  0.24720173  0.73529189  1
  O  O47  1  0.85568431  0.24706960  0.23439655  1
  O  O48  1  0.88075123  0.24943790  0.51966912  1
  O  O49  1  0.87723943  0.24720419  0.01855656  1
  O  O50  1  0.91154077  0.76920110  0.85760761  1
  O  O51  1  0.91657555  0.74753157  0.35743425  1
