# generated using pymatgen
data_Li3Mg3Ti6O16
_symmetry_space_group_name_H-M   'P 1'
_cell_length_a   8.47363026
_cell_length_b   8.47438542
_cell_length_c   8.47632363
_cell_angle_alpha   90.00000000
_cell_angle_beta   90.00000000
_cell_angle_gamma   90.00069541
_symmetry_Int_Tables_number   1
_chemical_formula_structural   Li3Mg3Ti6O16
_chemical_formula_sum   'Li6 Mg6 Ti12 O32'
_cell_volume   608.67470226
_cell_formula_units_Z   2
loop_
 _symmetry_equiv_pos_site_id
 _symmetry_equiv_pos_as_xyz
  1  'x, y, z'
loop_
 _atom_site_type_symbol
 _atom_site_label
 _atom_site_symmetry_multiplicity
 _atom_site_fract_x
 _atom_site_fract_y
 _atom_site_fract_z
 _atom_site_occupancy
  Li  Li0  1  0.12458593  0.87578551  0.37518523  1
  Li  Li1  1  0.37541407  0.12421449  0.87518523  1
  Li  Li2  1  0.50193093  0.00180536  0.49799611  1
  Li  Li3  1  0.62486047  0.62530295  0.62472046  1
  Li  Li4  1  0.87513953  0.37469705  0.12472046  1
  Li  Li5  1  0.99806907  0.99819464  0.99799611  1
  Mg  Mg6  1  0.00190726  0.49816691  0.50167769  1
  Mg  Mg7  1  0.24844661  0.74989832  0.75248969  1
  Mg  Mg8  1  0.25155339  0.25010168  0.25248969  1
  Mg  Mg9  1  0.49809274  0.50183309  0.00167769  1
  Mg  Mg10  1  0.74753500  0.75399289  0.24858907  1
  Mg  Mg11  1  0.75246500  0.24600711  0.74858907  1
  Ti  Ti12  1  0.11845436  0.62953410  0.13032043  1
  Ti  Ti13  1  0.12260308  0.36386024  0.88213814  1
  Ti  Ti14  1  0.13324996  0.11619831  0.62594679  1
  Ti  Ti15  1  0.36675004  0.88380169  0.12594679  1
  Ti  Ti16  1  0.37739692  0.63613976  0.38213814  1
  Ti  Ti17  1  0.38154564  0.37046590  0.63032043  1
  Ti  Ti18  1  0.62175836  0.87803309  0.86634298  1
  Ti  Ti19  1  0.63006959  0.12866595  0.12262300  1
  Ti  Ti20  1  0.63052228  0.37629683  0.37474941  1
  Ti  Ti21  1  0.86947772  0.62370317  0.87474941  1
  Ti  Ti22  1  0.86993041  0.87133405  0.62262300  1
  Ti  Ti23  1  0.87824164  0.12196691  0.36634298  1
  O  O24  1  0.10738780  0.12843249  0.39043234  1
  O  O25  1  0.11295525  0.61258391  0.88744157  1
  O  O26  1  0.11163562  0.89257197  0.62685104  1
  O  O27  1  0.12369532  0.14434116  0.85800349  1
  O  O28  1  0.12883489  0.38934868  0.10723477  1
  O  O29  1  0.13931648  0.62180306  0.35756562  1
  O  O30  1  0.13683357  0.36355861  0.63762458  1
  O  O31  1  0.14412750  0.85758943  0.12319507  1
  O  O32  1  0.35587250  0.14241057  0.62319507  1
  O  O33  1  0.36316643  0.63644139  0.13762458  1
  O  O34  1  0.36068352  0.37819694  0.85756562  1
  O  O35  1  0.37116511  0.61065132  0.60723477  1
  O  O36  1  0.37630468  0.85565884  0.35800349  1
  O  O37  1  0.38836438  0.10742803  0.12685104  1
  O  O38  1  0.38704475  0.38741609  0.38744157  1
  O  O39  1  0.39261220  0.87156751  0.89043234  1
  O  O40  1  0.60845317  0.37343606  0.61236361  1
  O  O41  1  0.61161089  0.88761948  0.11277712  1
  O  O42  1  0.61009034  0.60786554  0.37191422  1
  O  O43  1  0.62231080  0.35830646  0.13807436  1
  O  O44  1  0.62606043  0.11104570  0.89172551  1
  O  O45  1  0.64052833  0.87608029  0.64294371  1
  O  O46  1  0.63901117  0.13942481  0.36179980  1
  O  O47  1  0.64196972  0.63805614  0.87727421  1
  O  O48  1  0.85803028  0.36194386  0.37727421  1
  O  O49  1  0.86098883  0.86057519  0.86179980  1
  O  O50  1  0.85947167  0.12391971  0.14294371  1
  O  O51  1  0.87393957  0.88895430  0.39172551  1
  O  O52  1  0.87768920  0.64169354  0.63807436  1
  O  O53  1  0.88990966  0.39213446  0.87191422  1
  O  O54  1  0.88838911  0.11238052  0.61277712  1
  O  O55  1  0.89154683  0.62656394  0.11236361  1
