# generated using pymatgen
data_Ti3MnV2(PO4)6
_symmetry_space_group_name_H-M   'P 1'
_cell_length_a   8.59099454
_cell_length_b   8.70613416
_cell_length_c   8.70613436
_cell_angle_alpha   59.99999984
_cell_angle_beta   59.55565533
_cell_angle_gamma   59.55565517
_symmetry_Int_Tables_number   1
_chemical_formula_structural   Ti3MnV2(PO4)6
_chemical_formula_sum   'Ti3 Mn1 V2 P6 O24'
_cell_volume   457.32973518
_cell_formula_units_Z   1
loop_
 _symmetry_equiv_pos_site_id
 _symmetry_equiv_pos_as_xyz
  1  'x, y, z'
loop_
 _atom_site_type_symbol
 _atom_site_label
 _atom_site_symmetry_multiplicity
 _atom_site_fract_x
 _atom_site_fract_y
 _atom_site_fract_z
 _atom_site_occupancy
  Ti  Ti0  1  0.06246165  0.64584645  0.64584645  1
  Ti  Ti1  1  0.42988863  0.85670379  0.85670379  1
  Ti  Ti2  1  0.93760189  0.35413304  0.35413304  1
  Mn  Mn3  1  0.56576069  0.14474677  0.14474677  1
  V  V4  1  0.99761898  0.00079334  0.00079334  1
  V  V5  1  0.49528501  0.50157200  0.50157200  1
  P  P6  1  0.25221842  0.24855576  0.54711279  1
  P  P7  1  0.25221842  0.95211403  0.24855576  1
  P  P8  1  0.25221842  0.54711279  0.95211403  1
  P  P9  1  0.75098504  0.45815152  0.04462164  1
  P  P10  1  0.75098504  0.04462164  0.74624179  1
  P  P11  1  0.75098504  0.74624179  0.45815152  1
  O  O12  1  0.07244804  0.11979022  0.31088466  1
  O  O13  1  0.07244804  0.49687708  0.11979022  1
  O  O14  1  0.07244804  0.31088466  0.49687708  1
  O  O15  1  0.22480486  0.09016279  0.74461763  1
  O  O16  1  0.43649817  0.18496617  0.40025787  1
  O  O17  1  0.25756441  0.41217196  0.57190524  1
  O  O18  1  0.22480486  0.94041471  0.09016279  1
  O  O19  1  0.25756441  0.75835839  0.41217196  1
  O  O20  1  0.56839346  0.61929135  0.99890410  1
  O  O21  1  0.25756441  0.57190524  0.75835839  1
  O  O22  1  0.78591389  0.26612032  0.04971349  1
  O  O23  1  0.56839346  0.99890410  0.81341108  1
  O  O24  1  0.43649817  0.97827879  0.18496617  1
  O  O25  1  0.22480486  0.74461763  0.94041471  1
  O  O26  1  0.72870083  0.44674792  0.23942438  1
  O  O27  1  0.43649817  0.40025787  0.97827879  1
  O  O28  1  0.72870083  0.23942438  0.58512687  1
  O  O29  1  0.78591389  0.04971349  0.89825230  1
  O  O30  1  0.72870083  0.58512687  0.44674792  1
  O  O31  1  0.56839346  0.81341108  0.61929135  1
  O  O32  1  0.78591389  0.89825230  0.26612032  1
  O  O33  1  0.92626926  0.66745069  0.51785404  1
  O  O34  1  0.92626926  0.51785404  0.88842701  1
  O  O35  1  0.92626926  0.88842701  0.66745069  1
