# generated using pymatgen
data_Na3MnO3
_symmetry_space_group_name_H-M   'P 1'
_cell_length_a   6.08489221
_cell_length_b   6.06035216
_cell_length_c   10.88899829
_cell_angle_alpha   90.00000000
_cell_angle_beta   90.00000000
_cell_angle_gamma   91.71496201
_symmetry_Int_Tables_number   1
_chemical_formula_structural   Na3MnO3
_chemical_formula_sum   'Na12 Mn4 O12'
_cell_volume   401.36925924
_cell_formula_units_Z   4
loop_
 _symmetry_equiv_pos_site_id
 _symmetry_equiv_pos_as_xyz
  1  'x, y, z'
loop_
 _atom_site_type_symbol
 _atom_site_label
 _atom_site_symmetry_multiplicity
 _atom_site_fract_x
 _atom_site_fract_y
 _atom_site_fract_z
 _atom_site_occupancy
  Na  Na0  1  0.04179053  0.91029586  0.77552795  1
  Na  Na1  1  0.35173617  0.85690506  0.00410335  1
  Na  Na2  1  0.51060413  0.98482948  0.27986785  1
  Na  Na3  1  0.04179053  0.41029586  0.72447205  1
  Na  Na4  1  0.48939587  0.51517052  0.77986785  1
  Na  Na5  1  0.35173617  0.35690506  0.49589665  1
  Na  Na6  1  0.64826383  0.64309494  0.50410335  1
  Na  Na7  1  0.51060413  0.48482948  0.22013215  1
  Na  Na8  1  0.95820947  0.58970414  0.27552795  1
  Na  Na9  1  0.48939587  0.01517052  0.72013215  1
  Na  Na10  1  0.64826383  0.14309494  0.99589665  1
  Na  Na11  1  0.95820947  0.08970414  0.22447205  1
  Mn  Mn12  1  0.16601216  0.83179553  0.49646073  1
  Mn  Mn13  1  0.16601216  0.33179553  0.00353927  1
  Mn  Mn14  1  0.83398784  0.66820447  0.99646073  1
  Mn  Mn15  1  0.83398784  0.16820447  0.50353927  1
  O  O16  1  0.11121895  0.60520574  0.91175390  1
  O  O17  1  0.30152314  0.68249676  0.36694101  1
  O  O18  1  0.30412694  0.68974659  0.62652066  1
  O  O19  1  0.69587306  0.81025341  0.12652066  1
  O  O20  1  0.69847686  0.81750324  0.86694101  1
  O  O21  1  0.88878105  0.89479426  0.41175390  1
  O  O22  1  0.11121895  0.10520574  0.58824610  1
  O  O23  1  0.30152314  0.18249676  0.13305899  1
  O  O24  1  0.30412694  0.18974659  0.87347934  1
  O  O25  1  0.69587306  0.31025341  0.37347934  1
  O  O26  1  0.69847686  0.31750324  0.63305899  1
  O  O27  1  0.88878105  0.39479426  0.08824610  1
