# generated using pymatgen
data_TiMn(PO4)2
_symmetry_space_group_name_H-M   'P 1'
_cell_length_a   8.68042118
_cell_length_b   8.69683317
_cell_length_c   8.69683355
_cell_angle_alpha   60.00000417
_cell_angle_beta   59.93744110
_cell_angle_gamma   59.93743847
_symmetry_Int_Tables_number   1
_chemical_formula_structural   TiMn(PO4)2
_chemical_formula_sum   'Ti3 Mn3 P6 O24'
_cell_volume   463.80646228
_cell_formula_units_Z   3
loop_
 _symmetry_equiv_pos_site_id
 _symmetry_equiv_pos_as_xyz
  1  'x, y, z'
loop_
 _atom_site_type_symbol
 _atom_site_label
 _atom_site_symmetry_multiplicity
 _atom_site_fract_x
 _atom_site_fract_y
 _atom_site_fract_z
 _atom_site_occupancy
  Ti  Ti0  1  0.06113867  0.64628678  0.64628678  1
  Ti  Ti1  1  0.43381060  0.85539680  0.85539680  1
  Ti  Ti2  1  0.94220553  0.35259782  0.35259782  1
  Mn  Mn3  1  0.99100262  0.00299913  0.00299913  1
  Mn  Mn4  1  0.56264068  0.14578644  0.14578644  1
  Mn  Mn5  1  0.49765249  0.50078250  0.50078250  1
  P  P6  1  0.25207949  0.24807701  0.54764563  1
  P  P7  1  0.25207949  0.95219687  0.24807701  1
  P  P8  1  0.25207949  0.54764563  0.95219687  1
  P  P9  1  0.75164688  0.45938918  0.04395743  1
  P  P10  1  0.75164688  0.04395743  0.74500651  1
  P  P11  1  0.75164688  0.74500651  0.45938918  1
  O  O12  1  0.07419461  0.12145315  0.30563187  1
  O  O13  1  0.07419461  0.49871938  0.12145315  1
  O  O14  1  0.07419461  0.30563187  0.49871938  1
  O  O15  1  0.23141544  0.08679430  0.74279646  1
  O  O16  1  0.43307017  0.19234851  0.39662072  1
  O  O17  1  0.25125234  0.41441984  0.57336181  1
  O  O18  1  0.23141544  0.93899380  0.08679430  1
  O  O19  1  0.25125234  0.76096501  0.41441984  1
  O  O20  1  0.57145802  0.62190129  0.99858246  1
  O  O21  1  0.25125234  0.57336181  0.76096501  1
  O  O22  1  0.77879190  0.26935283  0.05041877  1
  O  O23  1  0.57145802  0.99858246  0.80805823  1
  O  O24  1  0.43307017  0.97796060  0.19234851  1
  O  O25  1  0.23141544  0.74279646  0.93899380  1
  O  O26  1  0.73471706  0.44905153  0.23603415  1
  O  O27  1  0.43307017  0.39662072  0.97796060  1
  O  O28  1  0.73471706  0.23603415  0.58019727  1
  O  O29  1  0.77879190  0.05041877  0.90143550  1
  O  O30  1  0.73471706  0.58019727  0.44905153  1
  O  O31  1  0.57145802  0.80805823  0.62190129  1
  O  O32  1  0.77879190  0.90143550  0.26935283  1
  O  O33  1  0.92522356  0.67199932  0.51652195  1
  O  O34  1  0.92522356  0.51652195  0.88625416  1
  O  O35  1  0.92522356  0.88625416  0.67199932  1
