# generated using pymatgen
data_La15Mn16O48
_symmetry_space_group_name_H-M   'P 1'
_cell_length_a   5.53128835
_cell_length_b   14.77965064
_cell_length_c   12.41476787
_cell_angle_alpha   94.53744421
_cell_angle_beta   102.00867992
_cell_angle_gamma   79.45507235
_symmetry_Int_Tables_number   1
_chemical_formula_structural   La15Mn16O48
_chemical_formula_sum   'La15 Mn16 O48'
_cell_volume   975.04926747
_cell_formula_units_Z   1
loop_
 _symmetry_equiv_pos_site_id
 _symmetry_equiv_pos_as_xyz
  1  'x, y, z'
loop_
 _atom_site_type_symbol
 _atom_site_label
 _atom_site_symmetry_multiplicity
 _atom_site_fract_x
 _atom_site_fract_y
 _atom_site_fract_z
 _atom_site_occupancy
  La  La0  1  0.97203112  0.84644640  0.78533207  1
  La  La1  1  0.77993083  0.90844439  0.45795575  1
  La  La2  1  0.90511341  0.53215766  0.34315110  1
  La  La3  1  0.71784003  0.59623997  0.03177411  1
  La  La4  1  0.84215041  0.21669730  0.90691782  1
  La  La5  1  0.53099490  0.65847441  0.71867690  1
  La  La6  1  0.65725149  0.27957071  0.59308942  1
  La  La7  1  0.47085936  0.33741063  0.27927620  1
  La  La8  1  0.33687805  0.72349442  0.40241530  1
  La  La9  1  0.15173864  0.79360467  0.09745856  1
  La  La10  1  0.28118088  0.40476895  0.96928227  1
  La  La11  1  0.40824557  0.02817929  0.85521555  1
  La  La12  1  0.22285075  0.09159146  0.53153404  1
  La  La13  1  0.09350352  0.46893109  0.65602413  1
  La  La14  1  0.03554504  0.14437098  0.21541688  1
  Mn  Mn15  1  0.93606311  0.68797202  0.56247778  1
  Mn  Mn16  1  0.87519876  0.37453845  0.12462334  1
  Mn  Mn17  1  0.74984142  0.75229764  0.24934389  1
  Mn  Mn18  1  0.81309698  0.06211477  0.68764925  1
  Mn  Mn19  1  0.56120100  0.81425357  0.93929829  1
  Mn  Mn20  1  0.68691985  0.43769573  0.81241984  1
  Mn  Mn21  1  0.37646037  0.87546366  0.62498376  1
  Mn  Mn22  1  0.62185256  0.12377509  0.37215032  1
  Mn  Mn23  1  0.49924281  0.50007751  0.49923984  1
  Mn  Mn24  1  0.18749566  0.93804931  0.30917187  1
  Mn  Mn25  1  0.44202393  0.18535659  0.06455700  1
  Mn  Mn26  1  0.31181705  0.56275276  0.18687285  1
  Mn  Mn27  1  0.12599847  0.62557772  0.87643655  1
  Mn  Mn28  1  0.24969303  0.24922585  0.75004033  1
  Mn  Mn29  1  0.06271734  0.31186648  0.43754739  1
  Mn  Mn30  1  0.00033996  0.99902794  0.00337698  1
  O  O31  1  0.95164989  0.84959288  0.27734871  1
  O  O32  1  0.96021801  0.36884981  0.28893339  1
  O  O33  1  0.83453252  0.74104660  0.41458979  1
  O  O34  1  0.66468426  0.75612423  0.08533940  1
  O  O35  1  0.83036261  0.88835569  0.97003169  1
  O  O36  1  0.95711947  0.51470923  0.86058523  1
  O  O37  1  0.69672751  0.78802761  0.61956028  1
  O  O38  1  0.94602631  0.03919448  0.36963231  1
  O  O39  1  0.82249843  0.41442245  0.49409038  1
  O  O40  1  0.58011807  0.63827331  0.23364006  1
  O  O41  1  0.70605167  0.26512876  0.10869378  1
  O  O42  1  0.92858657  0.33598599  0.75513179  1
  O  O43  1  0.80347391  0.70887087  0.88193106  1
  O  O44  1  0.66890989  0.60989035  0.51437272  1
  O  O45  1  0.54621133  0.98466813  0.64149314  1
  O  O46  1  0.79452062  0.23459286  0.39476762  1
  O  O47  1  0.43010436  0.82825329  0.26812908  1
  O  O48  1  0.68768711  0.09613171  0.00038242  1
  O  O49  1  0.55329651  0.46031693  0.13131769  1
  O  O50  1  0.78822295  0.38220699  0.96032678  1
  O  O51  1  0.90971566  0.01059716  0.83386318  1
  O  O52  1  0.46157850  0.86618302  0.78720697  1
  O  O53  1  0.71559349  0.11751923  0.54160785  1
  O  O54  1  0.58447563  0.49435084  0.66427624  1
  O  O55  1  0.41516817  0.50494641  0.33545804  1
  O  O56  1  0.29213878  0.88495519  0.46306345  1
  O  O57  1  0.53371146  0.14810248  0.21578458  1
  O  O58  1  0.08752592  0.98742482  0.16304369  1
  O  O59  1  0.20906504  0.62157198  0.03973858  1
  O  O60  1  0.44475702  0.54008747  0.86906620  1
  O  O61  1  0.57256544  0.16624390  0.74078536  1
  O  O62  1  0.29530426  0.91028387  0.97576718  1
  O  O63  1  0.20664339  0.76469981  0.60875952  1
  O  O64  1  0.33062810  0.38935867  0.48596121  1
  O  O65  1  0.43950806  0.02204125  0.37210799  1
  O  O66  1  0.06685731  0.66167614  0.24323857  1
  O  O67  1  0.19713250  0.29085567  0.11383616  1
  O  O68  1  0.41831518  0.36033349  0.76497186  1
  O  O69  1  0.30040998  0.73283731  0.88786978  1
  O  O70  1  0.05054755  0.96024772  0.63000946  1
  O  O71  1  0.17592797  0.58393942  0.50744269  1
  O  O72  1  0.30208648  0.21062586  0.38347987  1
  O  O73  1  0.04624039  0.48574851  0.13895299  1
  O  O74  1  0.17139135  0.11031047  0.01398603  1
  O  O75  1  0.33265785  0.24394590  0.91326765  1
  O  O76  1  0.16552891  0.25680335  0.58755277  1
  O  O77  1  0.03986104  0.63113788  0.71114963  1
  O  O78  1  0.08303422  0.13918957  0.73765783  1
