# generated using pymatgen
data_Li5Ni5(SnO6)2
_symmetry_space_group_name_H-M   'P 1'
_cell_length_a   5.21174053
_cell_length_b   5.21174055
_cell_length_c   9.94206968
_cell_angle_alpha   84.82528393
_cell_angle_beta   95.17471409
_cell_angle_gamma   59.90124408
_symmetry_Int_Tables_number   1
_chemical_formula_structural   Li5Ni5(SnO6)2
_chemical_formula_sum   'Li5 Ni5 Sn2 O12'
_cell_volume   229.79194671
_cell_formula_units_Z   1
loop_
 _symmetry_equiv_pos_site_id
 _symmetry_equiv_pos_as_xyz
  1  'x, y, z'
loop_
 _atom_site_type_symbol
 _atom_site_label
 _atom_site_symmetry_multiplicity
 _atom_site_fract_x
 _atom_site_fract_y
 _atom_site_fract_z
 _atom_site_occupancy
  Li  Li0  1  0.18470538  0.67974726  0.50184703  1
  Li  Li1  1  0.32315400  0.82647091  0.99467663  1
  Li  Li2  1  0.67974726  0.18470538  0.99815297  1
  Li  Li3  1  0.82647091  0.32315400  0.50532337  1
  Li  Li4  1  0.91359268  0.91359268  0.75000000  1
  Ni  Ni5  1  0.08432688  0.08432688  0.25000000  1
  Ni  Ni6  1  -0.00008459  0.50359782  0.99665980  1
  Ni  Ni7  1  0.50359782  -0.00008459  0.50334020  1
  Ni  Ni8  1  0.41555712  0.41555712  0.25000000  1
  Ni  Ni9  1  0.58108821  0.58108821  0.75000000  1
  Sn  Sn10  1  0.24764204  0.24764204  0.75000000  1
  Sn  Sn11  1  0.74982144  0.74982144  0.25000000  1
  O  O12  1  0.96396585  0.22323462  0.87557240  1
  O  O13  1  0.22323462  0.96396585  0.62442760  1
  O  O14  1  0.12917112  0.37169632  0.36949047  1
  O  O15  1  0.37169632  0.12917112  0.13050953  1
  O  O16  1  0.30189334  0.52905001  0.86977629  1
  O  O17  1  0.52905001  0.30189334  0.63022371  1
  O  O18  1  0.45757613  0.71965208  0.37015978  1
  O  O19  1  0.71965208  0.45757613  0.12984022  1
  O  O20  1  0.61965296  0.85272636  0.86748233  1
  O  O21  1  0.85272636  0.61965296  0.63251767  1
  O  O22  1  0.78189164  0.03987140  0.37232871  1
  O  O23  1  0.03987140  0.78189164  0.12767129  1
