# generated using pymatgen
data_TiV3(PO4)6
_symmetry_space_group_name_H-M   'P 1'
_cell_length_a   8.75433706
_cell_length_b   8.75433644
_cell_length_c   8.75433703
_cell_angle_alpha   58.50736838
_cell_angle_beta   58.50736905
_cell_angle_gamma   58.50736412
_symmetry_Int_Tables_number   1
_chemical_formula_structural   TiV3(PO4)6
_chemical_formula_sum   'Ti1 V3 P6 O24'
_cell_volume   458.21279580
_cell_formula_units_Z   1
loop_
 _symmetry_equiv_pos_site_id
 _symmetry_equiv_pos_as_xyz
  1  'x, y, z'
loop_
 _atom_site_type_symbol
 _atom_site_label
 _atom_site_symmetry_multiplicity
 _atom_site_fract_x
 _atom_site_fract_y
 _atom_site_fract_z
 _atom_site_occupancy
  Ti  Ti0  1  0.86020845  0.86020845  0.86020845  1
  V  V1  1  0.13977848  0.13977848  0.13977848  1
  V  V2  1  0.35851533  0.35851533  0.35851533  1
  V  V3  1  0.64036246  0.64036246  0.64036246  1
  P  P4  1  0.03358549  0.74911088  0.46692042  1
  P  P5  1  0.46692042  0.03358549  0.74911088  1
  P  P6  1  0.74911088  0.46692042  0.03358549  1
  P  P7  1  0.25248327  0.53028108  0.96798507  1
  P  P8  1  0.53028108  0.96798507  0.25248327  1
  P  P9  1  0.96798507  0.25248327  0.53028108  1
  O  O10  1  0.13664678  0.28520037  0.50221841  1
  O  O11  1  0.28520037  0.50221841  0.13664678  1
  O  O12  1  0.05982333  0.92871572  0.28385970  1
  O  O13  1  0.50221841  0.13664678  0.28520037  1
  O  O14  1  0.21508131  0.57883776  0.43297387  1
  O  O15  1  0.00599526  0.77913040  0.63718048  1
  O  O16  1  0.28385970  0.05982333  0.92871572  1
  O  O17  1  0.43297387  0.21508131  0.57883776  1
  O  O18  1  0.57883776  0.43297387  0.21508131  1
  O  O19  1  0.22496305  0.35566182  0.99521999  1
  O  O20  1  0.08062480  0.71158105  0.93789231  1
  O  O21  1  0.35566182  0.99521999  0.22496305  1
  O  O22  1  0.63718048  0.00599526  0.77913040  1
  O  O23  1  0.92871572  0.28385970  0.05982333  1
  O  O24  1  0.77913040  0.63718048  0.00599526  1
  O  O25  1  0.43071383  0.55805370  0.78464957  1
  O  O26  1  0.55805370  0.78464957  0.43071383  1
  O  O27  1  0.71158105  0.93789231  0.08062480  1
  O  O28  1  0.99521999  0.22496305  0.35566182  1
  O  O29  1  0.78464957  0.43071383  0.55805370  1
  O  O30  1  0.49538045  0.85699823  0.72336687  1
  O  O31  1  0.93789231  0.08062480  0.71158105  1
  O  O32  1  0.72336687  0.49538045  0.85699823  1
  O  O33  1  0.85699823  0.72336687  0.49538045  1
