# generated using pymatgen
data_Li4V3Fe3(SnO8)2
_symmetry_space_group_name_H-M   'P 1'
_cell_length_a   6.00551355
_cell_length_b   5.99181608
_cell_length_c   9.80311412
_cell_angle_alpha   89.92975746
_cell_angle_beta   90.22908312
_cell_angle_gamma   120.12533114
_symmetry_Int_Tables_number   1
_chemical_formula_structural   Li4V3Fe3(SnO8)2
_chemical_formula_sum   'Li4 V3 Fe3 Sn2 O16'
_cell_volume   305.10533528
_cell_formula_units_Z   1
loop_
 _symmetry_equiv_pos_site_id
 _symmetry_equiv_pos_as_xyz
  1  'x, y, z'
loop_
 _atom_site_type_symbol
 _atom_site_label
 _atom_site_symmetry_multiplicity
 _atom_site_fract_x
 _atom_site_fract_y
 _atom_site_fract_z
 _atom_site_occupancy
  Li  Li0  1  0.34121173  0.67216511  0.89571910  1
  Li  Li1  1  0.99257307  0.99554525  0.99310553  1
  Li  Li2  1  0.99408729  0.99615691  0.49416449  1
  Li  Li3  1  0.67520205  0.33846384  0.39343872  1
  V  V4  1  0.82639670  0.65083254  0.71720529  1
  V  V5  1  0.65701972  0.82801116  0.21989831  1
  V  V6  1  0.82849007  0.17126544  0.71361390  1
  Fe  Fe7  1  0.16694584  0.82921220  0.21289935  1
  Fe  Fe8  1  0.16765688  0.33808731  0.21285883  1
  Fe  Fe9  1  0.33122755  0.16339249  0.71435743  1
  Sn  Sn10  1  0.33422095  0.66596954  0.49170581  1
  Sn  Sn11  1  0.66356869  0.33148944  0.99201277  1
  O  O12  1  0.15791355  0.83524748  0.59947553  1
  O  O13  1  0.04061817  0.51962586  0.33903496  1
  O  O14  1  0.35842434  0.67952807  0.10731928  1
  O  O15  1  0.98433978  0.99198496  0.30672238  1
  O  O16  1  0.98834758  0.98254987  0.80588702  1
  O  O17  1  0.15719289  0.31867054  0.60017135  1
  O  O18  1  0.49165715  0.96679583  0.33905480  1
  O  O19  1  0.49035652  0.52375208  0.33849543  1
  O  O20  1  0.31781520  0.15922891  0.09866797  1
  O  O21  1  0.67598840  0.83333988  0.59905761  1
  O  O22  1  0.52332134  0.48754705  0.83728663  1
  O  O23  1  0.52078802  0.03731495  0.83756840  1
  O  O24  1  0.67360475  0.35262173  0.60605519  1
  O  O25  1  0.83571599  0.67608085  0.10088083  1
  O  O26  1  0.96844485  0.49504905  0.84150560  1
  O  O27  1  0.83686992  0.16037366  0.09967848  1
