# generated using pymatgen
data_LiV2F7
_symmetry_space_group_name_H-M   'P 1'
_cell_length_a   4.96438115
_cell_length_b   10.51088326
_cell_length_c   5.63681152
_cell_angle_alpha   119.55711759
_cell_angle_beta   89.98441706
_cell_angle_gamma   76.38511282
_symmetry_Int_Tables_number   1
_chemical_formula_structural   LiV2F7
_chemical_formula_sum   'Li2 V4 F14'
_cell_volume   246.29508573
_cell_formula_units_Z   2
loop_
 _symmetry_equiv_pos_site_id
 _symmetry_equiv_pos_as_xyz
  1  'x, y, z'
loop_
 _atom_site_type_symbol
 _atom_site_label
 _atom_site_symmetry_multiplicity
 _atom_site_fract_x
 _atom_site_fract_y
 _atom_site_fract_z
 _atom_site_occupancy
  Li  Li0  1  0.49659844  0.49844593  0.50121836  1
  Li  Li1  1  0.99785441  0.49941033  0.99936997  1
  V  V2  1  0.85209647  0.78777664  0.56897146  1
  V  V3  1  0.36163079  0.78786901  0.06903402  1
  V  V4  1  0.63942315  0.21044921  0.93094965  1
  V  V5  1  0.14869534  0.21036101  0.43082204  1
  F  F6  1  0.62506995  0.85009016  0.92100118  1
  F  F7  1  0.52672075  0.84975788  0.42056453  1
  F  F8  1  0.19250402  0.72060287  0.70787849  1
  F  F9  1  0.08826842  0.72059902  0.20764391  1
  F  F10  1  0.60985084  0.58731395  0.88170817  1
  F  F11  1  0.80396606  0.58745360  0.38202308  1
  F  F12  1  0.19646987  0.41107579  0.61747453  1
  F  F13  1  0.39199681  0.41100118  0.11783220  1
  F  F14  1  0.91351090  0.27768599  0.79244021  1
  F  F15  1  0.80736240  0.27716989  0.29255556  1
  F  F16  1  0.47466594  0.14899017  0.57932537  1
  F  F17  1  0.37455001  0.14877234  0.07896685  1
  F  F18  1  0.88795859  0.99932787  0.74972598  1
  F  F19  1  0.11278682  0.99890917  0.24997445  1
