# generated using pymatgen
data_Li4V3Fe3(SbO8)2
_symmetry_space_group_name_H-M   'P 1'
_cell_length_a   6.00392458
_cell_length_b   6.00874463
_cell_length_c   9.77736971
_cell_angle_alpha   89.48596172
_cell_angle_beta   89.59491333
_cell_angle_gamma   119.68250945
_symmetry_Int_Tables_number   1
_chemical_formula_structural   Li4V3Fe3(SbO8)2
_chemical_formula_sum   'Li4 V3 Fe3 Sb2 O16'
_cell_volume   306.40551055
_cell_formula_units_Z   1
loop_
 _symmetry_equiv_pos_site_id
 _symmetry_equiv_pos_as_xyz
  1  'x, y, z'
loop_
 _atom_site_type_symbol
 _atom_site_label
 _atom_site_symmetry_multiplicity
 _atom_site_fract_x
 _atom_site_fract_y
 _atom_site_fract_z
 _atom_site_occupancy
  Li  Li0  1  0.34367600  0.67328853  0.90187374  1
  Li  Li1  1  0.99494488  -0.00064423  0.98958780  1
  Li  Li2  1  0.99276700  0.99394318  0.48931064  1
  Li  Li3  1  0.67586040  0.34123669  0.39980074  1
  V  V4  1  0.65328651  0.82684803  0.22034486  1
  V  V5  1  0.82641042  0.65121688  0.71960413  1
  V  V6  1  0.82347940  0.17011629  0.71317234  1
  Fe  Fe7  1  0.16501776  0.82402912  0.21162843  1
  Fe  Fe8  1  0.16865209  0.34178787  0.21075597  1
  Fe  Fe9  1  0.33657812  0.16385214  0.71134649  1
  Sb  Sb10  1  0.32608378  0.66174043  0.48974026  1
  Sb  Sb11  1  0.66301963  0.32657642  0.99057515  1
  O  O12  1  0.15822031  0.82716298  0.59323543  1
  O  O13  1  0.04277642  0.53214167  0.34767466  1
  O  O14  1  0.37196067  0.69860671  0.10630432  1
  O  O15  1  0.97518940  0.97760995  0.30049588  1
  O  O16  1  0.97429849  0.97418605  0.80060396  1
  O  O17  1  0.15165933  0.32553978  0.58925792  1
  O  O18  1  0.48947557  0.96493518  0.34552460  1
  O  O19  1  0.49393926  0.53257074  0.34865078  1
  O  O20  1  0.32886818  0.15596323  0.09131327  1
  O  O21  1  0.65820394  0.82605523  0.59650737  1
  O  O22  1  0.53072309  0.48932094  0.84841463  1
  O  O23  1  0.53514229  0.04067732  0.84816573  1
  O  O24  1  0.69185274  0.36703971  0.60613283  1
  O  O25  1  0.83052356  0.66026386  0.09710615  1
  O  O26  1  0.96708881  0.49138340  0.84640075  1
  O  O27  1  0.83029996  0.16285289  0.09430918  1
