# generated using pymatgen
data_Li2MnFe3O8
_symmetry_space_group_name_H-M   'P 1'
_cell_length_a   8.42382259
_cell_length_b   8.42782929
_cell_length_c   8.40818388
_cell_angle_alpha   90.02193784
_cell_angle_beta   89.95825040
_cell_angle_gamma   89.97082165
_symmetry_Int_Tables_number   1
_chemical_formula_structural   Li2MnFe3O8
_chemical_formula_sum   'Li8 Mn4 Fe12 O32'
_cell_volume   596.93485665
_cell_formula_units_Z   4
loop_
 _symmetry_equiv_pos_site_id
 _symmetry_equiv_pos_as_xyz
  1  'x, y, z'
loop_
 _atom_site_type_symbol
 _atom_site_label
 _atom_site_symmetry_multiplicity
 _atom_site_fract_x
 _atom_site_fract_y
 _atom_site_fract_z
 _atom_site_occupancy
  Li  Li0  1  0.00079925  0.00055148  0.00131738  1
  Li  Li1  1  0.24948576  0.24883380  0.24864145  1
  Li  Li2  1  0.25146494  0.75213295  0.74837177  1
  Li  Li3  1  0.49878764  -0.00207739  0.50153317  1
  Li  Li4  1  0.50006576  0.49832831  -0.00016480  1
  Li  Li5  1  0.75049872  0.25175153  0.75077718  1
  Li  Li6  1  0.75162936  0.75065858  0.24949244  1
  Li  Li7  1  -0.00151823  0.49985020  0.49952664  1
  Mn  Mn8  1  0.12392298  0.87523446  0.37518596  1
  Mn  Mn9  1  0.37566998  0.12562086  0.87446436  1
  Mn  Mn10  1  0.62591657  0.62403576  0.62546581  1
  Mn  Mn11  1  0.87448235  0.37543318  0.12543880  1
  Fe  Fe12  1  0.12537431  0.12465951  0.62439847  1
  Fe  Fe13  1  0.12484378  0.37414166  0.87522461  1
  Fe  Fe14  1  0.12290858  0.62523420  0.12639652  1
  Fe  Fe15  1  0.37688205  0.37365670  0.62530148  1
  Fe  Fe16  1  0.37467020  0.62537566  0.37592632  1
  Fe  Fe17  1  0.37360820  0.87617942  0.12508508  1
  Fe  Fe18  1  0.62597736  0.37523912  0.37507539  1
  Fe  Fe19  1  0.62507603  0.12691601  0.12392005  1
  Fe  Fe20  1  0.62514943  0.87520095  0.87443880  1
  Fe  Fe21  1  0.87494592  0.12424023  0.37431733  1
  Fe  Fe22  1  0.87507096  0.87466238  0.62479682  1
  Fe  Fe23  1  0.87457152  0.62432202  0.87508922  1
  O  O24  1  0.11545039  0.10568138  0.38416110  1
  O  O25  1  0.11553012  0.88576865  0.60584607  1
  O  O26  1  0.11372974  0.61297621  0.88516139  1
  O  O27  1  0.14504649  0.13482151  0.86541779  1
  O  O28  1  0.10418033  0.38628732  0.11724369  1
  O  O29  1  0.13691972  0.36142466  0.63446249  1
  O  O30  1  0.13480874  0.64493842  0.36821320  1
  O  O31  1  0.13256641  0.86517730  0.14447125  1
  O  O32  1  0.36765376  0.13426893  0.64479772  1
  O  O33  1  0.36409498  0.35598817  0.86658688  1
  O  O34  1  0.36244260  0.63716526  0.13654700  1
  O  O35  1  0.39565686  0.61320650  0.61612298  1
  O  O36  1  0.35537677  0.86588689  0.36463216  1
  O  O37  1  0.38870135  0.38572341  0.38500856  1
  O  O38  1  0.38379814  0.11640697  0.10520402  1
  O  O39  1  0.38495492  0.89505905  0.88480879  1
  O  O40  1  0.61820248  0.39353179  0.61569336  1
  O  O41  1  0.61528822  0.61619576  0.39470177  1
  O  O42  1  0.61368934  0.88784332  0.11396060  1
  O  O43  1  0.64349083  0.36638246  0.13400288  1
  O  O44  1  0.60574115  0.11577151  0.88343638  1
  O  O45  1  0.63540451  0.13554727  0.36254820  1
  O  O46  1  0.63542366  0.85383184  0.63420905  1
  O  O47  1  0.63400875  0.63498513  0.85623701  1
  O  O48  1  0.86410425  0.36482282  0.35583659  1
  O  O49  1  0.86483044  0.14589102  0.13307796  1
  O  O50  1  0.86370638  0.86330961  0.86486756  1
  O  O51  1  0.89430931  0.88543471  0.38405956  1
  O  O52  1  0.85636417  0.63310193  0.63500161  1
  O  O53  1  0.88605809  0.11338396  0.61428828  1
  O  O54  1  0.88582700  0.38339346  0.89419875  1
  O  O55  1  0.88235768  0.60574617  0.11531510  1
