# generated using pymatgen
data_Mn6OF11
_symmetry_space_group_name_H-M   'P 1'
_cell_length_a   4.98339771
_cell_length_b   5.90852266
_cell_length_c   16.13599565
_cell_angle_alpha   90.94732509
_cell_angle_beta   89.88179828
_cell_angle_gamma   88.98505414
_symmetry_Int_Tables_number   1
_chemical_formula_structural   Mn6OF11
_chemical_formula_sum   'Mn12 O2 F22'
_cell_volume   474.97582878
_cell_formula_units_Z   2
loop_
 _symmetry_equiv_pos_site_id
 _symmetry_equiv_pos_as_xyz
  1  'x, y, z'
loop_
 _atom_site_type_symbol
 _atom_site_label
 _atom_site_symmetry_multiplicity
 _atom_site_fract_x
 _atom_site_fract_y
 _atom_site_fract_z
 _atom_site_occupancy
  Mn  Mn0  1  0.00132922  0.16823265  0.41531523  1
  Mn  Mn1  1  0.00376970  0.82789411  0.24245583  1
  Mn  Mn2  1  0.98075061  0.18452720  0.07612714  1
  Mn  Mn3  1  0.99623030  0.17210589  0.75754417  1
  Mn  Mn4  1  0.99867078  0.83176735  0.58468477  1
  Mn  Mn5  1  0.01924939  0.81547280  0.92387286  1
  Mn  Mn6  1  0.49513649  0.32821839  0.58425940  1
  Mn  Mn7  1  0.50337337  0.35801120  0.92467578  1
  Mn  Mn8  1  0.49499619  0.32726160  0.24796637  1
  Mn  Mn9  1  0.49662663  0.64198880  0.07532422  1
  Mn  Mn10  1  0.50486351  0.67178161  0.41574060  1
  Mn  Mn11  1  0.50500381  0.67273840  0.75203363  1
  O  O12  1  0.29555568  0.60160759  0.97487216  1
  O  O13  1  0.70444432  0.39839241  0.02512784  1
  F  F14  1  0.23234069  0.09939347  0.30470506  1
  F  F15  1  0.22462510  0.10932330  0.64392780  1
  F  F16  1  0.22376502  0.10940755  0.97107218  1
  F  F17  1  0.24615094  0.87047193  0.13135410  1
  F  F18  1  0.23174908  0.89687856  0.47512236  1
  F  F19  1  0.21661874  0.88970675  0.80858995  1
  F  F20  1  0.24892770  0.38516455  0.14378227  1
  F  F21  1  0.26770878  0.60751764  0.30580919  1
  F  F22  1  0.27120479  0.39615541  0.47283800  1
  F  F23  1  0.26932279  0.60624984  0.64369482  1
  F  F24  1  0.29112656  0.38517406  0.81657358  1
  F  F25  1  0.70887344  0.61482594  0.18342642  1
  F  F26  1  0.73067721  0.39375016  0.35630518  1
  F  F27  1  0.72879521  0.60384459  0.52716200  1
  F  F28  1  0.75107230  0.61483545  0.85621773  1
  F  F29  1  0.73229122  0.39248236  0.69419081  1
  F  F30  1  0.78338126  0.11029325  0.19141005  1
  F  F31  1  0.76825092  0.10312144  0.52487764  1
  F  F32  1  0.77537490  0.89067670  0.35607220  1
  F  F33  1  0.77623498  0.89059245  0.02892782  1
  F  F34  1  0.75384906  0.12952807  0.86864590  1
  F  F35  1  0.76765931  0.90060653  0.69529494  1
