# generated using pymatgen
data_Mn2V3Cu(PO4)6
_symmetry_space_group_name_H-M   'P 1'
_cell_length_a   8.60926358
_cell_length_b   8.64438529
_cell_length_c   8.64438532
_cell_angle_alpha   59.99999963
_cell_angle_beta   59.86496159
_cell_angle_gamma   59.86495729
_symmetry_Int_Tables_number   1
_chemical_formula_structural   Mn2V3Cu(PO4)6
_chemical_formula_sum   'Mn2 V3 Cu1 P6 O24'
_cell_volume   453.97272520
_cell_formula_units_Z   1
loop_
 _symmetry_equiv_pos_site_id
 _symmetry_equiv_pos_as_xyz
  1  'x, y, z'
loop_
 _atom_site_type_symbol
 _atom_site_label
 _atom_site_symmetry_multiplicity
 _atom_site_fract_x
 _atom_site_fract_y
 _atom_site_fract_z
 _atom_site_occupancy
  Mn  Mn0  1  0.98749896  0.00416668  0.00416668  1
  Mn  Mn1  1  0.49802986  0.50065671  0.50065671  1
  V  V2  1  0.06516935  0.64494355  0.64494355  1
  V  V3  1  0.42917959  0.85693980  0.85693980  1
  V  V4  1  0.93612974  0.35462342  0.35462342  1
  Cu  Cu5  1  0.56300738  0.14566421  0.14566421  1
  P  P6  1  0.25312211  0.24834923  0.54154701  1
  P  P7  1  0.25312211  0.95698065  0.24834923  1
  P  P8  1  0.25312211  0.54154701  0.95698065  1
  P  P9  1  0.75068047  0.45920764  0.04150791  1
  P  P10  1  0.75068047  0.04150791  0.74860398  1
  P  P11  1  0.75068047  0.74860398  0.45920764  1
  O  O12  1  0.06894847  0.12134765  0.30464017  1
  O  O13  1  0.06894847  0.50506371  0.12134765  1
  O  O14  1  0.06894847  0.30464017  0.50506371  1
  O  O15  1  0.23571307  0.08504721  0.73847318  1
  O  O16  1  0.43553049  0.19697043  0.38730098  1
  O  O17  1  0.25272351  0.41566304  0.56847505  1
  O  O18  1  0.23571307  0.94076654  0.08504721  1
  O  O19  1  0.25272351  0.76313740  0.41566304  1
  O  O20  1  0.56807098  0.62214274  0.00414458  1
  O  O21  1  0.25272351  0.56847505  0.76313740  1
  O  O22  1  0.77255324  0.26863876  0.05109533  1
  O  O23  1  0.56807098  0.00414458  0.80564169  1
  O  O24  1  0.43553049  0.98019710  0.19697043  1
  O  O25  1  0.23571307  0.73847318  0.94076654  1
  O  O26  1  0.73884223  0.44692774  0.23375652  1
  O  O27  1  0.43553049  0.38730098  0.98019710  1
  O  O28  1  0.73884223  0.23375652  0.58047351  1
  O  O29  1  0.77255324  0.05109533  0.90771267  1
  O  O30  1  0.73884223  0.58047351  0.44692774  1
  O  O31  1  0.56807098  0.80564169  0.62214274  1
  O  O32  1  0.77255324  0.90771267  0.26863876  1
  O  O33  1  0.93081081  0.68119986  0.50577238  1
  O  O34  1  0.93081081  0.50577238  0.88221695  1
  O  O35  1  0.93081081  0.88221695  0.68119986  1
