# generated using pymatgen
data_MnSb3(PO4)6
_symmetry_space_group_name_H-M   'P 1'
_cell_length_a   8.89878393
_cell_length_b   8.89878394
_cell_length_c   8.89878396
_cell_angle_alpha   58.02455037
_cell_angle_beta   58.02454890
_cell_angle_gamma   58.02455028
_symmetry_Int_Tables_number   1
_chemical_formula_structural   MnSb3(PO4)6
_chemical_formula_sum   'Mn1 Sb3 P6 O24'
_cell_volume   475.70751767
_cell_formula_units_Z   1
loop_
 _symmetry_equiv_pos_site_id
 _symmetry_equiv_pos_as_xyz
  1  'x, y, z'
loop_
 _atom_site_type_symbol
 _atom_site_label
 _atom_site_symmetry_multiplicity
 _atom_site_fract_x
 _atom_site_fract_y
 _atom_site_fract_z
 _atom_site_occupancy
  Mn  Mn0  1  0.85675934  0.85675934  0.85675934  1
  Sb  Sb1  1  0.14327494  0.14327494  0.14327494  1
  Sb  Sb2  1  0.35649491  0.35649491  0.35649491  1
  Sb  Sb3  1  0.64351780  0.64351780  0.64351780  1
  P  P4  1  0.03715751  0.75118945  0.46609033  1
  P  P5  1  0.46609033  0.03715751  0.75118945  1
  P  P6  1  0.75118945  0.46609033  0.03715751  1
  P  P7  1  0.24613130  0.54230933  0.96108363  1
  P  P8  1  0.54230933  0.96108363  0.24613130  1
  P  P9  1  0.96108363  0.24613130  0.54230933  1
  O  O10  1  0.13294716  0.27727672  0.51235587  1
  O  O11  1  0.27727672  0.51235587  0.13294716  1
  O  O12  1  0.05957052  0.92402747  0.27957565  1
  O  O13  1  0.51235587  0.13294716  0.27727672  1
  O  O14  1  0.21867699  0.57604119  0.43908045  1
  O  O15  1  0.01254947  0.77567374  0.63295760  1
  O  O16  1  0.27957565  0.05957052  0.92402747  1
  O  O17  1  0.43908045  0.21867699  0.57604119  1
  O  O18  1  0.57604119  0.43908045  0.21867699  1
  O  O19  1  0.22838844  0.36402950  0.98616072  1
  O  O20  1  0.07709569  0.71692934  0.94106071  1
  O  O21  1  0.36402950  0.98616072  0.22838844  1
  O  O22  1  0.63295760  0.01254947  0.77567374  1
  O  O23  1  0.92402747  0.27957565  0.05957052  1
  O  O24  1  0.77567374  0.63295760  0.01254947  1
  O  O25  1  0.42720398  0.55601280  0.78220335  1
  O  O26  1  0.55601280  0.78220335  0.42720398  1
  O  O27  1  0.71692934  0.94106071  0.07709569  1
  O  O28  1  0.98616072  0.22838844  0.36402950  1
  O  O29  1  0.78220335  0.42720398  0.55601280  1
  O  O30  1  0.48392829  0.86743079  0.72481402  1
  O  O31  1  0.94106071  0.07709569  0.71692934  1
  O  O32  1  0.72481402  0.48392829  0.86743079  1
  O  O33  1  0.86743079  0.72481402  0.48392829  1
