# generated using pymatgen
data_CoPH21N5O7
_symmetry_space_group_name_H-M   'P 1'
_cell_length_a   8.65929939
_cell_length_b   14.64506236
_cell_length_c   9.16294946
_cell_angle_alpha   90.00000000
_cell_angle_beta   111.47518724
_cell_angle_gamma   90.00000000
_symmetry_Int_Tables_number   1
_chemical_formula_structural   CoPH21N5O7
_chemical_formula_sum   'Co4 P4 H84 N20 O28'
_cell_volume   1081.33737163
_cell_formula_units_Z   4
loop_
 _symmetry_equiv_pos_site_id
 _symmetry_equiv_pos_as_xyz
  1  'x, y, z'
loop_
 _atom_site_type_symbol
 _atom_site_label
 _atom_site_symmetry_multiplicity
 _atom_site_fract_x
 _atom_site_fract_y
 _atom_site_fract_z
 _atom_site_occupancy
  Co  Co0  1  0.08118846  0.15796497  0.77482657  1
  Co  Co1  1  0.41881154  0.65796497  0.72517343  1
  Co  Co2  1  0.58118846  0.34203503  0.27482657  1
  Co  Co3  1  0.91881154  0.84203503  0.22517343  1
  P  P4  1  0.13399285  0.37366391  0.77233043  1
  P  P5  1  0.36600715  0.87366391  0.72766957  1
  P  P6  1  0.63399285  0.12633609  0.27233043  1
  P  P7  1  0.86600715  0.62633609  0.22766957  1
  H  H8  1  0.98573152  0.08194202  0.96904212  1
  H  H9  1  0.07299252  0.70096981  0.89614126  1
  H  H10  1  0.15390625  0.53678346  0.97211220  1
  H  H11  1  0.13575611  0.79277046  0.83937769  1
  H  H12  1  0.08720473  0.99234423  0.69199979  1
  H  H13  1  0.04162667  0.82762092  0.51906950  1
  H  H14  1  0.11998239  0.66274943  0.69856313  1
  H  H15  1  0.10582566  0.25144604  0.55731130  1
  H  H16  1  0.18039826  0.55426875  0.71238254  1
  H  H17  1  0.09410652  0.95827940  0.41367844  1
  H  H18  1  0.12781563  0.60981813  0.54198966  1
  H  H19  1  0.15652312  0.14509494  0.52792816  1
  H  H20  1  0.34347688  0.64509494  0.97207184  1
  H  H21  1  0.06148188  0.99349562  0.23362858  1
  H  H22  1  0.37218437  0.10981813  0.95801034  1
  H  H23  1  0.31960174  0.05426875  0.78761746  1
  H  H24  1  0.39417434  0.75144604  0.94268870  1
  H  H25  1  0.20762464  0.41758061  0.47505712  1
  H  H26  1  0.05175406  0.18326611  0.04026098  1
  H  H27  1  0.15574997  0.49201469  0.33808015  1
  H  H28  1  0.14206066  0.73164648  0.25313571  1
  H  H29  1  0.21721590  0.80176014  0.40399863  1
  H  H30  1  0.38001761  0.16274943  0.80143687  1
  H  H31  1  0.10233730  0.59145348  0.10166331  1
  H  H32  1  0.41279527  0.49234423  0.80800021  1
  H  H33  1  0.36424389  0.29277046  0.66062231  1
  H  H34  1  0.21102271  0.83688895  0.22882363  1
  H  H35  1  0.54162667  0.67237908  0.01906950  1
  H  H36  1  0.34609375  0.03678346  0.52788780  1
  H  H37  1  0.31003532  0.60226230  0.44549464  1
  H  H38  1  0.18996468  0.10226230  0.05450536  1
  H  H39  1  0.42700748  0.20096981  0.60385874  1
  H  H40  1  0.28897729  0.33688895  0.27117637  1
  H  H41  1  0.59410652  0.54172060  0.91367844  1
  H  H42  1  0.39766270  0.09145348  0.39833669  1
  H  H43  1  0.28278410  0.30176014  0.09600137  1
  H  H44  1  0.35793934  0.23164648  0.24686429  1
  H  H45  1  0.56148188  0.50650438  0.73362858  1
  H  H46  1  0.34425003  0.99201469  0.16191985  1
  H  H47  1  0.44824594  0.68326611  0.45973902  1
  H  H48  1  0.51426848  0.58194202  0.53095788  1
  H  H49  1  0.29237536  0.91758061  0.02494288  1
  H  H50  1  0.70762464  0.08241939  0.97505712  1
  H  H51  1  0.48573152  0.41805798  0.46904212  1
  H  H52  1  0.55175406  0.31673389  0.54026098  1
  H  H53  1  0.65574997  0.00798531  0.83808015  1
  H  H54  1  0.43851812  0.49349562  0.26637142  1
  H  H55  1  0.64206066  0.76835352  0.75313571  1
  H  H56  1  0.71721590  0.69823986  0.90399863  1
  H  H57  1  0.60233730  0.90854652  0.60166331  1
  H  H58  1  0.40589348  0.45827940  0.08632156  1
  H  H59  1  0.71102271  0.66311105  0.72882363  1
  H  H60  1  0.57299252  0.79903019  0.39614126  1
  H  H61  1  0.81003532  0.89773770  0.94549464  1
  H  H62  1  0.68996468  0.39773770  0.55450536  1
  H  H63  1  0.65390625  0.96321654  0.47211220  1
  H  H64  1  0.45837333  0.32762092  0.98093050  1
  H  H65  1  0.78897729  0.16311105  0.77117637  1
  H  H66  1  0.63575611  0.70722954  0.33937769  1
  H  H67  1  0.58720473  0.50765577  0.19199979  1
  H  H68  1  0.89766270  0.40854652  0.89833669  1
  H  H69  1  0.61998239  0.83725057  0.19856313  1
  H  H70  1  0.78278410  0.19823986  0.59600137  1
  H  H71  1  0.85793934  0.26835352  0.74686429  1
  H  H72  1  0.84425003  0.50798531  0.66191985  1
  H  H73  1  0.94824594  0.81673389  0.95973902  1
  H  H74  1  0.79237536  0.58241939  0.52494288  1
  H  H75  1  0.60582566  0.24855396  0.05731130  1
  H  H76  1  0.68039826  0.94573125  0.21238254  1
  H  H77  1  0.62781563  0.89018187  0.04198966  1
  H  H78  1  0.93851812  0.00650438  0.76637142  1
  H  H79  1  0.65652312  0.35490506  0.02792816  1
  H  H80  1  0.84347688  0.85490506  0.47207184  1
  H  H81  1  0.87218437  0.39018187  0.45801034  1
  H  H82  1  0.90589348  0.04172060  0.58632156  1
  H  H83  1  0.81960174  0.44573125  0.28761746  1
  H  H84  1  0.89417434  0.74855396  0.44268870  1
  H  H85  1  0.88001761  0.33725057  0.30143687  1
  H  H86  1  0.95837333  0.17237908  0.48093050  1
  H  H87  1  0.91279527  0.00765577  0.30800021  1
  H  H88  1  0.86424389  0.20722954  0.16062231  1
  H  H89  1  0.84609375  0.46321654  0.02788780  1
  H  H90  1  0.92700748  0.29903019  0.10385874  1
  H  H91  1  0.01426848  0.91805798  0.03095788  1
  N  N92  1  0.07842705  0.12853365  0.98228964  1
  N  N93  1  0.07538086  0.18319348  0.56168005  1
  N  N94  1  0.00451912  0.96431330  0.30180605  1
  N  N95  1  0.18675907  0.61599050  0.66148304  1
  N  N96  1  0.31324093  0.11599050  0.83851696  1
  N  N97  1  0.14887061  0.79921600  0.28507067  1
  N  N98  1  0.42461914  0.68319348  0.93831995  1
  N  N99  1  0.50451912  0.53568670  0.80180605  1
  N  N100  1  0.42157295  0.62853365  0.51771036  1
  N  N101  1  0.35112939  0.29921600  0.21492933  1
  N  N102  1  0.64887061  0.70078400  0.78507067  1
  N  N103  1  0.57842705  0.37146635  0.48228964  1
  N  N104  1  0.49548088  0.46431330  0.19819395  1
  N  N105  1  0.57538086  0.31680652  0.06168005  1
  N  N106  1  0.85112939  0.20078400  0.71492933  1
  N  N107  1  0.68675907  0.88400950  0.16148304  1
  N  N108  1  0.81324093  0.38400950  0.33851696  1
  N  N109  1  0.99548088  0.03568670  0.69819395  1
  N  N110  1  0.92461914  0.81680652  0.43831995  1
  N  N111  1  0.92157295  0.87146635  0.01771036  1
  O  O112  1  0.03702924  0.75300901  0.82220295  1
  O  O113  1  0.16892013  0.27920727  0.86156714  1
  O  O114  1  0.24222744  0.44662769  0.88787281  1
  O  O115  1  0.18687579  0.36477748  0.62771422  1
  O  O116  1  0.05348968  0.60134537  0.27905382  1
  O  O117  1  0.31312421  0.86477748  0.87228578  1
  O  O118  1  0.25777256  0.94662769  0.61212719  1
  O  O119  1  0.33107987  0.77920727  0.63843286  1
  O  O120  1  0.23702476  0.44268928  0.38665436  1
  O  O121  1  0.14260422  0.59809845  0.01342469  1
  O  O122  1  0.35739578  0.09809845  0.48657531  1
  O  O123  1  0.46297076  0.25300901  0.67779705  1
  O  O124  1  0.26297524  0.94268928  0.11334564  1
  O  O125  1  0.55348968  0.89865463  0.77905382  1
  O  O126  1  0.44651032  0.10134537  0.22094618  1
  O  O127  1  0.73702476  0.05731072  0.88665436  1
  O  O128  1  0.53702924  0.74699099  0.32220295  1
  O  O129  1  0.64260422  0.90190155  0.51342469  1
  O  O130  1  0.85739578  0.40190155  0.98657531  1
  O  O131  1  0.76297524  0.55731072  0.61334564  1
  O  O132  1  0.66892013  0.22079273  0.36156714  1
  O  O133  1  0.74222744  0.05337231  0.38787281  1
  O  O134  1  0.68687579  0.13522252  0.12771422  1
  O  O135  1  0.94651032  0.39865463  0.72094618  1
  O  O136  1  0.81312421  0.63522252  0.37228578  1
  O  O137  1  0.75777256  0.55337231  0.11212719  1
  O  O138  1  0.83107987  0.72079273  0.13843286  1
  O  O139  1  0.96297076  0.24699099  0.17779705  1
