# generated using pymatgen
data_Li4Ti3Nb2Fe3O16
_symmetry_space_group_name_H-M   'P 1'
_cell_length_a   6.08892956
_cell_length_b   6.00724506
_cell_length_c   9.89465007
_cell_angle_alpha   90.03223397
_cell_angle_beta   90.61749918
_cell_angle_gamma   119.54592676
_symmetry_Int_Tables_number   1
_chemical_formula_structural   Li4Ti3Nb2Fe3O16
_chemical_formula_sum   'Li4 Ti3 Nb2 Fe3 O16'
_cell_volume   314.83371949
_cell_formula_units_Z   1
loop_
 _symmetry_equiv_pos_site_id
 _symmetry_equiv_pos_as_xyz
  1  'x, y, z'
loop_
 _atom_site_type_symbol
 _atom_site_label
 _atom_site_symmetry_multiplicity
 _atom_site_fract_x
 _atom_site_fract_y
 _atom_site_fract_z
 _atom_site_occupancy
  Li  Li0  1  0.32793219  0.66405180  0.90289367  1
  Li  Li1  1  0.00227594  0.00097545  0.98690732  1
  Li  Li2  1  0.00466057  0.00244938  0.49350924  1
  Li  Li3  1  0.66441960  0.33211159  0.40674928  1
  Ti  Ti4  1  0.35420274  0.17720552  0.73250076  1
  Ti  Ti5  1  0.18908594  0.84346082  0.22003280  1
  Ti  Ti6  1  0.18976156  0.34596485  0.21968774  1
  Nb  Nb7  1  0.33360613  0.66668645  0.49982582  1
  Nb  Nb8  1  0.70229220  0.35092248  0.98730173  1
  Fe  Fe9  1  0.65955392  0.82960105  0.21003618  1
  Fe  Fe10  1  0.83023566  0.66254694  0.70931795  1
  Fe  Fe11  1  0.83013974  0.16764025  0.70942288  1
  O  O12  1  0.18224087  0.83943400  0.58937331  1
  O  O13  1  0.03965380  0.52002550  0.33341552  1
  O  O14  1  0.29781671  0.64894134  0.10686232  1
  O  O15  1  0.01683598  0.00863864  0.30459188  1
  O  O16  1  0.01494565  0.00753962  0.79918400  1
  O  O17  1  0.18230193  0.34294764  0.58944461  1
  O  O18  1  0.46386300  0.96126464  0.33858325  1
  O  O19  1  0.46377343  0.50238650  0.33873996  1
  O  O20  1  0.32666194  0.16335766  0.10398167  1
  O  O21  1  0.66227831  0.83108608  0.57657584  1
  O  O22  1  0.49574002  0.46422429  0.84864416  1
  O  O23  1  0.49566747  0.03162017  0.84873394  1
  O  O24  1  0.63820849  0.31903821  0.61103763  1
  O  O25  1  0.83522200  0.66607098  0.09183671  1
  O  O26  1  0.96121924  0.48072502  0.85689441  1
  O  O27  1  0.83540595  0.16938214  0.09175541  1
