# generated using pymatgen
data_Li5InO4
_symmetry_space_group_name_H-M   'P 1'
_cell_length_a   9.42133913
_cell_length_b   9.50534900
_cell_length_c   9.61009363
_cell_angle_alpha   90.00000000
_cell_angle_beta   90.00000000
_cell_angle_gamma   90.00000000
_symmetry_Int_Tables_number   1
_chemical_formula_structural   Li5InO4
_chemical_formula_sum   'Li40 In8 O32'
_cell_volume   860.61383421
_cell_formula_units_Z   8
loop_
 _symmetry_equiv_pos_site_id
 _symmetry_equiv_pos_as_xyz
  1  'x, y, z'
loop_
 _atom_site_type_symbol
 _atom_site_label
 _atom_site_symmetry_multiplicity
 _atom_site_fract_x
 _atom_site_fract_y
 _atom_site_fract_z
 _atom_site_occupancy
  Li  Li0  1  0.11166460  0.60014952  0.13892096  1
  Li  Li1  1  0.11166460  0.89985048  0.63892096  1
  Li  Li2  1  0.12484620  0.10824532  0.83575839  1
  Li  Li3  1  0.12484620  0.39175468  0.33575839  1
  Li  Li4  1  0.12429983  0.86042881  0.38456623  1
  Li  Li5  1  0.12429983  0.63957119  0.88456623  1
  Li  Li6  1  0.14648957  0.86590760  0.11812096  1
  Li  Li7  1  0.14648957  0.63409240  0.61812096  1
  Li  Li8  1  0.15671773  0.11883816  0.39817722  1
  Li  Li9  1  0.15671773  0.38116184  0.89817722  1
  Li  Li10  1  0.34328227  0.88116184  0.89817722  1
  Li  Li11  1  0.34328227  0.61883816  0.39817722  1
  Li  Li12  1  0.35351043  0.36590760  0.11812096  1
  Li  Li13  1  0.35351043  0.13409240  0.61812096  1
  Li  Li14  1  0.37570017  0.36042881  0.38456623  1
  Li  Li15  1  0.37570017  0.13957119  0.88456623  1
  Li  Li16  1  0.37515380  0.89175468  0.33575839  1
  Li  Li17  1  0.37515380  0.60824532  0.83575839  1
  Li  Li18  1  0.38833540  0.10014952  0.13892096  1
  Li  Li19  1  0.38833540  0.39985048  0.63892096  1
  Li  Li20  1  0.61166460  0.60014952  0.36107904  1
  Li  Li21  1  0.61166460  0.89985048  0.86107904  1
  Li  Li22  1  0.62484620  0.10824532  0.66424161  1
  Li  Li23  1  0.62484620  0.39175468  0.16424161  1
  Li  Li24  1  0.62429983  0.63957119  0.61543377  1
  Li  Li25  1  0.62429983  0.86042881  0.11543377  1
  Li  Li26  1  0.64648957  0.63409240  0.88187904  1
  Li  Li27  1  0.64648957  0.86590760  0.38187904  1
  Li  Li28  1  0.65671773  0.11883816  0.10182278  1
  Li  Li29  1  0.65671773  0.38116184  0.60182278  1
  Li  Li30  1  0.84328227  0.61883816  0.10182278  1
  Li  Li31  1  0.84328227  0.88116184  0.60182278  1
  Li  Li32  1  0.85351043  0.36590760  0.38187904  1
  Li  Li33  1  0.85351043  0.13409240  0.88187904  1
  Li  Li34  1  0.87570017  0.13957119  0.61543377  1
  Li  Li35  1  0.87570017  0.36042881  0.11543377  1
  Li  Li36  1  0.87515380  0.60824532  0.66424161  1
  Li  Li37  1  0.87515380  0.89175468  0.16424161  1
  Li  Li38  1  0.88833540  0.10014952  0.36107904  1
  Li  Li39  1  0.88833540  0.39985048  0.86107904  1
  In  In40  1  0.10161763  0.14874987  0.12129728  1
  In  In41  1  0.10161763  0.35125013  0.62129728  1
  In  In42  1  0.39838237  0.64874987  0.12129728  1
  In  In43  1  0.39838237  0.85125013  0.62129728  1
  In  In44  1  0.60161763  0.14874987  0.37870272  1
  In  In45  1  0.60161763  0.35125013  0.87870272  1
  In  In46  1  0.89838237  0.64874987  0.37870272  1
  In  In47  1  0.89838237  0.85125013  0.87870272  1
  O  O48  1  0.99555917  0.23966706  0.47132537  1
  O  O49  1  0.99555917  0.26033294  0.97132537  1
  O  O50  1  0.02651726  0.99358191  0.25627075  1
  O  O51  1  0.02651726  0.50641809  0.75627075  1
  O  O52  1  0.24066554  0.02306660  0.99992222  1
  O  O53  1  0.24066554  0.47693340  0.49992222  1
  O  O54  1  0.25068554  0.24731768  0.25215583  1
  O  O55  1  0.25068554  0.25268232  0.75215583  1
  O  O56  1  0.24931446  0.74731768  0.25215583  1
  O  O57  1  0.24931446  0.75268232  0.75215583  1
  O  O58  1  0.25933446  0.52306660  0.99992222  1
  O  O59  1  0.25933446  0.97693340  0.49992222  1
  O  O60  1  0.47348274  0.49358191  0.25627075  1
  O  O61  1  0.47348274  0.00641809  0.75627075  1
  O  O62  1  0.50444083  0.73966706  0.47132537  1
  O  O63  1  0.50444083  0.76033294  0.97132537  1
  O  O64  1  0.49555917  0.23966706  0.02867463  1
  O  O65  1  0.49555917  0.26033294  0.52867463  1
  O  O66  1  0.52651726  0.99358191  0.24372925  1
  O  O67  1  0.52651726  0.50641809  0.74372925  1
  O  O68  1  0.74066554  0.02306660  0.50007778  1
  O  O69  1  0.74066554  0.47693340  0.00007778  1
  O  O70  1  0.75068554  0.24731768  0.24784417  1
  O  O71  1  0.75068554  0.25268232  0.74784417  1
  O  O72  1  0.74931446  0.74731768  0.24784417  1
  O  O73  1  0.74931446  0.75268232  0.74784417  1
  O  O74  1  0.75933446  0.52306660  0.50007778  1
  O  O75  1  0.75933446  0.97693340  0.00007778  1
  O  O76  1  0.97348274  0.49358191  0.24372925  1
  O  O77  1  0.97348274  0.00641809  0.74372925  1
  O  O78  1  0.00444083  0.73966706  0.02867463  1
  O  O79  1  0.00444083  0.76033294  0.52867463  1
