# generated using pymatgen
data_Li3MnV(PO4)3
_symmetry_space_group_name_H-M   'P 1'
_cell_length_a   9.03844992
_cell_length_b   8.54316899
_cell_length_c   8.54316846
_cell_angle_alpha   120.00000346
_cell_angle_beta   90.00000075
_cell_angle_gamma   61.79670799
_symmetry_Int_Tables_number   1
_chemical_formula_structural   Li3MnV(PO4)3
_chemical_formula_sum   'Li6 Mn2 V2 P6 O24'
_cell_volume   478.73159320
_cell_formula_units_Z   2
loop_
 _symmetry_equiv_pos_site_id
 _symmetry_equiv_pos_as_xyz
  1  'x, y, z'
loop_
 _atom_site_type_symbol
 _atom_site_label
 _atom_site_symmetry_multiplicity
 _atom_site_fract_x
 _atom_site_fract_y
 _atom_site_fract_z
 _atom_site_occupancy
  Li  Li0  1  0.14738547  0.18731869  0.91591642  1
  Li  Li1  1  0.14738547  0.58121226  0.66529584  1
  Li  Li2  1  0.14738547  0.93669811  0.27140227  1
  Li  Li3  1  0.85261453  0.06330189  0.72859773  1
  Li  Li4  1  0.85261453  0.41878774  0.33470416  1
  Li  Li5  1  0.85261453  0.81268131  0.08408358  1
  Mn  Mn6  1  0.04950567  0.30032922  0.65016511  1
  Mn  Mn7  1  0.95049433  0.69967078  0.34983489  1
  V  V8  1  0.55289616  0.29806923  0.14903461  1
  V  V9  1  0.44710384  0.70193077  0.85096539  1
  P  P10  1  0.25158959  0.20515737  0.24171423  1
  P  P11  1  0.25158959  0.50669618  0.96344413  1
  P  P12  1  0.25158959  0.78496628  0.54325205  1
  P  P13  1  0.74841041  0.21503372  0.45674795  1
  P  P14  1  0.74841041  0.49330382  0.03655587  1
  P  P15  1  0.74841041  0.79484263  0.75828577  1
  O  O16  1  0.09600085  0.34787281  0.19866628  1
  O  O17  1  0.20758375  0.29265266  0.45288458  1
  O  O18  1  0.20758375  0.33953167  0.83976808  1
  O  O19  1  0.09600085  0.70533187  0.14920653  1
  O  O20  1  0.09600085  0.75479262  0.55612534  1
  O  O21  1  0.42111048  0.19080477  0.17848877  1
  O  O22  1  0.28290266  0.60049954  0.85884546  1
  O  O23  1  0.42111048  0.40040076  0.01231700  1
  O  O24  1  0.20758375  0.95264818  0.49976359  1
  O  O25  1  0.28290266  0.85825188  0.74165408  1
  O  O26  1  0.42111048  0.56657252  0.38808376  1
  O  O27  1  0.28290266  0.97544326  0.11659780  1
  O  O28  1  0.71709734  0.02455674  0.88340220  1
  O  O29  1  0.57888952  0.43342748  0.61191624  1
  O  O30  1  0.71709734  0.14174812  0.25834592  1
  O  O31  1  0.79241625  0.04735182  0.50023641  1
  O  O32  1  0.57888952  0.59959924  0.98768300  1
  O  O33  1  0.71709734  0.39950046  0.14115454  1
  O  O34  1  0.57888952  0.80919523  0.82151123  1
  O  O35  1  0.90399915  0.24520738  0.44387466  1
  O  O36  1  0.90399915  0.29466813  0.85079347  1
  O  O37  1  0.79241625  0.66046833  0.16023192  1
  O  O38  1  0.79241625  0.70734734  0.54711542  1
  O  O39  1  0.90399915  0.65212719  0.80133372  1
