# generated using pymatgen
data_Li3FeF6
_symmetry_space_group_name_H-M   'P 1'
_cell_length_a   6.04126343
_cell_length_b   6.04126312
_cell_length_c   6.04126355
_cell_angle_alpha   91.23840865
_cell_angle_beta   91.23840065
_cell_angle_gamma   91.23839945
_symmetry_Int_Tables_number   1
_chemical_formula_structural   Li3FeF6
_chemical_formula_sum   'Li6 Fe2 F12'
_cell_volume   220.33039569
_cell_formula_units_Z   2
loop_
 _symmetry_equiv_pos_site_id
 _symmetry_equiv_pos_as_xyz
  1  'x, y, z'
loop_
 _atom_site_type_symbol
 _atom_site_label
 _atom_site_symmetry_multiplicity
 _atom_site_fract_x
 _atom_site_fract_y
 _atom_site_fract_z
 _atom_site_occupancy
  Li  Li0  1  0.06137001  0.55320160  0.24852205  1
  Li  Li1  1  0.44679840  0.75147795  0.93862999  1
  Li  Li2  1  0.75147795  0.93862999  0.44679840  1
  Li  Li3  1  0.24852205  0.06137001  0.55320160  1
  Li  Li4  1  0.55320160  0.24852205  0.06137001  1
  Li  Li5  1  0.93862999  0.44679840  0.75147795  1
  Fe  Fe6  1  0.00000000  0.00000000  0.00000000  1
  Fe  Fe7  1  0.50000000  0.50000000  0.50000000  1
  F  F8  1  0.07860300  0.92753670  0.30495159  1
  F  F9  1  0.07246330  0.69504841  0.92139700  1
  F  F10  1  0.45141436  0.80515792  0.59861856  1
  F  F11  1  0.69504841  0.92139700  0.07246330  1
  F  F12  1  0.19484208  0.40138144  0.54858564  1
  F  F13  1  0.40138144  0.54858564  0.19484208  1
  F  F14  1  0.59861856  0.45141436  0.80515792  1
  F  F15  1  0.80515792  0.59861856  0.45141436  1
  F  F16  1  0.30495159  0.07860300  0.92753670  1
  F  F17  1  0.54858564  0.19484208  0.40138144  1
  F  F18  1  0.92753670  0.30495159  0.07860300  1
  F  F19  1  0.92139700  0.07246330  0.69504841  1
