# generated using pymatgen
data_V4(OF3)3
_symmetry_space_group_name_H-M   'P 1'
_cell_length_a   5.23140805
_cell_length_b   7.57439764
_cell_length_c   5.41658202
_cell_angle_alpha   92.52075913
_cell_angle_beta   90.32683427
_cell_angle_gamma   90.00114370
_symmetry_Int_Tables_number   1
_chemical_formula_structural   V4(OF3)3
_chemical_formula_sum   'V4 O3 F9'
_cell_volume   214.41960530
_cell_formula_units_Z   1
loop_
 _symmetry_equiv_pos_site_id
 _symmetry_equiv_pos_as_xyz
  1  'x, y, z'
loop_
 _atom_site_type_symbol
 _atom_site_label
 _atom_site_symmetry_multiplicity
 _atom_site_fract_x
 _atom_site_fract_y
 _atom_site_fract_z
 _atom_site_occupancy
  V  V0  1  0.48087486  0.49471866  0.47770124  1
  V  V1  1  0.52568721  0.99390717  0.46691942  1
  V  V2  1  0.99776227  0.50031361  0.00337867  1
  V  V3  1  0.03490833  0.00659102  0.97479242  1
  O  O4  1  0.70873313  0.96050117  0.22001097  1
  O  O5  1  0.29871253  0.46054889  0.22212783  1
  O  O6  1  0.27971445  0.04310567  0.78941585  1
  F  F7  1  0.89882842  0.24918154  0.00407290  1
  F  F8  1  0.79712978  0.54965625  0.30519576  1
  F  F9  1  0.78104443  0.94264654  0.71972333  1
  F  F10  1  0.69439588  0.54317603  0.78672007  1
  F  F11  1  0.59880463  0.24963160  0.51343942  1
  F  F12  1  0.40209706  0.75082440  0.50690790  1
  F  F13  1  0.20524123  0.05379803  0.29619059  1
  F  F14  1  0.20243600  0.44919032  0.70786103  1
  F  F15  1  0.09362881  0.75220909  0.00554259  1
