# generated using pymatgen
data_Fe3Ni2Sb(PO4)6
_symmetry_space_group_name_H-M   'P 1'
_cell_length_a   8.50535792
_cell_length_b   8.50535770
_cell_length_c   8.50535821
_cell_angle_alpha   61.00848648
_cell_angle_beta   61.00848779
_cell_angle_gamma   61.00848687
_symmetry_Int_Tables_number   1
_chemical_formula_structural   Fe3Ni2Sb(PO4)6
_chemical_formula_sum   'Fe3 Ni2 Sb1 P6 O24'
_cell_volume   444.95624102
_cell_formula_units_Z   1
loop_
 _symmetry_equiv_pos_site_id
 _symmetry_equiv_pos_as_xyz
  1  'x, y, z'
loop_
 _atom_site_type_symbol
 _atom_site_label
 _atom_site_symmetry_multiplicity
 _atom_site_fract_x
 _atom_site_fract_y
 _atom_site_fract_z
 _atom_site_occupancy
  Fe  Fe0  1  0.14532427  0.14532427  0.14532427  1
  Fe  Fe1  1  0.35534996  0.35534996  0.35534996  1
  Fe  Fe2  1  0.64312748  0.64312748  0.64312748  1
  Ni  Ni3  1  0.00631087  0.00631087  0.00631087  1
  Ni  Ni4  1  0.49953354  0.49953354  0.49953354  1
  Sb  Sb5  1  0.85720938  0.85720938  0.85720938  1
  P  P6  1  0.04820666  0.74601497  0.45087850  1
  P  P7  1  0.45087850  0.04820666  0.74601497  1
  P  P8  1  0.74601497  0.45087850  0.04820666  1
  P  P9  1  0.25339293  0.54112914  0.95248002  1
  P  P10  1  0.54112914  0.95248002  0.25339293  1
  P  P11  1  0.95248002  0.25339293  0.54112914  1
  O  O12  1  0.11034658  0.31223733  0.50952639  1
  O  O13  1  0.31223733  0.50952639  0.11034658  1
  O  O14  1  0.05923015  0.90963957  0.25824167  1
  O  O15  1  0.50952639  0.11034658  0.31223733  1
  O  O16  1  0.01178234  0.81462651  0.61154287  1
  O  O17  1  0.24467082  0.59004690  0.44074144  1
  O  O18  1  0.25824167  0.05923015  0.90963957  1
  O  O19  1  0.44074144  0.24467082  0.59004690  1
  O  O20  1  0.17882711  0.39088079  0.99409463  1
  O  O21  1  0.59004690  0.44074144  0.24467082  1
  O  O22  1  0.08696106  0.74547188  0.93992069  1
  O  O23  1  0.39088079  0.99409463  0.17882711  1
  O  O24  1  0.61154287  0.01178234  0.81462651  1
  O  O25  1  0.90963957  0.25824167  0.05923015  1
  O  O26  1  0.40677369  0.56207354  0.75388198  1
  O  O27  1  0.81462651  0.61154287  0.01178234  1
  O  O28  1  0.56207354  0.75388198  0.40677369  1
  O  O29  1  0.74547188  0.93992069  0.08696106  1
  O  O30  1  0.75388198  0.40677369  0.56207354  1
  O  O31  1  0.99409463  0.17882711  0.39088079  1
  O  O32  1  0.49999354  0.88859182  0.68093896  1
  O  O33  1  0.93992069  0.08696106  0.74547188  1
  O  O34  1  0.68093896  0.49999354  0.88859182  1
  O  O35  1  0.88859182  0.68093896  0.49999354  1
