# generated using pymatgen
data_Li2CoP2O7
_symmetry_space_group_name_H-M   'P 1'
_cell_length_a   5.01727879
_cell_length_b   7.11100903
_cell_length_c   8.34862563
_cell_angle_alpha   90.00000000
_cell_angle_beta   90.00000000
_cell_angle_gamma   70.68915075
_symmetry_Int_Tables_number   1
_chemical_formula_structural   Li2CoP2O7
_chemical_formula_sum   'Li4 Co2 P4 O14'
_cell_volume   281.10337128
_cell_formula_units_Z   2
loop_
 _symmetry_equiv_pos_site_id
 _symmetry_equiv_pos_as_xyz
  1  'x, y, z'
loop_
 _atom_site_type_symbol
 _atom_site_label
 _atom_site_symmetry_multiplicity
 _atom_site_fract_x
 _atom_site_fract_y
 _atom_site_fract_z
 _atom_site_occupancy
  Li  Li0  1  0.16901631  0.34957056  0.14600766  1
  Li  Li1  1  0.65142464  0.07904781  0.32280608  1
  Li  Li2  1  0.34857736  0.92095519  0.82280708  1
  Li  Li3  1  0.83098369  0.65042944  0.64600766  1
  Co  Co4  1  0.20202803  0.27945165  0.50418519  1
  Co  Co5  1  0.79797197  0.72054835  0.00418519  1
  P  P6  1  0.38950165  0.48258291  0.81386625  1
  P  P7  1  0.21082577  0.91490809  0.20775019  1
  P  P8  1  0.78917423  0.08509191  0.70775019  1
  P  P9  1  0.61049835  0.51741709  0.31386625  1
  O  O10  1  0.07521341  0.11575125  0.68368637  1
  O  O11  1  0.17579310  0.10954594  0.29781200  1
  O  O12  1  0.20104871  0.51243241  0.96174386  1
  O  O13  1  0.22776050  0.49808648  0.65707396  1
  O  O14  1  0.43024873  0.37849930  0.31133912  1
  O  O15  1  0.62273964  0.09202760  0.55269524  1
  O  O16  1  0.60129168  0.25443726  0.83020806  1
  O  O17  1  0.39870832  0.74556274  0.33020806  1
  O  O18  1  0.37726036  0.90797240  0.05269524  1
  O  O19  1  0.56975127  0.62150070  0.81133912  1
  O  O20  1  0.77223950  0.50191352  0.15707396  1
  O  O21  1  0.79895129  0.48756759  0.46174386  1
  O  O22  1  0.82420690  0.89045406  0.79781200  1
  O  O23  1  0.92478659  0.88424875  0.18368637  1
