# generated using pymatgen
data_Li4Fe3Cu3(TeO8)2
_symmetry_space_group_name_H-M   'P 1'
_cell_length_a   6.01719525
_cell_length_b   5.91719352
_cell_length_c   9.86472545
_cell_angle_alpha   90.01826956
_cell_angle_beta   87.55297099
_cell_angle_gamma   119.53457123
_symmetry_Int_Tables_number   1
_chemical_formula_structural   Li4Fe3Cu3(TeO8)2
_chemical_formula_sum   'Li4 Fe3 Cu3 Te2 O16'
_cell_volume   305.22744612
_cell_formula_units_Z   1
loop_
 _symmetry_equiv_pos_site_id
 _symmetry_equiv_pos_as_xyz
  1  'x, y, z'
loop_
 _atom_site_type_symbol
 _atom_site_label
 _atom_site_symmetry_multiplicity
 _atom_site_fract_x
 _atom_site_fract_y
 _atom_site_fract_z
 _atom_site_occupancy
  Li  Li0  1  0.32660346  0.66321900  0.91544971  1
  Li  Li1  1  0.99770483  0.99927958  0.98384915  1
  Li  Li2  1  0.00535627  0.00254513  0.47925852  1
  Li  Li3  1  0.68303397  0.34163684  0.41336686  1
  Fe  Fe4  1  0.65885131  0.82950107  0.21444049  1
  Fe  Fe5  1  0.82274419  0.65789800  0.71294267  1
  Fe  Fe6  1  0.82273917  0.16480784  0.71291009  1
  Cu  Cu7  1  0.17247750  0.83251136  0.20952574  1
  Cu  Cu8  1  0.17247515  0.33996810  0.20946963  1
  Cu  Cu9  1  0.33805440  0.16883190  0.70802599  1
  Te  Te10  1  0.34207962  0.67110891  0.48300356  1
  Te  Te11  1  0.65542805  0.32753127  0.98332075  1
  O  O12  1  0.16346543  0.82414784  0.58660591  1
  O  O13  1  0.05841739  0.52981564  0.35003295  1
  O  O14  1  0.33261945  0.66675413  0.11857264  1
  O  O15  1  0.00477345  0.00200128  0.28908232  1
  O  O16  1  0.00118096  0.00076810  0.79379387  1
  O  O17  1  0.16296820  0.33935922  0.58643213  1
  O  O18  1  0.51514301  0.97703520  0.36154354  1
  O  O19  1  0.51431317  0.53769064  0.36146919  1
  O  O20  1  0.32013000  0.15957857  0.08751309  1
  O  O21  1  0.65098071  0.82536558  0.60022230  1
  O  O22  1  0.52172823  0.48790845  0.85585348  1
  O  O23  1  0.52228692  0.03322889  0.85596325  1
  O  O24  1  0.66873349  0.33421021  0.61295399  1
  O  O25  1  0.80438224  0.64604097  0.08715118  1
  O  O26  1  0.95656099  0.47853332  0.84775647  1
  O  O27  1  0.80476945  0.15902295  0.08732853  1
