# generated using pymatgen
data_Ti3CrFe2(PO4)6
_symmetry_space_group_name_H-M   'P 1'
_cell_length_a   8.54407137
_cell_length_b   8.54407159
_cell_length_c   8.54407142
_cell_angle_alpha   60.95782503
_cell_angle_beta   60.95782582
_cell_angle_gamma   60.95782721
_symmetry_Int_Tables_number   1
_chemical_formula_structural   Ti3CrFe2(PO4)6
_chemical_formula_sum   'Ti3 Cr1 Fe2 P6 O24'
_cell_volume   450.55981134
_cell_formula_units_Z   1
loop_
 _symmetry_equiv_pos_site_id
 _symmetry_equiv_pos_as_xyz
  1  'x, y, z'
loop_
 _atom_site_type_symbol
 _atom_site_label
 _atom_site_symmetry_multiplicity
 _atom_site_fract_x
 _atom_site_fract_y
 _atom_site_fract_z
 _atom_site_occupancy
  Ti  Ti0  1  0.14329541  0.14329541  0.14329541  1
  Ti  Ti1  1  0.35557534  0.35557534  0.35557534  1
  Ti  Ti2  1  0.64389142  0.64389142  0.64389142  1
  Cr  Cr3  1  0.85923231  0.85923231  0.85923231  1
  Fe  Fe4  1  0.00015542  0.00015542  0.00015542  1
  Fe  Fe5  1  0.49908066  0.49908066  0.49908066  1
  P  P6  1  0.04237187  0.75026383  0.46064399  1
  P  P7  1  0.46064399  0.04237187  0.75026383  1
  P  P8  1  0.24852376  0.54363709  0.95635862  1
  P  P9  1  0.54363709  0.95635862  0.24852376  1
  P  P10  1  0.95635862  0.24852376  0.54363709  1
  P  P11  1  0.75026383  0.46064399  0.04237187  1
  O  O12  1  0.11601297  0.31514040  0.49921009  1
  O  O13  1  0.31514040  0.49921009  0.11601297  1
  O  O14  1  0.05502545  0.90998127  0.26339077  1
  O  O15  1  0.49921009  0.11601297  0.31514040  1
  O  O16  1  0.00702962  0.81151577  0.61642692  1
  O  O17  1  0.23828002  0.58816317  0.44053351  1
  O  O18  1  0.26339077  0.05502545  0.90998127  1
  O  O19  1  0.44053351  0.23828002  0.58816317  1
  O  O20  1  0.18453687  0.38313290  0.99876527  1
  O  O21  1  0.58816317  0.44053351  0.23828002  1
  O  O22  1  0.09049673  0.73830273  0.94430018  1
  O  O23  1  0.38313290  0.99876527  0.18453687  1
  O  O24  1  0.61642692  0.00702962  0.81151577  1
  O  O25  1  0.90998127  0.26339077  0.05502545  1
  O  O26  1  0.41032191  0.55625871  0.76190721  1
  O  O27  1  0.81151577  0.61642692  0.00702962  1
  O  O28  1  0.55625871  0.76190721  0.41032191  1
  O  O29  1  0.73830273  0.94430018  0.09049673  1
  O  O30  1  0.76190721  0.41032191  0.55625871  1
  O  O31  1  0.99876527  0.18453687  0.38313290  1
  O  O32  1  0.50276004  0.88102549  0.68445030  1
  O  O33  1  0.94430018  0.09049673  0.73830273  1
  O  O34  1  0.68445030  0.50276004  0.88102549  1
  O  O35  1  0.88102549  0.68445030  0.50276004  1
