# generated using pymatgen
data_V2OF5
_symmetry_space_group_name_H-M   'P 1'
_cell_length_a   5.25263181
_cell_length_b   13.49807293
_cell_length_c   5.25263181
_cell_angle_alpha   89.99999614
_cell_angle_beta   120.00001149
_cell_angle_gamma   90.00000386
_symmetry_Int_Tables_number   1
_chemical_formula_structural   V2OF5
_chemical_formula_sum   'V6 O3 F15'
_cell_volume   322.51971767
_cell_formula_units_Z   3
loop_
 _symmetry_equiv_pos_site_id
 _symmetry_equiv_pos_as_xyz
  1  'x, y, z'
loop_
 _atom_site_type_symbol
 _atom_site_label
 _atom_site_symmetry_multiplicity
 _atom_site_fract_x
 _atom_site_fract_y
 _atom_site_fract_z
 _atom_site_occupancy
  V  V0  1  0.99016162  0.49575667  0.97641370  1
  V  V1  1  0.97641370  0.00424333  0.99016162  1
  V  V2  1  0.65291908  0.82908967  0.34317238  1
  V  V3  1  0.34317238  0.67091033  0.65291908  1
  V  V4  1  0.68041392  0.33757733  0.35691930  1
  V  V5  1  0.35691930  0.16242267  0.68041392  1
  O  O6  1  0.55707330  0.75000000  0.55707330  1
  O  O7  1  0.77625970  0.41666700  0.66666700  1
  O  O8  1  0.66666700  0.08333300  0.77625970  1
  F  F9  1  0.98095507  0.74703324  0.39020482  1
  F  F10  1  0.39020482  0.75296676  0.98095507  1
  F  F11  1  0.35237893  0.41963376  0.07591675  1
  F  F12  1  0.07591675  0.08036624  0.35237893  1
  F  F13  1  0.32565123  0.92219095  0.25372785  1
  F  F14  1  0.25372785  0.57780905  0.32565123  1
  F  F15  1  0.59474362  0.25552395  0.00768277  1
  F  F16  1  0.00768277  0.24447605  0.59474362  1
  F  F17  1  0.73858938  0.91114305  0.07960515  1
  F  F18  1  0.07960515  0.58885695  0.73858938  1
  F  F19  1  0.40751541  0.25000000  0.40751541  1
  F  F20  1  0.94312818  0.41370024  0.25741625  1
  F  F21  1  0.25741625  0.08629976  0.94312818  1
  F  F22  1  0.92581759  0.91666700  0.66666700  1
  F  F23  1  0.66666700  0.58333300  0.92581759  1
