# generated using pymatgen
data_Li2Mn7(P2O7)4
_symmetry_space_group_name_H-M   'P 1'
_cell_length_a   6.67203182
_cell_length_b   6.67202433
_cell_length_c   24.49120960
_cell_angle_alpha   89.99933657
_cell_angle_beta   90.00070786
_cell_angle_gamma   82.60464538
_symmetry_Int_Tables_number   1
_chemical_formula_structural   Li2Mn7(P2O7)4
_chemical_formula_sum   'Li4 Mn14 P16 O56'
_cell_volume   1081.18054231
_cell_formula_units_Z   2
loop_
 _symmetry_equiv_pos_site_id
 _symmetry_equiv_pos_as_xyz
  1  'x, y, z'
loop_
 _atom_site_type_symbol
 _atom_site_label
 _atom_site_symmetry_multiplicity
 _atom_site_fract_x
 _atom_site_fract_y
 _atom_site_fract_z
 _atom_site_occupancy
  Li  Li0  1  0.96662654  0.66289957  0.70144935  1
  Li  Li1  1  0.66292020  0.96662551  0.79855672  1
  Li  Li2  1  0.33713775  0.03338121  0.29854101  1
  Li  Li3  1  0.03337427  0.33713862  0.20145980  1
  Mn  Mn4  1  0.96757512  0.33012050  0.86625798  1
  Mn  Mn5  1  0.92758899  0.07241475  0.00000092  1
  Mn  Mn6  1  0.71803040  0.71803352  0.25000080  1
  Mn  Mn7  1  0.70474663  0.57621947  0.61855139  1
  Mn  Mn8  1  0.69482858  0.30517292  0.49999868  1
  Mn  Mn9  1  0.66988979  0.03243827  0.13373938  1
  Mn  Mn10  1  0.57620816  0.70474490  0.88144975  1
  Mn  Mn11  1  0.42378404  0.29523314  0.38144852  1
  Mn  Mn12  1  0.33011646  0.96757114  0.63374196  1
  Mn  Mn13  1  0.30517208  0.69482841  0.00000226  1
  Mn  Mn14  1  0.29523426  0.42376912  0.11855769  1
  Mn  Mn15  1  0.28197216  0.28196892  0.75000014  1
  Mn  Mn16  1  0.07240365  0.92759170  0.50000217  1
  Mn  Mn17  1  0.03243366  0.66989122  0.36626131  1
  P  P18  1  0.92536525  0.17973364  0.37641135  1
  P  P19  1  0.81195552  0.59426350  0.99741040  1
  P  P20  1  0.76067423  0.51992903  0.12086967  1
  P  P21  1  0.82026845  0.07463472  0.62358739  1
  P  P22  1  0.78788407  0.29637417  0.73286749  1
  P  P23  1  0.70362014  0.21212175  0.26713300  1
  P  P24  1  0.59426527  0.81195206  0.50258912  1
  P  P25  1  0.51992927  0.76067190  0.37912972  1
  P  P26  1  0.48007868  0.23931035  0.87913331  1
  P  P27  1  0.40573961  0.18804781  0.00259115  1
  P  P28  1  0.29638559  0.78788592  0.76713455  1
  P  P29  1  0.21211455  0.70362804  0.23286714  1
  P  P30  1  0.17973639  0.92536560  0.12358789  1
  P  P31  1  0.23931556  0.48007349  0.62086760  1
  P  P32  1  0.18805030  0.40573664  0.49740920  1
  P  P33  1  0.07463370  0.82026853  0.87641150  1
  O  O34  1  0.97075505  0.74248086  0.99693169  1
  O  O35  1  0.97801643  0.42671373  0.12849879  1
  O  O36  1  0.91635272  0.67171025  0.86881759  1
  O  O37  1  0.96018352  0.28353298  0.77519308  1
  O  O38  1  0.98923962  0.02598537  0.90076751  1
  O  O39  1  0.97402183  0.01076756  0.09922956  1
  O  O40  1  0.89997070  0.38409425  0.97819466  1
  O  O41  1  0.87905664  0.13667088  0.68549058  1
  O  O42  1  0.86332866  0.12093903  0.31450869  1
  O  O43  1  0.74248345  0.97075158  0.50306753  1
  O  O44  1  0.79089116  0.39563517  0.24376241  1
  O  O45  1  0.71257633  0.70168543  0.34493822  1
  O  O46  1  0.70168592  0.71257539  0.15506084  1
  O  O47  1  0.74446774  0.50392286  0.70666853  1
  O  O48  1  0.67170432  0.91635729  0.63117880  1
  O  O49  1  0.72638252  0.59235383  0.05896692  1
  O  O50  1  0.67918641  0.61514935  0.53205474  1
  O  O51  1  0.73673908  0.28015527  0.40632253  1
  O  O52  1  0.71984364  0.26325931  0.59367432  1
  O  O53  1  0.61515109  0.67918063  0.96794573  1
  O  O54  1  0.71646450  0.03983153  0.22480572  1
  O  O55  1  0.59235765  0.72637746  0.44103185  1
  O  O56  1  0.63977465  0.38363007  0.87018811  1
  O  O57  1  0.61635104  0.36023402  0.12981204  1
  O  O58  1  0.61591059  0.10003008  0.02180692  1
  O  O59  1  0.60438265  0.20910102  0.75624214  1
  O  O60  1  0.50392351  0.74447920  0.79333197  1
  O  O61  1  0.57328652  0.02196203  0.87151275  1
  O  O62  1  0.42671559  0.97801847  0.37150114  1
  O  O63  1  0.49607534  0.25553643  0.29332973  1
  O  O64  1  0.39562957  0.79089736  0.25623980  1
  O  O65  1  0.38409783  0.89996641  0.52180481  1
  O  O66  1  0.38363503  0.63977267  0.62981098  1
  O  O67  1  0.36023418  0.61635043  0.37018667  1
  O  O68  1  0.40764377  0.27362733  0.94103360  1
  O  O69  1  0.28352809  0.96018169  0.72480587  1
  O  O70  1  0.38485104  0.32081919  0.46794467  1
  O  O71  1  0.28015479  0.73673847  0.09367776  1
  O  O72  1  0.26325186  0.71983666  0.90632526  1
  O  O73  1  0.32082145  0.38484528  0.03205662  1
  O  O74  1  0.27362708  0.40763947  0.55896704  1
  O  O75  1  0.32830159  0.08364025  0.13118055  1
  O  O76  1  0.25552699  0.49608590  0.20667201  1
  O  O77  1  0.29830393  0.28743071  0.65506221  1
  O  O78  1  0.28743591  0.29829461  0.84493741  1
  O  O79  1  0.20910912  0.60437523  0.74376007  1
  O  O80  1  0.25752375  0.02924630  0.00306835  1
  O  O81  1  0.13667377  0.87906042  0.81450914  1
  O  O82  1  0.12093682  0.86333551  0.18549097  1
  O  O83  1  0.10003350  0.61590640  0.47819260  1
  O  O84  1  0.02598342  0.98923392  0.59923252  1
  O  O85  1  0.01076542  0.97401906  0.40076944  1
  O  O86  1  0.03982304  0.71647750  0.27519490  1
  O  O87  1  0.08364045  0.32829709  0.36881996  1
  O  O88  1  0.02196867  0.57328218  0.62849104  1
  O  O89  1  0.02924976  0.25751758  0.49693133  1
