# generated using pymatgen
data_LiMnP2(HO4)2
_symmetry_space_group_name_H-M   'P 1'
_cell_length_a   5.28222943
_cell_length_b   8.03786834
_cell_length_c   6.97961169
_cell_angle_alpha   90.00000000
_cell_angle_beta   90.00000000
_cell_angle_gamma   90.00000000
_symmetry_Int_Tables_number   1
_chemical_formula_structural   LiMnP2(HO4)2
_chemical_formula_sum   'Li2 Mn2 P4 H4 O16'
_cell_volume   296.33940879
_cell_formula_units_Z   2
loop_
 _symmetry_equiv_pos_site_id
 _symmetry_equiv_pos_as_xyz
  1  'x, y, z'
loop_
 _atom_site_type_symbol
 _atom_site_label
 _atom_site_symmetry_multiplicity
 _atom_site_fract_x
 _atom_site_fract_y
 _atom_site_fract_z
 _atom_site_occupancy
  Li  Li0  1  0.66559522  0.50000000  0.00000000  1
  Li  Li1  1  0.83440478  0.00000000  0.50000000  1
  Mn  Mn2  1  0.98616729  0.00000000  0.00000000  1
  Mn  Mn3  1  0.51383271  0.50000000  0.50000000  1
  P  P4  1  0.01602550  0.64826944  0.28721319  1
  P  P5  1  0.01602550  0.35173056  0.71278681  1
  P  P6  1  0.48397450  0.14826944  0.21278681  1
  P  P7  1  0.48397450  0.85173056  0.78721319  1
  H  H8  1  0.19381617  0.21533352  0.48271480  1
  H  H9  1  0.19381617  0.78466648  0.51728520  1
  H  H10  1  0.30618383  0.28466648  0.98271480  1
  H  H11  1  0.30618383  0.71533352  0.01728520  1
  O  O12  1  0.01581979  0.21916507  0.54353909  1
  O  O13  1  0.02695687  0.73116971  0.08928383  1
  O  O14  1  0.02695687  0.26883029  0.91071617  1
  O  O15  1  0.01581979  0.78083493  0.45646091  1
  O  O16  1  0.25348135  0.46063014  0.69159203  1
  O  O17  1  0.25348135  0.53936986  0.30840797  1
  O  O18  1  0.24651865  0.03936986  0.19159203  1
  O  O19  1  0.24651865  0.96063014  0.80840797  1
  O  O20  1  0.47304313  0.23116971  0.41071617  1
  O  O21  1  0.48418021  0.28083493  0.04353909  1
  O  O22  1  0.48418021  0.71916507  0.95646091  1
  O  O23  1  0.47304313  0.76883029  0.58928383  1
  O  O24  1  0.73286063  0.95326406  0.79770998  1
  O  O25  1  0.73286063  0.04673594  0.20229002  1
  O  O26  1  0.76713937  0.45326406  0.70229002  1
  O  O27  1  0.76713937  0.54673594  0.29770998  1
