# generated using pymatgen
data_Na2Ti2O5
_symmetry_space_group_name_H-M   'P 1'
_cell_length_a   6.71995276
_cell_length_b   16.61576697
_cell_length_c   5.51472504
_cell_angle_alpha   90.00000000
_cell_angle_beta   90.00000000
_cell_angle_gamma   90.00000000
_symmetry_Int_Tables_number   1
_chemical_formula_structural   Na2Ti2O5
_chemical_formula_sum   'Na8 Ti8 O20'
_cell_volume   615.75858638
_cell_formula_units_Z   4
loop_
 _symmetry_equiv_pos_site_id
 _symmetry_equiv_pos_as_xyz
  1  'x, y, z'
loop_
 _atom_site_type_symbol
 _atom_site_label
 _atom_site_symmetry_multiplicity
 _atom_site_fract_x
 _atom_site_fract_y
 _atom_site_fract_z
 _atom_site_occupancy
  Na  Na0  1  0.09904171  0.05626060  0.78480735  1
  Na  Na1  1  0.09904171  0.55626060  0.21519265  1
  Na  Na2  1  0.40095829  0.05626060  0.28480735  1
  Na  Na3  1  0.40095829  0.55626060  0.71519265  1
  Na  Na4  1  0.59904171  0.44373940  0.28480735  1
  Na  Na5  1  0.59904171  0.94373940  0.71519265  1
  Na  Na6  1  0.90095829  0.44373940  0.78480735  1
  Na  Na7  1  0.90095829  0.94373940  0.21519265  1
  Ti  Ti8  1  0.10367306  0.34981209  0.29789490  1
  Ti  Ti9  1  0.10367306  0.84981209  0.70210510  1
  Ti  Ti10  1  0.39632594  0.34981209  0.79789490  1
  Ti  Ti11  1  0.39632594  0.84981209  0.20210510  1
  Ti  Ti12  1  0.60367306  0.65018791  0.20210510  1
  Ti  Ti13  1  0.60367306  0.15018791  0.79789490  1
  Ti  Ti14  1  0.89632694  0.15018791  0.29789490  1
  Ti  Ti15  1  0.89632694  0.65018791  0.70210510  1
  O  O16  1  0.00000000  0.25000000  0.22660674  1
  O  O17  1  0.00000000  0.75000000  0.77339326  1
  O  O18  1  0.06073544  0.07235656  0.21609371  1
  O  O19  1  0.06073544  0.57235656  0.78390629  1
  O  O20  1  0.15755921  0.36329474  0.62816963  1
  O  O21  1  0.15755921  0.86329474  0.37183037  1
  O  O22  1  0.34244079  0.36329474  0.12816963  1
  O  O23  1  0.34244079  0.86329474  0.87183037  1
  O  O24  1  0.43926456  0.07235656  0.71609371  1
  O  O25  1  0.43926456  0.57235656  0.28390629  1
  O  O26  1  0.50000000  0.25000000  0.72660674  1
  O  O27  1  0.50000000  0.75000000  0.27339326  1
  O  O28  1  0.56073544  0.42764344  0.71609371  1
  O  O29  1  0.56073544  0.92764344  0.28390629  1
  O  O30  1  0.65755921  0.13670526  0.12816963  1
  O  O31  1  0.65755921  0.63670526  0.87183037  1
  O  O32  1  0.84244079  0.13670526  0.62816963  1
  O  O33  1  0.84244079  0.63670526  0.37183037  1
  O  O34  1  0.93926456  0.42764344  0.21609371  1
  O  O35  1  0.93926456  0.92764344  0.78390629  1
