# generated using pymatgen
data_SrLiLa3MnO8
_symmetry_space_group_name_H-M   'P 1'
_cell_length_a   5.42754522
_cell_length_b   6.88334868
_cell_length_c   5.44325567
_cell_angle_alpha   90.00020338
_cell_angle_beta   89.99966045
_cell_angle_gamma   113.22204636
_symmetry_Int_Tables_number   1
_chemical_formula_structural   SrLiLa3MnO8
_chemical_formula_sum   'Sr1 Li1 La3 Mn1 O8'
_cell_volume   186.88298283
_cell_formula_units_Z   1
loop_
 _symmetry_equiv_pos_site_id
 _symmetry_equiv_pos_as_xyz
  1  'x, y, z'
loop_
 _atom_site_type_symbol
 _atom_site_label
 _atom_site_symmetry_multiplicity
 _atom_site_fract_x
 _atom_site_fract_y
 _atom_site_fract_z
 _atom_site_occupancy
  Sr  Sr0  1  0.35886120  0.71771272  -0.00000191  1
  Li  Li1  1  0.49505846  0.99008739  0.49999719  1
  La  La2  1  0.13990760  0.27981618  0.49999933  1
  La  La3  1  0.63331269  0.26675224  0.00000499  1
  La  La4  1  0.86291058  0.72605097  0.49999611  1
  Mn  Mn5  1  0.99988110  0.99980857  0.99999799  1
  O  O6  1  0.24818243  0.00668622  0.24406102  1
  O  O7  1  0.24817946  0.00667772  0.75594122  1
  O  O8  1  0.75856268  0.00687871  0.24405363  1
  O  O9  1  0.75856186  0.00687586  0.75594724  1
  O  O10  1  0.15842082  0.31670007  -0.00000388  1
  O  O11  1  0.68311955  0.36606439  0.50000481  1
  O  O12  1  0.31884882  0.63709431  0.49999817  1
  O  O13  1  0.83619374  0.67279364  0.00000409  1
