# generated using pymatgen
data_Li24Mn5Cr7O36
_symmetry_space_group_name_H-M   'P 1'
_cell_length_a   5.01215032
_cell_length_b   5.02522812
_cell_length_c   29.26447431
_cell_angle_alpha   85.18045450
_cell_angle_beta   94.55337942
_cell_angle_gamma   60.37682497
_symmetry_Int_Tables_number   1
_chemical_formula_structural   Li24Mn5Cr7O36
_chemical_formula_sum   'Li24 Mn5 Cr7 O36'
_cell_volume   632.23200162
_cell_formula_units_Z   1
loop_
 _symmetry_equiv_pos_site_id
 _symmetry_equiv_pos_as_xyz
  1  'x, y, z'
loop_
 _atom_site_type_symbol
 _atom_site_label
 _atom_site_symmetry_multiplicity
 _atom_site_fract_x
 _atom_site_fract_y
 _atom_site_fract_z
 _atom_site_occupancy
  Li  Li0  1  0.00119082  0.49987706  0.66664916  1
  Li  Li1  1  0.25213892  0.24747442  0.91669486  1
  Li  Li2  1  0.15861537  0.66589520  0.83315272  1
  Li  Li3  1  0.00086216  0.50033042  0.33331586  1
  Li  Li4  1  0.25255989  0.25230311  0.58334700  1
  Li  Li5  1  0.49919154  0.00120724  0.83323621  1
  Li  Li6  1  0.16116513  0.66330028  0.49996378  1
  Li  Li7  1  0.99736769  0.50284630  0.00014543  1
  Li  Li8  1  0.25436295  0.24792518  0.24997320  1
  Li  Li9  1  0.50234474  0.99748470  0.50003276  1
  Li  Li10  1  0.33482831  0.84245903  0.99994791  1
  Li  Li11  1  0.15771255  0.66427886  0.16642481  1
  Li  Li12  1  0.49756666  0.00476981  0.16660441  1
  Li  Li13  1  0.66044795  0.15955809  0.66681009  1
  Li  Li14  1  0.33724271  0.83929608  0.66652195  1
  Li  Li15  1  0.66125944  0.15787012  0.33359815  1
  Li  Li16  1  0.33731454  0.84174275  0.33306813  1
  Li  Li17  1  0.84279611  0.33183839  0.83342823  1
  Li  Li18  1  0.66626674  0.15562420  0.00029913  1
  Li  Li19  1  0.75071896  0.75315343  0.74999412  1
  Li  Li20  1  0.83602055  0.33866641  0.50014247  1
  Li  Li21  1  0.74633708  0.75349350  0.41667149  1
  Li  Li22  1  0.84339172  0.33063376  0.16672803  1
  Li  Li23  1  0.75359846  0.74997709  0.08334654  1
  Mn  Mn24  1  0.08262090  0.08303176  0.74996429  1
  Mn  Mn25  1  0.08225235  0.08436382  0.41670540  1
  Mn  Mn26  1  0.08354727  0.08228887  0.08329865  1
  Mn  Mn27  1  0.58278579  0.58232503  0.58345677  1
  Mn  Mn28  1  0.91694462  0.91641096  0.24990872  1
  Cr  Cr29  1  0.41877611  0.42175083  0.75004312  1
  Cr  Cr30  1  0.41314352  0.42334371  0.41668435  1
  Cr  Cr31  1  0.58503057  0.57577258  0.91655674  1
  Cr  Cr32  1  0.42236147  0.41869289  0.08322285  1
  Cr  Cr33  1  0.58830052  0.57756180  0.24996869  1
  Cr  Cr34  1  0.92092291  0.91513794  0.91648715  1
  Cr  Cr35  1  0.91992708  0.92014057  0.58342107  1
  O  O36  1  0.14768748  0.35259505  0.78783244  1
  O  O37  1  0.35322373  0.14560277  0.71202534  1
  O  O38  1  0.15085679  0.35151286  0.45450174  1
  O  O39  1  0.29051863  0.57304450  0.95413205  1
  O  O40  1  0.06621282  0.79300789  0.71238407  1
  O  O41  1  0.35306846  0.14237765  0.37825273  1
  O  O42  1  0.21128592  0.93199831  0.87916357  1
  O  O43  1  0.14416502  0.35355571  0.12132578  1
  O  O44  1  0.29310577  0.56552975  0.62110463  1
  O  O45  1  0.07130264  0.78784542  0.37946927  1
  O  O46  1  0.57105052  0.28776970  0.87915648  1
  O  O47  1  0.42687495  0.71231523  0.78713335  1
  O  O48  1  0.35220012  0.14926666  0.04547886  1
  O  O49  1  0.21195821  0.92637155  0.54626251  1
  O  O50  1  0.28572106  0.57446220  0.28723440  1
  O  O51  1  0.79316343  0.06548509  0.78777174  1
  O  O52  1  0.06622977  0.79343916  0.04561445  1
  O  O53  1  0.56523486  0.29360776  0.54562789  1
  O  O54  1  0.42698113  0.71848132  0.45402960  1
  O  O55  1  0.92829529  0.20953885  0.95405673  1
  O  O56  1  0.21264214  0.92794886  0.21271248  1
  O  O57  1  0.71194719  0.42497026  0.71290473  1
  O  O58  1  0.78998969  0.06908507  0.45423180  1
  O  O59  1  0.64236895  0.85754959  0.95510141  1
  O  O60  1  0.57274555  0.27998573  0.21230639  1
  O  O61  1  0.42539176  0.71092452  0.12047078  1
  O  O62  1  0.92565868  0.21151547  0.62042028  1
  O  O63  1  0.71232885  0.42465467  0.37944214  1
  O  O64  1  0.85004388  0.64908209  0.87866620  1
  O  O65  1  0.79199079  0.06590203  0.12078232  1
  O  O66  1  0.64643548  0.85237861  0.62125047  1
  O  O67  1  0.92464046  0.21531475  0.28711875  1
  O  O68  1  0.71369647  0.42664003  0.04615749  1
  O  O69  1  0.85350398  0.64634655  0.54546817  1
  O  O70  1  0.64665594  0.85890146  0.28847043  1
  O  O71  1  0.84891049  0.64816669  0.21212530  1
