# generated using pymatgen
data_CaMnAs2(H3O5)2
_symmetry_space_group_name_H-M   'P 1'
_cell_length_a   8.57751559
_cell_length_b   7.74502996
_cell_length_c   7.05119376
_cell_angle_alpha   81.56884451
_cell_angle_beta   97.89548133
_cell_angle_gamma   95.40034508
_symmetry_Int_Tables_number   1
_chemical_formula_structural   CaMnAs2(H3O5)2
_chemical_formula_sum   'Ca2 Mn2 As4 H12 O20'
_cell_volume   457.66776402
_cell_formula_units_Z   2
loop_
 _symmetry_equiv_pos_site_id
 _symmetry_equiv_pos_as_xyz
  1  'x, y, z'
loop_
 _atom_site_type_symbol
 _atom_site_label
 _atom_site_symmetry_multiplicity
 _atom_site_fract_x
 _atom_site_fract_y
 _atom_site_fract_z
 _atom_site_occupancy
  Ca  Ca0  1  0.17024666  0.10151657  0.87180801  1
  Ca  Ca1  1  0.82975334  0.89848343  0.12819199  1
  Mn  Mn2  1  0.42192430  0.84953502  0.66178711  1
  Mn  Mn3  1  0.57807570  0.15046498  0.33821289  1
  As  As4  1  0.18483338  0.13697677  0.36416546  1
  As  As5  1  0.42766306  0.77131361  0.16512296  1
  As  As6  1  0.57233694  0.22868639  0.83487704  1
  As  As7  1  0.81516662  0.86302323  0.63583454  1
  H  H8  1  0.04482054  0.76703978  0.57792609  1
  H  H9  1  0.08171018  0.46018590  0.75030084  1
  H  H10  1  0.05216729  0.60868381  0.12437301  1
  H  H11  1  0.27354729  0.57653635  0.50169241  1
  H  H12  1  0.33774360  0.48900496  0.71519101  1
  H  H13  1  0.32102508  0.47234272  0.23472488  1
  H  H14  1  0.67897492  0.52765728  0.76527512  1
  H  H15  1  0.66225640  0.51099504  0.28480899  1
  H  H16  1  0.72645271  0.42346365  0.49830759  1
  H  H17  1  0.94783271  0.39131619  0.87562699  1
  H  H18  1  0.91828982  0.53981410  0.24969916  1
  H  H19  1  0.95517946  0.23296022  0.42207391  1
  O  O20  1  0.05655611  0.37359205  0.86063949  1
  O  O21  1  0.06166205  0.29333699  0.41871620  1
  O  O22  1  0.20695476  0.99544365  0.57672298  1
  O  O23  1  0.08615428  0.03827844  0.17764697  1
  O  O24  1  0.35129876  0.87363092  0.94445804  1
  O  O25  1  0.28799849  0.59568859  0.63871858  1
  O  O26  1  0.28658684  0.59553935  0.23069201  1
  O  O27  1  0.39372722  0.30534152  0.83908798  1
  O  O28  1  0.34907182  0.26390620  0.30251615  1
  O  O29  1  0.42949507  0.90346586  0.34076700  1
  O  O30  1  0.57050493  0.09653414  0.65923300  1
  O  O31  1  0.65092818  0.73609380  0.69748385  1
  O  O32  1  0.60627278  0.69465848  0.16091202  1
  O  O33  1  0.71341316  0.40446065  0.76930799  1
  O  O34  1  0.71200151  0.40431141  0.36128142  1
  O  O35  1  0.64870124  0.12636908  0.05554196  1
  O  O36  1  0.91384572  0.96172156  0.82235303  1
  O  O37  1  0.79304524  0.00455635  0.42327702  1
  O  O38  1  0.93833795  0.70666301  0.58128380  1
  O  O39  1  0.94344389  0.62640795  0.13936051  1
