# generated using pymatgen
data_Ba2P6O17
_symmetry_space_group_name_H-M   'P 1'
_cell_length_a   8.33053499
_cell_length_b   6.16920068
_cell_length_c   19.13228592
_cell_angle_alpha   90.00000000
_cell_angle_beta   90.00000000
_cell_angle_gamma   113.48494453
_symmetry_Int_Tables_number   1
_chemical_formula_structural   Ba2P6O17
_chemical_formula_sum   'Ba4 P12 O34'
_cell_volume   901.81206536
_cell_formula_units_Z   2
loop_
 _symmetry_equiv_pos_site_id
 _symmetry_equiv_pos_as_xyz
  1  'x, y, z'
loop_
 _atom_site_type_symbol
 _atom_site_label
 _atom_site_symmetry_multiplicity
 _atom_site_fract_x
 _atom_site_fract_y
 _atom_site_fract_z
 _atom_site_occupancy
  Ba  Ba0  1  0.15010362  0.24903379  0.07745995  1
  Ba  Ba1  1  0.34989638  0.25096621  0.57745995  1
  Ba  Ba2  1  0.65010362  0.74903379  0.42254005  1
  Ba  Ba3  1  0.84989638  0.75096621  0.92254005  1
  P  P4  1  0.08990392  0.81037460  0.32863599  1
  P  P5  1  0.03033640  0.32699714  0.81543391  1
  P  P6  1  0.17965286  0.67961808  0.46616271  1
  P  P7  1  0.32034714  0.82038192  0.96616271  1
  P  P8  1  0.41009608  0.68962540  0.82863599  1
  P  P9  1  0.53033640  0.82699714  0.68456609  1
  P  P10  1  0.46966360  0.17300286  0.31543291  1
  P  P11  1  0.58990392  0.31037460  0.17136401  1
  P  P12  1  0.67965286  0.17961808  0.03383729  1
  P  P13  1  0.82034714  0.32038192  0.53383729  1
  P  P14  1  0.96966360  0.67300286  0.18456609  1
  P  P15  1  0.91009608  0.18962540  0.67136401  1
  O  O16  1  0.00486253  0.92618140  0.17335503  1
  O  O17  1  0.00000000  0.50000000  0.50000000  1
  O  O18  1  0.03698544  0.63842988  0.26306307  1
  O  O19  1  0.03608342  0.53961511  0.13569581  1
  O  O20  1  0.18284588  0.91491531  0.98082707  1
  O  O21  1  0.20531834  0.92613701  0.48453748  1
  O  O22  1  0.14248614  0.64764157  0.38095922  1
  O  O23  1  0.04932863  0.11858046  0.64518808  1
  O  O24  1  0.35751386  0.85235843  0.88095922  1
  O  O25  1  0.24203605  0.47037828  0.80510325  1
  O  O26  1  0.29468166  0.57386299  0.98453748  1
  O  O27  1  0.31715412  0.58508469  0.48082707  1
  O  O28  1  0.46391658  0.96038489  0.63569581  1
  O  O29  1  0.25796395  0.02962172  0.30510325  1
  O  O30  1  0.46301456  0.86157012  0.76306307  1
  O  O31  1  0.45067137  0.38141954  0.14518808  1
  O  O32  1  0.49513747  0.57381860  0.67335503  1
  O  O33  1  0.50486253  0.42618140  0.32664497  1
  O  O34  1  0.54932863  0.61858046  0.85481192  1
  O  O35  1  0.50000000  0.00000000  0.00000000  1
  O  O36  1  0.53698544  0.13842988  0.23693693  1
  O  O37  1  0.74203605  0.97037828  0.69489675  1
  O  O38  1  0.53608342  0.03961511  0.36430419  1
  O  O39  1  0.68284588  0.41491531  0.51917293  1
  O  O40  1  0.70531834  0.42613701  0.01546252  1
  O  O41  1  0.75796395  0.52962172  0.19489675  1
  O  O42  1  0.64248614  0.14764157  0.11904078  1
  O  O43  1  0.95067137  0.88141954  0.35481192  1
  O  O44  1  0.85751386  0.35235843  0.61904078  1
  O  O45  1  0.79468166  0.07386299  0.51546252  1
  O  O46  1  0.81715412  0.08508469  0.01917293  1
  O  O47  1  0.96391658  0.46038489  0.86430419  1
  O  O48  1  0.96301456  0.36157012  0.73693693  1
  O  O49  1  0.99513747  0.07381860  0.82664497  1
