# generated using pymatgen
data_Fe5P6WO24
_symmetry_space_group_name_H-M   'P 1'
_cell_length_a   8.58177690
_cell_length_b   8.70699439
_cell_length_c   8.70699445
_cell_angle_alpha   59.99999759
_cell_angle_beta   59.51614690
_cell_angle_gamma   59.51613670
_symmetry_Int_Tables_number   1
_chemical_formula_structural   Fe5P6WO24
_chemical_formula_sum   'Fe5 P6 W1 O24'
_cell_volume   456.65004658
_cell_formula_units_Z   1
loop_
 _symmetry_equiv_pos_site_id
 _symmetry_equiv_pos_as_xyz
  1  'x, y, z'
loop_
 _atom_site_type_symbol
 _atom_site_label
 _atom_site_symmetry_multiplicity
 _atom_site_fract_x
 _atom_site_fract_y
 _atom_site_fract_z
 _atom_site_occupancy
  Fe  Fe0  1  0.01633931  0.99455356  0.99455356  1
  Fe  Fe1  1  0.07068713  0.64310462  0.64310462  1
  Fe  Fe2  1  0.50187805  0.49937432  0.49937432  1
  Fe  Fe3  1  0.43426219  0.85524660  0.85524660  1
  Fe  Fe4  1  0.92871299  0.35709534  0.35709534  1
  P  P5  1  0.24375324  0.25380386  0.54730399  1
  P  P6  1  0.24375324  0.95513990  0.25380386  1
  P  P7  1  0.24375324  0.54730399  0.95513990  1
  P  P8  1  0.74957110  0.46180057  0.04332786  1
  P  P9  1  0.74957110  0.04332786  0.74530047  1
  P  P10  1  0.74957110  0.74530047  0.46180057  1
  W  W11  1  0.57320880  0.14226407  0.14226407  1
  O  O12  1  0.06755931  0.11118676  0.32061123  1
  O  O13  1  0.06755931  0.50064270  0.11118676  1
  O  O14  1  0.06755931  0.32061123  0.50064270  1
  O  O15  1  0.22890532  0.09100208  0.73853692  1
  O  O16  1  0.43142810  0.18034653  0.38792398  1
  O  O17  1  0.27611992  0.41009328  0.55275846  1
  O  O18  1  0.22890532  0.94155568  0.09100208  1
  O  O19  1  0.27611992  0.76102934  0.41009328  1
  O  O20  1  0.56657945  0.61153627  0.00265222  1
  O  O21  1  0.27611992  0.55275846  0.76102934  1
  O  O22  1  0.76696116  0.25974357  0.06395359  1
  O  O23  1  0.56657945  0.00265222  0.81923206  1
  O  O24  1  0.43142810  0.00030139  0.18034653  1
  O  O25  1  0.22890532  0.73853692  0.94155568  1
  O  O26  1  0.72809841  0.44071328  0.24005011  1
  O  O27  1  0.43142810  0.38792398  0.00030139  1
  O  O28  1  0.72809841  0.24005011  0.59113821  1
  O  O29  1  0.76696116  0.06395359  0.90934168  1
  O  O30  1  0.72809841  0.59113821  0.44071328  1
  O  O31  1  0.56657945  0.81923206  0.61153627  1
  O  O32  1  0.76696116  0.90934168  0.25974357  1
  O  O33  1  0.93266250  0.68909606  0.49297629  1
  O  O34  1  0.93266250  0.49297629  0.88526615  1
  O  O35  1  0.93266250  0.88526615  0.68909606  1
