# generated using pymatgen
data_Li7V16(PO4)24
_symmetry_space_group_name_H-M   'P 1'
_cell_length_a   8.45287548
_cell_length_b   8.69657975
_cell_length_c   23.65688846
_cell_angle_alpha   89.99142291
_cell_angle_beta   89.02642559
_cell_angle_gamma   89.97678846
_symmetry_Int_Tables_number   1
_chemical_formula_structural   Li7V16(PO4)24
_chemical_formula_sum   'Li7 V16 P24 O96'
_cell_volume   1738.79281783
_cell_formula_units_Z   1
loop_
 _symmetry_equiv_pos_site_id
 _symmetry_equiv_pos_as_xyz
  1  'x, y, z'
loop_
 _atom_site_type_symbol
 _atom_site_label
 _atom_site_symmetry_multiplicity
 _atom_site_fract_x
 _atom_site_fract_y
 _atom_site_fract_z
 _atom_site_occupancy
  Li  Li0  1  0.19418689  0.71712619  0.91148805  1
  Li  Li1  1  0.30431330  0.21724341  0.33868709  1
  Li  Li2  1  0.30554281  0.21724020  0.83880999  1
  Li  Li3  1  0.69321315  0.78206784  0.16142856  1
  Li  Li4  1  0.69409187  0.78267058  0.66116016  1
  Li  Li5  1  0.80625680  0.28270127  0.08894072  1
  Li  Li6  1  0.80409805  0.28183550  0.58817333  1
  V  V7  1  0.24516719  0.96881217  0.19296884  1
  V  V8  1  0.25455302  0.46949684  0.05807435  1
  V  V9  1  0.24875976  0.54032026  0.30926684  1
  V  V10  1  0.25013618  0.02771020  0.44308429  1
  V  V11  1  0.24525014  0.96904384  0.69245920  1
  V  V12  1  0.25252585  0.46936476  0.55709300  1
  V  V13  1  0.24879844  0.53661532  0.80664282  1
  V  V14  1  0.25077393  0.03674774  0.94384397  1
  V  V15  1  0.74917497  0.96341842  0.05665050  1
  V  V16  1  0.75086915  0.46318841  0.19372189  1
  V  V17  1  0.74778879  0.53108070  0.44149919  1
  V  V18  1  0.75651302  0.03208127  0.30726703  1
  V  V19  1  0.75010702  0.96302841  0.55649108  1
  V  V20  1  0.75061830  0.46320608  0.69359376  1
  V  V21  1  0.74535891  0.53105698  0.94266109  1
  V  V22  1  0.75454905  0.03078614  0.80764867  1
  P  P23  1  0.03582149  0.25139204  0.25393257  1
  P  P24  1  0.03364147  0.25000009  0.75376455  1
  P  P25  1  0.10871770  0.11701456  0.07450623  1
  P  P26  1  0.11313550  0.38782498  0.42892832  1
  P  P27  1  0.10790915  0.11771567  0.57410370  1
  P  P28  1  0.11326061  0.38886302  0.92931316  1
  P  P29  1  0.39037769  0.61599466  0.17712467  1
  P  P30  1  0.38847593  0.88608063  0.32083953  1
  P  P31  1  0.39165448  0.61722344  0.67562473  1
  P  P32  1  0.38717686  0.88879363  0.82092561  1
  P  P33  1  0.46858573  0.74875311  0.49598678  1
  P  P34  1  0.46643076  0.75008932  0.99626801  1
  P  P35  1  0.53365996  0.25012895  0.00392400  1
  P  P36  1  0.53227120  0.25099508  0.50327127  1
  P  P37  1  0.61297245  0.11161144  0.17920492  1
  P  P38  1  0.60792588  0.38270145  0.32445064  1
  P  P39  1  0.61318928  0.11116791  0.67901726  1
  P  P40  1  0.60833509  0.38300524  0.82425738  1
  P  P41  1  0.88688897  0.61117069  0.07105656  1
  P  P42  1  0.89369626  0.88228150  0.42600847  1
  P  P43  1  0.88635174  0.61062166  0.57085362  1
  P  P44  1  0.89191278  0.88295831  0.92583069  1
  P  P45  1  0.96695070  0.74970971  0.24640466  1
  P  P46  1  0.96622449  0.74982437  0.74615132  1
  O  O47  1  0.06553532  0.82733705  0.19897458  1
  O  O48  1  0.06236482  0.60392814  0.05514458  1
  O  O49  1  0.06566076  0.82682469  0.69879845  1
  O  O50  1  0.07198810  0.92346595  0.41552993  1
  O  O51  1  0.06139617  0.63548204  0.28137740  1
  O  O52  1  0.06232427  0.60293407  0.55521696  1
  O  O53  1  0.06987911  0.91297816  0.91415610  1
  O  O54  1  0.06114474  0.63338008  0.78067413  1
  O  O55  1  0.11008058  0.13564753  0.21166668  1
  O  O56  1  0.10981255  0.13651917  0.71137904  1
  O  O57  1  0.12716261  0.29323596  0.08061927  1
  O  O58  1  0.14620623  0.07074423  0.01181569  1
  O  O59  1  0.16517140  0.22274306  0.40926579  1
  O  O60  1  0.12612507  0.29327928  0.58074713  1
  O  O61  1  0.14535670  0.07178073  0.51112059  1
  O  O62  1  0.14945278  0.50063291  0.37997645  1
  O  O63  1  0.16327207  0.22706433  0.90770423  1
  O  O64  1  0.15107469  0.50934941  0.88141303  1
  O  O65  1  0.17485925  0.33258503  0.28354252  1
  O  O66  1  0.17231668  0.33219115  0.78428320  1
  O  O67  1  0.21548782  0.02403853  0.11285201  1
  O  O68  1  0.21424772  0.02384720  0.61249531  1
  O  O69  1  0.21955070  0.42999525  0.47886450  1
  O  O70  1  0.22043008  0.43235338  0.97851419  1
  O  O71  1  0.27857718  0.93252304  0.27266722  1
  O  O72  1  0.28559540  0.52462840  0.13708884  1
  O  O73  1  0.27955823  0.93168089  0.77138211  1
  O  O74  1  0.28612993  0.52393462  0.63610397  1
  O  O75  1  0.33329437  0.84462379  0.46701489  1
  O  O76  1  0.32766574  0.83246358  0.96557043  1
  O  O77  1  0.34886645  0.00662168  0.36962163  1
  O  O78  1  0.35120992  0.56882762  0.23879273  1
  O  O79  1  0.37136732  0.79272204  0.17032660  1
  O  O80  1  0.34876385  0.72311981  0.34076359  1
  O  O81  1  0.34925707  0.00917809  0.86840878  1
  O  O82  1  0.35307994  0.57008320  0.73769760  1
  O  O83  1  0.37250781  0.79333547  0.66903759  1
  O  O84  1  0.33707350  0.72663289  0.84220112  1
  O  O85  1  0.39074480  0.63674413  0.03837338  1
  O  O86  1  0.38705841  0.63886485  0.53720050  1
  O  O87  1  0.43749557  0.10316779  0.19499168  1
  O  O88  1  0.43021939  0.13593855  0.46862483  1
  O  O89  1  0.43115167  0.41157514  0.33670041  1
  O  O90  1  0.43442991  0.32695280  0.05105144  1
  O  O91  1  0.43727895  0.10353489  0.69460967  1
  O  O92  1  0.43878124  0.13379654  0.96926473  1
  O  O93  1  0.43010761  0.41280743  0.83558052  1
  O  O94  1  0.43400130  0.32768403  0.55067882  1
  O  O95  1  0.56523718  0.67352675  0.44836583  1
  O  O96  1  0.56891624  0.58676577  0.16528441  1
  O  O97  1  0.56146793  0.86697961  0.03057726  1
  O  O98  1  0.56393116  0.90191428  0.30522096  1
  O  O99  1  0.56572133  0.67316963  0.94882492  1
  O  O100  1  0.56947081  0.58707707  0.66408636  1
  O  O101  1  0.56534308  0.86148704  0.53123170  1
  O  O102  1  0.56285467  0.89614978  0.80500699  1
  O  O103  1  0.60788960  0.36244552  0.46105081  1
  O  O104  1  0.60999278  0.36373718  0.96151332  1
  O  O105  1  0.66239060  0.27369476  0.15761868  1
  O  O106  1  0.62979926  0.20715590  0.33135593  1
  O  O107  1  0.64652103  0.42970979  0.26247137  1
  O  O108  1  0.65083182  0.99093574  0.13151000  1
  O  O109  1  0.66300447  0.27290040  0.65741665  1
  O  O110  1  0.62781172  0.20681946  0.83057120  1
  O  O111  1  0.64598217  0.42946781  0.76164263  1
  O  O112  1  0.65149851  0.99102488  0.63109138  1
  O  O113  1  0.67262014  0.16782034  0.03434848  1
  O  O114  1  0.66931378  0.16499905  0.53330945  1
  O  O115  1  0.71558047  0.47687274  0.36341397  1
  O  O116  1  0.72184799  0.06960535  0.22827747  1
  O  O117  1  0.71475732  0.47601874  0.86266984  1
  O  O118  1  0.72075409  0.06758003  0.72815689  1
  O  O119  1  0.77899533  0.56826317  0.02168011  1
  O  O120  1  0.78001393  0.56767839  0.52095505  1
  O  O121  1  0.78919705  0.97679803  0.38757657  1
  O  O122  1  0.78501246  0.97580482  0.88705866  1
  O  O123  1  0.82811140  0.66749515  0.21590272  1
  O  O124  1  0.82749427  0.66750277  0.71552364  1
  O  O125  1  0.84871509  0.49097070  0.11864149  1
  O  O126  1  0.83659135  0.77329566  0.09239270  1
  O  O127  1  0.84763913  0.48992402  0.61825407  1
  O  O128  1  0.85561996  0.92712947  0.48874015  1
  O  O129  1  0.87515421  0.70795557  0.41906323  1
  O  O130  1  0.83741353  0.77232114  0.59248282  1
  O  O131  1  0.85417741  0.92950842  0.98810462  1
  O  O132  1  0.87254758  0.70667121  0.91933501  1
  O  O133  1  0.88956349  0.86491529  0.28811356  1
  O  O134  1  0.89028057  0.86316227  0.78837782  1
  O  O135  1  0.93893648  0.36604009  0.21907028  1
  O  O136  1  0.93033862  0.08687925  0.08570139  1
  O  O137  1  0.93721762  0.39448535  0.44518922  1
  O  O138  1  0.93870910  0.36642644  0.71920146  1
  O  O139  1  0.92981856  0.08757669  0.58542689  1
  O  O140  1  0.93571513  0.17355526  0.30112293  1
  O  O141  1  0.93732173  0.39630169  0.94486792  1
  O  O142  1  0.93446531  0.17256595  0.80092528  1
