# generated using pymatgen
data_Li2Fe2(PO4)3
_symmetry_space_group_name_H-M   'P 1'
_cell_length_a   8.66444866
_cell_length_b   8.79680775
_cell_length_c   12.22283946
_cell_angle_alpha   90.00155320
_cell_angle_beta   89.99776759
_cell_angle_gamma   89.99987767
_symmetry_Int_Tables_number   1
_chemical_formula_structural   Li2Fe2(PO4)3
_chemical_formula_sum   'Li8 Fe8 P12 O48'
_cell_volume   931.61857873
_cell_formula_units_Z   4
loop_
 _symmetry_equiv_pos_site_id
 _symmetry_equiv_pos_as_xyz
  1  'x, y, z'
loop_
 _atom_site_type_symbol
 _atom_site_label
 _atom_site_symmetry_multiplicity
 _atom_site_fract_x
 _atom_site_fract_y
 _atom_site_fract_z
 _atom_site_occupancy
  Li  Li0  1  0.21702651  0.72209912  0.18117492  1
  Li  Li1  1  0.21703140  0.77792742  0.81881770  1
  Li  Li2  1  0.28296152  0.22214163  0.31886868  1
  Li  Li3  1  0.28295354  0.27784253  0.68112741  1
  Li  Li4  1  0.71702342  0.72214977  0.31888999  1
  Li  Li5  1  0.71701616  0.77787652  0.68113296  1
  Li  Li6  1  0.78296415  0.22214061  0.18115666  1
  Li  Li7  1  0.78297729  0.27784726  0.81884659  1
  Fe  Fe8  1  0.24923709  0.95961396  0.61288367  1
  Fe  Fe9  1  0.24926130  0.54037319  0.38711787  1
  Fe  Fe10  1  0.25079635  0.04037665  0.11287540  1
  Fe  Fe11  1  0.25079637  0.45965533  0.88708584  1
  Fe  Fe12  1  0.74919297  0.54030469  0.11287746  1
  Fe  Fe13  1  0.74921981  0.95970324  0.88711477  1
  Fe  Fe14  1  0.75077992  0.04034980  0.38714093  1
  Fe  Fe15  1  0.75077014  0.45967263  0.61286131  1
  P  P16  1  0.03959776  0.25000542  0.50000304  1
  P  P17  1  0.46042471  0.75000916  0.00000347  1
  P  P18  1  0.53958496  0.24998942  -0.00000239  1
  P  P19  1  0.96041454  0.75000200  0.50000128  1
  P  P20  1  0.10567811  0.39322307  0.14713484  1
  P  P21  1  0.10566771  0.10676987  0.85284388  1
  P  P22  1  0.39432375  0.60678398  0.64716855  1
  P  P23  1  0.39433135  0.89321343  0.35283556  1
  P  P24  1  0.60567778  0.10682788  0.64719381  1
  P  P25  1  0.60568006  0.39320960  0.35283290  1
  P  P26  1  0.89430040  0.60679175  0.85285637  1
  P  P27  1  0.89430819  0.89319993  0.14715107  1
  O  O28  1  0.05667223  0.64280728  0.42879841  1
  O  O29  1  0.05665377  0.85719484  0.57120654  1
  O  O30  1  0.07279109  0.89549047  0.15599171  1
  O  O31  1  0.07283422  0.60453935  0.84394114  1
  O  O32  1  0.14700512  0.16244149  0.57964138  1
  O  O33  1  0.14700594  0.33756395  0.42036452  1
  O  O34  1  0.15621677  0.43393078  0.03068899  1
  O  O35  1  0.15617489  0.06609932  0.96930881  1
  O  O36  1  0.16216739  0.23245432  0.17980949  1
  O  O37  1  0.16209874  0.26751307  0.82017688  1
  O  O38  1  0.17457805  0.51391962  0.22570649  1
  O  O39  1  0.17455763  0.98605130  0.77429605  1
  O  O40  1  0.32538633  0.01395198  0.27427651  1
  O  O41  1  0.32539866  0.48602256  0.72573149  1
  O  O42  1  0.33782521  0.76755604  0.67983698  1
  O  O43  1  0.33782886  0.73245003  0.32017583  1
  O  O44  1  0.34379635  0.56608054  0.53070260  1
  O  O45  1  0.34380020  0.93391761  0.46929976  1
  O  O46  1  0.35299986  0.83757898  0.07964583  1
  O  O47  1  0.35303577  0.66248593  0.92030645  1
  O  O48  1  0.42719350  0.10450609  0.65609593  1
  O  O49  1  0.42718027  0.39550527  0.34394018  1
  O  O50  1  0.44336746  0.14281281  0.07120243  1
  O  O51  1  0.44338236  0.35712953  0.92875770  1
  O  O52  1  0.55665611  0.64280941  0.07124151  1
  O  O53  1  0.55672775  0.85716680  0.92877807  1
  O  O54  1  0.57284772  0.60448425  0.65605926  1
  O  O55  1  0.57283820  0.89552232  0.34394136  1
  O  O56  1  0.64701328  0.33751967  0.07961759  1
  O  O57  1  0.64701677  0.16240747  0.92038387  1
  O  O58  1  0.65621767  0.06605213  0.53074556  1
  O  O59  1  0.65620860  0.43391789  0.46929014  1
  O  O60  1  0.66219066  0.23244336  0.32019320  1
  O  O61  1  0.66221507  0.26755624  0.67982971  1
  O  O62  1  0.67457990  0.51395730  0.27428452  1
  O  O63  1  0.67458609  0.98608200  0.72575995  1
  O  O64  1  0.82540043  0.01395309  0.22566934  1
  O  O65  1  0.82540343  0.48605911  0.77428936  1
  O  O66  1  0.83780713  0.73247877  0.17980549  1
  O  O67  1  0.83778370  0.76756472  0.82019963  1
  O  O68  1  0.84378370  0.56609069  0.96932101  1
  O  O69  1  0.84375491  0.93387297  0.03067799  1
  O  O70  1  0.85297664  0.66244942  0.57965701  1
  O  O71  1  0.85297641  0.83756144  0.42035312  1
  O  O72  1  0.92718672  0.10445531  0.84395897  1
  O  O73  1  0.92719656  0.39548990  0.15603744  1
  O  O74  1  0.94334627  0.14283182  0.42880460  1
  O  O75  1  0.94333836  0.35717085  0.57120470  1
