# generated using pymatgen
data_BaGa12O19
_symmetry_space_group_name_H-M   'P 1'
_cell_length_a   5.88938270
_cell_length_b   5.88940728
_cell_length_c   23.29760471
_cell_angle_alpha   89.99976656
_cell_angle_beta   89.99967843
_cell_angle_gamma   120.00014782
_symmetry_Int_Tables_number   1
_chemical_formula_structural   BaGa12O19
_chemical_formula_sum   'Ba2 Ga24 O38'
_cell_volume   699.81399317
_cell_formula_units_Z   2
loop_
 _symmetry_equiv_pos_site_id
 _symmetry_equiv_pos_as_xyz
  1  'x, y, z'
loop_
 _atom_site_type_symbol
 _atom_site_label
 _atom_site_symmetry_multiplicity
 _atom_site_fract_x
 _atom_site_fract_y
 _atom_site_fract_z
 _atom_site_occupancy
  Ba  Ba0  1  0.33325259  0.66650853  0.74918734  1
  Ba  Ba1  1  0.66675118  0.33324784  0.24918626  1
  Ga  Ga2  1  0.16914014  0.83100500  0.89191610  1
  Ga  Ga3  1  0.16751790  0.83264030  0.60892402  1
  Ga  Ga4  1  0.33334919  0.66665739  0.31054026  1
  Ga  Ga5  1  0.16737739  0.33489768  0.60891982  1
  Ga  Ga6  1  0.33332727  0.66667985  0.47288235  1
  Ga  Ga7  1  0.16900082  0.33814007  0.89191791  1
  Ga  Ga8  1  0.00000100  0.00000566  0.00033497  1
  Ga  Ga9  1  0.00000317  0.00001815  0.50033523  1
  Ga  Ga10  1  0.33332194  0.66665240  0.02756802  1
  Ga  Ga11  1  0.00001217  0.99998737  0.25894956  1
  Ga  Ga12  1  0.33333933  0.66664811  0.18879649  1
  Ga  Ga13  1  0.99998854  0.99998160  0.75894943  1
  Ga  Ga14  1  0.66511211  0.83250669  0.60892402  1
  Ga  Ga15  1  0.66185595  0.83087309  0.89191598  1
  Ga  Ga16  1  0.33489102  0.16751411  0.10892315  1
  Ga  Ga17  1  0.33816801  0.16909088  0.39191123  1
  Ga  Ga18  1  0.66666079  0.33332933  0.81053990  1
  Ga  Ga19  1  0.66667537  0.33335698  0.97288209  1
  Ga  Ga20  1  0.66666178  0.33332916  0.68879667  1
  Ga  Ga21  1  0.66667724  0.33336623  0.52756875  1
  Ga  Ga22  1  0.83262401  0.66512024  0.10892246  1
  Ga  Ga23  1  0.83096942  0.66185910  0.39191496  1
  Ga  Ga24  1  0.83248567  0.16737823  0.10892027  1
  Ga  Ga25  1  0.83092633  0.16904365  0.39192501  1
  O  O26  1  0.15560548  0.84440235  0.05172476  1
  O  O27  1  0.15484667  0.84516292  0.44754007  1
  O  O28  1  0.00618142  0.50314878  0.64860752  1
  O  O29  1  0.00687404  0.50349701  0.85160615  1
  O  O30  1  0.18210609  0.81788620  0.25078150  1
  O  O31  1  0.33331618  0.66669143  0.55482749  1
  O  O32  1  0.99999929  0.00000516  0.85032063  1
  O  O33  1  0.15559821  0.31119328  0.05172699  1
  O  O34  1  0.99999913  0.00000416  0.14763998  1
  O  O35  1  0.00002134  0.00000056  0.35031988  1
  O  O36  1  0.15485998  0.30970999  0.44754249  1
  O  O37  1  0.00000019  0.00001066  0.64763967  1
  O  O38  1  0.33331548  0.66663711  0.94522202  1
  O  O39  1  0.18210859  0.36420311  0.25077972  1
  O  O40  1  0.49696258  0.99382637  0.64860990  1
  O  O41  1  0.49661387  0.99312711  0.85160574  1
  O  O42  1  0.63580191  0.81791133  0.25077890  1
  O  O43  1  0.31120739  0.15561781  0.55172392  1
  O  O44  1  0.30970761  0.15485200  0.94754378  1
  O  O45  1  0.49685611  0.50304807  0.64860665  1
  O  O46  1  0.49650811  0.50338825  0.85160626  1
  O  O47  1  0.50314609  0.49695875  0.14860869  1
  O  O48  1  0.50348027  0.49658725  0.35160424  1
  O  O49  1  0.68879145  0.84441117  0.05172460  1
  O  O50  1  0.69029973  0.84516276  0.44754403  1
  O  O51  1  0.36420109  0.18209967  0.75077984  1
  O  O52  1  0.50303988  0.00617913  0.14860865  1
  O  O53  1  0.66668567  0.33336693  0.44522137  1
  O  O54  1  0.84439735  0.68882486  0.55172627  1
  O  O55  1  0.66668618  0.33337729  0.05482744  1
  O  O56  1  0.84516071  0.69032035  0.94754097  1
  O  O57  1  0.81787862  0.63578621  0.75077962  1
  O  O58  1  0.50345667  0.00687547  0.35160539  1
  O  O59  1  0.81791517  0.18212144  0.75078094  1
  O  O60  1  0.99381926  0.49685988  0.14860778  1
  O  O61  1  0.99313907  0.49652838  0.35160605  1
  O  O62  1  0.84440077  0.15562153  0.55172441  1
  O  O63  1  0.84514605  0.15485758  0.94754348  1
