# generated using pymatgen
data_CaTiF5
_symmetry_space_group_name_H-M   'P 1'
_cell_length_a   5.67608608
_cell_length_b   5.67608607
_cell_length_c   7.76591860
_cell_angle_alpha   70.14364152
_cell_angle_beta   70.14364150
_cell_angle_gamma   72.16071970
_symmetry_Int_Tables_number   1
_chemical_formula_structural   CaTiF5
_chemical_formula_sum   'Ca2 Ti2 F10'
_cell_volume   216.11661782
_cell_formula_units_Z   2
loop_
 _symmetry_equiv_pos_site_id
 _symmetry_equiv_pos_as_xyz
  1  'x, y, z'
loop_
 _atom_site_type_symbol
 _atom_site_label
 _atom_site_symmetry_multiplicity
 _atom_site_fract_x
 _atom_site_fract_y
 _atom_site_fract_z
 _atom_site_occupancy
  F  F0  1  0.20819409  0.24865812  0.88178220  1
  F  F1  1  0.75134188  0.79180591  0.61821780  1
  F  F2  1  0.79180591  0.75134188  0.11821780  1
  F  F3  1  0.24865812  0.20819409  0.38178220  1
  F  F4  1  0.09552583  0.90447417  0.75000000  1
  F  F5  1  0.90447417  0.09552583  0.25000000  1
  F  F6  1  0.28983884  0.68820287  0.46914392  1
  F  F7  1  0.31179713  0.71016116  0.03085608  1
  F  F8  1  0.71016116  0.31179713  0.53085608  1
  F  F9  1  0.68820287  0.28983884  0.96914392  1
  Ca  Ca10  1  0.45922475  0.54077525  0.75000000  1
  Ca  Ca11  1  0.54077525  0.45922475  0.25000000  1
  Ti  Ti12  1  0.00000000  0.00000000  0.00000000  1
  Ti  Ti13  1  0.00000000  0.00000000  0.50000000  1
