# generated using pymatgen
data_H28RuS2(N3O5)2
_symmetry_space_group_name_H-M   'P 1'
_cell_length_a   6.25769057
_cell_length_b   10.02681406
_cell_length_c   12.81889054
_cell_angle_alpha   90.00000000
_cell_angle_beta   96.57655973
_cell_angle_gamma   90.00000000
_symmetry_Int_Tables_number   1
_chemical_formula_structural   H28RuS2(N3O5)2
_chemical_formula_sum   'H56 Ru2 S4 N12 O20'
_cell_volume   799.02479185
_cell_formula_units_Z   2
loop_
 _symmetry_equiv_pos_site_id
 _symmetry_equiv_pos_as_xyz
  1  'x, y, z'
loop_
 _atom_site_type_symbol
 _atom_site_label
 _atom_site_symmetry_multiplicity
 _atom_site_fract_x
 _atom_site_fract_y
 _atom_site_fract_z
 _atom_site_occupancy
  H  H0  1  0.15843986  0.38015795  0.33303510  1
  H  H1  1  0.15843986  0.11984205  0.83303510  1
  H  H2  1  0.84156014  0.61984205  0.66696490  1
  H  H3  1  0.84156014  0.88015795  0.16696490  1
  H  H4  1  0.31923956  0.50557248  0.37313349  1
  H  H5  1  0.31923956  0.99442752  0.87313349  1
  H  H6  1  0.68076044  0.49442752  0.62686651  1
  H  H7  1  0.68076044  0.00557248  0.12686651  1
  H  H8  1  0.09125486  0.53407191  0.30089286  1
  H  H9  1  0.09125486  0.96592809  0.80089286  1
  H  H10  1  0.90874514  0.46592809  0.69910714  1
  H  H11  1  0.90874514  0.03407191  0.19910714  1
  H  H12  1  0.38653481  0.62677436  0.52493036  1
  H  H13  1  0.38653481  0.87322564  0.02493036  1
  H  H14  1  0.61346519  0.37322564  0.47506964  1
  H  H15  1  0.61346519  0.12677436  0.97506964  1
  H  H16  1  0.29221235  0.62555240  0.64245488  1
  H  H17  1  0.29221235  0.87444760  0.14245488  1
  H  H18  1  0.70778765  0.37444760  0.35754512  1
  H  H19  1  0.70778765  0.12555240  0.85754512  1
  H  H20  1  0.19736040  0.73064025  0.55099239  1
  H  H21  1  0.19736040  0.76935975  0.05099239  1
  H  H22  1  0.80263960  0.26935975  0.44900761  1
  H  H23  1  0.80263960  0.23064025  0.94900761  1
  H  H24  1  0.84126091  0.96094693  0.41486206  1
  H  H25  1  0.84126091  0.53905307  0.91486206  1
  H  H26  1  0.15873909  0.03905307  0.58513794  1
  H  H27  1  0.15873909  0.46094693  0.08513794  1
  H  H28  1  0.94870408  0.10337555  0.42832200  1
  H  H29  1  0.94870408  0.39662445  0.92832200  1
  H  H30  1  0.05129592  0.89662445  0.57167800  1
  H  H31  1  0.05129592  0.60337555  0.07167800  1
  H  H32  1  0.60384753  0.23040510  0.65473728  1
  H  H33  1  0.60384753  0.26959490  0.15473728  1
  H  H34  1  0.39615247  0.76959490  0.34526272  1
  H  H35  1  0.39615247  0.73040510  0.84526272  1
  H  H36  1  0.85745795  0.20818176  0.68096801  1
  H  H37  1  0.85745795  0.29181824  0.18096801  1
  H  H38  1  0.14254205  0.79181824  0.31903199  1
  H  H39  1  0.14254205  0.70818176  0.81903199  1
  H  H40  1  0.44140959  0.90283723  0.63839144  1
  H  H41  1  0.44140959  0.59716277  0.13839144  1
  H  H42  1  0.55859041  0.09716277  0.36160856  1
  H  H43  1  0.55859041  0.40283723  0.86160856  1
  H  H44  1  0.65866905  0.00509638  0.65542683  1
  H  H45  1  0.65866905  0.49490362  0.15542683  1
  H  H46  1  0.34133095  0.99490362  0.34457317  1
  H  H47  1  0.34133095  0.50509638  0.84457317  1
  H  H48  1  0.67316608  0.86059302  0.58483735  1
  H  H49  1  0.67316608  0.63940698  0.08483735  1
  H  H50  1  0.32683392  0.13940698  0.41516265  1
  H  H51  1  0.32683392  0.36059302  0.91516265  1
  H  H52  1  0.67481602  0.85516480  0.71637031  1
  H  H53  1  0.67481602  0.64483520  0.21637031  1
  H  H54  1  0.32518398  0.14483520  0.28362969  1
  H  H55  1  0.32518398  0.35516480  0.78362969  1
  Ru  Ru56  1  0.00000000  0.50000000  0.50000000  1
  Ru  Ru57  1  0.00000000  0.00000000  -0.00000000  1
  S  S58  1  0.18770858  0.32178188  0.57650031  1
  S  S59  1  0.18770858  0.17821812  0.07650031  1
  S  S60  1  0.81229142  0.67821812  0.42349969  1
  S  S61  1  0.81229142  0.82178188  0.92349969  1
  N  N62  1  0.16088360  0.47567531  0.36133150  1
  N  N63  1  0.16088360  0.02432469  0.86133150  1
  N  N64  1  0.83911640  0.52432469  0.63866850  1
  N  N65  1  0.83911640  0.97567531  0.13866850  1
  N  N66  1  0.25026048  0.63493990  0.56285019  1
  N  N67  1  0.25026048  0.86506010  0.06285019  1
  N  N68  1  0.74973952  0.36506010  0.43714981  1
  N  N69  1  0.74973952  0.13493990  0.93714981  1
  N  N70  1  0.60940087  0.90442104  0.64849598  1
  N  N71  1  0.60940087  0.59557896  0.14849598  1
  N  N72  1  0.39059913  0.09557896  0.35150402  1
  N  N73  1  0.39059913  0.40442104  0.85150402  1
  O  O74  1  0.12039933  0.28350151  0.68372845  1
  O  O75  1  0.12039933  0.21649849  0.18372845  1
  O  O76  1  0.87960067  0.71649849  0.31627155  1
  O  O77  1  0.87960067  0.78350151  0.81627155  1
  O  O78  1  0.42999978  0.34626184  0.59385715  1
  O  O79  1  0.42999978  0.15373816  0.09385715  1
  O  O80  1  0.57000022  0.65373816  0.40614285  1
  O  O81  1  0.57000022  0.84626184  0.90614285  1
  O  O82  1  0.15567028  0.19329682  0.50908033  1
  O  O83  1  0.15567028  0.30670318  0.00908033  1
  O  O84  1  0.84432972  0.80670318  0.49091967  1
  O  O85  1  0.84432972  0.69329682  0.99091967  1
  O  O86  1  0.83867556  0.05183563  0.38373169  1
  O  O87  1  0.83867556  0.44816437  0.88373169  1
  O  O88  1  0.16132444  0.94816437  0.61626831  1
  O  O89  1  0.16132444  0.55183563  0.11626831  1
  O  O90  1  0.71512676  0.16701196  0.68785907  1
  O  O91  1  0.71512676  0.33298804  0.18785907  1
  O  O92  1  0.28487324  0.83298804  0.31214093  1
  O  O93  1  0.28487324  0.66701196  0.81214093  1
