# generated using pymatgen
data_Li2Mn(SiO3)2
_symmetry_space_group_name_H-M   'P 1'
_cell_length_a   5.21892931
_cell_length_b   10.49345115
_cell_length_c   5.21875477
_cell_angle_alpha   104.11386817
_cell_angle_beta   88.96749569
_cell_angle_gamma   75.85889582
_symmetry_Int_Tables_number   1
_chemical_formula_structural   Li2Mn(SiO3)2
_chemical_formula_sum   'Li4 Mn2 Si4 O12'
_cell_volume   267.85966868
_cell_formula_units_Z   2
loop_
 _symmetry_equiv_pos_site_id
 _symmetry_equiv_pos_as_xyz
  1  'x, y, z'
loop_
 _atom_site_type_symbol
 _atom_site_label
 _atom_site_symmetry_multiplicity
 _atom_site_fract_x
 _atom_site_fract_y
 _atom_site_fract_z
 _atom_site_occupancy
  Li  Li0  1  0.53160496  0.83300877  0.91634534  1
  Li  Li1  1  0.11487896  0.66616390  0.83118948  1
  Li  Li2  1  0.83099120  0.33320754  0.11608891  1
  Li  Li3  1  0.91398770  0.16603682  0.53188839  1
  Mn  Mn4  1  0.72435542  0.49962236  0.72592308  1
  Mn  Mn5  1  0.97468108  0.99947043  0.97543124  1
  Si  Si6  1  0.17144519  0.83311076  0.39677643  1
  Si  Si7  1  0.75479413  0.66589815  0.31356996  1
  Si  Si8  1  0.31228634  0.33320658  0.75403510  1
  Si  Si9  1  0.39607504  0.16593406  0.17009455  1
  O  O10  1  0.05747752  0.98516150  0.58284632  1
  O  O11  1  0.18801660  0.82603489  0.08116855  1
  O  O12  1  0.98771446  0.73337974  0.47023250  1
  O  O13  1  0.47141970  0.76542945  0.48638346  1
  O  O14  1  0.76447353  0.67298333  0.00439684  1
  O  O15  1  0.79310877  0.51361971  0.34753401  1
  O  O16  1  0.34596969  0.48544671  0.79310517  1
  O  O17  1  0.00355460  0.32594240  0.76417785  1
  O  O18  1  0.48533220  0.23426110  0.46934616  1
  O  O19  1  0.47002523  0.26480663  0.98472056  1
  O  O20  1  0.08019105  0.17311014  0.18764492  1
  O  O21  1  0.58229166  0.01366503  0.05809819  1
