# generated using pymatgen
data_KNa2LiZr2(Si2O5)6
_symmetry_space_group_name_H-M   'P 1'
_cell_length_a   10.22932373
_cell_length_b   10.30098895
_cell_length_c   14.61346609
_cell_angle_alpha   90.00015087
_cell_angle_beta   89.99993771
_cell_angle_gamma   119.77053827
_symmetry_Int_Tables_number   1
_chemical_formula_structural   KNa2LiZr2(Si2O5)6
_chemical_formula_sum   'K2 Na4 Li2 Zr4 Si24 O60'
_cell_volume   1336.62400069
_cell_formula_units_Z   2
loop_
 _symmetry_equiv_pos_site_id
 _symmetry_equiv_pos_as_xyz
  1  'x, y, z'
loop_
 _atom_site_type_symbol
 _atom_site_label
 _atom_site_symmetry_multiplicity
 _atom_site_fract_x
 _atom_site_fract_y
 _atom_site_fract_z
 _atom_site_occupancy
  K  K0  1  -0.00000010  -0.00000007  0.25000044  1
  K  K1  1  -0.00000075  0.99999877  0.74999973  1
  Na  Na2  1  0.33396726  0.66423586  0.00000000  1
  Na  Na3  1  0.33022412  0.66418930  0.49999999  1
  Na  Na4  1  0.66598743  0.33575955  -0.00000004  1
  Na  Na5  1  0.66977745  0.33581267  0.50000014  1
  Li  Li6  1  0.50000214  0.99999964  0.24999982  1
  Li  Li7  1  0.49999819  0.99999228  0.74999928  1
  Zr  Zr8  1  0.32796173  0.65593159  0.24999967  1
  Zr  Zr9  1  0.32796551  0.65592720  0.74999788  1
  Zr  Zr10  1  0.67203262  0.34406808  0.25000227  1
  Zr  Zr11  1  0.67203044  0.34406650  0.74999924  1
  Si  Si12  1  0.11426817  0.76360576  0.39040863  1
  Si  Si13  1  0.11427017  0.76360516  0.60959154  1
  Si  Si14  1  0.23801973  0.88673795  0.10976738  1
  Si  Si15  1  0.23802014  0.88673490  0.89023312  1
  Si  Si16  1  0.11268665  0.34963261  0.10932159  1
  Si  Si17  1  0.11268576  0.34963015  0.89067756  1
  Si  Si18  1  0.23693956  0.34962670  0.39067680  1
  Si  Si19  1  0.23693788  0.34962435  0.60932071  1
  Si  Si20  1  0.64870831  0.88673413  0.39023368  1
  Si  Si21  1  0.64871279  0.88673394  0.60976570  1
  Si  Si22  1  0.35066035  0.23639504  0.10959383  1
  Si  Si23  1  0.35065989  0.23639265  0.89040805  1
  Si  Si24  1  0.64933304  0.76360675  0.10959092  1
  Si  Si25  1  0.64933504  0.76360710  0.89040915  1
  Si  Si26  1  0.35128603  0.11326389  0.60976540  1
  Si  Si27  1  0.35128588  0.11326340  0.39023302  1
  Si  Si28  1  0.76305516  0.65037074  0.39067846  1
  Si  Si29  1  0.76305834  0.65037080  0.60932339  1
  Si  Si30  1  0.88730842  0.65036620  0.89067972  1
  Si  Si31  1  0.88730766  0.65036654  0.10932149  1
  Si  Si32  1  0.76197461  0.11326307  0.10976673  1
  Si  Si33  1  0.76197364  0.11326275  0.89023419  1
  Si  Si34  1  0.88572659  0.23639155  0.39040918  1
  Si  Si35  1  0.88572581  0.23639064  0.60959084  1
  O  O36  1  0.05795749  0.78283057  0.13270455  1
  O  O37  1  0.05796048  0.78282762  0.86729331  1
  O  O38  1  0.21672016  0.94331450  0.36787953  1
  O  O39  1  0.21672401  0.94331396  0.63212050  1
  O  O40  1  0.13168192  0.73747623  0.50000063  1
  O  O41  1  0.26442039  0.86590848  -0.00000054  1
  O  O42  1  0.17091455  0.66640976  0.33612126  1
  O  O43  1  0.17091744  0.66640672  0.66387640  1
  O  O44  1  0.16669967  0.50357047  0.16279707  1
  O  O45  1  0.16669893  0.50356730  0.83719980  1
  O  O46  1  0.05693265  0.27275294  0.36681217  1
  O  O47  1  0.05693202  0.27275041  0.63318615  1
  O  O48  1  0.34162859  0.84189912  0.16936849  1
  O  O49  1  0.34162984  0.84189434  0.83063046  1
  O  O50  1  0.13113000  0.39387954  -0.00000141  1
  O  O51  1  0.26274783  0.39387347  0.49999916  1
  O  O52  1  0.50026365  0.84190109  0.33062960  1
  O  O53  1  0.50026510  0.84189665  0.66937278  1
  O  O54  1  0.21581508  0.27275634  0.13318881  1
  O  O55  1  0.21581287  0.27275220  0.86681111  1
  O  O56  1  0.33686235  0.50356524  0.66279616  1
  O  O57  1  0.33685781  0.50356699  0.33720145  1
  O  O58  1  0.49548694  0.66641022  0.16387711  1
  O  O59  1  0.49549074  0.66640929  0.83612080  1
  O  O60  1  0.60147743  0.86589972  0.50000089  1
  O  O61  1  0.27513021  0.21716706  0.36729202  1
  O  O62  1  0.27513132  0.21716645  0.63270685  1
  O  O63  1  0.60579051  0.73748170  -0.00000107  1
  O  O64  1  0.72659038  0.94331534  0.13212183  1
  O  O65  1  0.72659027  0.94331493  0.86787855  1
  O  O66  1  0.27340269  0.05668574  0.13212296  1
  O  O67  1  0.27340800  0.05668387  0.86787760  1
  O  O68  1  0.39419760  0.26251646  -0.00000029  1
  O  O69  1  0.72486155  0.78282640  0.36729358  1
  O  O70  1  0.72486569  0.78282848  0.63270871  1
  O  O71  1  0.39851602  0.13409844  0.49999998  1
  O  O72  1  0.50450687  0.33359354  0.16387798  1
  O  O73  1  0.50450418  0.33359164  0.83612213  1
  O  O74  1  0.66313263  0.49642870  0.33720540  1
  O  O75  1  0.66313375  0.49642875  0.66279712  1
  O  O76  1  0.78417560  0.72724044  0.13318439  1
  O  O77  1  0.78418053  0.72724483  0.86681614  1
  O  O78  1  0.49973156  0.15809712  0.33062886  1
  O  O79  1  0.49973281  0.15809830  0.66937030  1
  O  O80  1  0.73725149  0.60612524  0.50000173  1
  O  O81  1  0.86887044  0.60611188  -0.00000051  1
  O  O82  1  0.65836287  0.15809874  0.16937060  1
  O  O83  1  0.65836023  0.15809754  0.83063050  1
  O  O84  1  0.94306065  0.72724622  0.36681247  1
  O  O85  1  0.94306380  0.72724630  0.63319071  1
  O  O86  1  0.83329309  0.49643225  0.16280141  1
  O  O87  1  0.83329071  0.49643152  0.83719865  1
  O  O88  1  0.82907886  0.33359115  0.33612589  1
  O  O89  1  0.82907832  0.33359246  0.66387562  1
  O  O90  1  0.73557156  0.13409142  -0.00000018  1
  O  O91  1  0.86831060  0.26251881  0.50000047  1
  O  O92  1  0.78327466  0.05668408  0.36787882  1
  O  O93  1  0.78326934  0.05668230  0.63212309  1
  O  O94  1  0.94203680  0.21717241  0.13270494  1
  O  O95  1  0.94203482  0.21717023  0.86729400  1
