# generated using pymatgen
data_Na9Cr2(H9O7)3
_symmetry_space_group_name_H-M   'P 1'
_cell_length_a   8.80562181
_cell_length_b   11.50770186
_cell_length_c   11.73026518
_cell_angle_alpha   74.70237182
_cell_angle_beta   87.69260184
_cell_angle_gamma   70.06925781
_symmetry_Int_Tables_number   1
_chemical_formula_structural   Na9Cr2(H9O7)3
_chemical_formula_sum   'Na18 Cr4 H54 O42'
_cell_volume   1076.25046109
_cell_formula_units_Z   2
loop_
 _symmetry_equiv_pos_site_id
 _symmetry_equiv_pos_as_xyz
  1  'x, y, z'
loop_
 _atom_site_type_symbol
 _atom_site_label
 _atom_site_symmetry_multiplicity
 _atom_site_fract_x
 _atom_site_fract_y
 _atom_site_fract_z
 _atom_site_occupancy
  Na  Na0  1  0.00556888  0.39883181  0.62283499  1
  Na  Na1  1  0.20160065  0.32890224  0.36313698  1
  Na  Na2  1  0.20219203  0.32440094  0.86631617  1
  Na  Na3  1  0.42121590  0.02932070  0.36528633  1
  Na  Na4  1  0.40294440  0.03376229  0.86754834  1
  Na  Na5  1  0.41974936  0.51155103  0.37304197  1
  Na  Na6  1  0.40412476  0.51487184  0.88158250  1
  Na  Na7  1  0.60782815  0.22349413  0.37890635  1
  Na  Na8  1  0.59724429  0.22095179  0.87963469  1
  Na  Na9  1  0.40275571  0.77904821  0.12036531  1
  Na  Na10  1  0.39217185  0.77650587  0.62109365  1
  Na  Na11  1  0.59587524  0.48512816  0.11841750  1
  Na  Na12  1  0.58025064  0.48844897  0.62695803  1
  Na  Na13  1  0.59705560  0.96623771  0.13245166  1
  Na  Na14  1  0.57878410  0.97067930  0.63471367  1
  Na  Na15  1  0.79780797  0.67559906  0.13368383  1
  Na  Na16  1  0.79839935  0.67109776  0.63686302  1
  Na  Na17  1  0.99443112  0.60116819  0.37716501  1
  Cr  Cr18  1  0.40948020  0.27372520  0.12533881  1
  Cr  Cr19  1  0.40213045  0.27719181  0.62223093  1
  Cr  Cr20  1  0.59786955  0.72280819  0.37776907  1
  Cr  Cr21  1  0.59051980  0.72627480  0.87466119  1
  H  H22  1  0.00588864  0.09206428  0.18948681  1
  H  H23  1  0.00921177  0.06133793  0.69830760  1
  H  H24  1  0.11156415  0.02896859  0.03553655  1
  H  H25  1  0.12486684  0.05616778  0.49191324  1
  H  H26  1  0.03114120  0.46184177  0.18944267  1
  H  H27  1  0.16035663  0.20931510  0.18088415  1
  H  H28  1  0.19849491  0.15859616  0.69533368  1
  H  H29  1  0.13381749  0.40676328  0.02842331  1
  H  H30  1  0.12406812  0.58878432  0.02864502  1
  H  H31  1  0.32450778  0.12052827  0.05361287  1
  H  H32  1  0.28905148  0.15520138  0.52860349  1
  H  H33  1  0.07316589  0.72522950  0.58644079  1
  H  H34  1  0.04646757  0.79413223  0.44521752  1
  H  H35  1  0.12911868  0.68757313  0.17019695  1
  H  H36  1  0.11875831  0.61077854  0.74035808  1
  H  H37  1  0.05218297  0.74513252  0.97058282  1
  H  H38  1  0.21697772  0.50794925  0.53855719  1
  H  H39  1  0.14477925  0.76371917  0.26678758  1
  H  H40  1  0.14919185  0.73376756  0.77822427  1
  H  H41  1  0.32102543  0.46549566  0.19334213  1
  H  H42  1  0.30335837  0.46132193  0.71350027  1
  H  H43  1  0.15174463  0.94570641  0.42777771  1
  H  H44  1  0.14104816  0.94159432  0.94512041  1
  H  H45  1  0.32003287  0.72055484  0.43831986  1
  H  H46  1  0.31798876  0.72146222  0.94806704  1
  H  H47  1  0.31891236  0.88220812  0.28603290  1
  H  H48  1  0.30523284  0.87300168  0.79493033  1
  H  H49  1  0.69476716  0.12699832  0.20506967  1
  H  H50  1  0.68108764  0.11779188  0.71396710  1
  H  H51  1  0.68201124  0.27853778  0.05193296  1
  H  H52  1  0.67996713  0.27944516  0.56168014  1
  H  H53  1  0.85895184  0.05840568  0.05487959  1
  H  H54  1  0.84825537  0.05429359  0.57222229  1
  H  H55  1  0.69664163  0.53867807  0.28649973  1
  H  H56  1  0.67897457  0.53450434  0.80665787  1
  H  H57  1  0.85080815  0.26623244  0.22177573  1
  H  H58  1  0.85522075  0.23628083  0.73321242  1
  H  H59  1  0.78302228  0.49205075  0.46144281  1
  H  H60  1  0.94781703  0.25486748  0.02941718  1
  H  H61  1  0.88124169  0.38922146  0.25964192  1
  H  H62  1  0.87088132  0.31242687  0.82980305  1
  H  H63  1  0.95353243  0.20586777  0.55478248  1
  H  H64  1  0.92683411  0.27477050  0.41355921  1
  H  H65  1  0.71094852  0.84479862  0.47139651  1
  H  H66  1  0.67549222  0.87947173  0.94638713  1
  H  H67  1  0.87593188  0.41121568  0.97135498  1
  H  H68  1  0.86618251  0.59323672  0.97157669  1
  H  H69  1  0.80150509  0.84140384  0.30466632  1
  H  H70  1  0.83964337  0.79068490  0.81911585  1
  H  H71  1  0.96885880  0.53815823  0.81055733  1
  H  H72  1  0.87513316  0.94383222  0.50808676  1
  H  H73  1  0.88843585  0.97103141  0.96446345  1
  H  H74  1  0.99078823  0.93866207  0.30169240  1
  H  H75  1  0.99411136  0.90793572  0.81051319  1
  O  O76  1  0.03669335  0.52721445  0.74388522  1
  O  O77  1  0.04380562  0.67116867  0.03918918  1
  O  O78  1  0.24973860  0.20930195  0.22664280  1
  O  O79  1  0.00366577  0.74050986  0.51556551  1
  O  O80  1  0.22898142  0.22145868  0.72117014  1
  O  O81  1  0.23012981  0.43139611  0.02320672  1
  O  O82  1  0.22732926  0.43389726  0.50935471  1
  O  O83  1  0.39794294  0.16321720  0.01355797  1
  O  O84  1  0.07757530  0.86036337  0.87352904  1
  O  O85  1  0.09580061  0.87863013  0.33647471  1
  O  O86  1  0.39193072  0.16857222  0.51093389  1
  O  O87  1  0.18753821  0.67931960  0.24444972  1
  O  O88  1  0.19384804  0.67330090  0.72918583  1
  O  O89  1  0.40805557  0.38858907  0.23488845  1
  O  O90  1  0.40282378  0.38746136  0.73432245  1
  O  O91  1  0.20204806  0.97297292  0.48816547  1
  O  O92  1  0.58838690  0.12507944  0.23161637  1
  O  O93  1  0.56886424  0.12729739  0.73394925  1
  O  O94  1  0.19710255  0.97716715  0.99494289  1
  O  O95  1  0.57288596  0.33409212  0.02098973  1
  O  O96  1  0.42657159  0.66640921  0.47486814  1
  O  O97  1  0.57342841  0.33359079  0.52513186  1
  O  O98  1  0.42711404  0.66590788  0.97901027  1
  O  O99  1  0.80289745  0.02283285  0.00505711  1
  O  O100  1  0.43113576  0.87270261  0.26605075  1
  O  O101  1  0.41161310  0.87492056  0.76838363  1
  O  O102  1  0.79795194  0.02702708  0.51183453  1
  O  O103  1  0.59717622  0.61253864  0.26567755  1
  O  O104  1  0.59194443  0.61141093  0.76511155  1
  O  O105  1  0.80615196  0.32669910  0.27081417  1
  O  O106  1  0.81246179  0.32068040  0.75555028  1
  O  O107  1  0.60806928  0.83142778  0.48906611  1
  O  O108  1  0.90419939  0.12136987  0.66352529  1
  O  O109  1  0.92242470  0.13963663  0.12647096  1
  O  O110  1  0.60205706  0.83678280  0.98644203  1
  O  O111  1  0.77267074  0.56610274  0.49064529  1
  O  O112  1  0.76987019  0.56860389  0.97679328  1
  O  O113  1  0.77101858  0.77854132  0.27882986  1
  O  O114  1  0.99633423  0.25949014  0.48443449  1
  O  O115  1  0.75026140  0.79069805  0.77335720  1
  O  O116  1  0.95619438  0.32883133  0.96081082  1
  O  O117  1  0.96330665  0.47278555  0.25611478  1
