# generated using pymatgen
data_LiMnPO4
_symmetry_space_group_name_H-M   'P 1'
_cell_length_a   10.39483223
_cell_length_b   6.95924292
_cell_length_c   5.15492508
_cell_angle_alpha   90.00000000
_cell_angle_beta   90.00000000
_cell_angle_gamma   90.00000000
_symmetry_Int_Tables_number   1
_chemical_formula_structural   LiMnPO4
_chemical_formula_sum   'Li4 Mn4 P4 O16'
_cell_volume   372.90811848
_cell_formula_units_Z   4
loop_
 _symmetry_equiv_pos_site_id
 _symmetry_equiv_pos_as_xyz
  1  'x, y, z'
loop_
 _atom_site_type_symbol
 _atom_site_label
 _atom_site_symmetry_multiplicity
 _atom_site_fract_x
 _atom_site_fract_y
 _atom_site_fract_z
 _atom_site_occupancy
  Li  Li0  1  0.14684329  0.49829880  0.24611308  1
  Li  Li1  1  0.35315671  0.99829880  0.74611308  1
  Li  Li2  1  0.64684329  0.00170120  0.24611308  1
  Li  Li3  1  0.85315671  0.50170120  0.74611308  1
  Mn  Mn4  1  0.15970426  0.99786032  0.24536624  1
  Mn  Mn5  1  0.34029574  0.49786032  0.74536624  1
  Mn  Mn6  1  0.65970426  0.50213968  0.24536624  1
  Mn  Mn7  1  0.84029574  0.00213968  0.74536624  1
  P  P8  1  0.09610668  0.75112571  0.74990195  1
  P  P9  1  0.40389332  0.25112571  0.24990195  1
  P  P10  1  0.59610668  0.74887429  0.74990195  1
  P  P11  1  0.90389332  0.24887429  0.24990195  1
  O  O12  1  0.05047104  0.24588284  0.19291561  1
  O  O13  1  0.12191505  0.74335961  0.04790514  1
  O  O14  1  0.15542520  0.56993838  0.62088517  1
  O  O15  1  0.16236777  0.93670267  0.64276282  1
  O  O16  1  0.33763223  0.43670267  0.14276282  1
  O  O17  1  0.34457480  0.06993838  0.12088517  1
  O  O18  1  0.37808495  0.24335961  0.54790514  1
  O  O19  1  0.44952896  0.74588284  0.69291561  1
  O  O20  1  0.55047104  0.25411716  0.19291561  1
  O  O21  1  0.62191505  0.75664039  0.04790514  1
  O  O22  1  0.65542520  0.93006162  0.62088517  1
  O  O23  1  0.66236777  0.56329733  0.64276282  1
  O  O24  1  0.83763223  0.06329733  0.14276282  1
  O  O25  1  0.84457480  0.43006162  0.12088517  1
  O  O26  1  0.87808495  0.25664039  0.54790514  1
  O  O27  1  0.94952896  0.75411716  0.69291561  1
