# generated using pymatgen
data_Na14Co2O9
_symmetry_space_group_name_H-M   'P 1'
_cell_length_a   6.65965691
_cell_length_b   6.65955009
_cell_length_c   9.38198226
_cell_angle_alpha   89.99453087
_cell_angle_beta   89.99843345
_cell_angle_gamma   119.99576801
_symmetry_Int_Tables_number   1
_chemical_formula_structural   Na14Co2O9
_chemical_formula_sum   'Na14 Co2 O9'
_cell_volume   360.36325393
_cell_formula_units_Z   1
loop_
 _symmetry_equiv_pos_site_id
 _symmetry_equiv_pos_as_xyz
  1  'x, y, z'
loop_
 _atom_site_type_symbol
 _atom_site_label
 _atom_site_symmetry_multiplicity
 _atom_site_fract_x
 _atom_site_fract_y
 _atom_site_fract_z
 _atom_site_occupancy
  Na  Na0  1  0.03642948  0.67566354  0.90773512  1
  Na  Na1  1  0.31231977  0.93488061  0.59317530  1
  Na  Na2  1  0.06510409  0.37744760  0.59318197  1
  Na  Na3  1  0.99998811  0.99999398  0.25095294  1
  Na  Na4  1  -0.00000021  0.99999564  0.74904727  1
  Na  Na5  1  0.32433868  0.36078791  0.90773411  1
  Na  Na6  1  0.63922213  0.96358119  0.90772923  1
  Na  Na7  1  0.37743301  0.31237392  0.40678544  1
  Na  Na8  1  0.62255696  0.68765428  0.59318889  1
  Na  Na9  1  0.36075659  0.03638516  0.09228993  1
  Na  Na10  1  0.67558943  0.63922525  0.09229608  1
  Na  Na11  1  0.93492885  0.62255993  0.40678892  1
  Na  Na12  1  0.68762989  0.06507253  0.40678488  1
  Na  Na13  1  0.96360307  0.32438459  0.09229227  1
  Co  Co14  1  0.33332783  0.66667019  0.26187799  1
  Co  Co15  1  0.66664888  0.33332206  0.73812655  1
  O  O16  1  0.30445181  0.94139982  0.33622729  1
  O  O17  1  0.05860745  0.36305771  0.33622635  1
  O  O18  1  0.33331477  0.66666914  0.04461661  1
  O  O19  1  0.99999130  0.00000257  -0.00000121  1
  O  O20  1  0.36304383  0.30445247  0.66376847  1
  O  O21  1  0.63692717  0.69554115  0.33623382  1
  O  O22  1  0.66666329  0.33334643  0.95540010  1
  O  O23  1  0.94139991  0.63694548  0.66377763  1
  O  O24  1  0.69552489  0.05858586  0.66376405  1
