# generated using pymatgen
data_Li2VCrO4
_symmetry_space_group_name_H-M   'P 1'
_cell_length_a   5.16718320
_cell_length_b   6.01438859
_cell_length_c   7.88029953
_cell_angle_alpha   101.29690525
_cell_angle_beta   83.46022379
_cell_angle_gamma   73.36831673
_symmetry_Int_Tables_number   1
_chemical_formula_structural   Li2VCrO4
_chemical_formula_sum   'Li6 V3 Cr3 O12'
_cell_volume   226.31185107
_cell_formula_units_Z   3
loop_
 _symmetry_equiv_pos_site_id
 _symmetry_equiv_pos_as_xyz
  1  'x, y, z'
loop_
 _atom_site_type_symbol
 _atom_site_label
 _atom_site_symmetry_multiplicity
 _atom_site_fract_x
 _atom_site_fract_y
 _atom_site_fract_z
 _atom_site_occupancy
  Li  Li0  1  0.00143167  0.00122735  0.99849421  1
  Li  Li1  1  0.99860821  0.16555636  0.66819992  1
  Li  Li2  1  0.99843966  0.33824893  0.33128051  1
  Li  Li3  1  0.99839985  0.50015536  0.00038370  1
  Li  Li4  1  0.00162506  0.66650493  0.66631986  1
  Li  Li5  1  0.00146340  0.82844580  0.33528431  1
  V  V6  1  0.49988835  0.08340774  0.83347518  1
  V  V7  1  0.50051063  0.24842129  0.50021919  1
  V  V8  1  0.49954195  0.91825585  0.16642896  1
  Cr  Cr9  1  0.50121499  0.41997828  0.16633872  1
  Cr  Cr10  1  0.50014205  0.58313727  0.83340317  1
  Cr  Cr11  1  0.49881653  0.74663810  0.50024674  1
  O  O12  1  0.27469288  0.03318794  0.41557990  1
  O  O13  1  0.27471781  0.36787881  0.74906786  1
  O  O14  1  0.72533816  0.13327169  0.25071321  1
  O  O15  1  0.27298060  0.21121285  0.07961439  1
  O  O16  1  0.72844296  0.30575219  0.92011566  1
  O  O17  1  0.27383521  0.53680730  0.41203534  1
  O  O18  1  0.72411231  0.46246157  0.58504553  1
  O  O19  1  0.27155896  0.86090207  0.74653080  1
  O  O20  1  0.72521671  0.79893810  0.91777164  1
  O  O21  1  0.27596109  0.70423446  0.08174239  1
  O  O22  1  0.72636141  0.62951738  0.25476443  1
  O  O23  1  0.72669755  0.95585838  0.58694437  1
