# generated using pymatgen
data_H6C2SBr2
_symmetry_space_group_name_H-M   'P 1'
_cell_length_a   7.62442068
_cell_length_b   7.55247375
_cell_length_c   11.61265256
_cell_angle_alpha   90.00000000
_cell_angle_beta   93.38853339
_cell_angle_gamma   90.00000000
_symmetry_Int_Tables_number   1
_chemical_formula_structural   H6C2SBr2
_chemical_formula_sum   'H24 C8 S4 Br8'
_cell_volume   667.52503146
_cell_formula_units_Z   4
loop_
 _symmetry_equiv_pos_site_id
 _symmetry_equiv_pos_as_xyz
  1  'x, y, z'
loop_
 _atom_site_type_symbol
 _atom_site_label
 _atom_site_symmetry_multiplicity
 _atom_site_fract_x
 _atom_site_fract_y
 _atom_site_fract_z
 _atom_site_occupancy
  H  H0  1  0.02152037  0.21694312  0.98355515  1
  H  H1  1  0.02152037  0.28305688  0.48355515  1
  H  H2  1  0.12426068  0.33503756  0.86987966  1
  H  H3  1  0.14284642  0.09806973  0.87941144  1
  H  H4  1  0.12426068  0.16496244  0.36987966  1
  H  H5  1  0.14284642  0.40193027  0.37941144  1
  H  H6  1  0.15923435  0.08304705  0.63930525  1
  H  H7  1  0.15923435  0.41695295  0.13930525  1
  H  H8  1  0.28670204  0.94967280  0.54539618  1
  H  H9  1  0.28670204  0.55032720  0.04539618  1
  H  H10  1  0.39266688  0.05418708  0.67029849  1
  H  H11  1  0.39266688  0.44581292  0.17029849  1
  H  H12  1  0.60733312  0.55418708  0.82970151  1
  H  H13  1  0.60733312  0.94581292  0.32970151  1
  H  H14  1  0.71329796  0.44967280  0.95460382  1
  H  H15  1  0.71329796  0.05032720  0.45460382  1
  H  H16  1  0.84076565  0.58304705  0.86069475  1
  H  H17  1  0.84076565  0.91695295  0.36069475  1
  H  H18  1  0.85715358  0.59806973  0.62058856  1
  H  H19  1  0.87573932  0.83503756  0.63012034  1
  H  H20  1  0.85715358  0.90193027  0.12058856  1
  H  H21  1  0.87573932  0.66496244  0.13012034  1
  H  H22  1  0.97847963  0.71694312  0.51644485  1
  H  H23  1  0.97847963  0.78305688  0.01644485  1
  C  C24  1  0.13425516  0.22107987  0.92877748  1
  C  C25  1  0.13425516  0.27892013  0.42877748  1
  C  C26  1  0.28745911  0.06609332  0.60224621  1
  C  C27  1  0.28745911  0.43390668  0.10224621  1
  C  C28  1  0.71254089  0.56609332  0.89775379  1
  C  C29  1  0.71254089  0.93390668  0.39775379  1
  C  C30  1  0.86574484  0.72107987  0.57122252  1
  C  C31  1  0.86574484  0.77892013  0.07122252  1
  S  S32  1  0.33529324  0.25749856  0.51721490  1
  S  S33  1  0.33529324  0.24250144  0.01721490  1
  S  S34  1  0.66470676  0.75749856  0.98278510  1
  S  S35  1  0.66470676  0.74250144  0.48278510  1
  Br  Br36  1  0.22380326  0.72100536  0.82057722  1
  Br  Br37  1  0.22380326  0.77899464  0.32057722  1
  Br  Br38  1  0.29214283  0.48566217  0.65847098  1
  Br  Br39  1  0.29214283  0.01433783  0.15847098  1
  Br  Br40  1  0.70785717  0.98566217  0.84152902  1
  Br  Br41  1  0.70785717  0.51433783  0.34152902  1
  Br  Br42  1  0.77619674  0.22100436  0.67942278  1
  Br  Br43  1  0.77619674  0.27899564  0.17942278  1
