# generated using pymatgen
data_ErH(SO4)2
_symmetry_space_group_name_H-M   'P 1'
_cell_length_a   5.50795208
_cell_length_b   10.86935351
_cell_length_c   10.61960958
_cell_angle_alpha   90.00000000
_cell_angle_beta   104.57676275
_cell_angle_gamma   90.00000000
_symmetry_Int_Tables_number   1
_chemical_formula_structural   ErH(SO4)2
_chemical_formula_sum   'Er4 H4 S8 O32'
_cell_volume   615.30878533
_cell_formula_units_Z   4
loop_
 _symmetry_equiv_pos_site_id
 _symmetry_equiv_pos_as_xyz
  1  'x, y, z'
loop_
 _atom_site_type_symbol
 _atom_site_label
 _atom_site_symmetry_multiplicity
 _atom_site_fract_x
 _atom_site_fract_y
 _atom_site_fract_z
 _atom_site_occupancy
  Er  Er0  1  0.11202953  0.16708178  0.84777905  1
  Er  Er1  1  0.38797047  0.66708178  0.65222095  1
  Er  Er2  1  0.61202953  0.33291822  0.34777905  1
  Er  Er3  1  0.88797047  0.83291822  0.15222095  1
  H  H4  1  0.24472294  0.02384475  0.39547479  1
  H  H5  1  0.25527706  0.52384475  0.10452521  1
  H  H6  1  0.74472294  0.47615525  0.89547479  1
  H  H7  1  0.75527706  0.97615525  0.60452521  1
  S  S8  1  0.31828769  0.68244049  0.99466754  1
  S  S9  1  0.18171231  0.18244049  0.50533246  1
  S  S10  1  0.10945865  0.54535677  0.31966143  1
  S  S11  1  0.60945865  0.95464323  0.81966143  1
  S  S12  1  0.39054135  0.04535677  0.18033857  1
  S  S13  1  0.89054135  0.45464323  0.68033857  1
  S  S14  1  0.81828769  0.81755951  0.49466754  1
  S  S15  1  0.68171231  0.31755951  0.00533246  1
  O  O16  1  0.04491441  0.78872000  0.59724271  1
  O  O17  1  0.13855201  0.50950242  0.69130743  1
  O  O18  1  0.13678001  0.18534913  0.63443745  1
  O  O19  1  0.36321999  0.68534913  0.86556255  1
  O  O20  1  0.36144799  0.00950242  0.80869257  1
  O  O21  1  0.08795234  0.65456089  0.23478989  1
  O  O22  1  0.23219150  0.57503712  0.45626074  1
  O  O23  1  0.24751370  0.04391030  0.48770945  1
  O  O24  1  0.45508559  0.28872000  0.90275729  1
  O  O25  1  0.10585200  0.75927458  0.00324128  1
  O  O26  1  0.22578470  0.95536388  0.23010097  1
  O  O27  1  0.27421530  0.45536388  0.26989903  1
  O  O28  1  0.39414800  0.25927458  0.49675872  1
  O  O29  1  0.58795234  0.84543911  0.73478989  1
  O  O30  1  0.25248630  0.54391030  0.01229055  1
  O  O31  1  0.26780850  0.07503712  0.04373926  1
  O  O32  1  0.73219150  0.92496288  0.95626074  1
  O  O33  1  0.74751370  0.45608970  0.98770945  1
  O  O34  1  0.41204766  0.15456089  0.26521011  1
  O  O35  1  0.60585200  0.74072542  0.50324128  1
  O  O36  1  0.72578470  0.54463612  0.73010097  1
  O  O37  1  0.77421530  0.04463612  0.76989903  1
  O  O38  1  0.89414800  0.24072542  0.99675872  1
  O  O39  1  0.54491441  0.71128000  0.09724271  1
  O  O40  1  0.75248630  0.95608970  0.51229055  1
  O  O41  1  0.76780850  0.42496288  0.54373926  1
  O  O42  1  0.91204766  0.34543911  0.76521011  1
  O  O43  1  0.63855201  0.99049758  0.19130743  1
  O  O44  1  0.63678001  0.31465087  0.13443745  1
  O  O45  1  0.86321999  0.81465087  0.36556255  1
  O  O46  1  0.86144799  0.49049758  0.30869257  1
  O  O47  1  0.95508559  0.21128000  0.40275729  1
