# generated using pymatgen
data_EuAg2Sn
_symmetry_space_group_name_H-M   'P 1'
_cell_length_a   5.06302471
_cell_length_b   5.08860266
_cell_length_c   5.08457309
_cell_angle_alpha   59.85131068
_cell_angle_beta   60.27558586
_cell_angle_gamma   60.28699409
_symmetry_Int_Tables_number   1
_chemical_formula_structural   EuAg2Sn
_chemical_formula_sum   'Eu1 Ag2 Sn1'
_cell_volume   92.91525964
_cell_formula_units_Z   1
loop_
 _symmetry_equiv_pos_site_id
 _symmetry_equiv_pos_as_xyz
  1  'x, y, z'
loop_
 _atom_site_type_symbol
 _atom_site_label
 _atom_site_symmetry_multiplicity
 _atom_site_fract_x
 _atom_site_fract_y
 _atom_site_fract_z
 _atom_site_occupancy
  Eu  Eu0  1  0.24998737  0.25001420  0.25000237  1
  Ag  Ag1  1  0.50004983  0.50015401  0.50002591  1
  Ag  Ag2  1  0.99995792  0.99983691  0.99997260  1
  Sn  Sn3  1  0.75000488  0.74999488  0.74999912  1
