# generated using pymatgen
data_Gd3Ni19B10
_symmetry_space_group_name_H-M   'P 1'
_cell_length_a   7.87083758
_cell_length_b   7.86980377
_cell_length_c   5.75661334
_cell_angle_alpha   88.83853003
_cell_angle_beta   91.17873333
_cell_angle_gamma   112.82101217
_symmetry_Int_Tables_number   1
_chemical_formula_structural   Gd3Ni19B10
_chemical_formula_sum   'Gd3 Ni19 B10'
_cell_volume   328.56465090
_cell_formula_units_Z   1
loop_
 _symmetry_equiv_pos_site_id
 _symmetry_equiv_pos_as_xyz
  1  'x, y, z'
loop_
 _atom_site_type_symbol
 _atom_site_label
 _atom_site_symmetry_multiplicity
 _atom_site_fract_x
 _atom_site_fract_y
 _atom_site_fract_z
 _atom_site_occupancy
  Gd  Gd0  1  0.62552392  0.37441541  0.38794847  1
  Gd  Gd1  1  0.37448926  0.62557494  0.61200990  1
  Gd  Gd2  1  0.00000667  0.00000298  -0.00001615  1
  Ni  Ni3  1  0.99998781  0.00001384  0.50001785  1
  Ni  Ni4  1  0.62134735  0.87831985  0.92618808  1
  Ni  Ni5  1  0.87828333  0.62127636  0.07389707  1
  Ni  Ni6  1  0.37866815  0.12169205  0.07380988  1
  Ni  Ni7  1  0.12170587  0.37871343  0.92609277  1
  Ni  Ni8  1  0.28780508  0.22917184  0.69892324  1
  Ni  Ni9  1  0.22921128  0.28786019  0.30107251  1
  Ni  Ni10  1  0.71221265  0.77083042  0.30107713  1
  Ni  Ni11  1  0.77079405  0.71213267  0.69893506  1
  Ni  Ni12  1  0.18266961  0.81729632  0.27126505  1
  Ni  Ni13  1  0.81730910  0.18273160  0.72877772  1
  Ni  Ni14  1  0.95514468  0.51841871  0.69866139  1
  Ni  Ni15  1  0.51841939  0.95513691  0.30136390  1
  Ni  Ni16  1  0.04485259  0.48158926  0.30133337  1
  Ni  Ni17  1  0.48157025  0.04483975  0.69861360  1
  Ni  Ni18  1  0.62186248  0.37805194  0.87629828  1
  Ni  Ni19  1  0.37813439  0.62194806  0.12364407  1
  Ni  Ni20  1  0.16284873  0.83721011  0.70154156  1
  Ni  Ni21  1  0.83714278  0.16278111  0.29850914  1
  B  B22  1  0.34799581  0.85717202  0.97521848  1
  B  B23  1  0.85712308  0.34790220  0.02490421  1
  B  B24  1  0.38321291  0.38320394  0.00004033  1
  B  B25  1  0.61678849  0.61679293  -0.00001514  1
  B  B26  1  0.14287238  0.65210336  0.97513955  1
  B  B27  1  0.65198753  0.14282020  0.02480331  1
  B  B28  1  0.29989369  0.06362500  0.43147466  1
  B  B29  1  0.06352865  0.29981002  0.56852134  1
  B  B30  1  0.70013826  0.93638761  0.56850176  1
  B  B31  1  0.93645679  0.70016099  0.43144860  1
