# generated using pymatgen
data_Ho(CrGe)6
_symmetry_space_group_name_H-M   'P 1'
_cell_length_a   5.11277117
_cell_length_b   5.11470893
_cell_length_c   8.33851750
_cell_angle_alpha   90.00000000
_cell_angle_beta   90.00000000
_cell_angle_gamma   119.98746180
_symmetry_Int_Tables_number   1
_chemical_formula_structural   Ho(CrGe)6
_chemical_formula_sum   'Ho1 Cr6 Ge6'
_cell_volume   188.86505591
_cell_formula_units_Z   1
loop_
 _symmetry_equiv_pos_site_id
 _symmetry_equiv_pos_as_xyz
  1  'x, y, z'
loop_
 _atom_site_type_symbol
 _atom_site_label
 _atom_site_symmetry_multiplicity
 _atom_site_fract_x
 _atom_site_fract_y
 _atom_site_fract_z
 _atom_site_occupancy
  Ho  Ho0  1  0.99998109  0.00000000  -0.00000000  1
  Cr  Cr1  1  0.49999471  0.00000000  0.25027044  1
  Cr  Cr2  1  0.49999018  0.50000438  0.25027493  1
  Cr  Cr3  1  0.99998580  0.49999562  0.25027493  1
  Cr  Cr4  1  0.49999471  0.00000000  0.74972956  1
  Cr  Cr5  1  0.49999018  0.50000438  0.74972507  1
  Cr  Cr6  1  0.99998580  0.49999562  0.74972507  1
  Ge  Ge7  1  0.33330960  0.66666705  -0.00000000  1
  Ge  Ge8  1  0.66664255  0.33333295  -0.00000000  1
  Ge  Ge9  1  0.33330890  0.66667772  0.50000000  1
  Ge  Ge10  1  0.66663119  0.33332228  0.50000000  1
  Ge  Ge11  1  0.99999265  1.00000000  0.34564231  1
  Ge  Ge12  1  0.99999265  1.00000000  0.65435769  1
