# generated using pymatgen
data_HfMg14Al
_symmetry_space_group_name_H-M   'P 1'
_cell_length_a   6.35596342
_cell_length_b   6.35596291
_cell_length_c   10.16387902
_cell_angle_alpha   90.00000000
_cell_angle_beta   90.00000000
_cell_angle_gamma   120.00000265
_symmetry_Int_Tables_number   1
_chemical_formula_structural   HfMg14Al
_chemical_formula_sum   'Hf1 Mg14 Al1'
_cell_volume   355.59271133
_cell_formula_units_Z   1
loop_
 _symmetry_equiv_pos_site_id
 _symmetry_equiv_pos_as_xyz
  1  'x, y, z'
loop_
 _atom_site_type_symbol
 _atom_site_label
 _atom_site_symmetry_multiplicity
 _atom_site_fract_x
 _atom_site_fract_y
 _atom_site_fract_z
 _atom_site_occupancy
  Hf  Hf0  1  0.16666700  0.33333300  0.62500000  1
  Mg  Mg1  1  0.16489323  0.83244611  0.12500000  1
  Mg  Mg2  1  0.17171008  0.83585454  0.62500000  1
  Mg  Mg3  1  0.66755389  0.33510677  0.12500000  1
  Mg  Mg4  1  0.66414546  0.32828992  0.62500000  1
  Mg  Mg5  1  0.66755389  0.83244611  0.12500000  1
  Mg  Mg6  1  0.66414546  0.83585454  0.62500000  1
  Mg  Mg7  1  0.32891343  0.17108657  0.37439828  1
  Mg  Mg8  1  0.32891343  0.17108657  0.87560172  1
  Mg  Mg9  1  0.32891343  0.65782787  0.37439828  1
  Mg  Mg10  1  0.32891343  0.65782787  0.87560172  1
  Mg  Mg11  1  0.84217213  0.17108657  0.37439828  1
  Mg  Mg12  1  0.84217213  0.17108657  0.87560172  1
  Mg  Mg13  1  0.83333300  0.66666700  0.38027679  1
  Mg  Mg14  1  0.83333300  0.66666700  0.86972321  1
  Al  Al15  1  0.16666700  0.33333300  0.12500000  1
