# generated using pymatgen
data_NaSmTiO4
_symmetry_space_group_name_H-M   'P 1'
_cell_length_a   3.74322704
_cell_length_b   3.74322704
_cell_length_c   13.01488845
_cell_angle_alpha   90.00000000
_cell_angle_beta   90.00000000
_cell_angle_gamma   90.00000000
_symmetry_Int_Tables_number   1
_chemical_formula_structural   NaSmTiO4
_chemical_formula_sum   'Na2 Sm2 Ti2 O8'
_cell_volume   182.36134597
_cell_formula_units_Z   2
loop_
 _symmetry_equiv_pos_site_id
 _symmetry_equiv_pos_as_xyz
  1  'x, y, z'
loop_
 _atom_site_type_symbol
 _atom_site_label
 _atom_site_symmetry_multiplicity
 _atom_site_fract_x
 _atom_site_fract_y
 _atom_site_fract_z
 _atom_site_occupancy
  O  O0  1  0.75000000  0.75000000  0.93210546  1
  O  O1  1  0.25000000  0.25000000  0.06789454  1
  O  O2  1  0.75000000  0.75000000  0.59561074  1
  O  O3  1  0.25000000  0.25000000  0.40438926  1
  O  O4  1  0.75000000  0.25000000  0.23027576  1
  O  O5  1  0.25000000  0.75000000  0.23027576  1
  O  O6  1  0.75000000  0.25000000  0.76972424  1
  O  O7  1  0.25000000  0.75000000  0.76972424  1
  Na  Na8  1  0.25000000  0.25000000  0.58270521  1
  Na  Na9  1  0.75000000  0.75000000  0.41729479  1
  Ti  Ti10  1  0.25000000  0.25000000  0.26841642  1
  Ti  Ti11  1  0.75000000  0.75000000  0.73158358  1
  Sm  Sm12  1  0.75000000  0.75000000  0.10680083  1
  Sm  Sm13  1  0.25000000  0.25000000  0.89319917  1
