# generated using pymatgen
data_Tl
_symmetry_space_group_name_H-M   'P 1'
_cell_length_a   3.65178784
_cell_length_b   3.65178816
_cell_length_c   8.50182527
_cell_angle_alpha   77.59826922
_cell_angle_beta   102.40173457
_cell_angle_gamma   119.99998292
_symmetry_Int_Tables_number   1
_chemical_formula_structural   Tl
_chemical_formula_sum   Tl3
_cell_volume   95.11991571
_cell_formula_units_Z   3
loop_
 _symmetry_equiv_pos_site_id
 _symmetry_equiv_pos_as_xyz
  1  'x, y, z'
loop_
 _atom_site_type_symbol
 _atom_site_label
 _atom_site_symmetry_multiplicity
 _atom_site_fract_x
 _atom_site_fract_y
 _atom_site_fract_z
 _atom_site_occupancy
  Tl  Tl0  1  0.00000000  -0.00000000  0.00000000  1
  Tl  Tl1  1  0.77940265  0.22059835  0.33820596  1
  Tl  Tl2  1  0.22059835  0.77940165  0.66179404  1
