# generated using pymatgen
data_KNO3
_symmetry_space_group_name_H-M   'P 1'
_cell_length_a   5.67559383
_cell_length_b   6.95963477
_cell_length_c   7.79946773
_cell_angle_alpha   90.00000000
_cell_angle_beta   90.00000000
_cell_angle_gamma   90.00000000
_symmetry_Int_Tables_number   1
_chemical_formula_structural   KNO3
_chemical_formula_sum   'K4 N4 O12'
_cell_volume   308.07944455
_cell_formula_units_Z   4
loop_
 _symmetry_equiv_pos_site_id
 _symmetry_equiv_pos_as_xyz
  1  'x, y, z'
loop_
 _atom_site_type_symbol
 _atom_site_label
 _atom_site_symmetry_multiplicity
 _atom_site_fract_x
 _atom_site_fract_y
 _atom_site_fract_z
 _atom_site_occupancy
  N  N0  1  0.25000000  0.35933147  0.84596178  1
  N  N1  1  0.75000000  0.64066853  0.15403822  1
  N  N2  1  0.75000000  0.85933147  0.65403822  1
  N  N3  1  0.25000000  0.14066853  0.34596178  1
  O  O4  1  0.55633184  0.93517991  0.70025038  1
  O  O5  1  0.05633184  0.06482009  0.29974962  1
  O  O6  1  0.44366816  0.43517991  0.79974962  1
  O  O7  1  0.94366816  0.56482009  0.20025038  1
  O  O8  1  0.25000000  0.28802120  0.44106829  1
  O  O9  1  0.75000000  0.71197880  0.55893171  1
  O  O10  1  0.75000000  0.78802120  0.05893171  1
  O  O11  1  0.25000000  0.21197880  0.94106829  1
  O  O12  1  0.44366816  0.06482009  0.29974962  1
  O  O13  1  0.94366816  0.93517991  0.70025038  1
  O  O14  1  0.55633184  0.56482009  0.20025038  1
  O  O15  1  0.05633184  0.43517991  0.79974962  1
  K  K16  1  0.25000000  0.80900270  0.98352037  1
  K  K17  1  0.75000000  0.19099730  0.01647963  1
  K  K18  1  0.75000000  0.30900270  0.51647963  1
  K  K19  1  0.25000000  0.69099730  0.48352037  1
