# generated using pymatgen
data_Yb2Cu(GeO3)4
_symmetry_space_group_name_H-M   'P 1'
_cell_length_a   4.87479929
_cell_length_b   7.36132285
_cell_length_c   7.99779498
_cell_angle_alpha   66.32964358
_cell_angle_beta   86.94723441
_cell_angle_gamma   76.11693056
_symmetry_Int_Tables_number   1
_chemical_formula_structural   Yb2Cu(GeO3)4
_chemical_formula_sum   'Yb2 Cu1 Ge4 O12'
_cell_volume   254.87708588
_cell_formula_units_Z   1
loop_
 _symmetry_equiv_pos_site_id
 _symmetry_equiv_pos_as_xyz
  1  'x, y, z'
loop_
 _atom_site_type_symbol
 _atom_site_label
 _atom_site_symmetry_multiplicity
 _atom_site_fract_x
 _atom_site_fract_y
 _atom_site_fract_z
 _atom_site_occupancy
  O  O0  1  0.74063341  0.94422100  0.60169792  1
  O  O1  1  0.25936659  0.05577900  0.39830208  1
  O  O2  1  0.76566058  0.59292690  0.39146490  1
  O  O3  1  0.23433942  0.40707310  0.60853510  1
  O  O4  1  0.39876612  0.64793247  0.72732730  1
  O  O5  1  0.60123388  0.35206753  0.27267270  1
  O  O6  1  0.74918562  0.70393458  0.98384387  1
  O  O7  1  0.75736268  0.22247956  0.82153908  1
  O  O8  1  0.24263732  0.77752044  0.17846092  1
  O  O9  1  0.77565174  0.99972997  0.19598788  1
  O  O10  1  0.22434826  0.00027003  0.80401212  1
  O  O11  1  0.25081438  0.29606542  0.01615613  1
  Cu  Cu12  1  0.00000000  0.00000000  0.00000000  1
  Ge  Ge13  1  0.53044923  0.82646458  0.77810148  1
  Ge  Ge14  1  0.46955077  0.17353542  0.22189852  1
  Ge  Ge15  1  0.58838770  0.62107990  0.19873799  1
  Ge  Ge16  1  0.41161230  0.37892010  0.80126201  1
  Yb  Yb17  1  0.06375275  0.76044475  0.45613226  1
  Yb  Yb18  1  0.93624725  0.23955525  0.54386774  1
