# generated using pymatgen
data_V6Si5
_symmetry_space_group_name_H-M   'P 1'
_cell_length_a   4.83934197
_cell_length_b   7.47923431
_cell_length_c   9.12441416
_cell_angle_alpha   114.19524722
_cell_angle_beta   105.37803184
_cell_angle_gamma   90.00000004
_symmetry_Int_Tables_number   1
_chemical_formula_structural   V6Si5
_chemical_formula_sum   'V12 Si10'
_cell_volume   288.23106356
_cell_formula_units_Z   2
loop_
 _symmetry_equiv_pos_site_id
 _symmetry_equiv_pos_as_xyz
  1  'x, y, z'
loop_
 _atom_site_type_symbol
 _atom_site_label
 _atom_site_symmetry_multiplicity
 _atom_site_fract_x
 _atom_site_fract_y
 _atom_site_fract_z
 _atom_site_occupancy
  Si  Si0  1  0.75000000  0.00000000  0.00000000  1
  Si  Si1  1  0.25000000  0.00000000  0.00000000  1
  Si  Si2  1  0.28609967  0.58388465  0.57219935  1
  Si  Si3  1  0.71390033  0.41611535  0.42780065  1
  Si  Si4  1  0.21390033  0.01168530  0.42780065  1
  Si  Si5  1  0.78609967  0.98831470  0.57219935  1
  Si  Si6  1  0.06384533  0.47363912  0.12769067  1
  Si  Si7  1  0.93615467  0.52636088  0.87230933  1
  Si  Si8  1  0.43615467  0.34594845  0.87230933  1
  Si  Si9  1  0.56384533  0.65405155  0.12769067  1
  V  V10  1  0.06021032  0.31021032  0.62042064  1
  V  V11  1  0.43978968  0.68978968  0.37957936  1
  V  V12  1  0.93978968  0.68978968  0.37957936  1
  V  V13  1  0.56021032  0.31021032  0.62042064  1
  V  V14  1  0.14346285  0.25708995  0.28692569  1
  V  V15  1  0.85653715  0.74291005  0.71307431  1
  V  V16  1  0.35653715  0.97016426  0.71307431  1
  V  V17  1  0.64346285  0.02983574  0.28692569  1
  V  V18  1  0.43482016  0.68170996  0.86964032  1
  V  V19  1  0.56517984  0.31829004  0.13035968  1
  V  V20  1  0.06517984  0.81206964  0.13035968  1
  V  V21  1  0.93482016  0.18793036  0.86964032  1
