# generated using pymatgen
data_NdAu3
_symmetry_space_group_name_H-M   'P 1'
_cell_length_a   4.99574247
_cell_length_b   4.99574886
_cell_length_c   4.99574149
_cell_angle_alpha   60.00012764
_cell_angle_beta   60.00010727
_cell_angle_gamma   60.00008479
_symmetry_Int_Tables_number   1
_chemical_formula_structural   NdAu3
_chemical_formula_sum   'Nd1 Au3'
_cell_volume   88.16305876
_cell_formula_units_Z   1
loop_
 _symmetry_equiv_pos_site_id
 _symmetry_equiv_pos_as_xyz
  1  'x, y, z'
loop_
 _atom_site_type_symbol
 _atom_site_label
 _atom_site_symmetry_multiplicity
 _atom_site_fract_x
 _atom_site_fract_y
 _atom_site_fract_z
 _atom_site_occupancy
  Nd  Nd0  1  0.74999921  0.74999899  0.74999907  1
  Au  Au1  1  0.99999994  -0.00000014  0.99999996  1
  Au  Au2  1  0.49999875  0.49999912  0.49999905  1
  Au  Au3  1  0.25000010  0.25000003  0.24999992  1
