# generated using pymatgen
data_Gd3MnB7
_symmetry_space_group_name_H-M   'P 1'
_cell_length_a   8.13922141
_cell_length_b   8.13922141
_cell_length_c   9.37076221
_cell_angle_alpha   90.00000000
_cell_angle_beta   90.00000000
_cell_angle_gamma   24.45962412
_symmetry_Int_Tables_number   1
_chemical_formula_structural   Gd3MnB7
_chemical_formula_sum   'Gd6 Mn2 B14'
_cell_volume   257.03686880
_cell_formula_units_Z   2
loop_
 _symmetry_equiv_pos_site_id
 _symmetry_equiv_pos_as_xyz
  1  'x, y, z'
loop_
 _atom_site_type_symbol
 _atom_site_label
 _atom_site_symmetry_multiplicity
 _atom_site_fract_x
 _atom_site_fract_y
 _atom_site_fract_z
 _atom_site_occupancy
  Gd  Gd0  1  0.10422548  0.10422548  0.06140465  1
  Gd  Gd1  1  0.89577352  0.89577352  0.56140465  1
  Gd  Gd2  1  0.89577352  0.89577352  0.93859535  1
  Gd  Gd3  1  0.10422548  0.10422548  0.43859435  1
  Gd  Gd4  1  0.75852870  0.75852870  0.25000000  1
  Gd  Gd5  1  0.24147130  0.24147130  0.75000100  1
  Mn  Mn6  1  0.94589802  0.94589802  0.25000000  1
  Mn  Mn7  1  0.05410198  0.05410198  0.75000100  1
  B  B8  1  0.53775816  0.53775816  0.25000000  1
  B  B9  1  0.46224184  0.46224184  0.75000100  1
  B  B10  1  0.27291548  0.27291548  0.03098385  1
  B  B11  1  0.72708352  0.72708352  0.53098285  1
  B  B12  1  0.72708352  0.72708352  0.96901715  1
  B  B13  1  0.27291548  0.27291548  0.46901815  1
  B  B14  1  0.36997880  0.36997880  0.34686034  1
  B  B15  1  0.63002120  0.63002120  0.84686134  1
  B  B16  1  0.63002120  0.63002120  0.65313966  1
  B  B17  1  0.36997880  0.36997880  0.15313866  1
  B  B18  1  0.47723411  0.47723411  0.40127213  1
  B  B19  1  0.52276589  0.52276589  0.90127213  1
  B  B20  1  0.52276589  0.52276589  0.59872887  1
  B  B21  1  0.47723411  0.47723411  0.09872887  1
