# generated using pymatgen
data_NaTl2Sb
_symmetry_space_group_name_H-M   'P 1'
_cell_length_a   5.54113391
_cell_length_b   5.54113747
_cell_length_c   5.54113990
_cell_angle_alpha   59.99985200
_cell_angle_beta   59.99981485
_cell_angle_gamma   59.99997079
_symmetry_Int_Tables_number   1
_chemical_formula_structural   NaTl2Sb
_chemical_formula_sum   'Na1 Tl2 Sb1'
_cell_volume   120.30411928
_cell_formula_units_Z   1
loop_
 _symmetry_equiv_pos_site_id
 _symmetry_equiv_pos_as_xyz
  1  'x, y, z'
loop_
 _atom_site_type_symbol
 _atom_site_label
 _atom_site_symmetry_multiplicity
 _atom_site_fract_x
 _atom_site_fract_y
 _atom_site_fract_z
 _atom_site_occupancy
  Na  Na0  1  0.24999819  0.24999543  0.25000230  1
  Tl  Tl1  1  -0.00000035  0.00000224  0.99999988  1
  Tl  Tl2  1  0.50000151  0.49999993  0.49999933  1
  Sb  Sb3  1  0.75000065  0.75000240  0.74999849  1
