# generated using pymatgen
data_U5As3Se2
_symmetry_space_group_name_H-M   'P 1'
_cell_length_a   7.03237215
_cell_length_b   17.94609454
_cell_length_c   8.61993742
_cell_angle_alpha   28.27004906
_cell_angle_beta   65.92618290
_cell_angle_gamma   78.70091571
_symmetry_Int_Tables_number   1
_chemical_formula_structural   U5As3Se2
_chemical_formula_sum   'U10 As6 Se4'
_cell_volume   435.58336615
_cell_formula_units_Z   2
loop_
 _symmetry_equiv_pos_site_id
 _symmetry_equiv_pos_as_xyz
  1  'x, y, z'
loop_
 _atom_site_type_symbol
 _atom_site_label
 _atom_site_symmetry_multiplicity
 _atom_site_fract_x
 _atom_site_fract_y
 _atom_site_fract_z
 _atom_site_occupancy
  U  U0  1  0.44832014  0.09850908  0.50264639  1
  U  U1  1  0.35000000  0.30000000  0.50000000  1
  U  U2  1  0.05018894  0.89966455  0.50216182  1
  U  U3  1  0.24947561  0.50149092  0.49735361  1
  U  U4  1  0.14981106  0.70033545  0.49783818  1
  U  U5  1  0.95052439  0.09850908  0.50264639  1
  U  U6  1  0.85000000  0.30000000  0.50000000  1
  U  U7  1  0.75167986  0.50149092  0.49735361  1
  U  U8  1  0.65201531  0.70033545  0.49783818  1
  U  U9  1  0.54798469  0.89966455  0.50216182  1
  As  As10  1  0.00008533  0.00021438  0.99961497  1
  As  As11  1  0.40012905  0.20004372  -0.00030183  1
  As  As12  1  0.19991467  0.59978562  0.00038503  1
  As  As13  1  0.10000000  0.80000000  0.00000000  1
  As  As14  1  0.79987095  0.39995628  0.00030183  1
  As  As15  1  0.60000000  0.80000000  0.00000000  1
  Se  Se16  1  0.29999167  0.39999992  0.00001674  1
  Se  Se17  1  0.50000824  0.00001657  0.99996694  1
  Se  Se18  1  0.90000833  0.20000008  0.99998326  1
  Se  Se19  1  0.69999176  0.59998343  0.00003306  1
