# generated using pymatgen
data_DyYIr2
_symmetry_space_group_name_H-M   'P 1'
_cell_length_a   4.85914566
_cell_length_b   4.85912567
_cell_length_c   4.85915586
_cell_angle_alpha   60.00013209
_cell_angle_beta   60.00018880
_cell_angle_gamma   60.00020112
_symmetry_Int_Tables_number   1
_chemical_formula_structural   DyYIr2
_chemical_formula_sum   'Dy1 Y1 Ir2'
_cell_volume   81.12703322
_cell_formula_units_Z   1
loop_
 _symmetry_equiv_pos_site_id
 _symmetry_equiv_pos_as_xyz
  1  'x, y, z'
loop_
 _atom_site_type_symbol
 _atom_site_label
 _atom_site_symmetry_multiplicity
 _atom_site_fract_x
 _atom_site_fract_y
 _atom_site_fract_z
 _atom_site_occupancy
  Dy  Dy0  1  0.24999943  0.25000027  0.25000017  1
  Y  Y1  1  0.75000090  0.75000042  0.75000112  1
  Ir  Ir2  1  0.00000024  0.00000001  -0.00000091  1
  Ir  Ir3  1  0.49999943  0.49999931  0.49999961  1
