# generated using pymatgen
data_TmP5
_symmetry_space_group_name_H-M   'P 1'
_cell_length_a   4.92079759
_cell_length_b   5.31756481
_cell_length_c   9.36171210
_cell_angle_alpha   90.00000000
_cell_angle_beta   90.00000000
_cell_angle_gamma   102.34438869
_symmetry_Int_Tables_number   1
_chemical_formula_structural   TmP5
_chemical_formula_sum   'Tm2 P10'
_cell_volume   239.30121274
_cell_formula_units_Z   2
loop_
 _symmetry_equiv_pos_site_id
 _symmetry_equiv_pos_as_xyz
  1  'x, y, z'
loop_
 _atom_site_type_symbol
 _atom_site_label
 _atom_site_symmetry_multiplicity
 _atom_site_fract_x
 _atom_site_fract_y
 _atom_site_fract_z
 _atom_site_occupancy
  P  P0  1  0.27141060  0.89090315  0.25000000  1
  P  P1  1  0.72858940  0.10909685  0.75000000  1
  P  P2  1  0.61665629  0.95677214  0.40660745  1
  P  P3  1  0.38334371  0.04322786  0.90660745  1
  P  P4  1  0.38334371  0.04322786  0.59339255  1
  P  P5  1  0.61665629  0.95677214  0.09339255  1
  P  P6  1  0.71665732  0.59452921  0.47162481  1
  P  P7  1  0.28334268  0.40547079  0.97162481  1
  P  P8  1  0.28334268  0.40547079  0.52837519  1
  P  P9  1  0.71665732  0.59452921  0.02837519  1
  Tm  Tm10  1  0.00253808  0.34672055  0.25000000  1
  Tm  Tm11  1  0.99746192  0.65327945  0.75000000  1
