# generated using pymatgen
data_LaWN3
_symmetry_space_group_name_H-M   'P 1'
_cell_length_a   3.97111159
_cell_length_b   5.82458618
_cell_length_c   5.82458634
_cell_angle_alpha   94.87558619
_cell_angle_beta   90.00000000
_cell_angle_gamma   90.00000000
_symmetry_Int_Tables_number   1
_chemical_formula_structural   LaWN3
_chemical_formula_sum   'La2 W2 N6'
_cell_volume   134.23567582
_cell_formula_units_Z   2
loop_
 _symmetry_equiv_pos_site_id
 _symmetry_equiv_pos_as_xyz
  1  'x, y, z'
loop_
 _atom_site_type_symbol
 _atom_site_label
 _atom_site_symmetry_multiplicity
 _atom_site_fract_x
 _atom_site_fract_y
 _atom_site_fract_z
 _atom_site_occupancy
  La  La0  1  0.50000000  0.37539335  0.62460665  1
  La  La1  1  0.50000000  0.89535411  0.10464589  1
  W  W2  1  0.00000000  0.89243325  0.59345647  1
  W  W3  1  0.00000000  0.40654353  0.10756675  1
  N  N4  1  0.00000000  0.72688654  0.27311346  1
  N  N5  1  0.00000000  0.15664314  0.84335686  1
  N  N6  1  0.00000000  0.22696891  0.34879806  1
  N  N7  1  0.00000000  0.65120194  0.77303109  1
  N  N8  1  0.50000000  0.93811552  0.55297028  1
  N  N9  1  0.50000000  0.44702972  0.06188448  1
