# generated using pymatgen
data_MnO2
_symmetry_space_group_name_H-M   'P 1'
_cell_length_a   5.06886570
_cell_length_b   5.85310712
_cell_length_c   10.59014408
_cell_angle_alpha   90.00036319
_cell_angle_beta   90.00404101
_cell_angle_gamma   90.00004574
_symmetry_Int_Tables_number   1
_chemical_formula_structural   MnO2
_chemical_formula_sum   'Mn8 O16'
_cell_volume   314.19489537
_cell_formula_units_Z   8
loop_
 _symmetry_equiv_pos_site_id
 _symmetry_equiv_pos_as_xyz
  1  'x, y, z'
loop_
 _atom_site_type_symbol
 _atom_site_label
 _atom_site_symmetry_multiplicity
 _atom_site_fract_x
 _atom_site_fract_y
 _atom_site_fract_z
 _atom_site_occupancy
  Mn  Mn0  1  0.49990634  0.75001068  0.50004502  1
  Mn  Mn1  1  0.49991460  0.75000047  0.99996754  1
  Mn  Mn2  1  0.50008111  0.24999449  0.49998867  1
  Mn  Mn3  1  0.50008999  0.25000078  0.00000409  1
  Mn  Mn4  1  0.00000362  0.49996434  0.50001050  1
  Mn  Mn5  1  -0.00000113  0.00000063  0.99998566  1
  Mn  Mn6  1  0.00000021  0.00003903  0.50001177  1
  Mn  Mn7  1  0.00000323  0.49999697  0.99998719  1
  O  O8  1  0.83311635  0.74999988  0.40895685  1
  O  O9  1  0.83318131  0.75000049  0.09102561  1
  O  O10  1  0.16682995  0.25000146  0.59104698  1
  O  O11  1  0.16682401  0.24999718  0.90894961  1
  O  O12  1  0.16639935  0.75000226  0.59104574  1
  O  O13  1  0.16638457  0.74999710  0.90897920  1
  O  O14  1  0.83362636  0.24999873  0.40899548  1
  O  O15  1  0.83362158  0.24999767  0.09099022  1
  O  O16  1  0.66672756  0.49999853  0.59096833  1
  O  O17  1  0.66669002  0.00000954  0.90904020  1
  O  O18  1  0.33328129  0.99995805  0.40906306  1
  O  O19  1  0.33331230  0.50001385  0.09093250  1
  O  O20  1  0.33328057  0.50004196  0.40906297  1
  O  O21  1  0.33331025  0.99998485  0.09093290  1
  O  O22  1  0.66672685  0.00000697  0.59096850  1
  O  O23  1  0.66668971  0.49998408  0.90904143  1
