# generated using pymatgen
data_MgAgF3
_symmetry_space_group_name_H-M   'P 1'
_cell_length_a   3.98820671
_cell_length_b   3.98843689
_cell_length_c   3.98800808
_cell_angle_alpha   89.90026451
_cell_angle_beta   89.79536491
_cell_angle_gamma   89.96138033
_symmetry_Int_Tables_number   1
_chemical_formula_structural   MgAgF3
_chemical_formula_sum   'Mg1 Ag1 F3'
_cell_volume   63.43557630
_cell_formula_units_Z   1
loop_
 _symmetry_equiv_pos_site_id
 _symmetry_equiv_pos_as_xyz
  1  'x, y, z'
loop_
 _atom_site_type_symbol
 _atom_site_label
 _atom_site_symmetry_multiplicity
 _atom_site_fract_x
 _atom_site_fract_y
 _atom_site_fract_z
 _atom_site_occupancy
  Mg  Mg0  1  0.48708288  0.49988603  0.49743392  1
  Ag  Ag1  1  0.99466720  0.99874408  0.99761310  1
  F  F2  1  0.48452473  0.00007553  0.49418726  1
  F  F3  1  0.98666173  0.50339751  0.50308811  1
  F  F4  1  0.48706246  0.49789885  0.99767861  1
