# generated using pymatgen
data_TiPN3
_symmetry_space_group_name_H-M   'P 1'
_cell_length_a   4.99125412
_cell_length_b   6.41533047
_cell_length_c   6.41533038
_cell_angle_alpha   94.43882077
_cell_angle_beta   98.51328470
_cell_angle_gamma   81.48670260
_symmetry_Int_Tables_number   1
_chemical_formula_structural   TiPN3
_chemical_formula_sum   'Ti4 P4 N12'
_cell_volume   200.59695840
_cell_formula_units_Z   4
loop_
 _symmetry_equiv_pos_site_id
 _symmetry_equiv_pos_as_xyz
  1  'x, y, z'
loop_
 _atom_site_type_symbol
 _atom_site_label
 _atom_site_symmetry_multiplicity
 _atom_site_fract_x
 _atom_site_fract_y
 _atom_site_fract_z
 _atom_site_occupancy
  Ti  Ti0  1  0.25000000  0.71759357  0.71759357  1
  Ti  Ti1  1  0.75000000  0.89592735  0.89592735  1
  Ti  Ti2  1  0.75000000  0.28240643  0.28240643  1
  Ti  Ti3  1  0.25000000  0.10407265  0.10407265  1
  P  P4  1  0.20557330  0.61374819  0.21335975  1
  P  P5  1  0.70557330  0.78664025  0.38625181  1
  P  P6  1  0.79442670  0.38625181  0.78664025  1
  P  P7  1  0.29442670  0.21335975  0.61374819  1
  N  N8  1  0.90757413  0.58074521  0.28948171  1
  N  N9  1  0.13865516  0.78470715  0.02527359  1
  N  N10  1  0.86134484  0.21529285  0.97472641  1
  N  N11  1  0.40757413  0.71051829  0.41925479  1
  N  N12  1  0.86854257  0.85306875  0.61418235  1
  N  N13  1  0.13145743  0.14693125  0.38581765  1
  N  N14  1  0.63145743  0.61418235  0.85306875  1
  N  N15  1  0.09242587  0.41925479  0.71051829  1
  N  N16  1  0.36134484  0.02527359  0.78470715  1
  N  N17  1  0.36854257  0.38581765  0.14693125  1
  N  N18  1  0.63865516  0.97472641  0.21529285  1
  N  N19  1  0.59242587  0.28948171  0.58074521  1
