# generated using pymatgen
data_Mn2HO4
_symmetry_space_group_name_H-M   'P 1'
_cell_length_a   5.76177812
_cell_length_b   6.36569979
_cell_length_c   8.35477214
_cell_angle_alpha   89.99966769
_cell_angle_beta   90.00013397
_cell_angle_gamma   90.00013709
_symmetry_Int_Tables_number   1
_chemical_formula_structural   Mn2HO4
_chemical_formula_sum   'Mn8 H4 O16'
_cell_volume   306.43424179
_cell_formula_units_Z   4
loop_
 _symmetry_equiv_pos_site_id
 _symmetry_equiv_pos_as_xyz
  1  'x, y, z'
loop_
 _atom_site_type_symbol
 _atom_site_label
 _atom_site_symmetry_multiplicity
 _atom_site_fract_x
 _atom_site_fract_y
 _atom_site_fract_z
 _atom_site_occupancy
  Mn  Mn0  1  0.74997602  0.25000576  0.24997083  1
  Mn  Mn1  1  0.25003050  0.74998313  0.74995370  1
  Mn  Mn2  1  0.74997468  0.75001864  0.24996182  1
  Mn  Mn3  1  0.25002774  0.24999650  0.74997253  1
  Mn  Mn4  1  0.45899787  0.99998101  0.49607078  1
  Mn  Mn5  1  0.04099466  0.50000327  0.00398043  1
  Mn  Mn6  1  0.95900286  0.99998633  0.50398510  1
  Mn  Mn7  1  0.54101144  0.50000550  0.99607129  1
  H  H8  1  0.18500690  0.50003332  0.28868486  1
  H  H9  1  0.81501147  0.99996893  0.78873930  1
  H  H10  1  0.68478678  0.49998822  0.71127152  1
  H  H11  1  0.31516922  0.00004298  0.21131891  1
  O  O12  1  0.46873017  0.00001778  0.26276835  1
  O  O13  1  0.04869690  0.49999269  0.77117134  1
  O  O14  1  0.95129788  0.00000843  0.27117855  1
  O  O15  1  0.53124674  0.49999122  0.76275803  1
  O  O16  1  0.71155519  0.20245308  0.48281818  1
  O  O17  1  0.28844929  0.70246288  0.98281532  1
  O  O18  1  0.71155457  0.79753605  0.48280735  1
  O  O19  1  0.28845475  0.29754310  0.98282927  1
  O  O20  1  0.96866905  0.99998131  0.73724659  1
  O  O21  1  0.54869785  0.50001510  0.22881837  1
  O  O22  1  0.45130862  0.99998548  0.72881301  1
  O  O23  1  0.03133464  0.50001600  0.23723091  1
  O  O24  1  0.21157718  0.20244995  0.51715379  1
  O  O25  1  0.78842948  0.70247076  0.01715303  1
  O  O26  1  0.21158493  0.79753296  0.51713982  1
  O  O27  1  0.78843262  0.29754461  0.01716503  1
