# generated using pymatgen
data_EuFeO3
_symmetry_space_group_name_H-M   'P 1'
_cell_length_a   5.49444897
_cell_length_b   5.52242725
_cell_length_c   5.52242725
_cell_angle_alpha   60.49097193
_cell_angle_beta   60.16745080
_cell_angle_gamma   60.16745080
_symmetry_Int_Tables_number   1
_chemical_formula_structural   EuFeO3
_chemical_formula_sum   'Eu2 Fe2 O6'
_cell_volume   119.22230258
_cell_formula_units_Z   2
loop_
 _symmetry_equiv_pos_site_id
 _symmetry_equiv_pos_as_xyz
  1  'x, y, z'
loop_
 _atom_site_type_symbol
 _atom_site_label
 _atom_site_symmetry_multiplicity
 _atom_site_fract_x
 _atom_site_fract_y
 _atom_site_fract_z
 _atom_site_occupancy
  Eu  Eu0  1  0.25000100  0.76091170  0.73908630  1
  Eu  Eu1  1  0.75000000  0.23908730  0.26091270  1
  Fe  Fe2  1  0.50000000  -0.00000000  0.00000000  1
  Fe  Fe3  1  0.00000000  0.50000000  0.50000000  1
  O  O4  1  0.79786029  0.20213971  0.70213971  1
  O  O5  1  0.70213971  0.79786029  0.29785929  1
  O  O6  1  0.20214071  0.79786029  0.29786029  1
  O  O7  1  0.29785929  0.20214071  0.70213971  1
  O  O8  1  0.75000100  0.66392843  0.83607057  1
  O  O9  1  0.25000100  0.33606857  0.16392943  1
