# generated using pymatgen
data_MgBiF6
_symmetry_space_group_name_H-M   'P 1'
_cell_length_a   5.78816091
_cell_length_b   5.78816025
_cell_length_c   5.78815986
_cell_angle_alpha   58.08965348
_cell_angle_beta   58.08965195
_cell_angle_gamma   58.08965740
_symmetry_Int_Tables_number   1
_chemical_formula_structural   MgBiF6
_chemical_formula_sum   'Mg1 Bi1 F6'
_cell_volume   131.11592555
_cell_formula_units_Z   1
loop_
 _symmetry_equiv_pos_site_id
 _symmetry_equiv_pos_as_xyz
  1  'x, y, z'
loop_
 _atom_site_type_symbol
 _atom_site_label
 _atom_site_symmetry_multiplicity
 _atom_site_fract_x
 _atom_site_fract_y
 _atom_site_fract_z
 _atom_site_occupancy
  Mg  Mg0  1  0.50000000  0.50000000  0.50000000  1
  Bi  Bi1  1  0.00000000  0.00000000  0.00000000  1
  F  F2  1  0.35615057  0.16438363  0.74109576  1
  F  F3  1  0.16438363  0.74109576  0.35615056  1
  F  F4  1  0.25890424  0.64384943  0.83561637  1
  F  F5  1  0.83561637  0.25890424  0.64384944  1
  F  F6  1  0.64384943  0.83561637  0.25890424  1
  F  F7  1  0.74109576  0.35615057  0.16438363  1
