# generated using pymatgen
data_LiV3P3O13
_symmetry_space_group_name_H-M   'P 1'
_cell_length_a   6.35188929
_cell_length_b   7.42085446
_cell_length_c   10.72925515
_cell_angle_alpha   99.31843037
_cell_angle_beta   90.00000000
_cell_angle_gamma   90.00000000
_symmetry_Int_Tables_number   1
_chemical_formula_structural   LiV3P3O13
_chemical_formula_sum   'Li2 V6 P6 O26'
_cell_volume   499.06506396
_cell_formula_units_Z   2
loop_
 _symmetry_equiv_pos_site_id
 _symmetry_equiv_pos_as_xyz
  1  'x, y, z'
loop_
 _atom_site_type_symbol
 _atom_site_label
 _atom_site_symmetry_multiplicity
 _atom_site_fract_x
 _atom_site_fract_y
 _atom_site_fract_z
 _atom_site_occupancy
  Li  Li0  1  0.75000000  0.60968050  0.13255895  1
  Li  Li1  1  0.25000000  0.39031950  0.86744105  1
  V  V2  1  0.25000000  0.35856014  0.19896296  1
  V  V3  1  0.75000000  0.64143986  0.80103704  1
  V  V4  1  0.25000000  0.77214662  0.44762132  1
  V  V5  1  0.50000000  0.00000000  0.00000000  1
  V  V6  1  0.75000000  0.22785338  0.55237868  1
  V  V7  1  -0.00000000  0.00000000  0.00000000  1
  P  P8  1  0.25000000  0.22149153  0.47707753  1
  P  P9  1  0.75000000  0.77850847  0.52292247  1
  P  P10  1  0.25000000  0.73732303  0.77098972  1
  P  P11  1  0.75000000  0.26267697  0.22901028  1
  P  P12  1  0.75000000  0.30602280  0.87681797  1
  P  P13  1  0.25000000  0.69397720  0.12318203  1
  O  O14  1  0.75000000  0.34938278  0.74004757  1
  O  O15  1  0.55358906  0.72673096  0.44130723  1
  O  O16  1  0.25000000  0.79726985  0.64298794  1
  O  O17  1  0.54576135  0.20524312  0.90267414  1
  O  O18  1  0.75000000  0.65728031  0.62954919  1
  O  O19  1  0.75000000  0.86106076  0.90425360  1
  O  O20  1  0.25000000  0.34271969  0.37045081  1
  O  O21  1  0.04576135  0.79475688  0.09732586  1
  O  O22  1  0.25000000  0.01943245  0.41330863  1
  O  O23  1  0.75000000  0.98056755  0.58669137  1
  O  O24  1  0.05989246  0.61767130  0.79785131  1
  O  O25  1  0.25000000  0.13893924  0.09574640  1
  O  O26  1  0.55989246  0.38232870  0.20214869  1
  O  O27  1  0.75000000  0.50456676  0.95169647  1
  O  O28  1  0.75000000  0.20273015  0.35701206  1
  O  O29  1  0.45423865  0.79475688  0.09732586  1
  O  O30  1  0.94641094  0.72673096  0.44130723  1
  O  O31  1  0.44641094  0.27326904  0.55869277  1
  O  O32  1  0.44010754  0.61767130  0.79785131  1
  O  O33  1  0.25000000  0.65061722  0.25995243  1
  O  O34  1  0.75000000  0.08907942  0.12044967  1
  O  O35  1  0.25000000  0.91092058  0.87955033  1
  O  O36  1  0.94010754  0.38232870  0.20214869  1
  O  O37  1  0.95423865  0.20524312  0.90267414  1
  O  O38  1  0.05358906  0.27326904  0.55869277  1
  O  O39  1  0.25000000  0.49543324  0.04830353  1
