# generated using pymatgen
data_MgNiF5
_symmetry_space_group_name_H-M   'P 1'
_cell_length_a   5.18590409
_cell_length_b   5.20130728
_cell_length_c   7.39538039
_cell_angle_alpha   97.91742926
_cell_angle_beta   109.87069981
_cell_angle_gamma   109.20718331
_symmetry_Int_Tables_number   1
_chemical_formula_structural   MgNiF5
_chemical_formula_sum   'Mg2 Ni2 F10'
_cell_volume   170.02106705
_cell_formula_units_Z   2
loop_
 _symmetry_equiv_pos_site_id
 _symmetry_equiv_pos_as_xyz
  1  'x, y, z'
loop_
 _atom_site_type_symbol
 _atom_site_label
 _atom_site_symmetry_multiplicity
 _atom_site_fract_x
 _atom_site_fract_y
 _atom_site_fract_z
 _atom_site_occupancy
  Mg  Mg0  1  0.28949746  0.53722068  0.75106061  1
  Mg  Mg1  1  0.71367407  0.46737158  0.25027230  1
  Ni  Ni2  1  0.00244250  0.00257108  0.00084960  1
  Ni  Ni3  1  0.50134866  0.00199821  0.50092837  1
  F  F4  1  0.36995870  0.12548077  0.24736282  1
  F  F5  1  0.63421339  0.87849360  0.75430842  1
  F  F6  1  0.59042522  0.74025466  0.37572271  1
  F  F7  1  0.86071492  0.22309226  0.12846189  1
  F  F8  1  0.75886616  0.68375013  0.04952094  1
  F  F9  1  0.14408843  0.71561665  0.45841526  1
  F  F10  1  0.24720961  0.32224702  0.95305801  1
  F  F11  1  0.85832985  0.28793292  0.54427498  1
  F  F12  1  0.14433910  0.78236101  0.87297022  1
  F  F13  1  0.41066493  0.26252444  0.62516388  1
