# generated using pymatgen
data_MnZnAsO5
_symmetry_space_group_name_H-M   'P 1'
_cell_length_a   8.24928400
_cell_length_b   6.20788289
_cell_length_c   8.39338104
_cell_angle_alpha   90.00144291
_cell_angle_beta   89.98951524
_cell_angle_gamma   90.00163515
_symmetry_Int_Tables_number   1
_chemical_formula_structural   MnZnAsO5
_chemical_formula_sum   'Mn4 Zn4 As4 O20'
_cell_volume   429.82997945
_cell_formula_units_Z   4
loop_
 _symmetry_equiv_pos_site_id
 _symmetry_equiv_pos_as_xyz
  1  'x, y, z'
loop_
 _atom_site_type_symbol
 _atom_site_label
 _atom_site_symmetry_multiplicity
 _atom_site_fract_x
 _atom_site_fract_y
 _atom_site_fract_z
 _atom_site_occupancy
  Mn  Mn0  1  0.99974832  0.49306152  0.75032537  1
  Mn  Mn1  1  0.50026453  0.50716097  0.25034429  1
  Mn  Mn2  1  0.49961664  0.00715092  0.24967174  1
  Mn  Mn3  1  0.00032344  0.99307936  0.74963902  1
  Zn  Zn4  1  0.99908907  0.74557081  0.05585586  1
  Zn  Zn5  1  0.50096169  0.25436910  0.55590074  1
  Zn  Zn6  1  0.49911706  0.75435014  0.94411614  1
  Zn  Zn7  1  0.00090692  0.24556269  0.44409316  1
  As  As8  1  0.64535752  0.25856129  0.91960945  1
  As  As9  1  0.85466770  0.74137320  0.41960175  1
  As  As10  1  0.14533950  0.24138405  0.08038294  1
  As  As11  1  0.35464909  0.75856145  0.58042472  1
  O  O12  1  0.83578736  0.24588967  0.84017860  1
  O  O13  1  0.66425406  0.75418317  0.34021557  1
  O  O14  1  0.33571795  0.25417097  0.15985381  1
  O  O15  1  0.16422342  0.74589221  0.65985943  1
  O  O16  1  0.49619647  0.27795643  0.77947973  1
  O  O17  1  0.00385775  0.72177724  0.27943414  1
  O  O18  1  0.99611406  0.22178329  0.22051196  1
  O  O19  1  0.50384248  0.77797531  0.72052234  1
  O  O20  1  0.61929241  0.02799812  0.03430682  1
  O  O21  1  0.88072167  0.97195460  0.53430014  1
  O  O22  1  0.11933279  0.47195770  0.96569392  1
  O  O23  1  0.38064530  0.52798930  0.46572732  1
  O  O24  1  0.62652285  0.48889415  0.03702542  1
  O  O25  1  0.87347147  0.51109159  0.53703993  1
  O  O26  1  0.12658033  0.01110563  0.96292999  1
  O  O27  1  0.37343345  0.98888896  0.46301519  1
  O  O28  1  0.89915272  0.74369494  0.84164891  1
  O  O29  1  0.60080136  0.25646559  0.34162846  1
  O  O30  1  0.39909683  0.75644839  0.15836690  1
  O  O31  1  0.10091182  0.24369925  0.65829625  1
