# generated using pymatgen
data_Sm3In
_symmetry_space_group_name_H-M   'P 1'
_cell_length_a   7.07587041
_cell_length_b   7.07586970
_cell_length_c   5.53790481
_cell_angle_alpha   90.00000000
_cell_angle_beta   90.00000000
_cell_angle_gamma   120.00000822
_symmetry_Int_Tables_number   1
_chemical_formula_structural   Sm3In
_chemical_formula_sum   'Sm6 In2'
_cell_volume   240.12411624
_cell_formula_units_Z   2
loop_
 _symmetry_equiv_pos_site_id
 _symmetry_equiv_pos_as_xyz
  1  'x, y, z'
loop_
 _atom_site_type_symbol
 _atom_site_label
 _atom_site_symmetry_multiplicity
 _atom_site_fract_x
 _atom_site_fract_y
 _atom_site_fract_z
 _atom_site_occupancy
  Sm  Sm0  1  0.17444663  0.34889326  0.24996788  1
  Sm  Sm1  1  0.65110674  0.82555337  0.24996788  1
  Sm  Sm2  1  0.17444663  0.82555337  0.24996788  1
  Sm  Sm3  1  0.82555437  0.65110674  0.75003312  1
  Sm  Sm4  1  0.34889426  0.17444663  0.75003312  1
  Sm  Sm5  1  0.82555337  0.17444663  0.75003312  1
  In  In6  1  0.33333300  0.66666500  0.74999108  1
  In  In7  1  0.66666600  0.33333300  0.25000992  1
