# generated using pymatgen
data_Y2Cr2O7
_symmetry_space_group_name_H-M   'P 1'
_cell_length_a   7.11401540
_cell_length_b   7.11811269
_cell_length_c   7.14504013
_cell_angle_alpha   60.11112268
_cell_angle_beta   60.22831365
_cell_angle_gamma   60.01957954
_symmetry_Int_Tables_number   1
_chemical_formula_structural   Y2Cr2O7
_chemical_formula_sum   'Y4 Cr4 O14'
_cell_volume   256.53245490
_cell_formula_units_Z   2
loop_
 _symmetry_equiv_pos_site_id
 _symmetry_equiv_pos_as_xyz
  1  'x, y, z'
loop_
 _atom_site_type_symbol
 _atom_site_label
 _atom_site_symmetry_multiplicity
 _atom_site_fract_x
 _atom_site_fract_y
 _atom_site_fract_z
 _atom_site_occupancy
  Y  Y0  1  0.50008836  0.99995531  0.49997193  1
  Y  Y1  1  -0.00001077  0.49996591  0.49997019  1
  Y  Y2  1  0.50004766  0.49990832  0.00003511  1
  Y  Y3  1  0.50012953  0.49988338  0.49999396  1
  Cr  Cr4  1  0.00002844  0.49997334  0.00009294  1
  Cr  Cr5  1  0.50007250  0.00009468  0.00003288  1
  Cr  Cr6  1  -0.00018769  0.00014693  0.49986370  1
  Cr  Cr7  1  -0.00027364  0.00018835  0.00011881  1
  O  O8  1  0.62477507  0.62418629  0.62734304  1
  O  O9  1  0.37525066  0.37571794  0.37272466  1
  O  O10  1  0.32591279  0.92891458  0.91410916  1
  O  O11  1  0.08193604  0.66481436  0.67819277  1
  O  O12  1  0.91837653  0.32794214  0.92401710  1
  O  O13  1  0.92636495  0.91311022  0.33383014  1
  O  O14  1  0.33444373  0.32309857  0.92255524  1
  O  O15  1  0.32674952  0.91798461  0.33319228  1
  O  O16  1  0.91810099  0.33526466  0.32173021  1
  O  O17  1  0.66549837  0.67691729  0.07744679  1
  O  O18  1  0.07373849  0.08687318  0.66613010  1
  O  O19  1  0.67407575  0.07099018  0.08588695  1
  O  O20  1  0.67321220  0.08191803  0.66690747  1
  O  O21  1  0.08167052  0.67215173  0.07585455  1
