# generated using pymatgen
data_ZnCoF5
_symmetry_space_group_name_H-M   'P 1'
_cell_length_a   5.21953200
_cell_length_b   7.43310119
_cell_length_c   9.66428120
_cell_angle_alpha   90.00000000
_cell_angle_beta   90.00000000
_cell_angle_gamma   110.39175060
_symmetry_Int_Tables_number   1
_chemical_formula_structural   ZnCoF5
_chemical_formula_sum   'Zn4 Co4 F20'
_cell_volume   351.45092390
_cell_formula_units_Z   4
loop_
 _symmetry_equiv_pos_site_id
 _symmetry_equiv_pos_as_xyz
  1  'x, y, z'
loop_
 _atom_site_type_symbol
 _atom_site_label
 _atom_site_symmetry_multiplicity
 _atom_site_fract_x
 _atom_site_fract_y
 _atom_site_fract_z
 _atom_site_occupancy
  Zn  Zn0  1  0.47874226  0.74312714  0.01089478  1
  Zn  Zn1  1  0.52125774  0.75687286  0.51089478  1
  Zn  Zn2  1  0.52125774  0.25687286  0.98910522  1
  Zn  Zn3  1  0.47874226  0.24312714  0.48910522  1
  Co  Co4  1  0.90119640  0.60204675  0.75294996  1
  Co  Co5  1  0.09880360  0.89795325  0.25294996  1
  Co  Co6  1  0.09880360  0.39795325  0.24705004  1
  Co  Co7  1  0.90119640  0.10204675  0.74705004  1
  F  F8  1  0.60527291  0.56691075  0.88615915  1
  F  F9  1  0.39472709  0.93308925  0.38615915  1
  F  F10  1  0.39472709  0.43308925  0.11384085  1
  F  F11  1  0.60527291  0.06691075  0.61384085  1
  F  F12  1  0.64650441  0.49431723  0.61005683  1
  F  F13  1  0.35349559  0.00568277  0.11005683  1
  F  F14  1  0.35349559  0.50568277  0.38994317  1
  F  F15  1  0.64650441  0.99431723  0.88994317  1
  F  F16  1  0.85597376  0.80147679  0.39923954  1
  F  F17  1  0.14402624  0.69852321  0.89923954  1
  F  F18  1  0.14402624  0.19852321  0.60076046  1
  F  F19  1  0.85597376  0.30147679  0.10076046  1
  F  F20  1  0.79037218  0.84977209  0.13465584  1
  F  F21  1  0.20962782  0.65022791  0.63465584  1
  F  F22  1  0.20962782  0.15022791  0.86534416  1
  F  F23  1  0.79037218  0.34977209  0.36534416  1
  F  F24  1  0.84257765  0.83692910  0.68616130  1
  F  F25  1  0.15742235  0.66307090  0.18616130  1
  F  F26  1  0.15742235  0.16307090  0.31383870  1
  F  F27  1  0.84257765  0.33692910  0.81383870  1
