# generated using pymatgen
data_CsLi(B3O5)2
_symmetry_space_group_name_H-M   'P 1'
_cell_length_a   10.56614525
_cell_length_b   10.58921245
_cell_length_c   9.10653826
_cell_angle_alpha   90.00000000
_cell_angle_beta   90.00000000
_cell_angle_gamma   90.00000000
_symmetry_Int_Tables_number   1
_chemical_formula_structural   CsLi(B3O5)2
_chemical_formula_sum   'Cs4 Li4 B24 O40'
_cell_volume   1018.90467447
_cell_formula_units_Z   4
loop_
 _symmetry_equiv_pos_site_id
 _symmetry_equiv_pos_as_xyz
  1  'x, y, z'
loop_
 _atom_site_type_symbol
 _atom_site_label
 _atom_site_symmetry_multiplicity
 _atom_site_fract_x
 _atom_site_fract_y
 _atom_site_fract_z
 _atom_site_occupancy
  Cs  Cs0  1  0.24873758  0.25155638  0.37685392  1
  Cs  Cs1  1  0.24873758  0.74844362  0.62314608  1
  Cs  Cs2  1  0.75126242  0.74844362  0.87685392  1
  Cs  Cs3  1  0.75126242  0.25155638  0.12314608  1
  Li  Li4  1  0.24984212  0.24903275  0.87864520  1
  Li  Li5  1  0.24984212  0.75096725  0.12135480  1
  Li  Li6  1  0.75015788  0.75096725  0.37864520  1
  Li  Li7  1  0.75015788  0.24903275  0.62135480  1
  B  B8  1  0.01672101  0.10039213  0.93536050  1
  B  B9  1  0.01672101  0.89960787  0.06463950  1
  B  B10  1  0.98327899  0.89960787  0.43536050  1
  B  B11  1  0.98327899  0.10039213  0.56463950  1
  B  B12  1  0.50000000  0.22645432  0.75000000  1
  B  B13  1  0.50000000  0.77354568  0.25000000  1
  B  B14  1  0.27415387  0.50000000  -0.00000000  1
  B  B15  1  0.72584613  0.50000000  0.50000000  1
  B  B16  1  0.22585711  -0.00000000  -0.00000000  1
  B  B17  1  0.77414289  -0.00000000  0.50000000  1
  B  B18  1  -0.00000000  0.27348849  0.75000000  1
  B  B19  1  -0.00000000  0.72651151  0.25000000  1
  B  B20  1  0.10054350  0.51822820  0.18517708  1
  B  B21  1  0.10054350  0.48177180  0.81482292  1
  B  B22  1  0.89945650  0.48177180  0.68517708  1
  B  B23  1  0.89945650  0.51822820  0.31482292  1
  B  B24  1  0.51729531  0.39949282  0.56432136  1
  B  B25  1  0.51729531  0.60050718  0.43567864  1
  B  B26  1  0.48270469  0.60050718  0.06432136  1
  B  B27  1  0.48270469  0.39949282  0.93567864  1
  B  B28  1  0.39921572  0.01790487  0.81437095  1
  B  B29  1  0.39921572  0.98209513  0.18562905  1
  B  B30  1  0.60078428  0.98209513  0.31437095  1
  B  B31  1  0.60078428  0.01790487  0.68562905  1
  O  O32  1  0.19284267  0.44886207  0.11864861  1
  O  O33  1  0.19284267  0.55113793  0.88135139  1
  O  O34  1  0.80715733  0.55113793  0.61864861  1
  O  O35  1  0.80715733  0.44886207  0.38135139  1
  O  O36  1  0.30686806  0.05125333  0.11881880  1
  O  O37  1  0.30686806  0.94874667  0.88118120  1
  O  O38  1  0.69313194  0.94874667  0.61881880  1
  O  O39  1  0.69313194  0.05125333  0.38118120  1
  O  O40  1  0.35322675  0.39449320  0.94604310  1
  O  O41  1  0.35322675  0.60550680  0.05395690  1
  O  O42  1  0.64677325  0.60550680  0.44604310  1
  O  O43  1  0.64677325  0.39449320  0.55395690  1
  O  O44  1  0.44814412  0.30764483  0.63161242  1
  O  O45  1  0.44814412  0.69235517  0.36838758  1
  O  O46  1  0.55185588  0.69235517  0.13161242  1
  O  O47  1  0.55185588  0.30764483  0.86838758  1
  O  O48  1  0.14617997  0.10524763  0.94619734  1
  O  O49  1  0.14617997  0.89475237  0.05380266  1
  O  O50  1  0.85382003  0.89475237  0.44619734  1
  O  O51  1  0.85382003  0.10524763  0.55380266  1
  O  O52  1  0.10502655  0.35247705  0.80574232  1
  O  O53  1  0.10502655  0.64752295  0.19425768  1
  O  O54  1  0.89497345  0.64752295  0.30574232  1
  O  O55  1  0.89497345  0.35247705  0.69425768  1
  O  O56  1  0.05242889  0.19230222  0.63201717  1
  O  O57  1  0.05242889  0.80769778  0.36798283  1
  O  O58  1  0.94757111  0.80769778  0.13201717  1
  O  O59  1  0.94757111  0.19230222  0.86798283  1
  O  O60  1  0.39465216  0.14717203  0.80468202  1
  O  O61  1  0.39465216  0.85282797  0.19531798  1
  O  O62  1  0.60534784  0.85282797  0.30468202  1
  O  O63  1  0.60534784  0.14717203  0.69531798  1
  O  O64  1  -0.00000000  0.45163400  0.25000000  1
  O  O65  1  -0.00000000  0.54836600  0.75000000  1
  O  O66  1  0.94989681  -0.00000000  -0.00000000  1
  O  O67  1  0.05010319  -0.00000000  0.50000000  1
  O  O68  1  0.45044993  0.50000000  0.50000000  1
  O  O69  1  0.54955007  0.50000000  -0.00000000  1
  O  O70  1  0.50000000  0.95147158  0.75000000  1
  O  O71  1  0.50000000  0.04852842  0.25000000  1
