# generated using pymatgen
data_Li3B(PO4)2
_symmetry_space_group_name_H-M   'P 1'
_cell_length_a   5.24981579
_cell_length_b   7.50027949
_cell_length_c   7.83155780
_cell_angle_alpha   101.16174354
_cell_angle_beta   105.72608140
_cell_angle_gamma   90.07302899
_symmetry_Int_Tables_number   1
_chemical_formula_structural   Li3B(PO4)2
_chemical_formula_sum   'Li6 B2 P4 O16'
_cell_volume   290.73906135
_cell_formula_units_Z   2
loop_
 _symmetry_equiv_pos_site_id
 _symmetry_equiv_pos_as_xyz
  1  'x, y, z'
loop_
 _atom_site_type_symbol
 _atom_site_label
 _atom_site_symmetry_multiplicity
 _atom_site_fract_x
 _atom_site_fract_y
 _atom_site_fract_z
 _atom_site_occupancy
  Li  Li0  1  0.22143706  0.86862448  0.69149414  1
  Li  Li1  1  0.77856294  0.13137552  0.30850586  1
  Li  Li2  1  0.32822265  0.51629003  0.85430233  1
  Li  Li3  1  0.67177735  0.48370997  0.14569767  1
  Li  Li4  1  0.85886736  0.47384819  0.61113401  1
  Li  Li5  1  0.14113264  0.52615181  0.38886599  1
  B  B6  1  0.74197943  0.03802422  0.76846769  1
  B  B7  1  0.25802057  0.96197578  0.23153231  1
  P  P8  1  0.62724992  0.78520501  0.45246493  1
  P  P9  1  0.37275008  0.21479499  0.54753507  1
  P  P10  1  0.88238608  0.74932301  0.94437502  1
  P  P11  1  0.11761392  0.25067699  0.05562498  1
  O  O12  1  0.94535910  0.18483062  0.85362007  1
  O  O13  1  0.05464090  0.81516938  0.14637993  1
  O  O14  1  0.52694033  0.88836694  0.28838409  1
  O  O15  1  0.47305967  0.11163306  0.71161591  1
  O  O16  1  0.05696179  0.69317154  0.81616118  1
  O  O17  1  0.94303821  0.30682846  0.18383882  1
  O  O18  1  0.79597465  0.63073548  0.39918547  1
  O  O19  1  0.20402535  0.36926452  0.60081453  1
  O  O20  1  0.71614725  0.91684127  0.89080697  1
  O  O21  1  0.28385275  0.08315873  0.10919303  1
  O  O22  1  0.69318114  0.59659163  0.94336020  1
  O  O23  1  0.30681886  0.40340837  0.05663980  1
  O  O24  1  0.81862435  0.93554001  0.60683967  1
  O  O25  1  0.18137565  0.06445999  0.39316033  1
  O  O26  1  0.39854509  0.72505367  0.51613372  1
  O  O27  1  0.60145491  0.27494633  0.48386628  1
