# generated using pymatgen
data_Y4AlSiNO8
_symmetry_space_group_name_H-M   'P 1'
_cell_length_a   7.66675973
_cell_length_b   10.49195647
_cell_length_c   10.97867922
_cell_angle_alpha   90.00000000
_cell_angle_beta   109.62488151
_cell_angle_gamma   90.00000000
_symmetry_Int_Tables_number   1
_chemical_formula_structural   Y4AlSiNO8
_chemical_formula_sum   'Y16 Al4 Si4 N4 O32'
_cell_volume   831.81857691
_cell_formula_units_Z   4
loop_
 _symmetry_equiv_pos_site_id
 _symmetry_equiv_pos_as_xyz
  1  'x, y, z'
loop_
 _atom_site_type_symbol
 _atom_site_label
 _atom_site_symmetry_multiplicity
 _atom_site_fract_x
 _atom_site_fract_y
 _atom_site_fract_z
 _atom_site_occupancy
  Y  Y0  1  0.82625209  0.37986461  0.93033049  1
  Y  Y1  1  0.17374791  0.87986461  0.56966951  1
  Y  Y2  1  0.17374791  0.62013539  0.06966951  1
  Y  Y3  1  0.82625209  0.12013539  0.43033049  1
  Y  Y4  1  0.34346279  0.37315475  0.91945419  1
  Y  Y5  1  0.65653721  0.87315475  0.58054581  1
  Y  Y6  1  0.65653721  0.62684525  0.08054581  1
  Y  Y7  1  0.34346279  0.12684525  0.41945419  1
  Y  Y8  1  0.52995954  0.09097687  0.80840244  1
  Y  Y9  1  0.47004046  0.59097687  0.69159756  1
  Y  Y10  1  0.47004046  0.90902313  0.19159756  1
  Y  Y11  1  0.52995954  0.40902313  0.30840244  1
  Y  Y12  1  0.02019375  0.10051513  0.78014272  1
  Y  Y13  1  0.97980625  0.60051513  0.71985728  1
  Y  Y14  1  0.97980625  0.89948487  0.21985728  1
  Y  Y15  1  0.02019375  0.39948487  0.28014272  1
  Al  Al16  1  0.73493633  0.31433483  0.63074379  1
  Al  Al17  1  0.26506367  0.81433483  0.86925621  1
  Al  Al18  1  0.26506367  0.68566517  0.36925621  1
  Al  Al19  1  0.73493633  0.18566517  0.13074379  1
  Si  Si20  1  0.15321048  0.31652024  0.61499818  1
  Si  Si21  1  0.84678952  0.81652024  0.88500182  1
  Si  Si22  1  0.84678952  0.68347976  0.38500182  1
  Si  Si23  1  0.15321048  0.18347976  0.11499818  1
  N  N24  1  0.94864992  0.25617921  0.61233773  1
  N  N25  1  0.05135008  0.75617921  0.88766227  1
  N  N26  1  0.05135008  0.74382079  0.38766227  1
  N  N27  1  0.94864992  0.24382079  0.11233773  1
  O  O28  1  0.71647898  0.47420394  0.67519577  1
  O  O29  1  0.28352102  0.97420394  0.82480423  1
  O  O30  1  0.28352102  0.52579606  0.32480423  1
  O  O31  1  0.71647898  0.02579606  0.17519577  1
  O  O32  1  0.19580843  0.46792738  0.66354452  1
  O  O33  1  0.80419157  0.96792738  0.83645548  1
  O  O34  1  0.80419157  0.53207262  0.33645548  1
  O  O35  1  0.19580843  0.03207262  0.16354452  1
  O  O36  1  0.74415185  0.22385042  0.77153440  1
  O  O37  1  0.25584815  0.72385042  0.72846560  1
  O  O38  1  0.25584815  0.77614958  0.22846560  1
  O  O39  1  0.74415185  0.27614958  0.27153440  1
  O  O40  1  0.30677064  0.23776305  0.73599741  1
  O  O41  1  0.69322936  0.73776305  0.76400259  1
  O  O42  1  0.69322936  0.76223695  0.26400259  1
  O  O43  1  0.30677064  0.26223695  0.23599741  1
  O  O44  1  0.57581698  0.26914462  0.47979727  1
  O  O45  1  0.42418302  0.76914462  0.02020273  1
  O  O46  1  0.42418302  0.73085538  0.52020273  1
  O  O47  1  0.57581698  0.23085538  0.97979727  1
  O  O48  1  0.17634408  0.29347649  0.47238678  1
  O  O49  1  0.82365592  0.79347649  0.02761322  1
  O  O50  1  0.82365592  0.70652351  0.52761322  1
  O  O51  1  0.17634408  0.20652351  0.97238678  1
  O  O52  1  0.43158076  0.00489074  0.60606033  1
  O  O53  1  0.56841924  0.50489074  0.89393967  1
  O  O54  1  0.56841924  0.99510926  0.39393967  1
  O  O55  1  0.43158076  0.49510926  0.10606033  1
  O  O56  1  0.92610119  0.97706199  0.60184769  1
  O  O57  1  0.07389881  0.47706199  0.89815231  1
  O  O58  1  0.07389881  0.02293801  0.39815231  1
  O  O59  1  0.92610119  0.52293801  0.10184769  1
