# generated using pymatgen
data_CdIBr
_symmetry_space_group_name_H-M   'P 1'
_cell_length_a   4.21988676
_cell_length_b   4.21988676
_cell_length_c   14.36987878
_cell_angle_alpha   81.55667840
_cell_angle_beta   81.55667840
_cell_angle_gamma   59.99999970
_symmetry_Int_Tables_number   1
_chemical_formula_structural   CdIBr
_chemical_formula_sum   'Cd2 I2 Br2'
_cell_volume   218.39957430
_cell_formula_units_Z   2
loop_
 _symmetry_equiv_pos_site_id
 _symmetry_equiv_pos_as_xyz
  1  'x, y, z'
loop_
 _atom_site_type_symbol
 _atom_site_label
 _atom_site_symmetry_multiplicity
 _atom_site_fract_x
 _atom_site_fract_y
 _atom_site_fract_z
 _atom_site_occupancy
  Cd  Cd0  1  0.71174998  0.71174998  0.86475005  1
  Cd  Cd1  1  0.21181657  0.21181657  0.36455029  1
  I  I2  1  0.00387394  0.00387394  0.98837819  1
  I  I3  1  0.83717815  0.83717815  0.48846554  1
  Br  Br4  1  0.58115023  0.58115023  0.25654932  1
  Br  Br5  1  0.41423113  0.41423113  0.75730662  1
