# generated using pymatgen
data_MoSeS
_symmetry_space_group_name_H-M   'P 1'
_cell_length_a   3.25647417
_cell_length_b   3.25648260
_cell_length_c   36.82155327
_cell_angle_alpha   90.00019401
_cell_angle_beta   90.00000000
_cell_angle_gamma   119.99991422
_symmetry_Int_Tables_number   1
_chemical_formula_structural   MoSeS
_chemical_formula_sum   'Mo4 Se4 S4'
_cell_volume   338.16566646
_cell_formula_units_Z   4
loop_
 _symmetry_equiv_pos_site_id
 _symmetry_equiv_pos_as_xyz
  1  'x, y, z'
loop_
 _atom_site_type_symbol
 _atom_site_label
 _atom_site_symmetry_multiplicity
 _atom_site_fract_x
 _atom_site_fract_y
 _atom_site_fract_z
 _atom_site_occupancy
  Mo  Mo0  1  0.33330776  0.66661552  0.09391348  1
  Mo  Mo1  1  0.33330769  0.66661539  0.46964536  1
  Mo  Mo2  1  0.66669231  0.33338461  0.28181264  1
  Mo  Mo3  1  0.66669224  0.33338448  0.65754452  1
  Se  Se4  1  0.33335243  0.66670585  0.70368567  1
  Se  Se5  1  0.66664757  0.33329415  0.04777233  1
  Se  Se6  1  0.66664911  0.33329722  0.14004935  1
  Se  Se7  1  0.33335089  0.66670278  0.61140865  1
  S  S8  1  0.33335192  0.66670484  0.32373359  1
  S  S9  1  0.66664808  0.33329516  0.42772441  1
  S  S10  1  0.66664721  0.33329342  0.51158352  1
  S  S11  1  0.33335279  0.66670658  0.23987448  1
