# generated using pymatgen
data_W3(SeS2)2
_symmetry_space_group_name_H-M   'P 1'
_cell_length_a   3.23216695
_cell_length_b   3.23215758
_cell_length_c   29.69453645
_cell_angle_alpha   90.00000000
_cell_angle_beta   90.00000000
_cell_angle_gamma   120.00009596
_symmetry_Int_Tables_number   1
_chemical_formula_structural   W3(SeS2)2
_chemical_formula_sum   'W3 Se2 S4'
_cell_volume   268.65385304
_cell_formula_units_Z   1
loop_
 _symmetry_equiv_pos_site_id
 _symmetry_equiv_pos_as_xyz
  1  'x, y, z'
loop_
 _atom_site_type_symbol
 _atom_site_label
 _atom_site_symmetry_multiplicity
 _atom_site_fract_x
 _atom_site_fract_y
 _atom_site_fract_z
 _atom_site_occupancy
  W  W0  1  0.33330598  0.66661196  0.11562053  1
  W  W1  1  0.33330598  0.66661196  0.57834447  1
  W  W2  1  0.66669385  0.33338771  0.34698200  1
  Se  Se3  1  0.33335917  0.66671934  0.40474601  1
  Se  Se4  1  0.33335917  0.66671934  0.28921899  1
  S  S5  1  0.66664405  0.33328710  0.06321073  1
  S  S6  1  0.66664437  0.33328775  0.52593096  1
  S  S7  1  0.66664437  0.33328775  0.16803404  1
  S  S8  1  0.66664405  0.33328710  0.63075327  1
