# generated using pymatgen
data_Mo3W(SeS)4
_symmetry_space_group_name_H-M   'P 1'
_cell_length_a   3.25235020
_cell_length_b   3.25229429
_cell_length_c   36.85370683
_cell_angle_alpha   90.00013025
_cell_angle_beta   90.00000000
_cell_angle_gamma   120.00056872
_symmetry_Int_Tables_number   1
_chemical_formula_structural   Mo3W(SeS)4
_chemical_formula_sum   'Mo3 W1 Se4 S4'
_cell_volume   337.59535153
_cell_formula_units_Z   1
loop_
 _symmetry_equiv_pos_site_id
 _symmetry_equiv_pos_as_xyz
  1  'x, y, z'
loop_
 _atom_site_type_symbol
 _atom_site_label
 _atom_site_symmetry_multiplicity
 _atom_site_fract_x
 _atom_site_fract_y
 _atom_site_fract_z
 _atom_site_occupancy
  Mo  Mo0  1  0.33330770  0.66661540  0.09389759  1
  Mo  Mo1  1  0.66668929  0.33337857  0.28181623  1
  Mo  Mo2  1  0.66669041  0.33338082  0.65754406  1
  W  W3  1  0.33331080  0.66662160  0.46966054  1
  Se  Se4  1  0.33335170  0.66670440  0.70364893  1
  Se  Se5  1  0.66664311  0.33328522  0.04779664  1
  Se  Se6  1  0.66664699  0.33329299  0.14003059  1
  Se  Se7  1  0.33336038  0.66672176  0.61144305  1
  S  S8  1  0.33335348  0.66670797  0.32375230  1
  S  S9  1  0.66664241  0.33328383  0.42761371  1
  S  S10  1  0.66664584  0.33329069  0.51169040  1
  S  S11  1  0.33335787  0.66671674  0.23985396  1
