# generated using pymatgen
data_Te6MoW3S2
_symmetry_space_group_name_H-M   'P 1'
_cell_length_a   3.46347906
_cell_length_b   3.46350309
_cell_length_c   39.29933615
_cell_angle_alpha   90.00032504
_cell_angle_beta   89.99999445
_cell_angle_gamma   119.99976782
_symmetry_Int_Tables_number   1
_chemical_formula_structural   Te6MoW3S2
_chemical_formula_sum   'Te6 Mo1 W3 S2'
_cell_volume   408.26768647
_cell_formula_units_Z   1
loop_
 _symmetry_equiv_pos_site_id
 _symmetry_equiv_pos_as_xyz
  1  'x, y, z'
loop_
 _atom_site_type_symbol
 _atom_site_label
 _atom_site_symmetry_multiplicity
 _atom_site_fract_x
 _atom_site_fract_y
 _atom_site_fract_z
 _atom_site_occupancy
  Te  Te0  1  0.33334925  0.66669936  0.70474495  1
  Te  Te1  1  0.66664211  0.33328332  0.04673287  1
  Te  Te2  1  0.66664129  0.33328177  0.42240233  1
  Te  Te3  1  0.66664731  0.33329376  0.14117101  1
  Te  Te4  1  0.66664949  0.33329811  0.51681881  1
  Te  Te5  1  0.33335505  0.66671096  0.61037564  1
  Mo  Mo6  1  0.66669134  0.33338276  0.28178687  1
  W  W7  1  0.33331036  0.66662052  0.09391421  1
  W  W8  1  0.33331350  0.66662674  0.46962599  1
  W  W9  1  0.66668603  0.33337227  0.65759102  1
  S  S10  1  0.33336010  0.66672113  0.31960735  1
  S  S11  1  0.33335416  0.66670930  0.24397694  1
