# generated using pymatgen
data_W3(Se2S)2
_symmetry_space_group_name_H-M   'P 1'
_cell_length_a   3.27519345
_cell_length_b   3.27517466
_cell_length_c   30.26800362
_cell_angle_alpha   90.00013407
_cell_angle_beta   90.00000000
_cell_angle_gamma   120.00018965
_symmetry_Int_Tables_number   1
_chemical_formula_structural   W3(Se2S)2
_chemical_formula_sum   'W3 Se4 S2'
_cell_volume   281.18037217
_cell_formula_units_Z   1
loop_
 _symmetry_equiv_pos_site_id
 _symmetry_equiv_pos_as_xyz
  1  'x, y, z'
loop_
 _atom_site_type_symbol
 _atom_site_label
 _atom_site_symmetry_multiplicity
 _atom_site_fract_x
 _atom_site_fract_y
 _atom_site_fract_z
 _atom_site_occupancy
  W  W0  1  0.33331074  0.66662149  0.11564296  1
  W  W1  1  0.33331182  0.66662364  0.57833839  1
  W  W2  1  0.66668881  0.33337761  0.34696925  1
  Se  Se3  1  0.33335318  0.66670736  0.40313136  1
  Se  Se4  1  0.66664748  0.33329396  0.52213999  1
  Se  Se5  1  0.66664728  0.33329355  0.63452220  1
  Se  Se6  1  0.33335319  0.66670738  0.29080706  1
  S  S7  1  0.66664579  0.33329059  0.06462003  1
  S  S8  1  0.66664271  0.33328441  0.16666975  1
