# generated using pymatgen
data_MoW2(SeS2)2
_symmetry_space_group_name_H-M   'P 1'
_cell_length_a   3.23125497
_cell_length_b   3.23126063
_cell_length_c   29.67800055
_cell_angle_alpha   90.00000000
_cell_angle_beta   90.00000000
_cell_angle_gamma   119.99994194
_symmetry_Int_Tables_number   1
_chemical_formula_structural   MoW2(SeS2)2
_chemical_formula_sum   'Mo1 W2 Se2 S4'
_cell_volume   268.35441334
_cell_formula_units_Z   1
loop_
 _symmetry_equiv_pos_site_id
 _symmetry_equiv_pos_as_xyz
  1  'x, y, z'
loop_
 _atom_site_type_symbol
 _atom_site_label
 _atom_site_symmetry_multiplicity
 _atom_site_fract_x
 _atom_site_fract_y
 _atom_site_fract_z
 _atom_site_occupancy
  Mo  Mo0  1  0.66668576  0.33337152  0.34698200  1
  W  W1  1  0.33330539  0.66661078  0.11562089  1
  W  W2  1  0.33330539  0.66661078  0.57834411  1
  Se  Se3  1  0.33336494  0.66673087  0.40446433  1
  Se  Se4  1  0.33336494  0.66673087  0.28950067  1
  S  S5  1  0.66664306  0.33328513  0.06314325  1
  S  S6  1  0.66664423  0.33328746  0.52585622  1
  S  S7  1  0.66664423  0.33328746  0.16810878  1
  S  S8  1  0.66664306  0.33328513  0.63082075  1
