# generated using pymatgen
data_MoW2(Se2S)2
_symmetry_space_group_name_H-M   'P 1'
_cell_length_a   3.27457534
_cell_length_b   3.27452143
_cell_length_c   30.23205952
_cell_angle_alpha   90.00059062
_cell_angle_beta   90.00000000
_cell_angle_gamma   120.00054462
_symmetry_Int_Tables_number   1
_chemical_formula_structural   MoW2(Se2S)2
_chemical_formula_sum   'Mo1 W2 Se4 S2'
_cell_volume   280.73645144
_cell_formula_units_Z   1
loop_
 _symmetry_equiv_pos_site_id
 _symmetry_equiv_pos_as_xyz
  1  'x, y, z'
loop_
 _atom_site_type_symbol
 _atom_site_label
 _atom_site_symmetry_multiplicity
 _atom_site_fract_x
 _atom_site_fract_y
 _atom_site_fract_z
 _atom_site_occupancy
  Mo  Mo0  1  0.33331151  0.66662302  0.11563013  1
  W  W1  1  0.33331018  0.66662035  0.57832288  1
  W  W2  1  0.66668678  0.33337356  0.34700375  1
  Se  Se3  1  0.33336204  0.66672508  0.40325969  1
  Se  Se4  1  0.66664541  0.33328982  0.05973742  1
  Se  Se5  1  0.66664659  0.33329218  0.17154100  1
  Se  Se6  1  0.33335147  0.66670394  0.29071469  1
  S  S7  1  0.66664318  0.33328535  0.52720298  1
  S  S8  1  0.66664385  0.33328670  0.62942847  1
