# generated using pymatgen
data_MoSeS
_symmetry_space_group_name_H-M   'P 1'
_cell_length_a   3.25515892
_cell_length_b   3.25513062
_cell_length_c   36.84519754
_cell_angle_alpha   89.99931864
_cell_angle_beta   90.00001336
_cell_angle_gamma   120.00022379
_symmetry_Int_Tables_number   1
_chemical_formula_structural   MoSeS
_chemical_formula_sum   'Mo4 Se4 S4'
_cell_volume   338.10466146
_cell_formula_units_Z   4
loop_
 _symmetry_equiv_pos_site_id
 _symmetry_equiv_pos_as_xyz
  1  'x, y, z'
loop_
 _atom_site_type_symbol
 _atom_site_label
 _atom_site_symmetry_multiplicity
 _atom_site_fract_x
 _atom_site_fract_y
 _atom_site_fract_z
 _atom_site_occupancy
  Mo  Mo0  1  0.33331048  0.66661982  0.09391723  1
  Mo  Mo1  1  0.33330659  0.66661235  0.46967151  1
  Mo  Mo2  1  0.66669341  0.33338765  0.28178649  1
  Mo  Mo3  1  0.66668952  0.33338018  0.65754077  1
  Se  Se4  1  0.33335119  0.66670306  0.32785188  1
  Se  Se5  1  0.66664881  0.33329694  0.42360612  1
  Se  Se6  1  0.66664911  0.33329763  0.51578456  1
  Se  Se7  1  0.33335089  0.66670237  0.23567344  1
  S  S8  1  0.33335829  0.66671940  0.69944831  1
  S  S9  1  0.66664171  0.33328060  0.05200969  1
  S  S10  1  0.66664381  0.33328726  0.13583067  1
  S  S11  1  0.33335619  0.66671274  0.61562733  1
