# generated using pymatgen
data_Mo3W(SeS)4
_symmetry_space_group_name_H-M   'P 1'
_cell_length_a   3.25277561
_cell_length_b   3.25274796
_cell_length_c   36.86233575
_cell_angle_alpha   89.99963967
_cell_angle_beta   90.00000000
_cell_angle_gamma   120.00028106
_symmetry_Int_Tables_number   1
_chemical_formula_structural   Mo3W(SeS)4
_chemical_formula_sum   'Mo3 W1 Se4 S4'
_cell_volume   337.76665318
_cell_formula_units_Z   1
loop_
 _symmetry_equiv_pos_site_id
 _symmetry_equiv_pos_as_xyz
  1  'x, y, z'
loop_
 _atom_site_type_symbol
 _atom_site_label
 _atom_site_symmetry_multiplicity
 _atom_site_fract_x
 _atom_site_fract_y
 _atom_site_fract_z
 _atom_site_occupancy
  Mo  Mo0  1  0.33331148  0.66662297  0.09390884  1
  Mo  Mo1  1  0.66668794  0.33337589  0.28178838  1
  Mo  Mo2  1  0.66669213  0.33338426  0.65755173  1
  W  W3  1  0.33331124  0.66662247  0.46966758  1
  Se  Se4  1  0.33335211  0.66670521  0.32785995  1
  Se  Se5  1  0.33335214  0.66670527  0.70364532  1
  Se  Se6  1  0.33335079  0.66670259  0.23569873  1
  Se  Se7  1  0.33335980  0.66672060  0.61146159  1
  S  S8  1  0.66664666  0.33329231  0.05198981  1
  S  S9  1  0.66664114  0.33328128  0.42763383  1
  S  S10  1  0.66664725  0.33329350  0.13584107  1
  S  S11  1  0.66664733  0.33329366  0.51170117  1
