# generated using pymatgen
data_MoSeS
_symmetry_space_group_name_H-M   'P 1'
_cell_length_a   3.25564533
_cell_length_b   3.25565503
_cell_length_c   36.84171118
_cell_angle_alpha   89.99983430
_cell_angle_beta   90.00000000
_cell_angle_gamma   119.99990138
_symmetry_Int_Tables_number   1
_chemical_formula_structural   MoSeS
_chemical_formula_sum   'Mo4 Se4 S4'
_cell_volume   338.17875717
_cell_formula_units_Z   4
loop_
 _symmetry_equiv_pos_site_id
 _symmetry_equiv_pos_as_xyz
  1  'x, y, z'
loop_
 _atom_site_type_symbol
 _atom_site_label
 _atom_site_symmetry_multiplicity
 _atom_site_fract_x
 _atom_site_fract_y
 _atom_site_fract_z
 _atom_site_occupancy
  Mo  Mo0  1  0.33330878  0.66661755  0.09392046  1
  Mo  Mo1  1  0.33330747  0.66661493  0.46965354  1
  Mo  Mo2  1  0.66669217  0.33338433  0.28180106  1
  Mo  Mo3  1  0.66669695  0.33339389  0.65755169  1
  Se  Se4  1  0.33335011  0.66670123  0.32784861  1
  Se  Se5  1  0.33335356  0.66670812  0.70362603  1
  Se  Se6  1  0.33334837  0.66669774  0.23573009  1
  Se  Se7  1  0.33335069  0.66670238  0.61147481  1
  S  S8  1  0.66664852  0.33329604  0.05200163  1
  S  S9  1  0.66664728  0.33329357  0.42777573  1
  S  S10  1  0.66664951  0.33329802  0.13580928  1
  S  S11  1  0.66664660  0.33329220  0.51155507  1
