# generated using pymatgen
data_Mo3W(SeS)4
_symmetry_space_group_name_H-M   'P 1'
_cell_length_a   3.25335985
_cell_length_b   3.25334118
_cell_length_c   37.09793856
_cell_angle_alpha   90.00007027
_cell_angle_beta   89.99995445
_cell_angle_gamma   120.00030602
_symmetry_Int_Tables_number   1
_chemical_formula_structural   Mo3W(SeS)4
_chemical_formula_sum   'Mo3 W1 Se4 S4'
_cell_volume   340.04843706
_cell_formula_units_Z   1
loop_
 _symmetry_equiv_pos_site_id
 _symmetry_equiv_pos_as_xyz
  1  'x, y, z'
loop_
 _atom_site_type_symbol
 _atom_site_label
 _atom_site_symmetry_multiplicity
 _atom_site_fract_x
 _atom_site_fract_y
 _atom_site_fract_z
 _atom_site_occupancy
  Mo  Mo0  1  0.33330994  0.66661994  0.09391519  1
  Mo  Mo1  1  0.33331010  0.66662026  0.46965904  1
  Mo  Mo2  1  0.66668866  0.33337845  0.28180295  1
  W  W3  1  0.66668913  0.33337944  0.65754543  1
  Se  Se4  1  0.66664621  0.33328448  0.04815434  1
  Se  Se5  1  0.66664820  0.33329655  0.42389101  1
  Se  Se6  1  0.66664702  0.33329404  0.13970031  1
  Se  Se7  1  0.66664716  0.33329430  0.51542114  1
  S  S8  1  0.33335377  0.66670891  0.32345542  1
  S  S9  1  0.33335351  0.66670849  0.69933851  1
  S  S10  1  0.33335303  0.66670743  0.24012599  1
  S  S11  1  0.33335326  0.66670771  0.61573869  1
