# generated using pymatgen
data_MoW3(SeS)4
_symmetry_space_group_name_H-M   'P 1'
_cell_length_a   3.25174928
_cell_length_b   3.25172421
_cell_length_c   37.14788686
_cell_angle_alpha   90.00016764
_cell_angle_beta   90.00000417
_cell_angle_gamma   120.00029714
_symmetry_Int_Tables_number   1
_chemical_formula_structural   MoW3(SeS)4
_chemical_formula_sum   'Mo1 W3 Se4 S4'
_cell_volume   340.16858439
_cell_formula_units_Z   1
loop_
 _symmetry_equiv_pos_site_id
 _symmetry_equiv_pos_as_xyz
  1  'x, y, z'
loop_
 _atom_site_type_symbol
 _atom_site_label
 _atom_site_symmetry_multiplicity
 _atom_site_fract_x
 _atom_site_fract_y
 _atom_site_fract_z
 _atom_site_occupancy
  Mo  Mo0  1  0.33330921  0.66661766  0.09391211  1
  W  W1  1  0.33331375  0.66662699  0.46964105  1
  W  W2  1  0.66669385  0.33338776  0.28179449  1
  W  W3  1  0.66669080  0.33338221  0.65754801  1
  Se  Se4  1  0.33335363  0.66670838  0.70352743  1
  Se  Se5  1  0.66664929  0.33329693  0.04822684  1
  Se  Se6  1  0.66663056  0.33326052  0.13960985  1
  Se  Se7  1  0.33335374  0.66670751  0.61157664  1
  S  S8  1  0.33335617  0.66671344  0.32359884  1
  S  S9  1  0.66664881  0.33329602  0.42786274  1
  S  S10  1  0.66664346  0.33328755  0.51144850  1
  S  S11  1  0.33335673  0.66671503  0.24000150  1
