# generated using pymatgen
data_MgV2O4
_symmetry_space_group_name_H-M   'P 1'
_cell_length_a   6.05286122
_cell_length_b   6.06659308
_cell_length_c   18.17088094
_cell_angle_alpha   60.06955770
_cell_angle_beta   59.98537107
_cell_angle_gamma   60.08366890
_symmetry_Int_Tables_number   1
_chemical_formula_structural   MgV2O4
_chemical_formula_sum   'Mg6 V12 O24'
_cell_volume   472.30261763
_cell_formula_units_Z   6
loop_
 _symmetry_equiv_pos_site_id
 _symmetry_equiv_pos_as_xyz
  1  'x, y, z'
loop_
 _atom_site_type_symbol
 _atom_site_label
 _atom_site_symmetry_multiplicity
 _atom_site_fract_x
 _atom_site_fract_y
 _atom_site_fract_z
 _atom_site_occupancy
  Mg  Mg0  1  0.11966717  0.11911867  0.04661537  1
  Mg  Mg1  1  0.12472763  0.12571035  0.37513574  1
  Mg  Mg2  1  0.49801529  0.49728951  0.00291303  1
  Mg  Mg3  1  0.12522114  0.12591924  0.70788873  1
  Mg  Mg4  1  0.87681103  0.87747618  0.28966471  1
  Mg  Mg5  1  0.87593456  0.87535208  0.62439669  1
  V  V6  1  0.00336707  0.49822423  0.16657534  1
  V  V7  1  0.49808060  0.49679029  0.16695016  1
  V  V8  1  0.00170314  0.50066018  0.49908948  1
  V  V9  1  0.49878652  0.00459558  0.16604811  1
  V  V10  1  0.50137983  0.50003984  0.33241282  1
  V  V11  1  0.50082546  0.50095197  0.49925061  1
  V  V12  1  0.00141395  0.49993505  0.83348177  1
  V  V13  1  0.50095957  0.00049244  0.49924815  1
  V  V14  1  0.49879615  0.00230432  0.83337336  1
  V  V15  1  0.50114949  0.50183454  0.66554170  1
  V  V16  1  0.49810371  0.49985276  0.83330049  1
  V  V17  1  0.87600403  0.87494490  0.95775994  1
  O  O18  1  0.25439540  0.25387597  0.09096587  1
  O  O19  1  0.26144134  0.26083715  0.24158866  1
  O  O20  1  0.25310948  0.72102406  0.08921472  1
  O  O21  1  0.71997963  0.25319794  0.08978007  1
  O  O22  1  0.28122337  0.74143993  0.24640162  1
  O  O23  1  0.26003820  0.26121787  0.41961381  1
  O  O24  1  0.74140978  0.28070923  0.24642756  1
  O  O25  1  0.74216417  0.74244595  0.08852793  1
  O  O26  1  0.25922749  0.72124849  0.41994032  1
  O  O27  1  0.26349045  0.25726224  0.57255402  1
  O  O28  1  0.74001121  0.74067198  0.24564448  1
  O  O29  1  0.72053812  0.26154749  0.41939297  1
  O  O30  1  0.27929808  0.73909035  0.58040974  1
  O  O31  1  0.26096339  0.25987893  0.75315550  1
  O  O32  1  0.74182328  0.27840625  0.57960588  1
  O  O33  1  0.73806622  0.74398653  0.42625436  1
  O  O34  1  0.26079239  0.25746751  0.90702299  1
  O  O35  1  0.25893458  0.72173038  0.75311673  1
  O  O36  1  0.74084662  0.73962819  0.58004234  1
  O  O37  1  0.72032267  0.26232508  0.75264952  1
  O  O38  1  0.27233756  0.74296340  0.91240511  1
  O  O39  1  0.73736040  0.74082570  0.76133158  1
  O  O40  1  0.74557262  0.27163032  0.91244378  1
  O  O41  1  0.74570723  0.74509393  0.91186422  1
