# generated using pymatgen
data_MgV(SiO3)2
_symmetry_space_group_name_H-M   'P 1'
_cell_length_a   5.27728768
_cell_length_b   8.95328203
_cell_length_c   18.68596895
_cell_angle_alpha   90.00000000
_cell_angle_beta   90.00000000
_cell_angle_gamma   90.00000000
_symmetry_Int_Tables_number   1
_chemical_formula_structural   MgV(SiO3)2
_chemical_formula_sum   'Mg8 V8 Si16 O48'
_cell_volume   882.89418690
_cell_formula_units_Z   8
loop_
 _symmetry_equiv_pos_site_id
 _symmetry_equiv_pos_as_xyz
  1  'x, y, z'
loop_
 _atom_site_type_symbol
 _atom_site_label
 _atom_site_symmetry_multiplicity
 _atom_site_fract_x
 _atom_site_fract_y
 _atom_site_fract_z
 _atom_site_occupancy
  Mg  Mg0  1  0.62800513  0.15275961  0.62389402  1
  Mg  Mg1  1  0.37199487  0.84724039  0.37610598  1
  Mg  Mg2  1  0.62800513  0.65275961  0.87610598  1
  Mg  Mg3  1  0.12800513  0.84724039  0.87610598  1
  Mg  Mg4  1  0.87199487  0.15275961  0.12389402  1
  Mg  Mg5  1  0.37199487  0.34724039  0.12389402  1
  Mg  Mg6  1  0.12800513  0.34724039  0.62389402  1
  Mg  Mg7  1  0.87199487  0.65275961  0.37610598  1
  V  V8  1  0.35700732  0.97781804  0.12217635  1
  V  V9  1  0.64299268  0.02218196  0.87782365  1
  V  V10  1  0.85700732  0.02218196  0.37782365  1
  V  V11  1  0.14299268  0.97781804  0.62217635  1
  V  V12  1  0.35700732  0.47781804  0.37782365  1
  V  V13  1  0.64299268  0.52218196  0.62217635  1
  V  V14  1  0.85700732  0.52218196  0.12217635  1
  V  V15  1  0.14299268  0.47781804  0.87782365  1
  Si  Si16  1  0.55234411  0.65820732  0.23107665  1
  Si  Si17  1  0.70110280  0.83759431  0.52449605  1
  Si  Si18  1  0.79889720  0.83759431  0.02449605  1
  Si  Si19  1  0.94765589  0.15820732  0.76892335  1
  Si  Si20  1  0.05234411  0.34179268  0.26892335  1
  Si  Si21  1  0.44765589  0.84179268  0.73107665  1
  Si  Si22  1  0.20110280  0.66240569  0.52449605  1
  Si  Si23  1  0.70110280  0.33759431  0.97550395  1
  Si  Si24  1  0.79889720  0.33759431  0.47550395  1
  Si  Si25  1  0.94765589  0.65820732  0.73107665  1
  Si  Si26  1  0.44765589  0.34179268  0.76892335  1
  Si  Si27  1  0.55234411  0.15820732  0.26892335  1
  Si  Si28  1  0.29889720  0.16240569  0.47550395  1
  Si  Si29  1  0.05234411  0.84179268  0.23107665  1
  Si  Si30  1  0.29889720  0.66240569  0.02449605  1
  Si  Si31  1  0.20110280  0.16240569  0.97550395  1
  O  O32  1  0.96160188  0.49992848  0.69103316  1
  O  O33  1  0.29229655  0.01218579  0.93650878  1
  O  O34  1  0.03839812  0.50007152  0.30896684  1
  O  O35  1  0.70433345  0.33579351  0.06300426  1
  O  O36  1  0.20433345  0.16420649  0.06300426  1
  O  O37  1  0.90167279  0.20131321  0.94783021  1
  O  O38  1  0.95984089  0.65983183  0.81803768  1
  O  O39  1  0.04015911  0.84016817  0.31803768  1
  O  O40  1  0.70433345  0.83579351  0.43699574  1
  O  O41  1  0.95984089  0.15983183  0.68196232  1
  O  O42  1  0.46160188  0.50007152  0.80896684  1
  O  O43  1  0.79566655  0.33579351  0.56300426  1
  O  O44  1  0.70770345  0.98781421  0.06349122  1
  O  O45  1  0.45984089  0.84016817  0.81803768  1
  O  O46  1  0.53839812  0.99992848  0.30896684  1
  O  O47  1  0.29229655  0.51218579  0.56349122  1
  O  O48  1  0.46160188  0.00007152  0.69103316  1
  O  O49  1  0.16695070  0.77695358  0.70041303  1
  O  O50  1  0.33304930  0.77695358  0.20041303  1
  O  O51  1  0.59832721  0.70131321  0.05216979  1
  O  O52  1  0.79566655  0.83579351  0.93699574  1
  O  O53  1  0.54015911  0.65983183  0.31803768  1
  O  O54  1  0.79229655  0.48781421  0.93650878  1
  O  O55  1  0.16695070  0.27695358  0.79958697  1
  O  O56  1  0.29566655  0.16420649  0.56300426  1
  O  O57  1  0.54015911  0.15983183  0.18196232  1
  O  O58  1  0.70770345  0.48781421  0.43650878  1
  O  O59  1  0.20433345  0.66420649  0.43699574  1
  O  O60  1  0.20770345  0.51218579  0.06349122  1
  O  O61  1  0.66695070  0.72304642  0.70041303  1
  O  O62  1  0.03839812  0.00007152  0.19103316  1
  O  O63  1  0.83304930  0.72304642  0.20041303  1
  O  O64  1  0.83304930  0.22304642  0.29958697  1
  O  O65  1  0.79229655  0.98781421  0.56349122  1
  O  O66  1  0.29566655  0.66420649  0.93699574  1
  O  O67  1  0.20770345  0.01218579  0.43650878  1
  O  O68  1  0.33304930  0.27695358  0.29958697  1
  O  O69  1  0.09832721  0.79868679  0.05216979  1
  O  O70  1  0.40167279  0.79868679  0.55216979  1
  O  O71  1  0.66695070  0.22304642  0.79958697  1
  O  O72  1  0.40167279  0.29868679  0.94783021  1
  O  O73  1  0.59832721  0.20131321  0.44783021  1
  O  O74  1  0.09832721  0.29868679  0.44783021  1
  O  O75  1  0.45984089  0.34016817  0.68196232  1
  O  O76  1  0.53839812  0.49992848  0.19103316  1
  O  O77  1  0.90167279  0.70131321  0.55216979  1
  O  O78  1  0.04015911  0.34016817  0.18196232  1
  O  O79  1  0.96160188  0.99992848  0.80896684  1
