# generated using pymatgen
data_Ba4Sm2Cd3S10
_symmetry_space_group_name_H-M   'P 1'
_cell_length_a   4.22133312
_cell_length_b   9.39748949
_cell_length_c   27.02728917
_cell_angle_alpha   90.00000000
_cell_angle_beta   90.00000000
_cell_angle_gamma   102.97929790
_symmetry_Int_Tables_number   1
_chemical_formula_structural   Ba4Sm2Cd3S10
_chemical_formula_sum   'Ba8 Sm4 Cd6 S20'
_cell_volume   1044.77817769
_cell_formula_units_Z   2
loop_
 _symmetry_equiv_pos_site_id
 _symmetry_equiv_pos_as_xyz
  1  'x, y, z'
loop_
 _atom_site_type_symbol
 _atom_site_label
 _atom_site_symmetry_multiplicity
 _atom_site_fract_x
 _atom_site_fract_y
 _atom_site_fract_z
 _atom_site_occupancy
  S  S0  1  0.57663589  0.15327179  0.32213262  1
  S  S1  1  0.42336411  0.84672821  0.82213262  1
  S  S2  1  0.59023763  0.18047526  0.18316687  1
  S  S3  1  0.40976237  0.81952474  0.68316687  1
  S  S4  1  0.65251502  0.30503004  0.48998810  1
  S  S5  1  0.34748498  0.69496996  0.98998810  1
  S  S6  1  0.65523483  0.31046966  0.01859150  1
  S  S7  1  0.34476517  0.68953034  0.51859150  1
  S  S8  1  0.76686673  0.53373347  0.76698965  1
  S  S9  1  0.23313327  0.46626653  0.26698965  1
  S  S10  1  0.78878304  0.57756609  0.37817932  1
  S  S11  1  0.21121696  0.42243391  0.87817932  1
  S  S12  1  0.79243446  0.58486892  0.13141460  1
  S  S13  1  0.20756554  0.41513108  0.63141460  1
  S  S14  1  0.92602937  0.85205875  0.24703293  1
  S  S15  1  0.07397063  0.14794125  0.74703293  1
  S  S16  1  0.98309343  0.96618686  0.43223220  1
  S  S17  1  0.01690657  0.03381314  0.93223220  1
  S  S18  1  0.01201416  0.02402832  0.57175486  1
  S  S19  1  0.98798584  0.97597168  0.07175486  1
  Cd  Cd20  1  0.78245497  0.56490994  0.23148820  1
  Cd  Cd21  1  0.21754503  0.43509006  0.73148820  1
  Cd  Cd22  1  0.84028412  0.68056825  0.46210454  1
  Cd  Cd23  1  0.15971588  0.31943175  0.96210454  1
  Cd  Cd24  1  0.84596491  0.69192982  0.04434669  1
  Cd  Cd25  1  0.15403509  0.30807018  0.54434669  1
  Ba  Ba26  1  0.40412014  0.80824028  0.33879517  1
  Ba  Ba27  1  0.59587986  0.19175972  0.83879517  1
  Ba  Ba28  1  0.42407889  0.84815778  0.15660801  1
  Ba  Ba29  1  0.57592111  0.15184222  0.65660801  1
  Ba  Ba30  1  0.83679391  0.67358782  0.61050796  1
  Ba  Ba31  1  0.16320609  0.32641218  0.11050796  1
  Ba  Ba32  1  0.83728920  0.67457840  0.89088378  1
  Ba  Ba33  1  0.16271080  0.32542160  0.39088378  1
  Sm  Sm34  1  0.49717533  0.99435066  0.49974636  1
  Sm  Sm35  1  0.50282467  0.00564934  0.99974636  1
  Sm  Sm36  1  0.92033805  0.84067610  0.75358666  1
  Sm  Sm37  1  0.07966195  0.15932390  0.25358666  1
