# generated using pymatgen
data_Mg30VZnO32
_symmetry_space_group_name_H-M   'P 1'
_cell_length_a   8.53067328
_cell_length_b   8.53047992
_cell_length_c   8.53047992
_cell_angle_alpha   90.00000000
_cell_angle_beta   90.00000000
_cell_angle_gamma   90.00000000
_symmetry_Int_Tables_number   1
_chemical_formula_structural   Mg30VZnO32
_chemical_formula_sum   'Mg30 V1 Zn1 O32'
_cell_volume   620.76931176
_cell_formula_units_Z   1
loop_
 _symmetry_equiv_pos_site_id
 _symmetry_equiv_pos_as_xyz
  1  'x, y, z'
loop_
 _atom_site_type_symbol
 _atom_site_label
 _atom_site_symmetry_multiplicity
 _atom_site_fract_x
 _atom_site_fract_y
 _atom_site_fract_z
 _atom_site_occupancy
  Mg  Mg0  1  0.00000000  -0.00000000  0.50000000  1
  Mg  Mg1  1  0.00000000  0.50000000  -0.00000000  1
  Mg  Mg2  1  0.50000000  -0.00000000  -0.00000000  1
  Mg  Mg3  1  0.50000000  -0.00000000  0.50000000  1
  Mg  Mg4  1  0.50000000  0.50000000  -0.00000000  1
  Mg  Mg5  1  0.50000000  0.50000000  0.50000000  1
  Mg  Mg6  1  0.00000000  0.24943337  0.24943337  1
  Mg  Mg7  1  0.00000000  0.24943337  0.75056663  1
  Mg  Mg8  1  0.00000000  0.75056663  0.24943337  1
  Mg  Mg9  1  0.00000000  0.75056663  0.75056663  1
  Mg  Mg10  1  0.50000000  0.25000924  0.25000924  1
  Mg  Mg11  1  0.50000000  0.25000924  0.74999076  1
  Mg  Mg12  1  0.50000000  0.74999076  0.25000924  1
  Mg  Mg13  1  0.50000000  0.74999076  0.74999076  1
  Mg  Mg14  1  0.24991853  -0.00000000  0.25002689  1
  Mg  Mg15  1  0.24991853  -0.00000000  0.74997311  1
  Mg  Mg16  1  0.25048977  0.50000000  0.24941472  1
  Mg  Mg17  1  0.25048977  0.50000000  0.75058528  1
  Mg  Mg18  1  0.75008147  -0.00000000  0.25002689  1
  Mg  Mg19  1  0.75008147  -0.00000000  0.74997311  1
  Mg  Mg20  1  0.74951023  0.50000000  0.24941472  1
  Mg  Mg21  1  0.74951023  0.50000000  0.75058528  1
  Mg  Mg22  1  0.24991853  0.25002689  -0.00000000  1
  Mg  Mg23  1  0.25048977  0.24941472  0.50000000  1
  Mg  Mg24  1  0.24991853  0.74997311  -0.00000000  1
  Mg  Mg25  1  0.25048977  0.75058528  0.50000000  1
  Mg  Mg26  1  0.75008147  0.25002689  -0.00000000  1
  Mg  Mg27  1  0.74951023  0.24941472  0.50000000  1
  Mg  Mg28  1  0.75008147  0.74997311  -0.00000000  1
  Mg  Mg29  1  0.74951023  0.75058528  0.50000000  1
  V  V30  1  0.00000000  0.50000000  0.50000000  1
  Zn  Zn31  1  0.00000000  -0.00000000  -0.00000000  1
  O  O32  1  0.25346792  -0.00000000  -0.00000000  1
  O  O33  1  0.25058558  -0.00000000  0.50000000  1
  O  O34  1  0.25058558  0.50000000  -0.00000000  1
  O  O35  1  0.25493400  0.50000000  0.50000000  1
  O  O36  1  0.74653208  -0.00000000  -0.00000000  1
  O  O37  1  0.74941442  -0.00000000  0.50000000  1
  O  O38  1  0.74941442  0.50000000  -0.00000000  1
  O  O39  1  0.74506600  0.50000000  0.50000000  1
  O  O40  1  0.24961058  0.25002966  0.25002966  1
  O  O41  1  0.24961058  0.25002966  0.74997034  1
  O  O42  1  0.24961058  0.74997034  0.25002966  1
  O  O43  1  0.24961058  0.74997034  0.74997034  1
  O  O44  1  0.75038942  0.25002966  0.25002966  1
  O  O45  1  0.75038942  0.25002966  0.74997034  1
  O  O46  1  0.75038942  0.74997034  0.25002966  1
  O  O47  1  0.75038942  0.74997034  0.74997034  1
  O  O48  1  0.00000000  -0.00000000  0.25291143  1
  O  O49  1  0.00000000  -0.00000000  0.74708857  1
  O  O50  1  0.00000000  0.50000000  0.24526051  1
  O  O51  1  0.00000000  0.50000000  0.75473949  1
  O  O52  1  0.50000000  -0.00000000  0.25009470  1
  O  O53  1  0.50000000  -0.00000000  0.74990530  1
  O  O54  1  0.50000000  0.50000000  0.24962897  1
  O  O55  1  0.50000000  0.50000000  0.75037103  1
  O  O56  1  0.00000000  0.25291143  -0.00000000  1
  O  O57  1  0.00000000  0.24526051  0.50000000  1
  O  O58  1  0.00000000  0.74708857  -0.00000000  1
  O  O59  1  0.00000000  0.75473949  0.50000000  1
  O  O60  1  0.50000000  0.25009470  -0.00000000  1
  O  O61  1  0.50000000  0.24962897  0.50000000  1
  O  O62  1  0.50000000  0.74990530  -0.00000000  1
  O  O63  1  0.50000000  0.75037103  0.50000000  1
