# generated using pymatgen
data_MgMn2O4
_symmetry_space_group_name_H-M   'P 1'
_cell_length_a   6.22085847
_cell_length_b   6.22091839
_cell_length_c   17.60027554
_cell_angle_alpha   61.65821941
_cell_angle_beta   61.65979462
_cell_angle_gamma   56.25527837
_symmetry_Int_Tables_number   1
_chemical_formula_structural   MgMn2O4
_chemical_formula_sum   'Mg6 Mn12 O24'
_cell_volume   477.31054663
_cell_formula_units_Z   6
loop_
 _symmetry_equiv_pos_site_id
 _symmetry_equiv_pos_as_xyz
  1  'x, y, z'
loop_
 _atom_site_type_symbol
 _atom_site_label
 _atom_site_symmetry_multiplicity
 _atom_site_fract_x
 _atom_site_fract_y
 _atom_site_fract_z
 _atom_site_occupancy
  Mg  Mg0  1  0.12218225  0.12206721  0.04618297  1
  Mg  Mg1  1  0.12518269  0.12522609  0.37534242  1
  Mg  Mg2  1  0.49885860  0.49885002  0.00181224  1
  Mg  Mg3  1  0.12077862  0.12070162  0.70969955  1
  Mg  Mg4  1  0.87886922  0.87888068  0.28949601  1
  Mg  Mg5  1  0.87553053  0.87554920  0.62426127  1
  Mn  Mn6  1  0.00660844  0.50556053  0.16556213  1
  Mn  Mn7  1  0.50160730  0.50151062  0.16669107  1
  Mn  Mn8  1  0.00044088  0.50053669  0.49977382  1
  Mn  Mn9  1  0.50560133  0.00659600  0.16556219  1
  Mn  Mn10  1  0.50255325  0.50259190  0.33264324  1
  Mn  Mn11  1  0.50042266  0.50045769  0.49956887  1
  Mn  Mn12  1  0.99470145  0.49294958  0.83463233  1
  Mn  Mn13  1  0.50051279  0.00047371  0.49977284  1
  Mn  Mn14  1  0.49286771  0.99472922  0.83464553  1
  Mn  Mn15  1  0.49752246  0.49749894  0.66658420  1
  Mn  Mn16  1  0.49902528  0.49905897  0.83221801  1
  Mn  Mn17  1  0.87801711  0.87814293  0.95506221  1
  O  O18  1  0.26160382  0.26157967  0.08831648  1
  O  O19  1  0.25563358  0.25549084  0.24126442  1
  O  O20  1  0.26223680  0.72359644  0.09092359  1
  O  O21  1  0.72373363  0.26238649  0.09086154  1
  O  O22  1  0.28210214  0.73203881  0.24901507  1
  O  O23  1  0.25330947  0.25330378  0.42418283  1
  O  O24  1  0.73232270  0.28215125  0.24896483  1
  O  O25  1  0.74519143  0.74532122  0.09354094  1
  O  O26  1  0.27242084  0.72211788  0.41807176  1
  O  O27  1  0.25105959  0.25104672  0.57466438  1
  O  O28  1  0.74676060  0.74667026  0.24320255  1
  O  O29  1  0.72207851  0.27255393  0.41804832  1
  O  O30  1  0.27812529  0.72745899  0.58190904  1
  O  O31  1  0.25204107  0.25214153  0.75691741  1
  O  O32  1  0.72757065  0.27813455  0.58187407  1
  O  O33  1  0.74912894  0.74916302  0.42525161  1
  O  O34  1  0.25057124  0.25044729  0.90818209  1
  O  O35  1  0.26441021  0.71630900  0.75154389  1
  O  O36  1  0.74633637  0.74641137  0.57619987  1
  O  O37  1  0.71648522  0.26485579  0.75143918  1
  O  O38  1  0.28266945  0.73880761  0.90822700  1
  O  O39  1  0.74600609  0.74620428  0.75886536  1
  O  O40  1  0.73927857  0.28279399  0.90811517  1
  O  O41  1  0.73764122  0.73763368  0.91091068  1
