# generated using pymatgen
data_CaMg30NiO32
_symmetry_space_group_name_H-M   'P 1'
_cell_length_a   8.55776305
_cell_length_b   8.55692201
_cell_length_c   8.55692201
_cell_angle_alpha   90.00000000
_cell_angle_beta   90.00000000
_cell_angle_gamma   90.00000000
_symmetry_Int_Tables_number   1
_chemical_formula_structural   CaMg30NiO32
_chemical_formula_sum   'Ca1 Mg30 Ni1 O32'
_cell_volume   626.60723476
_cell_formula_units_Z   1
loop_
 _symmetry_equiv_pos_site_id
 _symmetry_equiv_pos_as_xyz
  1  'x, y, z'
loop_
 _atom_site_type_symbol
 _atom_site_label
 _atom_site_symmetry_multiplicity
 _atom_site_fract_x
 _atom_site_fract_y
 _atom_site_fract_z
 _atom_site_occupancy
  Ca  Ca0  1  0.00000000  0.00000000  0.00000000  1
  Mg  Mg1  1  0.00000000  0.00000000  0.50000000  1
  Mg  Mg2  1  0.00000000  0.50000000  0.00000000  1
  Mg  Mg3  1  0.50000000  0.00000000  0.00000000  1
  Mg  Mg4  1  0.50000000  0.00000000  0.50000000  1
  Mg  Mg5  1  0.50000000  0.50000000  0.00000000  1
  Mg  Mg6  1  0.50000000  0.50000000  0.50000000  1
  Mg  Mg7  1  0.00000000  0.25352151  0.25352151  1
  Mg  Mg8  1  0.00000000  0.25352151  0.74647849  1
  Mg  Mg9  1  0.00000000  0.74647849  0.25352151  1
  Mg  Mg10  1  0.00000000  0.74647849  0.74647849  1
  Mg  Mg11  1  0.50000000  0.25032008  0.25032008  1
  Mg  Mg12  1  0.50000000  0.25032008  0.74967992  1
  Mg  Mg13  1  0.50000000  0.74967992  0.25032008  1
  Mg  Mg14  1  0.50000000  0.74967992  0.74967992  1
  Mg  Mg15  1  0.25276011  0.00000000  0.25306579  1
  Mg  Mg16  1  0.25276011  0.00000000  0.74693421  1
  Mg  Mg17  1  0.24959391  0.50000000  0.25075140  1
  Mg  Mg18  1  0.24959391  0.50000000  0.74924860  1
  Mg  Mg19  1  0.74723989  0.00000000  0.25306579  1
  Mg  Mg20  1  0.74723989  0.00000000  0.74693421  1
  Mg  Mg21  1  0.75040609  0.50000000  0.25075140  1
  Mg  Mg22  1  0.75040609  0.50000000  0.74924860  1
  Mg  Mg23  1  0.25276011  0.25306579  0.00000000  1
  Mg  Mg24  1  0.24959391  0.25075140  0.50000000  1
  Mg  Mg25  1  0.25276011  0.74693421  0.00000000  1
  Mg  Mg26  1  0.24959391  0.74924860  0.50000000  1
  Mg  Mg27  1  0.74723989  0.25306579  0.00000000  1
  Mg  Mg28  1  0.75040609  0.25075140  0.50000000  1
  Mg  Mg29  1  0.74723989  0.74693421  0.00000000  1
  Mg  Mg30  1  0.75040609  0.74924860  0.50000000  1
  Ni  Ni31  1  0.00000000  0.50000000  0.50000000  1
  O  O32  1  0.26230492  0.00000000  0.00000000  1
  O  O33  1  0.25181653  0.00000000  0.50000000  1
  O  O34  1  0.25181653  0.50000000  0.00000000  1
  O  O35  1  0.25123234  0.50000000  0.50000000  1
  O  O36  1  0.73769508  0.00000000  0.00000000  1
  O  O37  1  0.74818347  0.00000000  0.50000000  1
  O  O38  1  0.74818347  0.50000000  0.00000000  1
  O  O39  1  0.74876766  0.50000000  0.50000000  1
  O  O40  1  0.24951144  0.25004690  0.25004690  1
  O  O41  1  0.24951144  0.25004690  0.74995310  1
  O  O42  1  0.24951144  0.74995310  0.25004690  1
  O  O43  1  0.24951144  0.74995310  0.74995310  1
  O  O44  1  0.75048856  0.25004690  0.25004690  1
  O  O45  1  0.75048856  0.25004690  0.74995310  1
  O  O46  1  0.75048856  0.74995310  0.25004690  1
  O  O47  1  0.75048856  0.74995310  0.74995310  1
  O  O48  1  0.00000000  0.00000000  0.26247010  1
  O  O49  1  0.00000000  0.00000000  0.73752990  1
  O  O50  1  0.00000000  0.50000000  0.25111120  1
  O  O51  1  0.00000000  0.50000000  0.74888880  1
  O  O52  1  0.50000000  0.00000000  0.25205936  1
  O  O53  1  0.50000000  0.00000000  0.74794064  1
  O  O54  1  0.50000000  0.50000000  0.25065212  1
  O  O55  1  0.50000000  0.50000000  0.74934788  1
  O  O56  1  0.00000000  0.26247010  0.00000000  1
  O  O57  1  0.00000000  0.25111120  0.50000000  1
  O  O58  1  0.00000000  0.73752990  0.00000000  1
  O  O59  1  0.00000000  0.74888880  0.50000000  1
  O  O60  1  0.50000000  0.25205936  0.00000000  1
  O  O61  1  0.50000000  0.25065212  0.50000000  1
  O  O62  1  0.50000000  0.74794064  0.00000000  1
  O  O63  1  0.50000000  0.74934788  0.50000000  1
