# generated using pymatgen
data_MgTiCo(PO4)3
_symmetry_space_group_name_H-M   'P 1'
_cell_length_a   8.48200100
_cell_length_b   8.48200151
_cell_length_c   8.48200132
_cell_angle_alpha   61.18715028
_cell_angle_beta   61.18715041
_cell_angle_gamma   61.18715344
_symmetry_Int_Tables_number   1
_chemical_formula_structural   MgTiCo(PO4)3
_chemical_formula_sum   'Mg2 Ti2 Co2 P6 O24'
_cell_volume   443.02298229
_cell_formula_units_Z   2
loop_
 _symmetry_equiv_pos_site_id
 _symmetry_equiv_pos_as_xyz
  1  'x, y, z'
loop_
 _atom_site_type_symbol
 _atom_site_label
 _atom_site_symmetry_multiplicity
 _atom_site_fract_x
 _atom_site_fract_y
 _atom_site_fract_z
 _atom_site_occupancy
  Mg  Mg0  1  0.99631553  0.99631553  0.99631553  1
  Mg  Mg1  1  0.49631553  0.49631553  0.49631553  1
  Ti  Ti2  1  0.14409647  0.14409647  0.14409647  1
  Ti  Ti3  1  0.64409647  0.64409647  0.64409647  1
  Co  Co4  1  0.35407689  0.35407689  0.35407689  1
  Co  Co5  1  0.85407689  0.85407689  0.85407689  1
  P  P6  1  0.04628572  0.45647782  0.75013516  1
  P  P7  1  0.45647782  0.75013516  0.04628572  1
  P  P8  1  0.75013516  0.04628572  0.45647782  1
  P  P9  1  0.25013516  0.95647782  0.54628572  1
  P  P10  1  0.54628572  0.25013516  0.95647782  1
  P  P11  1  0.95647782  0.54628572  0.25013516  1
  O  O12  1  0.11232503  0.50414586  0.32006628  1
  O  O13  1  0.32006628  0.11232503  0.50414586  1
  O  O14  1  0.05423230  0.25886675  0.91104143  1
  O  O15  1  0.50414586  0.32006628  0.11232503  1
  O  O16  1  0.00414586  0.61232503  0.82006628  1
  O  O17  1  0.24022724  0.44271649  0.58962410  1
  O  O18  1  0.25886675  0.91104143  0.05423230  1
  O  O19  1  0.44271649  0.58962410  0.24022724  1
  O  O20  1  0.18418967  0.00463806  0.38053519  1
  O  O21  1  0.58962410  0.24022724  0.44271649  1
  O  O22  1  0.08962410  0.94271649  0.74022724  1
  O  O23  1  0.38053519  0.18418967  0.00463806  1
  O  O24  1  0.61232503  0.82006628  0.00414586  1
  O  O25  1  0.91104143  0.05423230  0.25886675  1
  O  O26  1  0.41104143  0.75886675  0.55423230  1
  O  O27  1  0.82006628  0.00414586  0.61232503  1
  O  O28  1  0.55423230  0.41104143  0.75886675  1
  O  O29  1  0.74022724  0.08962410  0.94271649  1
  O  O30  1  0.75886675  0.55423230  0.41104143  1
  O  O31  1  0.00463806  0.38053519  0.18418967  1
  O  O32  1  0.50463806  0.68418967  0.88053519  1
  O  O33  1  0.94271649  0.74022724  0.08962410  1
  O  O34  1  0.68418967  0.88053519  0.50463806  1
  O  O35  1  0.88053519  0.50463806  0.68418967  1
