# generated using pymatgen
data_SrCaMn(PO4)2
_symmetry_space_group_name_H-M   'P 1'
_cell_length_a   5.75864450
_cell_length_b   6.96803539
_cell_length_c   9.69410197
_cell_angle_alpha   109.50956124
_cell_angle_beta   101.38552358
_cell_angle_gamma   98.63741821
_symmetry_Int_Tables_number   1
_chemical_formula_structural   SrCaMn(PO4)2
_chemical_formula_sum   'Sr2 Ca2 Mn2 P4 O16'
_cell_volume   349.47238073
_cell_formula_units_Z   2
loop_
 _symmetry_equiv_pos_site_id
 _symmetry_equiv_pos_as_xyz
  1  'x, y, z'
loop_
 _atom_site_type_symbol
 _atom_site_label
 _atom_site_symmetry_multiplicity
 _atom_site_fract_x
 _atom_site_fract_y
 _atom_site_fract_z
 _atom_site_occupancy
  Sr  Sr0  1  0.26247517  0.80735855  0.05555398  1
  Sr  Sr1  1  0.73752483  0.19264145  0.94444602  1
  Ca  Ca2  1  0.00263115  0.42008867  0.66232079  1
  Ca  Ca3  1  0.99736885  0.57991133  0.33767921  1
  Mn  Mn4  1  0.63669379  0.84172066  0.56195006  1
  Mn  Mn5  1  0.36330621  0.15827934  0.43804994  1
  P  P6  1  0.38761398  0.41306386  0.21829869  1
  P  P7  1  0.61238602  0.58693614  0.78170131  1
  P  P8  1  0.83699588  0.03323840  0.29833324  1
  P  P9  1  0.16300412  0.96676160  0.70166676  1
  O  O10  1  0.84055375  0.55300568  0.88018941  1
  O  O11  1  0.61903210  0.45134597  0.16463112  1
  O  O12  1  0.66642267  0.80825454  0.77640148  1
  O  O13  1  0.96673828  0.10010685  0.69132104  1
  O  O14  1  0.38096790  0.54865403  0.83536888  1
  O  O15  1  0.02312735  0.73392171  0.59704162  1
  O  O16  1  0.97687265  0.26607829  0.40295838  1
  O  O17  1  0.26819628  0.99623743  0.86672155  1
  O  O18  1  0.33357833  0.19174546  0.22359852  1
  O  O19  1  0.73180372  0.00376257  0.13327845  1
  O  O20  1  0.15944625  0.44699432  0.11981059  1
  O  O21  1  0.41972819  0.57599251  0.38250312  1
  O  O22  1  0.58027181  0.42400749  0.61749688  1
  O  O23  1  0.62995523  0.96717136  0.36908795  1
  O  O24  1  0.03326172  0.89989315  0.30867896  1
  O  O25  1  0.37004477  0.03282864  0.63091205  1
