# generated using pymatgen
data_Ba2CaCuAg2F14
_symmetry_space_group_name_H-M   'P 1'
_cell_length_a   5.57919379
_cell_length_b   7.62838465
_cell_length_c   15.37207221
_cell_angle_alpha   91.14326229
_cell_angle_beta   90.09005377
_cell_angle_gamma   111.41122001
_symmetry_Int_Tables_number   1
_chemical_formula_structural   Ba2CaCuAg2F14
_chemical_formula_sum   'Ba4 Ca2 Cu2 Ag4 F28'
_cell_volume   608.93748082
_cell_formula_units_Z   2
loop_
 _symmetry_equiv_pos_site_id
 _symmetry_equiv_pos_as_xyz
  1  'x, y, z'
loop_
 _atom_site_type_symbol
 _atom_site_label
 _atom_site_symmetry_multiplicity
 _atom_site_fract_x
 _atom_site_fract_y
 _atom_site_fract_z
 _atom_site_occupancy
  Ba  Ba0  1  0.11548445  0.38254750  0.62497786  1
  Ba  Ba1  1  0.26525884  0.38163129  0.12420122  1
  Ba  Ba2  1  0.88763256  0.61824771  0.37484178  1
  Ba  Ba3  1  0.73121891  0.62047141  0.87434471  1
  Ca  Ca4  1  0.41765315  0.00287501  0.75074578  1
  Ca  Ca5  1  0.58497944  0.00300875  0.25060736  1
  Cu  Cu6  1  0.49551888  0.99538981  0.00030431  1
  Cu  Cu7  1  0.50068577  0.99786266  0.50029840  1
  Ag  Ag8  1  0.09157845  0.24241683  0.87561181  1
  Ag  Ag9  1  0.90891659  0.76159089  0.12466198  1
  Ag  Ag10  1  0.14819521  0.24038504  0.37529947  1
  Ag  Ag11  1  0.85438354  0.76046070  0.62533709  1
  F  F12  1  0.89882000  0.96391149  0.34112488  1
  F  F13  1  0.86816452  0.27941946  0.46074447  1
  F  F14  1  0.13456636  0.72186177  0.53968277  1
  F  F15  1  0.64001226  0.47763322  0.59501515  1
  F  F16  1  0.61296167  0.09098817  0.61306694  1
  F  F17  1  0.51951929  0.90692162  0.88663338  1
  F  F18  1  0.41121328  0.28066308  0.96134422  1
  F  F19  1  0.93392214  0.03723658  0.15907035  1
  F  F20  1  0.37435837  0.33099499  0.77122362  1
  F  F21  1  0.36479199  0.52219835  0.40630592  1
  F  F22  1  0.81015687  0.24854072  0.78131158  1
  F  F23  1  0.15445240  0.52287768  0.90806080  1
  F  F24  1  0.43470821  0.24653077  0.28142883  1
  F  F25  1  0.19001958  0.75777728  0.22003766  1
  F  F26  1  0.47456875  0.09000030  0.11328169  1
  F  F27  1  0.62638830  0.67292901  0.22661927  1
  F  F28  1  0.14118486  0.83807145  0.00802008  1
  F  F29  1  0.10198083  0.03741826  0.65936533  1
  F  F30  1  0.84482779  0.15522107  0.98880478  1
  F  F31  1  0.69289236  0.83945059  0.51070290  1
  F  F32  1  0.58747847  0.72877711  0.04002228  1
  F  F33  1  0.56910198  0.75743898  0.71900277  1
  F  F34  1  0.95207774  0.32891709  0.27136702  1
  F  F35  1  0.30898199  0.15555981  0.48892149  1
  F  F36  1  0.38992341  0.90643713  0.38734247  1
  F  F37  1  0.06771455  0.96726990  0.84157347  1
  F  F38  1  0.05147235  0.67486498  0.72847703  1
  F  F39  1  0.83915886  0.47888556  0.09423308  1
