# generated using pymatgen
data_MoAs2O7
_symmetry_space_group_name_H-M   'P 1'
_cell_length_a   7.66357576
_cell_length_b   9.44696710
_cell_length_c   10.02940649
_cell_angle_alpha   90.00000000
_cell_angle_beta   97.15563008
_cell_angle_gamma   90.00000000
_symmetry_Int_Tables_number   1
_chemical_formula_structural   MoAs2O7
_chemical_formula_sum   'Mo4 As8 O28'
_cell_volume   720.44914674
_cell_formula_units_Z   4
loop_
 _symmetry_equiv_pos_site_id
 _symmetry_equiv_pos_as_xyz
  1  'x, y, z'
loop_
 _atom_site_type_symbol
 _atom_site_label
 _atom_site_symmetry_multiplicity
 _atom_site_fract_x
 _atom_site_fract_y
 _atom_site_fract_z
 _atom_site_occupancy
  Mo  Mo0  1  0.79817851  0.04754778  0.69451969  1
  Mo  Mo1  1  0.20182149  0.54754778  0.80548031  1
  Mo  Mo2  1  0.20182149  0.95245222  0.30548031  1
  Mo  Mo3  1  0.79817851  0.45245222  0.19451969  1
  As  As4  1  0.41910348  0.23024972  0.76851802  1
  As  As5  1  0.58089652  0.73024972  0.73148198  1
  As  As6  1  0.58089652  0.76975028  0.23148298  1
  As  As7  1  0.41910348  0.26975028  0.26851802  1
  As  As8  1  0.16029352  0.23229521  0.99349440  1
  As  As9  1  0.83970648  0.73229521  0.50650560  1
  As  As10  1  0.83970648  0.76770479  0.00650560  1
  As  As11  1  0.16029352  0.26770479  0.49349440  1
  O  O12  1  0.83052277  0.34287919  0.06183524  1
  O  O13  1  0.16947723  0.84287919  0.43816476  1
  O  O14  1  0.16947723  0.65712081  0.93816476  1
  O  O15  1  0.83052277  0.15712081  0.56183524  1
  O  O16  1  0.40611344  0.41150953  0.75997257  1
  O  O17  1  0.59388656  0.91150953  0.74002743  1
  O  O18  1  0.59388656  0.58849047  0.24002743  1
  O  O19  1  0.40611344  0.08849047  0.25997257  1
  O  O20  1  0.35806758  0.16412114  0.91816759  1
  O  O21  1  0.64193242  0.66412114  0.58183241  1
  O  O22  1  0.64193242  0.83587886  0.08183241  1
  O  O23  1  0.35806758  0.33587886  0.41816759  1
  O  O24  1  0.29575526  0.15403061  0.62898988  1
  O  O25  1  0.70424474  0.65403061  0.87101012  1
  O  O26  1  0.70424474  0.84596939  0.37101012  1
  O  O27  1  0.29575526  0.34596939  0.12898988  1
  O  O28  1  0.11505390  0.12540764  0.38101785  1
  O  O29  1  0.88494610  0.62540764  0.11898215  1
  O  O30  1  0.88494610  0.87459236  0.61898215  1
  O  O31  1  0.11505390  0.37459236  0.88101785  1
  O  O32  1  0.63399364  0.31643424  0.27018739  1
  O  O33  1  0.36600636  0.81643424  0.22981261  1
  O  O34  1  0.36600636  0.68356576  0.72981261  1
  O  O35  1  0.63399364  0.18356576  0.77018739  1
  O  O36  1  0.97231114  0.42868736  0.32057151  1
  O  O37  1  0.02768886  0.92868736  0.17942849  1
  O  O38  1  0.02768886  0.57131264  0.67942849  1
  O  O39  1  0.97231114  0.07131264  0.82057151  1
