# generated using pymatgen
data_BaMgFeF7
_symmetry_space_group_name_H-M   'P 1'
_cell_length_a   5.64034768
_cell_length_b   9.70426491
_cell_length_c   9.99493956
_cell_angle_alpha   90.00000000
_cell_angle_beta   90.00000000
_cell_angle_gamma   93.07558611
_symmetry_Int_Tables_number   1
_chemical_formula_structural   BaMgFeF7
_chemical_formula_sum   'Ba4 Mg4 Fe4 F28'
_cell_volume   546.28929819
_cell_formula_units_Z   4
loop_
 _symmetry_equiv_pos_site_id
 _symmetry_equiv_pos_as_xyz
  1  'x, y, z'
loop_
 _atom_site_type_symbol
 _atom_site_label
 _atom_site_symmetry_multiplicity
 _atom_site_fract_x
 _atom_site_fract_y
 _atom_site_fract_z
 _atom_site_occupancy
  Ba  Ba0  1  0.26352258  0.49899876  0.32186278  1
  Ba  Ba1  1  0.73647742  0.00100124  0.82186278  1
  Ba  Ba2  1  0.73647742  0.50100124  0.67813722  1
  Ba  Ba3  1  0.26352258  0.99899876  0.17813722  1
  Mg  Mg4  1  0.69771408  0.81000899  0.39484363  1
  Mg  Mg5  1  0.30228592  0.68999101  0.89484363  1
  Mg  Mg6  1  0.69771408  0.31000899  0.10515637  1
  Mg  Mg7  1  0.30228592  0.18999101  0.60515637  1
  Fe  Fe8  1  0.19492540  0.81278639  0.60958364  1
  Fe  Fe9  1  0.80507460  0.18721361  0.39041636  1
  Fe  Fe10  1  0.19492540  0.31278639  0.89041636  1
  Fe  Fe11  1  0.80507460  0.68721361  0.10958364  1
  F  F12  1  0.11488872  0.12587843  0.44631275  1
  F  F13  1  0.37273123  0.36887526  0.04921195  1
  F  F14  1  0.47077932  0.75097213  0.71371470  1
  F  F15  1  0.52922068  0.24902787  0.28628530  1
  F  F16  1  0.88900374  0.36708153  0.45797745  1
  F  F17  1  0.25738731  0.49889523  0.81138424  1
  F  F18  1  0.02650513  0.75180240  0.77986412  1
  F  F19  1  0.11099626  0.13291847  0.95797745  1
  F  F20  1  0.37273123  0.86887526  0.45078805  1
  F  F21  1  0.52922068  0.74902787  0.21371470  1
  F  F22  1  0.11488872  0.62587843  0.05368725  1
  F  F23  1  0.88511128  0.87412157  0.55368725  1
  F  F24  1  0.97349487  0.74819760  0.27986412  1
  F  F25  1  0.38723573  0.87267209  0.95862645  1
  F  F26  1  0.11099626  0.63291847  0.54202255  1
  F  F27  1  0.88900374  0.86708153  0.04202255  1
  F  F28  1  0.97349487  0.24819760  0.22013588  1
  F  F29  1  0.88511128  0.37412157  0.94631275  1
  F  F30  1  0.61276427  0.62732791  0.45862645  1
  F  F31  1  0.62726877  0.63112474  0.95078805  1
  F  F32  1  0.61276427  0.12732791  0.04137355  1
  F  F33  1  0.02650513  0.25180240  0.72013588  1
  F  F34  1  0.38723573  0.37267209  0.54137355  1
  F  F35  1  0.74261269  0.00110477  0.31138424  1
  F  F36  1  0.74261269  0.50110477  0.18861576  1
  F  F37  1  0.25738731  0.99889523  0.68861576  1
  F  F38  1  0.62726877  0.13112474  0.54921195  1
  F  F39  1  0.47077932  0.25097213  0.78628530  1
