# generated using pymatgen
data_Ca(MoO2)2
_symmetry_space_group_name_H-M   'P 1'
_cell_length_a   3.24102048
_cell_length_b   9.59430488
_cell_length_c   11.40424991
_cell_angle_alpha   89.99984558
_cell_angle_beta   90.00004522
_cell_angle_gamma   89.99997455
_symmetry_Int_Tables_number   1
_chemical_formula_structural   Ca(MoO2)2
_chemical_formula_sum   'Ca4 Mo8 O16'
_cell_volume   354.61901252
_cell_formula_units_Z   4
loop_
 _symmetry_equiv_pos_site_id
 _symmetry_equiv_pos_as_xyz
  1  'x, y, z'
loop_
 _atom_site_type_symbol
 _atom_site_label
 _atom_site_symmetry_multiplicity
 _atom_site_fract_x
 _atom_site_fract_y
 _atom_site_fract_z
 _atom_site_occupancy
  Ca  Ca0  1  0.74999983  0.23916424  0.34374164  1
  Ca  Ca1  1  0.24999899  0.76084222  0.65624955  1
  Ca  Ca2  1  0.75000010  0.73916467  0.15625293  1
  Ca  Ca3  1  0.24999706  0.26084047  0.84374966  1
  Mo  Mo4  1  0.24999966  0.41148831  0.10147706  1
  Mo  Mo5  1  0.74999862  0.08851395  0.60146838  1
  Mo  Mo6  1  0.25000062  0.91149160  0.39852318  1
  Mo  Mo7  1  0.75000072  0.58850918  0.89853164  1
  Mo  Mo8  1  0.75000036  0.55887482  0.38341377  1
  Mo  Mo9  1  0.24999984  0.44112579  0.61659768  1
  Mo  Mo10  1  0.75000001  0.05887449  0.11658700  1
  Mo  Mo11  1  0.24999950  0.94112503  0.88339837  1
  O  O12  1  0.25000029  0.91326349  0.07485616  1
  O  O13  1  0.74999857  0.08673505  0.92513573  1
  O  O14  1  0.24999937  0.41326938  0.42514257  1
  O  O15  1  0.74999967  0.58673800  0.57486537  1
  O  O16  1  0.24999876  0.03324257  0.71349021  1
  O  O17  1  0.74999997  0.96675024  0.28649841  1
  O  O18  1  0.25000011  0.53323973  0.78651397  1
  O  O19  1  0.74999964  0.46674232  0.21350146  1
  O  O20  1  0.25000010  0.62180499  0.02905176  1
  O  O21  1  0.74999902  0.37819188  0.97096245  1
  O  O22  1  0.24999942  0.12181017  0.47095100  1
  O  O23  1  0.74999996  0.87819660  0.52903915  1
  O  O24  1  0.74999922  0.80067818  0.82528504  1
  O  O25  1  0.24999954  0.19931565  0.17471445  1
  O  O26  1  0.25000002  0.69931826  0.32528233  1
  O  O27  1  0.74999902  0.30068274  0.67471806  1
