# generated using pymatgen
data_SrMgFe(PO4)2
_symmetry_space_group_name_H-M   'P 1'
_cell_length_a   5.58894258
_cell_length_b   6.78895066
_cell_length_c   9.50498164
_cell_angle_alpha   110.21656738
_cell_angle_beta   101.64268438
_cell_angle_gamma   98.16531646
_symmetry_Int_Tables_number   1
_chemical_formula_structural   SrMgFe(PO4)2
_chemical_formula_sum   'Sr2 Mg2 Fe2 P4 O16'
_cell_volume   322.54781404
_cell_formula_units_Z   2
loop_
 _symmetry_equiv_pos_site_id
 _symmetry_equiv_pos_as_xyz
  1  'x, y, z'
loop_
 _atom_site_type_symbol
 _atom_site_label
 _atom_site_symmetry_multiplicity
 _atom_site_fract_x
 _atom_site_fract_y
 _atom_site_fract_z
 _atom_site_occupancy
  Sr  Sr0  1  0.25680018  0.79917904  0.05262774  1
  Sr  Sr1  1  0.74319982  0.20082096  0.94737226  1
  Mg  Mg2  1  0.99658681  0.40137435  0.64794446  1
  Mg  Mg3  1  0.00341319  0.59862565  0.35205554  1
  Fe  Fe4  1  0.63039488  0.84507101  0.55566999  1
  Fe  Fe5  1  0.36960512  0.15492899  0.44433001  1
  P  P6  1  0.38923349  0.42128975  0.23351274  1
  P  P7  1  0.61076651  0.57871025  0.76648726  1
  P  P8  1  0.84515466  0.02578007  0.30216740  1
  P  P9  1  0.15484534  0.97421993  0.69783260  1
  O  O10  1  0.82667085  0.55295575  0.88512312  1
  O  O11  1  0.65179960  0.47653327  0.20784401  1
  O  O12  1  0.66139433  0.80775593  0.76695763  1
  O  O13  1  0.95500027  0.11496351  0.68509029  1
  O  O14  1  0.34820040  0.52346673  0.79215599  1
  O  O15  1  0.01196735  0.73587233  0.58284017  1
  O  O16  1  0.98803265  0.26412767  0.41715983  1
  O  O17  1  0.24779439  0.99847676  0.86658853  1
  O  O18  1  0.33860567  0.19224407  0.23304237  1
  O  O19  1  0.75220561  0.00152324  0.13341147  1
  O  O20  1  0.17332915  0.44704425  0.11487688  1
  O  O21  1  0.37239081  0.58498834  0.39399765  1
  O  O22  1  0.62760919  0.41501166  0.60600235  1
  O  O23  1  0.62213656  0.95083990  0.36221656  1
  O  O24  1  0.04499973  0.88503649  0.31490971  1
  O  O25  1  0.37786344  0.04916010  0.63778344  1
