# generated using pymatgen
data_MgSi2NiO6
_symmetry_space_group_name_H-M   'P 1'
_cell_length_a   5.27268026
_cell_length_b   9.03377135
_cell_length_c   18.47413195
_cell_angle_alpha   90.00000000
_cell_angle_beta   90.00000000
_cell_angle_gamma   90.00000000
_symmetry_Int_Tables_number   1
_chemical_formula_structural   MgSi2NiO6
_chemical_formula_sum   'Mg8 Si16 Ni8 O48'
_cell_volume   879.96332379
_cell_formula_units_Z   8
loop_
 _symmetry_equiv_pos_site_id
 _symmetry_equiv_pos_as_xyz
  1  'x, y, z'
loop_
 _atom_site_type_symbol
 _atom_site_label
 _atom_site_symmetry_multiplicity
 _atom_site_fract_x
 _atom_site_fract_y
 _atom_site_fract_z
 _atom_site_occupancy
  Mg  Mg0  1  0.61875487  0.15032499  0.62385920  1
  Mg  Mg1  1  0.38124513  0.84967501  0.37614080  1
  Mg  Mg2  1  0.61875487  0.65032499  0.87614080  1
  Mg  Mg3  1  0.11875487  0.84967501  0.87614080  1
  Mg  Mg4  1  0.88124513  0.15032499  0.12385920  1
  Mg  Mg5  1  0.38124513  0.34967501  0.12385920  1
  Mg  Mg6  1  0.11875487  0.34967501  0.62385920  1
  Mg  Mg7  1  0.88124513  0.65032499  0.37614080  1
  Si  Si8  1  0.56481855  0.65896903  0.22743806  1
  Si  Si9  1  0.71868255  0.83724580  0.52574356  1
  Si  Si10  1  0.78131745  0.83724580  0.02574356  1
  Si  Si11  1  0.93518145  0.15896903  0.77256194  1
  Si  Si12  1  0.06481855  0.34103097  0.27256194  1
  Si  Si13  1  0.43518145  0.84103097  0.72743806  1
  Si  Si14  1  0.21868255  0.66275420  0.52574356  1
  Si  Si15  1  0.71868255  0.33724580  0.97425644  1
  Si  Si16  1  0.78131745  0.33724580  0.47425644  1
  Si  Si17  1  0.93518145  0.65896903  0.72743806  1
  Si  Si18  1  0.43518145  0.34103097  0.77256194  1
  Si  Si19  1  0.56481855  0.15896903  0.27256194  1
  Si  Si20  1  0.28131745  0.16275420  0.47425644  1
  Si  Si21  1  0.06481855  0.84103097  0.22743806  1
  Si  Si22  1  0.28131745  0.66275420  0.02574356  1
  Si  Si23  1  0.21868255  0.16275420  0.97425644  1
  Ni  Ni24  1  0.37561539  0.99790496  0.12453241  1
  Ni  Ni25  1  0.62438461  0.00209504  0.87546759  1
  Ni  Ni26  1  0.87561539  0.00209504  0.37546759  1
  Ni  Ni27  1  0.12438461  0.99790496  0.62453241  1
  Ni  Ni28  1  0.37561539  0.49790496  0.37546759  1
  Ni  Ni29  1  0.62438461  0.50209504  0.62453241  1
  Ni  Ni30  1  0.87561539  0.50209504  0.12453241  1
  Ni  Ni31  1  0.12438461  0.49790496  0.87546759  1
  O  O32  1  0.93211573  0.49984713  0.68762171  1
  O  O33  1  0.30599259  0.01416477  0.93271740  1
  O  O34  1  0.06788427  0.50015287  0.31237829  1
  O  O35  1  0.71389929  0.33949949  0.06358214  1
  O  O36  1  0.21389929  0.16050051  0.06358214  1
  O  O37  1  0.92213456  0.20470478  0.94940028  1
  O  O38  1  0.94614045  0.66028877  0.81623739  1
  O  O39  1  0.05385955  0.83971123  0.31623739  1
  O  O40  1  0.71389929  0.83949949  0.43641786  1
  O  O41  1  0.94614045  0.16028877  0.68376261  1
  O  O42  1  0.43211573  0.50015287  0.81237829  1
  O  O43  1  0.78610071  0.33949949  0.56358214  1
  O  O44  1  0.69400741  0.98583523  0.06728260  1
  O  O45  1  0.44614045  0.83971123  0.81623739  1
  O  O46  1  0.56788427  0.99984713  0.31237829  1
  O  O47  1  0.30599259  0.51416477  0.56728260  1
  O  O48  1  0.43211573  0.00015287  0.68762171  1
  O  O49  1  0.16355601  0.76872874  0.69800215  1
  O  O50  1  0.33644399  0.76872874  0.19800215  1
  O  O51  1  0.57786544  0.70470478  0.05059972  1
  O  O52  1  0.78610071  0.83949949  0.93641786  1
  O  O53  1  0.55385955  0.66028877  0.31623739  1
  O  O54  1  0.80599259  0.48583523  0.93271740  1
  O  O55  1  0.16355601  0.26872874  0.80199785  1
  O  O56  1  0.28610071  0.16050051  0.56358214  1
  O  O57  1  0.55385955  0.16028877  0.18376261  1
  O  O58  1  0.69400741  0.48583523  0.43271740  1
  O  O59  1  0.21389929  0.66050051  0.43641786  1
  O  O60  1  0.19400741  0.51416477  0.06728260  1
  O  O61  1  0.66355601  0.73127126  0.69800215  1
  O  O62  1  0.06788427  0.00015287  0.18762171  1
  O  O63  1  0.83644399  0.73127126  0.19800215  1
  O  O64  1  0.83644399  0.23127126  0.30199785  1
  O  O65  1  0.80599259  0.98583523  0.56728260  1
  O  O66  1  0.28610071  0.66050051  0.93641786  1
  O  O67  1  0.19400741  0.01416477  0.43271740  1
  O  O68  1  0.33644399  0.26872874  0.30199785  1
  O  O69  1  0.07786544  0.79529522  0.05059972  1
  O  O70  1  0.42213456  0.79529522  0.55059972  1
  O  O71  1  0.66355601  0.23127126  0.80199785  1
  O  O72  1  0.42213456  0.29529522  0.94940028  1
  O  O73  1  0.57786544  0.20470478  0.44940028  1
  O  O74  1  0.07786544  0.29529522  0.44940028  1
  O  O75  1  0.44614045  0.33971123  0.68376261  1
  O  O76  1  0.56788427  0.49984713  0.18762171  1
  O  O77  1  0.92213456  0.70470478  0.55059972  1
  O  O78  1  0.05385955  0.33971123  0.18376261  1
  O  O79  1  0.93211573  0.99984713  0.81237829  1
