# generated using pymatgen
data_TiV(PO4)3
_symmetry_space_group_name_H-M   'P 1'
_cell_length_a   8.74400257
_cell_length_b   8.74400213
_cell_length_c   8.74400279
_cell_angle_alpha   58.83951941
_cell_angle_beta   58.83952264
_cell_angle_gamma   58.83952080
_symmetry_Int_Tables_number   1
_chemical_formula_structural   TiV(PO4)3
_chemical_formula_sum   'Ti2 V2 P6 O24'
_cell_volume   460.20748898
_cell_formula_units_Z   2
loop_
 _symmetry_equiv_pos_site_id
 _symmetry_equiv_pos_as_xyz
  1  'x, y, z'
loop_
 _atom_site_type_symbol
 _atom_site_label
 _atom_site_symmetry_multiplicity
 _atom_site_fract_x
 _atom_site_fract_y
 _atom_site_fract_z
 _atom_site_occupancy
  Ti  Ti0  1  0.13834997  0.13834997  0.13834997  1
  Ti  Ti1  1  0.63834997  0.63834997  0.63834997  1
  V  V2  1  0.36113309  0.36113309  0.36113309  1
  V  V3  1  0.86113309  0.86113309  0.86113309  1
  P  P4  1  0.03328889  0.47157909  0.74536693  1
  P  P5  1  0.47157909  0.74536693  0.03328889  1
  P  P6  1  0.74536693  0.03328889  0.47157909  1
  P  P7  1  0.24536693  0.97157909  0.53328889  1
  P  P8  1  0.53328889  0.24536693  0.97157909  1
  P  P9  1  0.97157909  0.53328889  0.24536693  1
  O  O10  1  0.14489030  0.50440644  0.27668709  1
  O  O11  1  0.27668709  0.14489030  0.50440644  1
  O  O12  1  0.06650468  0.28894501  0.91431380  1
  O  O13  1  0.50440644  0.27668709  0.14489030  1
  O  O14  1  0.00440644  0.64489030  0.77668709  1
  O  O15  1  0.21741871  0.44497651  0.56783435  1
  O  O16  1  0.28894501  0.91431380  0.06650468  1
  O  O17  1  0.44497651  0.56783435  0.21741871  1
  O  O18  1  0.20616049  0.00260021  0.36728743  1
  O  O19  1  0.56783435  0.21741871  0.44497651  1
  O  O20  1  0.06783435  0.94497651  0.71741871  1
  O  O21  1  0.36728743  0.20616049  0.00260021  1
  O  O22  1  0.64489030  0.77668709  0.00440644  1
  O  O23  1  0.91431380  0.06650468  0.28894501  1
  O  O24  1  0.41431380  0.78894501  0.56650468  1
  O  O25  1  0.77668709  0.00440644  0.64489030  1
  O  O26  1  0.56650468  0.41431380  0.78894501  1
  O  O27  1  0.71741871  0.06783435  0.94497651  1
  O  O28  1  0.78894501  0.56650468  0.41431380  1
  O  O29  1  0.00260021  0.36728744  0.20616049  1
  O  O30  1  0.50260021  0.70616049  0.86728743  1
  O  O31  1  0.94497651  0.71741871  0.06783435  1
  O  O32  1  0.70616049  0.86728744  0.50260021  1
  O  O33  1  0.86728743  0.50260021  0.70616049  1
