# generated using pymatgen
data_Sr7CaTi7MnO24
_symmetry_space_group_name_H-M   'P 1'
_cell_length_a   7.84161962
_cell_length_b   7.84161962
_cell_length_c   7.84161962
_cell_angle_alpha   90.00938823
_cell_angle_beta   89.99061177
_cell_angle_gamma   90.00938823
_symmetry_Int_Tables_number   1
_chemical_formula_structural   Sr7CaTi7MnO24
_chemical_formula_sum   'Sr7 Ca1 Ti7 Mn1 O24'
_cell_volume   482.18899951
_cell_formula_units_Z   1
loop_
 _symmetry_equiv_pos_site_id
 _symmetry_equiv_pos_as_xyz
  1  'x, y, z'
loop_
 _atom_site_type_symbol
 _atom_site_label
 _atom_site_symmetry_multiplicity
 _atom_site_fract_x
 _atom_site_fract_y
 _atom_site_fract_z
 _atom_site_occupancy
  Sr  Sr0  1  0.24881972  0.24876324  0.24881972  1
  Sr  Sr1  1  0.24884158  0.24883459  0.75116541  1
  Sr  Sr2  1  0.24881972  0.75118028  0.75123676  1
  Sr  Sr3  1  0.75116541  0.24883459  0.24884158  1
  Sr  Sr4  1  0.75113702  0.24886298  0.75113702  1
  Sr  Sr5  1  0.75123676  0.75118028  0.24881972  1
  Sr  Sr6  1  0.75116541  0.75115842  0.75116541  1
  Ca  Ca7  1  0.24886810  0.75113190  0.24886810  1
  Ti  Ti8  1  0.00058649  0.99941351  0.49919228  1
  Ti  Ti9  1  0.00058649  0.50080772  0.00058649  1
  Ti  Ti10  1  0.00054138  0.50057896  0.49942104  1
  Ti  Ti11  1  0.49919228  0.99941351  0.00058649  1
  Ti  Ti12  1  0.49942104  0.99945862  0.49942104  1
  Ti  Ti13  1  0.49942104  0.50057896  0.00054138  1
  Ti  Ti14  1  0.49946174  0.50053826  0.49946174  1
  Mn  Mn15  1  0.00050040  0.99949960  0.00050040  1
  O  O16  1  0.24735622  0.99818793  0.00181207  1
  O  O17  1  0.24914082  0.99836998  0.49839659  1
  O  O18  1  0.24914082  0.50160341  0.00163002  1
  O  O19  1  0.24973890  0.50164768  0.49835232  1
  O  O20  1  0.75251195  -0.00020201  0.00020201  1
  O  O21  1  0.75088805  -0.00025190  0.49976343  1
  O  O22  1  0.75088805  0.50023657  0.00025190  1
  O  O23  1  0.75025854  0.50025229  0.49974771  1
  O  O24  1  0.00020201  0.24748805  0.00020201  1
  O  O25  1  0.00025190  0.24911195  0.49976343  1
  O  O26  1  0.00181207  0.75264378  0.00181207  1
  O  O27  1  0.00163002  0.75085918  0.49839659  1
  O  O28  1  0.49976343  0.24911195  0.00025190  1
  O  O29  1  0.49974771  0.24974146  0.49974771  1
  O  O30  1  0.49839659  0.75085918  0.00163002  1
  O  O31  1  0.49835232  0.75026110  0.49835232  1
  O  O32  1  0.00181207  0.99818793  0.24735622  1
  O  O33  1  0.00020201  -0.00020201  0.75251195  1
  O  O34  1  0.00163002  0.50160341  0.24914082  1
  O  O35  1  0.00025190  0.50023657  0.75088805  1
  O  O36  1  0.49839659  0.99836998  0.24914082  1
  O  O37  1  0.49976343  -0.00025190  0.75088805  1
  O  O38  1  0.49835232  0.50164768  0.24973890  1
  O  O39  1  0.49974771  0.50025229  0.75025854  1
