# generated using pymatgen
data_CaMn2(PO4)2
_symmetry_space_group_name_H-M   'P 1'
_cell_length_a   5.09412396
_cell_length_b   9.10785114
_cell_length_c   15.59101322
_cell_angle_alpha   85.88959260
_cell_angle_beta   80.62708437
_cell_angle_gamma   73.77316764
_symmetry_Int_Tables_number   1
_chemical_formula_structural   CaMn2(PO4)2
_chemical_formula_sum   'Ca4 Mn8 P8 O32'
_cell_volume   685.01761349
_cell_formula_units_Z   4
loop_
 _symmetry_equiv_pos_site_id
 _symmetry_equiv_pos_as_xyz
  1  'x, y, z'
loop_
 _atom_site_type_symbol
 _atom_site_label
 _atom_site_symmetry_multiplicity
 _atom_site_fract_x
 _atom_site_fract_y
 _atom_site_fract_z
 _atom_site_occupancy
  Ca  Ca0  1  0.48036666  0.82922168  0.85572638  1
  Ca  Ca1  1  0.16489931  0.67272173  0.64541316  1
  Ca  Ca2  1  0.83324688  0.32954717  0.35605882  1
  Ca  Ca3  1  0.51581131  0.17074372  0.14582385  1
  Mn  Mn4  1  0.19747344  0.22491472  0.96046820  1
  Mn  Mn5  1  0.38340749  0.27659522  0.53935741  1
  Mn  Mn6  1  0.79996060  0.77553881  0.03949962  1
  Mn  Mn7  1  0.50440264  0.49411496  0.99875607  1
  Mn  Mn8  1  0.61460931  0.72517271  0.46109003  1
  Mn  Mn9  1  0.65182699  0.74997118  0.24997167  1
  Mn  Mn10  1  0.34341448  0.25089322  0.74978336  1
  Mn  Mn11  1  0.00101353  0.99787189  0.49871951  1
  P  P12  1  0.04996405  0.56776004  0.86729176  1
  P  P13  1  0.77026511  0.42577723  0.60914365  1
  P  P14  1  0.94715302  0.43247876  0.13352275  1
  P  P15  1  0.19446499  0.92476941  0.10805122  1
  P  P16  1  0.51425701  0.06747915  0.36740295  1
  P  P17  1  0.48545165  0.93376491  0.63249207  1
  P  P18  1  0.22618155  0.57670168  0.39107145  1
  P  P19  1  0.80327394  0.07742135  0.89099182  1
  O  O20  1  0.69890006  0.38756153  0.10755783  1
  O  O21  1  0.79735388  0.91569822  0.92851404  1
  O  O22  1  0.80423198  0.88948841  0.60477354  1
  O  O23  1  0.80560053  0.30480833  0.53857040  1
  O  O24  1  0.19025847  0.39337514  0.05537852  1
  O  O25  1  0.56527118  0.40142600  0.68889149  1
  O  O26  1  0.64809695  0.20179941  0.96004639  1
  O  O27  1  0.88620711  0.92057969  0.12956922  1
  O  O28  1  0.19098740  0.69946908  0.46073987  1
  O  O29  1  0.64072352  0.58912257  0.57321489  1
  O  O30  1  0.86944930  0.60870045  0.14466934  1
  O  O31  1  0.60295937  0.15885818  0.28747956  1
  O  O32  1  0.19972596  0.08740203  0.07184520  1
  O  O33  1  0.06194799  0.42008052  0.63072871  1
  O  O34  1  0.29989418  0.61034792  0.89355691  1
  O  O35  1  0.12429228  0.39180946  0.85536697  1
  O  O36  1  0.94859146  0.66008408  0.78744789  1
  O  O37  1  0.34955955  0.80277170  0.03814616  1
  O  O38  1  0.37462982  0.11005349  0.64402495  1
  O  O39  1  0.39852356  0.84249895  0.71273062  1
  O  O40  1  0.93413626  0.58145594  0.37019960  1
  O  O41  1  0.35616011  0.89478711  0.55481810  1
  O  O42  1  0.11170373  0.08117809  0.86952728  1
  O  O43  1  0.34320458  0.90059598  0.18825684  1
  O  O44  1  0.35640816  0.41419831  0.42786213  1
  O  O45  1  0.19526564  0.11202761  0.39466899  1
  O  O46  1  0.04931933  0.34222329  0.21385368  1
  O  O47  1  0.64262755  0.10606987  0.44538139  1
  O  O48  1  0.80661783  0.60651877  0.94540021  1
  O  O49  1  0.65463814  0.10036671  0.81092717  1
  O  O50  1  0.42989866  0.60006978  0.31083608  1
  O  O51  1  0.62385946  0.89116581  0.35560531  1
