# generated using pymatgen
data_BaAg2
_symmetry_space_group_name_H-M   'P 1'
_cell_length_a   5.06312404
_cell_length_b   6.44840584
_cell_length_c   6.44840584
_cell_angle_alpha   79.67628143
_cell_angle_beta   66.88441726
_cell_angle_gamma   66.88441726
_symmetry_Int_Tables_number   1
_chemical_formula_structural   BaAg2
_chemical_formula_sum   'Ba2 Ag4'
_cell_volume   178.00760313
_cell_formula_units_Z   2
loop_
 _symmetry_equiv_pos_site_id
 _symmetry_equiv_pos_as_xyz
  1  'x, y, z'
loop_
 _atom_site_type_symbol
 _atom_site_label
 _atom_site_symmetry_multiplicity
 _atom_site_fract_x
 _atom_site_fract_y
 _atom_site_fract_z
 _atom_site_occupancy
  Ba  Ba0  1  0.03927333  0.21072667  0.71072667  1
  Ba  Ba1  1  0.96072667  0.78927333  0.28927333  1
  Ag  Ag2  1  0.33573193  0.61074017  0.71779597  1
  Ag  Ag3  1  0.66426807  0.38925983  0.28220403  1
  Ag  Ag4  1  0.66426807  0.78220403  0.88925983  1
  Ag  Ag5  1  0.33573193  0.21779597  0.11074017  1
