# generated using pymatgen
data_Sr5Ca3Fe7CoO20
_symmetry_space_group_name_H-M   'P 1'
_cell_length_a   11.02607341
_cell_length_b   11.41206725
_cell_length_c   17.38203769
_cell_angle_alpha   109.09420205
_cell_angle_beta   108.63772114
_cell_angle_gamma   90.00159068
_symmetry_Int_Tables_number   1
_chemical_formula_structural   Sr5Ca3Fe7CoO20
_chemical_formula_sum   'Sr20 Ca12 Fe28 Co4 O80'
_cell_volume   1945.06194997
_cell_formula_units_Z   4
loop_
 _symmetry_equiv_pos_site_id
 _symmetry_equiv_pos_as_xyz
  1  'x, y, z'
loop_
 _atom_site_type_symbol
 _atom_site_label
 _atom_site_symmetry_multiplicity
 _atom_site_fract_x
 _atom_site_fract_y
 _atom_site_fract_z
 _atom_site_occupancy
  Sr  Sr0  1  0.30649840  0.06395839  0.60914685  1
  Sr  Sr1  1  0.30512599  0.56272091  0.61004349  1
  Sr  Sr2  1  0.80649896  0.06596543  0.61080613  1
  Sr  Sr3  1  0.80884648  0.56322279  0.61212650  1
  Sr  Sr4  1  0.19295806  0.43430259  0.38495886  1
  Sr  Sr5  1  0.19555250  0.44008436  0.89544551  1
  Sr  Sr6  1  0.69322963  0.43432600  0.38541649  1
  Sr  Sr7  1  0.69334598  0.93302021  0.38587687  1
  Sr  Sr8  1  0.70274556  0.93620335  0.89632842  1
  Sr  Sr9  1  0.05747153  0.29652342  0.61132446  1
  Sr  Sr10  1  0.05674646  0.79782767  0.61137592  1
  Sr  Sr11  1  0.55709026  0.29735436  0.61144295  1
  Sr  Sr12  1  0.55770386  0.79661786  0.61118075  1
  Sr  Sr13  1  0.44286568  0.20297736  0.38522264  1
  Sr  Sr14  1  0.45083195  0.20576379  0.89463902  1
  Sr  Sr15  1  0.44295952  0.70153298  0.38499165  1
  Sr  Sr16  1  0.45201078  0.70930025  0.89521525  1
  Sr  Sr17  1  0.94317948  0.20229946  0.38492310  1
  Sr  Sr18  1  0.94822286  0.20819160  0.89530882  1
  Sr  Sr19  1  0.94370836  0.70206387  0.38471660  1
  Ca  Ca20  1  0.29959305  0.06427503  0.10366085  1
  Ca  Ca21  1  0.29301086  0.56766875  0.10363979  1
  Ca  Ca22  1  0.80259460  0.06301245  0.10376246  1
  Ca  Ca23  1  0.80611541  0.56937254  0.10254730  1
  Ca  Ca24  1  0.19413751  0.92973874  0.38939239  1
  Ca  Ca25  1  0.19935963  0.93813888  0.90018146  1
  Ca  Ca26  1  0.70713329  0.43781125  0.89983730  1
  Ca  Ca27  1  0.05091601  0.28432411  0.10471174  1
  Ca  Ca28  1  0.04628592  0.78799921  0.10476092  1
  Ca  Ca29  1  0.54892087  0.28188257  0.10487784  1
  Ca  Ca30  1  0.55470003  0.78936683  0.10436996  1
  Ca  Ca31  1  0.94585887  0.71644049  0.90100800  1
  Fe  Fe32  1  0.00194149  0.99810035  0.49556717  1
  Fe  Fe33  1  0.00124641  0.49926140  0.49748420  1
  Fe  Fe34  1  0.50109262  0.99858698  0.49636097  1
  Fe  Fe35  1  0.51012027  0.50294133  0.00607454  1
  Fe  Fe36  1  0.50334361  0.49993770  0.49944947  1
  Fe  Fe37  1  0.25574076  0.25221838  0.00507789  1
  Fe  Fe38  1  0.25113024  0.24720526  0.49574226  1
  Fe  Fe39  1  0.25512064  0.75478165  0.00486493  1
  Fe  Fe40  1  0.25291243  0.74960746  0.49944369  1
  Fe  Fe41  1  0.76108041  0.25390876  0.00769233  1
  Fe  Fe42  1  0.75107501  0.24850798  0.49602943  1
  Fe  Fe43  1  0.75247793  0.74867557  0.49828394  1
  Fe  Fe44  1  0.10214276  0.08287558  0.24294374  1
  Fe  Fe45  1  0.11190584  0.09035955  0.75510944  1
  Fe  Fe46  1  0.10027326  0.58735150  0.24040327  1
  Fe  Fe47  1  0.10816246  0.59876768  0.75626748  1
  Fe  Fe48  1  0.60206207  0.08453027  0.24429914  1
  Fe  Fe49  1  0.60984763  0.09479391  0.75347571  1
  Fe  Fe50  1  0.60170371  0.58576791  0.24163684  1
  Fe  Fe51  1  0.61297771  0.58983425  0.75386023  1
  Fe  Fe52  1  0.35171617  0.40780875  0.24241235  1
  Fe  Fe53  1  0.36165057  0.41145088  0.75374209  1
  Fe  Fe54  1  0.34952911  0.90686115  0.24494363  1
  Fe  Fe55  1  0.35781847  0.90926664  0.75316286  1
  Fe  Fe56  1  0.85137844  0.40693529  0.24219271  1
  Fe  Fe57  1  0.85960552  0.41764411  0.75945896  1
  Fe  Fe58  1  0.85533697  0.90673405  0.24408829  1
  Fe  Fe59  1  0.86403788  0.90982676  0.75570392  1
  Co  Co60  1  0.00997386  0.00187425  0.00450518  1
  Co  Co61  1  0.00684044  0.50326826  0.00338885  1
  Co  Co62  1  0.50938823  0.00121103  0.00595263  1
  Co  Co63  1  0.75988310  0.75084387  0.00281658  1
  O  O64  1  0.12292330  0.11784481  0.48683007  1
  O  O65  1  0.12649949  0.11920926  0.99180655  1
  O  O66  1  0.12175124  0.62153232  0.48902953  1
  O  O67  1  0.12102485  0.62589828  0.99153006  1
  O  O68  1  0.62286958  0.12220965  0.49123346  1
  O  O69  1  0.62810868  0.12418365  0.99605599  1
  O  O70  1  0.62292665  0.62199394  0.49078191  1
  O  O71  1  0.62896432  0.61578596  0.99057294  1
  O  O72  1  0.13602635  0.38250499  0.01813339  1
  O  O73  1  0.12998954  0.37635329  0.50570623  1
  O  O74  1  0.13745868  0.88438757  0.01477112  1
  O  O75  1  0.13128194  0.87700124  0.50367021  1
  O  O76  1  0.63879858  0.38009913  0.01815583  1
  O  O77  1  0.63073538  0.37673961  0.50606601  1
  O  O78  1  0.63741135  0.88155874  0.01811423  1
  O  O79  1  0.63124803  0.87732560  0.50732162  1
  O  O80  1  0.36805214  0.11435196  0.48557865  1
  O  O81  1  0.37489929  0.11504496  0.99177192  1
  O  O82  1  0.37185660  0.61948960  0.48985756  1
  O  O83  1  0.37676372  0.62140593  0.99467819  1
  O  O84  1  0.87413433  0.11994106  0.49192318  1
  O  O85  1  0.88002990  0.11984962  0.99404489  1
  O  O86  1  0.87271919  0.61944493  0.49002409  1
  O  O87  1  0.87753809  0.61453519  0.98738778  1
  O  O88  1  0.38763898  0.38595984  0.01842011  1
  O  O89  1  0.38005345  0.37824550  0.50558864  1
  O  O90  1  0.38928328  0.88693599  0.01832706  1
  O  O91  1  0.37858709  0.87869648  0.50394822  1
  O  O92  1  0.88756534  0.38873200  0.01671028  1
  O  O93  1  0.88092632  0.37922488  0.50641606  1
  O  O94  1  0.89556854  0.88821730  0.01897154  1
  O  O95  1  0.88134505  0.87945830  0.50612771  1
  O  O96  1  0.09105997  0.09900386  0.13670654  1
  O  O97  1  0.08616363  0.09269017  0.64224007  1
  O  O98  1  0.08420932  0.60194120  0.13347316  1
  O  O99  1  0.07756471  0.59561561  0.64140149  1
  O  O100  1  0.59942361  0.11265629  0.14595861  1
  O  O101  1  0.57891308  0.09520436  0.63971062  1
  O  O102  1  0.59655438  0.61080942  0.14028082  1
  O  O103  1  0.58270772  0.59059549  0.63940940  1
  O  O104  1  0.43701938  0.40834144  0.35618336  1
  O  O105  1  0.44857736  0.40309794  0.86323866  1
  O  O106  1  0.44151113  0.90583156  0.35742551  1
  O  O107  1  0.45182869  0.89795909  0.85816985  1
  O  O108  1  0.93538734  0.40765450  0.35659324  1
  O  O109  1  0.94553819  0.40758407  0.86898987  1
  O  O110  1  0.94162806  0.90845022  0.35861696  1
  O  O111  1  0.94996627  0.90400757  0.86733453  1
  O  O112  1  0.33998767  0.28003962  0.13956030  1
  O  O113  1  0.32982224  0.29563985  0.63991083  1
  O  O114  1  0.33589465  0.78335571  0.13990858  1
  O  O115  1  0.32607073  0.79553452  0.63818264  1
  O  O116  1  0.84895722  0.28115815  0.14093272  1
  O  O117  1  0.83468903  0.30262404  0.64660354  1
  O  O118  1  0.85134349  0.78147459  0.14409996  1
  O  O119  1  0.83369456  0.79488506  0.64233358  1
  O  O120  1  0.18612176  0.20352668  0.35418305  1
  O  O121  1  0.19439803  0.21202426  0.86435616  1
  O  O122  1  0.18534835  0.70635856  0.35243560  1
  O  O123  1  0.19865856  0.71958742  0.86423963  1
  O  O124  1  0.68691119  0.19959770  0.35874912  1
  O  O125  1  0.69361153  0.21574462  0.86328604  1
  O  O126  1  0.68608582  0.69896038  0.35625447  1
  O  O127  1  0.70578635  0.71053663  0.85840560  1
  O  O128  1  0.42278364  0.05659750  0.23891220  1
  O  O129  1  0.43585460  0.06065398  0.75180419  1
  O  O130  1  0.42330056  0.55847832  0.23675840  1
  O  O131  1  0.43809060  0.56261852  0.75266388  1
  O  O132  1  0.92517098  0.05891121  0.23895949  1
  O  O133  1  0.93737784  0.06126214  0.75311339  1
  O  O134  1  0.92463740  0.55784108  0.23820771  1
  O  O135  1  0.93656845  0.57320858  0.76307871  1
  O  O136  1  0.17462134  0.43277767  0.23821958  1
  O  O137  1  0.18782718  0.44676068  0.75430330  1
  O  O138  1  0.17402895  0.92896743  0.24728557  1
  O  O139  1  0.18624512  0.93901338  0.76133512  1
  O  O140  1  0.67367517  0.42977432  0.23744932  1
  O  O141  1  0.68419544  0.43654948  0.76005446  1
  O  O142  1  0.67683580  0.92930908  0.23954775  1
  O  O143  1  0.69063920  0.94459853  0.75390238  1
