# generated using pymatgen
data_SmAl4
_symmetry_space_group_name_H-M   'P 1'
_cell_length_a   4.47786895
_cell_length_b   6.39081207
_cell_length_c   7.91010212
_cell_angle_alpha   113.82629792
_cell_angle_beta   106.44217653
_cell_angle_gamma   90.00000000
_symmetry_Int_Tables_number   1
_chemical_formula_structural   SmAl4
_chemical_formula_sum   'Sm2 Al8'
_cell_volume   196.91114246
_cell_formula_units_Z   2
loop_
 _symmetry_equiv_pos_site_id
 _symmetry_equiv_pos_as_xyz
  1  'x, y, z'
loop_
 _atom_site_type_symbol
 _atom_site_label
 _atom_site_symmetry_multiplicity
 _atom_site_fract_x
 _atom_site_fract_y
 _atom_site_fract_z
 _atom_site_occupancy
  Sm  Sm0  1  0.88623500  0.63623500  0.77247001  1
  Sm  Sm1  1  0.11376500  0.36376500  0.22752999  1
  Al  Al2  1  0.50000000  -0.00000000  0.00000000  1
  Al  Al3  1  0.50000000  0.50000000  -0.00000000  1
  Al  Al4  1  0.11313877  0.86313877  0.22627754  1
  Al  Al5  1  0.88686123  0.13686123  0.77372246  1
  Al  Al6  1  0.69822015  0.15918926  0.39644030  1
  Al  Al7  1  0.30177985  0.84081074  0.60355970  1
  Al  Al8  1  0.30177985  0.26274896  0.60355970  1
  Al  Al9  1  0.69822015  0.73725104  0.39644030  1
