# generated using pymatgen
data_Sr5Fe5O14
_symmetry_space_group_name_H-M   'P 1'
_cell_length_a   7.89190888
_cell_length_b   19.72134194
_cell_length_c   3.88106792
_cell_angle_alpha   90.00000000
_cell_angle_beta   90.00000000
_cell_angle_gamma   90.00000000
_symmetry_Int_Tables_number   1
_chemical_formula_structural   Sr5Fe5O14
_chemical_formula_sum   'Sr10 Fe10 O28'
_cell_volume   604.04566033
_cell_formula_units_Z   2
loop_
 _symmetry_equiv_pos_site_id
 _symmetry_equiv_pos_as_xyz
  1  'x, y, z'
loop_
 _atom_site_type_symbol
 _atom_site_label
 _atom_site_symmetry_multiplicity
 _atom_site_fract_x
 _atom_site_fract_y
 _atom_site_fract_z
 _atom_site_occupancy
  Sr  Sr0  1  0.25775702  0.10201388  0.49999900  1
  Sr  Sr1  1  0.24176909  0.29746665  0.49999900  1
  Sr  Sr2  1  0.24176909  0.50253335  0.49999900  1
  Sr  Sr3  1  0.25775702  0.69798612  0.49999900  1
  Sr  Sr4  1  0.26584389  0.90000000  0.49999900  1
  Sr  Sr5  1  0.74224298  0.10201388  0.49999900  1
  Sr  Sr6  1  0.75823091  0.29746665  0.49999900  1
  Sr  Sr7  1  0.75823091  0.50253335  0.49999900  1
  Sr  Sr8  1  0.74224298  0.69798612  0.49999900  1
  Sr  Sr9  1  0.73415611  0.90000000  0.49999900  1
  Fe  Fe10  1  -0.00000000  0.00497217  0.00000000  1
  Fe  Fe11  1  -0.00000000  0.20051462  -0.00000000  1
  Fe  Fe12  1  -0.00000000  0.40000000  0.00000000  1
  Fe  Fe13  1  -0.00000000  0.59948538  -0.00000000  1
  Fe  Fe14  1  -0.00000000  0.79502783  0.00000000  1
  Fe  Fe15  1  0.50000000  0.99972707  -0.00000000  1
  Fe  Fe16  1  0.50000000  0.20199496  -0.00000000  1
  Fe  Fe17  1  0.50000000  0.40000000  -0.00000000  1
  Fe  Fe18  1  0.50000000  0.59800504  -0.00000000  1
  Fe  Fe19  1  0.50000000  0.80027293  -0.00000000  1
  O  O20  1  0.24012844  0.99330999  -0.00000000  1
  O  O21  1  0.25213655  0.19993361  -0.00000000  1
  O  O22  1  0.26287496  0.40000000  -0.00000000  1
  O  O23  1  0.25213655  0.60006639  -0.00000000  1
  O  O24  1  0.24012844  0.80669001  -0.00000000  1
  O  O25  1  0.75987156  0.99330999  0.00000000  1
  O  O26  1  0.74786345  0.19993361  -0.00000000  1
  O  O27  1  0.73712504  0.40000000  -0.00000000  1
  O  O28  1  0.74786345  0.60006639  -0.00000000  1
  O  O29  1  0.75987156  0.80669001  0.00000000  1
  O  O30  1  -0.00000000  0.10058504  -0.00000000  1
  O  O31  1  -0.00000000  0.29951777  0.00000000  1
  O  O32  1  -0.00000000  0.50048223  -0.00000000  1
  O  O33  1  -0.00000000  0.69941496  -0.00000000  1
  O  O34  1  0.50000000  0.09757084  -0.00000000  1
  O  O35  1  0.50000000  0.30546450  0.00000000  1
  O  O36  1  0.50000000  0.49453550  -0.00000000  1
  O  O37  1  0.50000000  0.70242916  -0.00000000  1
  O  O38  1  0.50000000  0.90000000  0.00000000  1
  O  O39  1  -0.00000000  0.98281217  0.49999900  1
  O  O40  1  -0.00000000  0.20055240  0.49999900  1
  O  O41  1  -0.00000000  0.40000000  0.49999900  1
  O  O42  1  -0.00000000  0.59944760  0.49999900  1
  O  O43  1  -0.00000000  0.81718783  0.49999900  1
  O  O44  1  0.50000000  0.00042360  0.49999900  1
  O  O45  1  0.50000000  0.20071665  0.49999900  1
  O  O46  1  0.50000000  0.59928335  0.49999900  1
  O  O47  1  0.50000000  0.79957640  0.49999900  1
