# generated using pymatgen
data_Mn(SbO3)2
_symmetry_space_group_name_H-M   'P 1'
_cell_length_a   4.75059056
_cell_length_b   5.28297241
_cell_length_c   5.28297882
_cell_angle_alpha   119.99983426
_cell_angle_beta   89.99982169
_cell_angle_gamma   90.00033090
_symmetry_Int_Tables_number   1
_chemical_formula_structural   Mn(SbO3)2
_chemical_formula_sum   'Mn1 Sb2 O6'
_cell_volume   114.82492506
_cell_formula_units_Z   1
loop_
 _symmetry_equiv_pos_site_id
 _symmetry_equiv_pos_as_xyz
  1  'x, y, z'
loop_
 _atom_site_type_symbol
 _atom_site_label
 _atom_site_symmetry_multiplicity
 _atom_site_fract_x
 _atom_site_fract_y
 _atom_site_fract_z
 _atom_site_occupancy
  Mn  Mn0  1  0.00000211  0.00000676  -0.00000126  1
  Sb  Sb1  1  0.50000127  0.66666357  0.33333317  1
  Sb  Sb2  1  0.49999937  0.33333237  0.66666596  1
  O  O3  1  0.27013756  0.35789007  0.35789348  1
  O  O4  1  0.27013381  0.64210653  0.00000071  1
  O  O5  1  0.27013627  0.99999890  0.64210684  1
  O  O6  1  0.72986170  0.64211165  0.64210838  1
  O  O7  1  0.72986459  0.35789155  -0.00000005  1
  O  O8  1  0.72986333  -0.00000140  0.35789279  1
