# generated using pymatgen
data_Ti(CrS2)2
_symmetry_space_group_name_H-M   'P 1'
_cell_length_a   3.44816083
_cell_length_b   6.12753969
_cell_length_c   6.62710907
_cell_angle_alpha   117.56476148
_cell_angle_beta   105.07930767
_cell_angle_gamma   89.99999991
_symmetry_Int_Tables_number   1
_chemical_formula_structural   Ti(CrS2)2
_chemical_formula_sum   'Ti1 Cr2 S4'
_cell_volume   118.66279815
_cell_formula_units_Z   1
loop_
 _symmetry_equiv_pos_site_id
 _symmetry_equiv_pos_as_xyz
  1  'x, y, z'
loop_
 _atom_site_type_symbol
 _atom_site_label
 _atom_site_symmetry_multiplicity
 _atom_site_fract_x
 _atom_site_fract_y
 _atom_site_fract_z
 _atom_site_occupancy
  Ti  Ti0  1  0.00000000  0.00000000  0.00000000  1
  Cr  Cr1  1  0.74176916  0.72872163  0.48353832  1
  Cr  Cr2  1  0.25823084  0.27127837  0.51646168  1
  S  S3  1  0.63363728  0.97023167  0.26727457  1
  S  S4  1  0.36636272  0.02976833  0.73272543  1
  S  S5  1  0.87221476  0.54781898  0.74442952  1
  S  S6  1  0.12778524  0.45218102  0.25557048  1
