# generated using pymatgen
data_VIr
_symmetry_space_group_name_H-M   'P 1'
_cell_length_a   2.78487035
_cell_length_b   6.65150015
_cell_length_c   6.65150015
_cell_angle_alpha   115.08261007
_cell_angle_beta   90.00000000
_cell_angle_gamma   90.00000000
_symmetry_Int_Tables_number   1
_chemical_formula_structural   VIr
_chemical_formula_sum   'V4 Ir4'
_cell_volume   111.59053611
_cell_formula_units_Z   4
loop_
 _symmetry_equiv_pos_site_id
 _symmetry_equiv_pos_as_xyz
  1  'x, y, z'
loop_
 _atom_site_type_symbol
 _atom_site_label
 _atom_site_symmetry_multiplicity
 _atom_site_fract_x
 _atom_site_fract_y
 _atom_site_fract_z
 _atom_site_occupancy
  V  V0  1  0.50000000  0.64833238  0.35166762  1
  V  V1  1  0.50000000  0.37488527  0.62511473  1
  V  V2  1  0.50000000  0.87472723  0.12527277  1
  V  V3  1  0.50000000  0.10141522  0.89858478  1
  Ir  Ir4  1  0.00000000  0.47760065  0.98274770  1
  Ir  Ir5  1  -0.00000000  0.01725230  0.52239935  1
  Ir  Ir6  1  0.00000000  0.27218018  0.26739323  1
  Ir  Ir7  1  -0.00000000  0.73260677  0.72781982  1
