# generated using pymatgen
data_MgCd2
_symmetry_space_group_name_H-M   'P 1'
_cell_length_a   11.66359647
_cell_length_b   3.19058629
_cell_length_c   7.38518116
_cell_angle_alpha   90.00000000
_cell_angle_beta   105.94200975
_cell_angle_gamma   90.00000000
_symmetry_Int_Tables_number   1
_chemical_formula_structural   MgCd2
_chemical_formula_sum   'Mg4 Cd8'
_cell_volume   264.26008561
_cell_formula_units_Z   4
loop_
 _symmetry_equiv_pos_site_id
 _symmetry_equiv_pos_as_xyz
  1  'x, y, z'
loop_
 _atom_site_type_symbol
 _atom_site_label
 _atom_site_symmetry_multiplicity
 _atom_site_fract_x
 _atom_site_fract_y
 _atom_site_fract_z
 _atom_site_occupancy
  Mg  Mg0  1  0.47306190  -0.00000000  0.19643132  1
  Mg  Mg1  1  0.02693810  0.50000000  0.80356868  1
  Mg  Mg2  1  0.97306190  0.50000000  0.19643132  1
  Mg  Mg3  1  0.52693810  0.00000000  0.80356868  1
  Cd  Cd4  1  0.19121795  -0.00000000  0.13716722  1
  Cd  Cd5  1  0.36305429  0.50000000  0.47164484  1
  Cd  Cd6  1  0.13694571  0.00000000  0.52835516  1
  Cd  Cd7  1  0.30878205  0.50000000  0.86283278  1
  Cd  Cd8  1  0.69121795  0.50000000  0.13716722  1
  Cd  Cd9  1  0.86305429  0.00000000  0.47164484  1
  Cd  Cd10  1  0.63694571  0.50000000  0.52835516  1
  Cd  Cd11  1  0.80878205  -0.00000000  0.86283278  1
