# generated using pymatgen
data_LiZnSb
_symmetry_space_group_name_H-M   'P 1'
_cell_length_a   4.53085829
_cell_length_b   4.53085856
_cell_length_c   4.53085891
_cell_angle_alpha   60.00000486
_cell_angle_beta   60.00000296
_cell_angle_gamma   60.00000391
_symmetry_Int_Tables_number   1
_chemical_formula_structural   LiZnSb
_chemical_formula_sum   'Li1 Zn1 Sb1'
_cell_volume   65.76980634
_cell_formula_units_Z   1
loop_
 _symmetry_equiv_pos_site_id
 _symmetry_equiv_pos_as_xyz
  1  'x, y, z'
loop_
 _atom_site_type_symbol
 _atom_site_label
 _atom_site_symmetry_multiplicity
 _atom_site_fract_x
 _atom_site_fract_y
 _atom_site_fract_z
 _atom_site_occupancy
  Li  Li0  1  0.50000000  0.50000000  0.50000000  1
  Zn  Zn1  1  0.00000000  -0.00000000  -0.00000000  1
  Sb  Sb2  1  0.25000000  0.25000000  0.25000000  1
