# generated using pymatgen
data_V4(OF3)3
_symmetry_space_group_name_H-M   'P 1'
_cell_length_a   5.18051371
_cell_length_b   7.57846353
_cell_length_c   5.41666069
_cell_angle_alpha   92.46237506
_cell_angle_beta   88.90323619
_cell_angle_gamma   90.04439632
_symmetry_Int_Tables_number   1
_chemical_formula_structural   V4(OF3)3
_chemical_formula_sum   'V4 O3 F9'
_cell_volume   212.42462495
_cell_formula_units_Z   1
loop_
 _symmetry_equiv_pos_site_id
 _symmetry_equiv_pos_as_xyz
  1  'x, y, z'
loop_
 _atom_site_type_symbol
 _atom_site_label
 _atom_site_symmetry_multiplicity
 _atom_site_fract_x
 _atom_site_fract_y
 _atom_site_fract_z
 _atom_site_occupancy
  V  V0  1  0.47785670  0.49565455  0.51103969  1
  V  V1  1  0.48100401  0.00378024  0.52694601  1
  V  V2  1  0.00135455  0.49927669  0.99601413  1
  V  V3  1  0.97346115  0.99510274  0.02009443  1
  O  O4  1  0.72516506  0.96298148  0.21262514  1
  O  O5  1  0.28857112  0.03635344  0.77502421  1
  O  O6  1  0.21732474  0.45935589  0.69263658  1
  F  F7  1  0.90428334  0.25034501  0.99001302  1
  F  F8  1  0.79141695  0.54291562  0.31057168  1
  F  F9  1  0.79574268  0.94431216  0.70599564  1
  F  F10  1  0.70193066  0.55433379  0.80096142  1
  F  F11  1  0.60633636  0.24911005  0.50601129  1
  F  F12  1  0.40632310  0.75046710  0.47756106  1
  F  F13  1  0.30582597  0.44804305  0.19147841  1
  F  F14  1  0.22243022  0.05843451  0.27872232  1
  F  F15  1  0.10097439  0.74953168  0.00430297  1
