# generated using pymatgen
data_Li2Mg
_symmetry_space_group_name_H-M   'P 1'
_cell_length_a   11.27416755
_cell_length_b   3.03963826
_cell_length_c   7.51082838
_cell_angle_alpha   90.00000000
_cell_angle_beta   107.02560619
_cell_angle_gamma   90.00000000
_symmetry_Int_Tables_number   1
_chemical_formula_structural   Li2Mg
_chemical_formula_sum   'Li8 Mg4'
_cell_volume   246.11107299
_cell_formula_units_Z   4
loop_
 _symmetry_equiv_pos_site_id
 _symmetry_equiv_pos_as_xyz
  1  'x, y, z'
loop_
 _atom_site_type_symbol
 _atom_site_label
 _atom_site_symmetry_multiplicity
 _atom_site_fract_x
 _atom_site_fract_y
 _atom_site_fract_z
 _atom_site_occupancy
  Li  Li0  1  0.19553756  0.00000000  0.63946384  1
  Li  Li1  1  0.36023521  0.50000000  0.97034669  1
  Li  Li2  1  0.13976479  -0.00000000  0.02965331  1
  Li  Li3  1  0.30446244  0.50000000  0.36053616  1
  Li  Li4  1  0.69553756  0.50000000  0.63946384  1
  Li  Li5  1  0.86023521  -0.00000000  0.97034669  1
  Li  Li6  1  0.63976479  0.50000000  0.02965331  1
  Li  Li7  1  0.80446244  0.00000000  0.36053616  1
  Mg  Mg8  1  0.47283436  0.00000000  0.69629112  1
  Mg  Mg9  1  0.02716564  0.50000000  0.30370888  1
  Mg  Mg10  1  0.97283436  0.50000000  0.69629112  1
  Mg  Mg11  1  0.52716564  -0.00000000  0.30370888  1
