# generated using pymatgen
data_Te16Rh15
_symmetry_space_group_name_H-M   'P 1'
_cell_length_a   16.31495634
_cell_length_b   8.10241304
_cell_length_c   9.09927224
_cell_angle_alpha   89.76784479
_cell_angle_beta   47.34115043
_cell_angle_gamma   59.74757572
_symmetry_Int_Tables_number   1
_chemical_formula_structural   Te16Rh15
_chemical_formula_sum   'Te16 Rh15'
_cell_volume   647.45787362
_cell_formula_units_Z   1
loop_
 _symmetry_equiv_pos_site_id
 _symmetry_equiv_pos_as_xyz
  1  'x, y, z'
loop_
 _atom_site_type_symbol
 _atom_site_label
 _atom_site_symmetry_multiplicity
 _atom_site_fract_x
 _atom_site_fract_y
 _atom_site_fract_z
 _atom_site_occupancy
  Te  Te0  1  0.03661065  0.46147685  0.25602316  1
  Te  Te1  1  0.03948759  0.96046573  0.25307850  1
  Te  Te2  1  0.29175273  0.45580260  0.24956509  1
  Te  Te3  1  0.21474437  0.03165272  0.73779262  1
  Te  Te4  1  0.29302893  0.95963521  0.24615058  1
  Te  Te5  1  0.21015162  0.54137278  0.74603061  1
  Te  Te6  1  0.54739970  0.45254300  0.24237073  1
  Te  Te7  1  0.46162973  0.03812814  0.74409127  1
  Te  Te8  1  0.53837027  0.96187186  0.25590873  1
  Te  Te9  1  0.45260030  0.54745700  0.75762927  1
  Te  Te10  1  0.78984838  0.45862722  0.25396939  1
  Te  Te11  1  0.70697107  0.04036479  0.75384942  1
  Te  Te12  1  0.78525563  0.96834728  0.26220738  1
  Te  Te13  1  0.70824727  0.54419740  0.75043491  1
  Te  Te14  1  0.96051241  0.03953427  0.74692150  1
  Te  Te15  1  0.96338935  0.53852315  0.74397684  1
  Rh  Rh16  1  0.00000000  0.00000000  -0.00000000  1
  Rh  Rh17  1  0.24397612  0.01164456  0.99846359  1
  Rh  Rh18  1  0.24437685  0.49825924  0.00268242  1
  Rh  Rh19  1  0.99938958  0.73970321  0.49978903  1
  Rh  Rh20  1  0.50000000  0.00000000  -0.00000000  1
  Rh  Rh21  1  0.24121099  0.25857513  0.52002201  1
  Rh  Rh22  1  0.50000000  0.50000000  -0.00000000  1
  Rh  Rh23  1  0.25680249  0.74145406  0.49459626  1
  Rh  Rh24  1  0.75602388  0.98835544  0.00153641  1
  Rh  Rh25  1  0.49781087  0.26479223  0.50141063  1
  Rh  Rh26  1  0.75562315  0.50174076  0.99731758  1
  Rh  Rh27  1  0.50218913  0.73520777  0.49858937  1
  Rh  Rh28  1  0.74319751  0.25854594  0.50540374  1
  Rh  Rh29  1  0.75878901  0.74142487  0.47997799  1
  Rh  Rh30  1  0.00061042  0.26029679  0.50021097  1
