# generated using pymatgen
data_Zn(FeO2)2
_symmetry_space_group_name_H-M   'P 1'
_cell_length_a   6.04710016
_cell_length_b   6.04710041
_cell_length_c   30.19583184
_cell_angle_alpha   59.95653080
_cell_angle_beta   59.95652944
_cell_angle_gamma   59.99999687
_symmetry_Int_Tables_number   1
_chemical_formula_structural   Zn(FeO2)2
_chemical_formula_sum   'Zn10 Fe20 O40'
_cell_volume   780.26237843
_cell_formula_units_Z   10
loop_
 _symmetry_equiv_pos_site_id
 _symmetry_equiv_pos_as_xyz
  1  'x, y, z'
loop_
 _atom_site_type_symbol
 _atom_site_label
 _atom_site_symmetry_multiplicity
 _atom_site_fract_x
 _atom_site_fract_y
 _atom_site_fract_z
 _atom_site_occupancy
  Zn  Zn0  1  0.00138861  0.00138861  0.99916684  1
  Zn  Zn1  1  -0.00040441  -0.00040441  0.20024265  1
  Zn  Zn2  1  0.62617113  0.62617113  0.02429732  1
  Zn  Zn3  1  0.24933203  0.24933203  0.25040078  1
  Zn  Zn4  1  0.00154375  0.00154375  0.39907375  1
  Zn  Zn5  1  0.24974580  0.24974580  0.45015252  1
  Zn  Zn6  1  0.00171244  0.00171244  0.59897253  1
  Zn  Zn7  1  0.00053243  0.00053243  0.79968054  1
  Zn  Zn8  1  0.25089397  0.25089397  0.64946362  1
  Zn  Zn9  1  0.24858386  0.24858386  0.85084968  1
  Fe  Fe10  1  0.24688500  0.24688500  0.05186900  1
  Fe  Fe11  1  0.12294248  0.62506758  0.12538447  1
  Fe  Fe12  1  0.62506758  0.12294248  0.12538447  1
  Fe  Fe13  1  0.62506758  0.62506758  0.12538447  1
  Fe  Fe14  1  0.12466945  0.62505096  0.32504572  1
  Fe  Fe15  1  0.62505096  0.12466945  0.32504572  1
  Fe  Fe16  1  0.62429791  0.62429791  0.22542125  1
  Fe  Fe17  1  0.62505096  0.62505096  0.32504572  1
  Fe  Fe18  1  0.12479663  0.62584652  0.52470207  1
  Fe  Fe19  1  0.62584652  0.12479663  0.52470207  1
  Fe  Fe20  1  0.62465390  0.62465390  0.42520766  1
  Fe  Fe21  1  0.62584652  0.62584652  0.52470207  1
  Fe  Fe22  1  0.12478733  0.62528538  0.72492838  1
  Fe  Fe23  1  0.62528538  0.12478733  0.72492838  1
  Fe  Fe24  1  0.62551146  0.62551146  0.62469312  1
  Fe  Fe25  1  0.62528538  0.62528538  0.72492838  1
  Fe  Fe26  1  0.12000696  0.62592756  0.92562759  1
  Fe  Fe27  1  0.62592756  0.12000696  0.92562759  1
  Fe  Fe28  1  0.62393220  0.62393220  0.82564068  1
  Fe  Fe29  1  0.62592756  0.62592756  0.92562759  1
  O  O30  1  0.37340162  0.37340162  0.07959447  1
  O  O31  1  0.38625417  0.38625417  0.16824750  1
  O  O32  1  0.37340162  0.85522442  0.07959447  1
  O  O33  1  0.85522442  0.37340162  0.07959447  1
  O  O34  1  0.38495328  0.38495328  0.27722442  1
  O  O35  1  0.40646842  0.86434457  0.17296849  1
  O  O36  1  0.86434457  0.40646842  0.17296849  1
  O  O37  1  0.38571912  0.38571912  0.36856853  1
  O  O38  1  0.38495328  0.84397135  0.27722442  1
  O  O39  1  0.86369857  0.86369857  0.08178086  1
  O  O40  1  0.84397135  0.38495328  0.27722442  1
  O  O41  1  0.86434457  0.86434457  0.17296849  1
  O  O42  1  0.38547331  0.38547331  0.47699601  1
  O  O43  1  0.40753347  0.86564282  0.37223618  1
  O  O44  1  0.86564282  0.40753347  0.37223618  1
  O  O45  1  0.38636997  0.38636997  0.56817802  1
  O  O46  1  0.38547331  0.84407332  0.47699601  1
  O  O47  1  0.86500313  0.86500313  0.28099812  1
  O  O48  1  0.84407332  0.38547331  0.47699601  1
  O  O49  1  0.86564282  0.86564282  0.37223618  1
  O  O50  1  0.38677519  0.38677519  0.67641907  1
  O  O51  1  0.40789893  0.86633700  0.57188541  1
  O  O52  1  0.86633700  0.40789893  0.57188541  1
  O  O53  1  0.38530906  0.38530906  0.76881457  1
  O  O54  1  0.86637092  0.86637092  0.48017745  1
  O  O55  1  0.38677519  0.84435429  0.67641907  1
  O  O56  1  0.84435429  0.38677519  0.67641907  1
  O  O57  1  0.86633700  0.86633700  0.57188541  1
  O  O58  1  0.40683211  0.86494894  0.77265400  1
  O  O59  1  0.38590182  0.38590182  0.87744336  1
  O  O60  1  0.86494894  0.40683211  0.77265400  1
  O  O61  1  0.37822031  0.37822031  0.97306781  1
  O  O62  1  0.86591450  0.86591450  0.68045130  1
  O  O63  1  0.38590182  0.84097957  0.87744336  1
  O  O64  1  0.84097957  0.38590182  0.87744336  1
  O  O65  1  0.86494894  0.86494894  0.77265400  1
  O  O66  1  0.40274849  0.87004181  0.97143358  1
  O  O67  1  0.87004181  0.40274849  0.97143358  1
  O  O68  1  0.86507624  0.86507624  0.88095426  1
  O  O69  1  0.87004181  0.87004181  0.97143358  1
