# generated using pymatgen
data_Lu(P2Rh3)2
_symmetry_space_group_name_H-M   'P 1'
_cell_length_a   3.70898550
_cell_length_b   7.02225497
_cell_length_c   7.02266239
_cell_angle_alpha   120.00417148
_cell_angle_beta   89.99874696
_cell_angle_gamma   90.00093726
_symmetry_Int_Tables_number   1
_chemical_formula_structural   Lu(P2Rh3)2
_chemical_formula_sum   'Lu1 P4 Rh6'
_cell_volume   158.39661440
_cell_formula_units_Z   1
loop_
 _symmetry_equiv_pos_site_id
 _symmetry_equiv_pos_as_xyz
  1  'x, y, z'
loop_
 _atom_site_type_symbol
 _atom_site_label
 _atom_site_symmetry_multiplicity
 _atom_site_fract_x
 _atom_site_fract_y
 _atom_site_fract_z
 _atom_site_occupancy
  Lu  Lu0  1  0.92937679  0.99996142  0.00001141  1
  P  P1  1  0.93113594  0.66660912  0.33333493  1
  P  P2  1  0.43021578  0.62257960  0.81231800  1
  P  P3  1  0.43026711  0.18769316  0.81022328  1
  P  P4  1  0.43021485  0.18979460  0.37745711  1
  Rh  Rh5  1  0.93126931  0.06445849  0.53115576  1
  Rh  Rh6  1  0.93130114  0.46884342  0.53329120  1
  Rh  Rh7  1  0.93126980  0.46668998  0.93551771  1
  Rh  Rh8  1  0.43151218  0.38787451  0.19354855  1
  Rh  Rh9  1  0.43162371  0.80634269  0.19433250  1
  Rh  Rh10  1  0.43151339  0.80575302  0.61210955  1
