# generated using pymatgen
data_Sr7CaMnFe7O24
_symmetry_space_group_name_H-M   'P 1'
_cell_length_a   7.80905971
_cell_length_b   7.80905971
_cell_length_c   7.80905971
_cell_angle_alpha   90.00129251
_cell_angle_beta   90.00129251
_cell_angle_gamma   89.99870749
_symmetry_Int_Tables_number   1
_chemical_formula_structural   Sr7CaMnFe7O24
_chemical_formula_sum   'Sr7 Ca1 Mn1 Fe7 O24'
_cell_volume   476.20749946
_cell_formula_units_Z   1
loop_
 _symmetry_equiv_pos_site_id
 _symmetry_equiv_pos_as_xyz
  1  'x, y, z'
loop_
 _atom_site_type_symbol
 _atom_site_label
 _atom_site_symmetry_multiplicity
 _atom_site_fract_x
 _atom_site_fract_y
 _atom_site_fract_z
 _atom_site_occupancy
  Sr  Sr0  1  0.24983897  0.25018652  0.25016103  1
  Sr  Sr1  1  0.24984430  0.25015778  0.74984222  1
  Sr  Sr2  1  0.24983897  0.74983897  0.74981348  1
  Sr  Sr3  1  0.75015778  0.25015778  0.25015570  1
  Sr  Sr4  1  0.75005003  0.25005003  0.74994997  1
  Sr  Sr5  1  0.75018652  0.74983897  0.25016103  1
  Sr  Sr6  1  0.75015778  0.74984430  0.74984222  1
  Ca  Ca7  1  0.25007796  0.75007796  0.24992204  1
  Mn  Mn8  1  0.00047820  0.50047820  0.49952180  1
  Fe  Fe9  1  0.00049762  0.99949885  0.00050115  1
  Fe  Fe10  1  0.00047822  0.99945654  0.49952178  1
  Fe  Fe11  1  0.00047822  0.50047822  0.00054346  1
  Fe  Fe12  1  0.49953719  0.99953719  0.00046281  1
  Fe  Fe13  1  0.49949885  0.99949885  0.49950238  1
  Fe  Fe14  1  0.49949885  0.50049762  0.00050115  1
  Fe  Fe15  1  0.49945654  0.50047822  0.49952178  1
  O  O16  1  0.24941937  0.99794263  0.00205737  1
  O  O17  1  0.25099177  0.99796492  0.49796718  1
  O  O18  1  0.25099177  0.50203282  0.00203508  1
  O  O19  1  0.24747376  0.50198184  0.49801816  1
  O  O20  1  0.75062371  0.99964217  0.00035783  1
  O  O21  1  0.74897886  0.99965385  0.49960514  1
  O  O22  1  0.74897886  0.50039486  0.00034615  1
  O  O23  1  0.75240656  0.50041660  0.49958340  1
  O  O24  1  0.00039486  0.24897886  0.00034615  1
  O  O25  1  0.00041660  0.25240656  0.49958340  1
  O  O26  1  0.00203282  0.75099177  0.00203508  1
  O  O27  1  0.00198184  0.74747376  0.49801816  1
  O  O28  1  0.49964217  0.25062371  0.00035783  1
  O  O29  1  0.49965385  0.24897886  0.49960514  1
  O  O30  1  0.49794263  0.74941937  0.00205737  1
  O  O31  1  0.49796492  0.75099177  0.49796718  1
  O  O32  1  0.00203282  0.99796492  0.24900823  1
  O  O33  1  0.00039486  0.99965385  0.75102114  1
  O  O34  1  0.00198184  0.50198184  0.25252624  1
  O  O35  1  0.00041660  0.50041660  0.74759344  1
  O  O36  1  0.49794263  0.99794263  0.25058063  1
  O  O37  1  0.49964217  0.99964217  0.74937629  1
  O  O38  1  0.49796492  0.50203282  0.24900823  1
  O  O39  1  0.49965385  0.50039486  0.75102114  1
