# generated using pymatgen
data_Y(Mo3S4)2
_symmetry_space_group_name_H-M   'P 1'
_cell_length_a   6.50632053
_cell_length_b   6.50632053
_cell_length_c   6.50632053
_cell_angle_alpha   89.45938181
_cell_angle_beta   90.54061810
_cell_angle_gamma   90.54061819
_symmetry_Int_Tables_number   1
_chemical_formula_structural   Y(Mo3S4)2
_chemical_formula_sum   'Y1 Mo6 S8'
_cell_volume   275.39035493
_cell_formula_units_Z   1
loop_
 _symmetry_equiv_pos_site_id
 _symmetry_equiv_pos_as_xyz
  1  'x, y, z'
loop_
 _atom_site_type_symbol
 _atom_site_label
 _atom_site_symmetry_multiplicity
 _atom_site_fract_x
 _atom_site_fract_y
 _atom_site_fract_z
 _atom_site_occupancy
  Y  Y0  1  -0.00000000  -0.00000000  -0.00000000  1
  Mo  Mo1  1  0.41997841  0.43988390  0.77645733  1
  Mo  Mo2  1  0.22354267  0.58002159  0.43988390  1
  Mo  Mo3  1  0.56011610  0.77645733  0.58002159  1
  Mo  Mo4  1  0.58002159  0.56011610  0.22354267  1
  Mo  Mo5  1  0.77645733  0.41997841  0.56011610  1
  Mo  Mo6  1  0.43988390  0.22354267  0.41997841  1
  S  S7  1  0.23816858  0.76183142  0.76183142  1
  S  S8  1  0.76183142  0.23816858  0.23816858  1
  S  S9  1  0.36894145  0.87149510  0.24812899  1
  S  S10  1  0.75187101  0.63105855  0.87149510  1
  S  S11  1  0.12850490  0.24812899  0.63105855  1
  S  S12  1  0.63105855  0.12850490  0.75187101  1
  S  S13  1  0.24812899  0.36894145  0.12850490  1
  S  S14  1  0.87149510  0.75187101  0.36894145  1
