# generated using pymatgen
data_NaCr5Se8
_symmetry_space_group_name_H-M   'P 1'
_cell_length_a   3.69299493
_cell_length_b   9.00421679
_cell_length_c   9.63815856
_cell_angle_alpha   104.82565859
_cell_angle_beta   101.04511782
_cell_angle_gamma   90.00000000
_symmetry_Int_Tables_number   1
_chemical_formula_structural   NaCr5Se8
_chemical_formula_sum   'Na1 Cr5 Se8'
_cell_volume   303.67843499
_cell_formula_units_Z   1
loop_
 _symmetry_equiv_pos_site_id
 _symmetry_equiv_pos_as_xyz
  1  'x, y, z'
loop_
 _atom_site_type_symbol
 _atom_site_label
 _atom_site_symmetry_multiplicity
 _atom_site_fract_x
 _atom_site_fract_y
 _atom_site_fract_z
 _atom_site_occupancy
  Na  Na0  1  0.50000000  0.50000000  0.00000000  1
  Cr  Cr1  1  0.00000000  0.00000000  0.00000000  1
  Cr  Cr2  1  0.65791534  0.97834463  0.31583068  1
  Cr  Cr3  1  0.34208466  0.02165537  0.68416932  1
  Cr  Cr4  1  0.70419518  0.33540468  0.40839036  1
  Cr  Cr5  1  0.29580482  0.66459532  0.59160964  1
  Se  Se6  1  0.42580331  0.84147894  0.85160662  1
  Se  Se7  1  0.57419669  0.15852106  0.14839338  1
  Se  Se8  1  0.91511423  0.17728180  0.83022846  1
  Se  Se9  1  0.08488577  0.82271820  0.16977154  1
  Se  Se10  1  0.83083466  0.50922043  0.66166931  1
  Se  Se11  1  0.16916534  0.49077957  0.33833069  1
  Se  Se12  1  0.76096815  0.84236694  0.52193630  1
  Se  Se13  1  0.23903185  0.15763306  0.47806370  1
