# generated using pymatgen
data_TiV3Cu2(PO4)6
_symmetry_space_group_name_H-M   'P 1'
_cell_length_a   8.63560407
_cell_length_b   8.63119891
_cell_length_c   8.63119873
_cell_angle_alpha   60.00000008
_cell_angle_beta   60.01687148
_cell_angle_gamma   60.01687641
_symmetry_Int_Tables_number   1
_chemical_formula_structural   TiV3Cu2(PO4)6
_chemical_formula_sum   'Ti1 V3 Cu2 P6 O24'
_cell_volume   455.02020886
_cell_formula_units_Z   1
loop_
 _symmetry_equiv_pos_site_id
 _symmetry_equiv_pos_as_xyz
  1  'x, y, z'
loop_
 _atom_site_type_symbol
 _atom_site_label
 _atom_site_symmetry_multiplicity
 _atom_site_fract_x
 _atom_site_fract_y
 _atom_site_fract_z
 _atom_site_occupancy
  Ti  Ti0  1  0.57279190  0.14240270  0.14240270  1
  V  V1  1  0.07253022  0.64249026  0.64249026  1
  V  V2  1  0.42807714  0.85730795  0.85730795  1
  V  V3  1  0.92774381  0.35741840  0.35741840  1
  Cu  Cu4  1  0.99718765  0.00093712  0.00093712  1
  Cu  Cu5  1  0.50023515  0.49992162  0.49992162  1
  P  P6  1  0.24908806  0.25003091  0.54096222  1
  P  P7  1  0.24908806  0.95991882  0.25003091  1
  P  P8  1  0.24908806  0.54096222  0.95991882  1
  P  P9  1  0.75082264  0.46145106  0.03943397  1
  P  P10  1  0.75082264  0.03943397  0.74829134  1
  P  P11  1  0.75082264  0.74829134  0.46145106  1
  O  O12  1  0.06900999  0.12303447  0.30282619  1
  O  O13  1  0.06900999  0.50513034  0.12303447  1
  O  O14  1  0.06900999  0.30282619  0.50513034  1
  O  O15  1  0.24554364  0.08232528  0.73120725  1
  O  O16  1  0.42776717  0.19737576  0.37479776  1
  O  O17  1  0.25598210  0.41714805  0.55831312  1
  O  O18  1  0.24554364  0.94092284  0.08232528  1
  O  O19  1  0.25598210  0.76855674  0.41714805  1
  O  O20  1  0.56993364  0.62355497  0.00438655  1
  O  O21  1  0.25598210  0.55831312  0.76855674  1
  O  O22  1  0.75547005  0.27058754  0.05819637  1
  O  O23  1  0.56993364  0.00438655  0.80212483  1
  O  O24  1  0.42776717  0.00005832  0.19737576  1
  O  O25  1  0.24554364  0.73120725  0.94092284  1
  O  O26  1  0.74525607  0.44248651  0.23113956  1
  O  O27  1  0.42776717  0.37479776  0.00005832  1
  O  O28  1  0.74525607  0.23113956  0.58111687  1
  O  O29  1  0.75547005  0.05819637  0.91574604  1
  O  O30  1  0.74525607  0.58111687  0.44248651  1
  O  O31  1  0.56993364  0.80212483  0.62355497  1
  O  O32  1  0.75547005  0.91574604  0.27058754  1
  O  O33  1  0.93160470  0.69484834  0.49674349  1
  O  O34  1  0.93160470  0.49674349  0.87680347  1
  O  O35  1  0.93160470  0.87680347  0.69484834  1
