# generated using pymatgen
data_TiMn2V3(PO4)6
_symmetry_space_group_name_H-M   'P 1'
_cell_length_a   8.66850416
_cell_length_b   8.64477152
_cell_length_c   8.64477118
_cell_angle_alpha   60.00000151
_cell_angle_beta   60.09052428
_cell_angle_gamma   60.09052173
_symmetry_Int_Tables_number   1
_chemical_formula_structural   TiMn2V3(PO4)6
_chemical_formula_sum   'Ti1 Mn2 V3 P6 O24'
_cell_volume   458.70034142
_cell_formula_units_Z   1
loop_
 _symmetry_equiv_pos_site_id
 _symmetry_equiv_pos_as_xyz
  1  'x, y, z'
loop_
 _atom_site_type_symbol
 _atom_site_label
 _atom_site_symmetry_multiplicity
 _atom_site_fract_x
 _atom_site_fract_y
 _atom_site_fract_z
 _atom_site_occupancy
  Ti  Ti0  1  0.56313058  0.14562314  0.14562314  1
  Mn  Mn1  1  0.00185186  0.99938305  0.99938305  1
  Mn  Mn2  1  0.50020876  0.49993075  0.49993075  1
  V  V3  1  0.06809754  0.64396749  0.64396749  1
  V  V4  1  0.43488677  0.85503741  0.85503741  1
  V  V5  1  0.92997648  0.35667451  0.35667451  1
  P  P6  1  0.24870301  0.25013184  0.54274305  1
  P  P7  1  0.24870301  0.95842309  0.25013184  1
  P  P8  1  0.24870301  0.54274305  0.95842309  1
  P  P9  1  0.75045486  0.45761950  0.04171060  1
  P  P10  1  0.75045486  0.04171060  0.75021504  1
  P  P11  1  0.75045486  0.75021504  0.45761950  1
  O  O12  1  0.07016951  0.11881571  0.30557042  1
  O  O13  1  0.07016951  0.50544437  0.11881571  1
  O  O14  1  0.07016951  0.30557042  0.50544437  1
  O  O15  1  0.24004098  0.08416858  0.73435474  1
  O  O16  1  0.42748941  0.19285809  0.37784638  1
  O  O17  1  0.26512284  0.41377895  0.55553613  1
  O  O18  1  0.24004098  0.94143570  0.08416858  1
  O  O19  1  0.26512284  0.76556208  0.41377895  1
  O  O20  1  0.57019682  0.61809237  0.00584276  1
  O  O21  1  0.26512284  0.55553613  0.76556208  1
  O  O22  1  0.75935887  0.26427223  0.05972341  1
  O  O23  1  0.57019682  0.00584276  0.80586805  1
  O  O24  1  0.42748941  0.00180712  0.19285809  1
  O  O25  1  0.24004098  0.73435474  0.94143570  1
  O  O26  1  0.73853697  0.43903628  0.23610248  1
  O  O27  1  0.42748941  0.37784638  0.00180712  1
  O  O28  1  0.73853697  0.23610248  0.58632427  1
  O  O29  1  0.75935887  0.05972341  0.91664550  1
  O  O30  1  0.73853697  0.58632427  0.43903628  1
  O  O31  1  0.57019682  0.80586805  0.61809237  1
  O  O32  1  0.75935887  0.91664550  0.26427223  1
  O  O33  1  0.93054307  0.69508187  0.49272454  1
  O  O34  1  0.93054307  0.49272454  0.88164952  1
  O  O35  1  0.93054307  0.88164952  0.69508187  1
