# generated using pymatgen
data_LiFeP2O7
_symmetry_space_group_name_H-M   'P 1'
_cell_length_a   7.18218928
_cell_length_b   8.24163770
_cell_length_c   9.71731559
_cell_angle_alpha   89.99330514
_cell_angle_beta   111.00931806
_cell_angle_gamma   90.00348437
_symmetry_Int_Tables_number   1
_chemical_formula_structural   LiFeP2O7
_chemical_formula_sum   'Li4 Fe4 P8 O28'
_cell_volume   536.95920192
_cell_formula_units_Z   4
loop_
 _symmetry_equiv_pos_site_id
 _symmetry_equiv_pos_as_xyz
  1  'x, y, z'
loop_
 _atom_site_type_symbol
 _atom_site_label
 _atom_site_symmetry_multiplicity
 _atom_site_fract_x
 _atom_site_fract_y
 _atom_site_fract_z
 _atom_site_occupancy
  Li  Li0  1  0.32951003  0.11395755  0.75038946  1
  Li  Li1  1  0.67051877  0.88601792  0.24964902  1
  Li  Li2  1  0.67051410  0.61401378  0.74968599  1
  Li  Li3  1  0.32948950  0.38600669  0.25037114  1
  Fe  Fe4  1  0.73562063  0.50139206  0.24882450  1
  Fe  Fe5  1  0.73548451  0.99863733  0.74876609  1
  Fe  Fe6  1  0.26446814  0.00138887  0.25114765  1
  Fe  Fe7  1  0.26436385  0.49859461  0.75114745  1
  P  P8  1  0.68520085  0.30730604  0.94372161  1
  P  P9  1  0.31483713  0.69267106  0.05638077  1
  P  P10  1  0.68521001  0.19268705  0.44361311  1
  P  P11  1  0.90815447  0.73087827  0.55186350  1
  P  P12  1  0.09179081  0.23084642  0.94813984  1
  P  P13  1  0.09182460  0.26911433  0.44807877  1
  P  P14  1  0.31475926  0.80732686  0.55629477  1
  P  P15  1  0.90821771  0.76915661  0.05191606  1
  O  O16  1  0.09577155  0.65653153  0.06096378  1
  O  O17  1  0.90427237  0.15648472  0.43907001  1
  O  O18  1  0.78375093  0.66554053  0.11590659  1
  O  O19  1  0.98527505  0.92324442  0.14257206  1
  O  O20  1  0.01470135  0.07675182  0.85746030  1
  O  O21  1  0.21628163  0.33448222  0.88411720  1
  O  O22  1  0.09571116  0.84350777  0.56088040  1
  O  O23  1  0.01481094  0.42319889  0.35743008  1
  O  O24  1  0.30404345  0.68015813  0.89754122  1
  O  O25  1  0.21038819  0.30112554  0.61192571  1
  O  O26  1  0.21631452  0.16549162  0.38409983  1
  O  O27  1  0.37723059  0.86340831  0.12095809  1
  O  O28  1  0.37714282  0.63660435  0.62092959  1
  O  O29  1  0.30402801  0.81985242  0.39751175  1
  O  O30  1  0.21038503  0.19883508  0.11192303  1
  O  O31  1  0.69597807  0.31979011  0.10248996  1
  O  O32  1  0.43896174  0.94043283  0.65942818  1
  O  O33  1  0.62281294  0.13655994  0.87908460  1
  O  O34  1  0.98517884  0.57677673  0.64255325  1
  O  O35  1  0.56102712  0.05957326  0.34052357  1
  O  O36  1  0.43901229  0.55960157  0.15950174  1
  O  O37  1  0.78963444  0.80119761  0.88807772  1
  O  O38  1  0.69595223  0.18019714  0.60242994  1
  O  O39  1  0.62283480  0.36339951  0.37900953  1
  O  O40  1  0.90426427  0.34347869  0.93913203  1
  O  O41  1  0.78367144  0.83450587  0.61586522  1
  O  O42  1  0.78961348  0.69886665  0.38806569  1
  O  O43  1  0.56098339  0.44040230  0.84055820  1
