# generated using pymatgen
data_HoCo4B
_symmetry_space_group_name_H-M   'P 1'
_cell_length_a   4.98607721
_cell_length_b   4.99059338
_cell_length_c   6.85409539
_cell_angle_alpha   90.00000000
_cell_angle_beta   90.00000000
_cell_angle_gamma   119.97006442
_symmetry_Int_Tables_number   1
_chemical_formula_structural   HoCo4B
_chemical_formula_sum   'Ho2 Co8 B2'
_cell_volume   147.74843452
_cell_formula_units_Z   2
loop_
 _symmetry_equiv_pos_site_id
 _symmetry_equiv_pos_as_xyz
  1  'x, y, z'
loop_
 _atom_site_type_symbol
 _atom_site_label
 _atom_site_symmetry_multiplicity
 _atom_site_fract_x
 _atom_site_fract_y
 _atom_site_fract_z
 _atom_site_occupancy
  Ho  Ho0  1  0.99997955  0.00000000  0.50000000  1
  Ho  Ho1  1  0.99998844  0.00000000  -0.00000000  1
  Co  Co2  1  0.49999493  0.00000000  0.21222295  1
  Co  Co3  1  0.49998808  0.50000487  0.21214253  1
  Co  Co4  1  0.99998321  0.49999513  0.21214253  1
  Co  Co5  1  0.49999493  0.00000000  0.78777705  1
  Co  Co6  1  0.49998808  0.50000487  0.78785747  1
  Co  Co7  1  0.99998321  0.49999513  0.78785747  1
  Co  Co8  1  0.33320855  0.66648143  0.50000000  1
  Co  Co9  1  0.66672712  0.33351857  0.50000000  1
  B  B10  1  0.33324692  0.66652994  -0.00000000  1
  B  B11  1  0.66671698  0.33347006  -0.00000000  1
