# generated using pymatgen
data_Lu(FeSn)6
_symmetry_space_group_name_H-M   'P 1'
_cell_length_a   5.41332027
_cell_length_b   5.41246730
_cell_length_c   8.93780567
_cell_angle_alpha   90.00000000
_cell_angle_beta   90.00000000
_cell_angle_gamma   120.00520777
_symmetry_Int_Tables_number   1
_chemical_formula_structural   Lu(FeSn)6
_chemical_formula_sum   'Lu1 Fe6 Sn6'
_cell_volume   226.77634658
_cell_formula_units_Z   1
loop_
 _symmetry_equiv_pos_site_id
 _symmetry_equiv_pos_as_xyz
  1  'x, y, z'
loop_
 _atom_site_type_symbol
 _atom_site_label
 _atom_site_symmetry_multiplicity
 _atom_site_fract_x
 _atom_site_fract_y
 _atom_site_fract_z
 _atom_site_occupancy
  Lu  Lu0  1  0.99996919  0.00000000  -0.00000000  1
  Fe  Fe1  1  0.50000360  0.00000000  0.24473159  1
  Fe  Fe2  1  0.49999506  0.50000136  0.24475887  1
  Fe  Fe3  1  0.99999370  0.49999864  0.24475887  1
  Fe  Fe4  1  0.50000360  0.00000000  0.75526841  1
  Fe  Fe5  1  0.49999506  0.50000136  0.75524113  1
  Fe  Fe6  1  0.99999370  0.49999864  0.75524113  1
  Sn  Sn7  1  0.33326088  0.66657760  -0.00000000  1
  Sn  Sn8  1  0.66668328  0.33342240  -0.00000000  1
  Sn  Sn9  1  0.33328784  0.66665810  0.50000000  1
  Sn  Sn10  1  0.66662974  0.33334190  0.50000000  1
  Sn  Sn11  1  0.99999218  -0.00000000  0.33638692  1
  Sn  Sn12  1  0.99999218  -0.00000000  0.66361308  1
