# generated using pymatgen
data_Y6PdBr10
_symmetry_space_group_name_H-M   'P 1'
_cell_length_a   7.36483035
_cell_length_b   9.23828026
_cell_length_c   9.27909127
_cell_angle_alpha   108.18556863
_cell_angle_beta   97.03675633
_cell_angle_gamma   105.39481921
_symmetry_Int_Tables_number   1
_chemical_formula_structural   Y6PdBr10
_chemical_formula_sum   'Y6 Pd1 Br10'
_cell_volume   563.55735116
_cell_formula_units_Z   1
loop_
 _symmetry_equiv_pos_site_id
 _symmetry_equiv_pos_as_xyz
  1  'x, y, z'
loop_
 _atom_site_type_symbol
 _atom_site_label
 _atom_site_symmetry_multiplicity
 _atom_site_fract_x
 _atom_site_fract_y
 _atom_site_fract_z
 _atom_site_occupancy
  Y  Y0  1  0.36576656  0.13848809  0.18070389  1
  Y  Y1  1  0.63423344  0.86151191  0.81929611  1
  Y  Y2  1  0.87478055  0.95558042  0.25046819  1
  Y  Y3  1  0.12521945  0.04441958  0.74953181  1
  Y  Y4  1  0.02681477  0.69663998  0.90391633  1
  Y  Y5  1  0.97318523  0.30336002  0.09608367  1
  Pd  Pd6  1  0.00000000  0.00000000  0.00000000  1
  Br  Br7  1  0.91418323  0.62897974  0.17358298  1
  Br  Br8  1  0.08581677  0.37102026  0.82641702  1
  Br  Br9  1  0.25454401  0.08515400  0.46165683  1
  Br  Br10  1  0.74545599  0.91484600  0.53834317  1
  Br  Br11  1  0.45197401  0.82333874  0.08607359  1
  Br  Br12  1  0.54802599  0.17666126  0.91392641  1
  Br  Br13  1  0.35804333  0.45825801  0.27431551  1
  Br  Br14  1  0.64195667  0.54174199  0.72568449  1
  Br  Br15  1  0.78694075  0.25996957  0.34964959  1
  Br  Br16  1  0.21305925  0.74003043  0.65035041  1
