# generated using pymatgen
data_CsTi5Se8
_symmetry_space_group_name_H-M   'P 1'
_cell_length_a   3.74860675
_cell_length_b   9.28065545
_cell_length_c   9.70354643
_cell_angle_alpha   104.45706076
_cell_angle_beta   101.13705336
_cell_angle_gamma   90.00000000
_symmetry_Int_Tables_number   1
_chemical_formula_structural   CsTi5Se8
_chemical_formula_sum   'Cs1 Ti5 Se8'
_cell_volume   320.32283542
_cell_formula_units_Z   1
loop_
 _symmetry_equiv_pos_site_id
 _symmetry_equiv_pos_as_xyz
  1  'x, y, z'
loop_
 _atom_site_type_symbol
 _atom_site_label
 _atom_site_symmetry_multiplicity
 _atom_site_fract_x
 _atom_site_fract_y
 _atom_site_fract_z
 _atom_site_occupancy
  Cs  Cs0  1  0.50000000  0.50000000  0.00000000  1
  Ti  Ti1  1  -0.00000000  0.00000000  0.00000000  1
  Ti  Ti2  1  0.65876381  0.00672165  0.31752763  1
  Ti  Ti3  1  0.34123619  0.99327835  0.68247237  1
  Ti  Ti4  1  0.70972646  0.34314750  0.41945292  1
  Ti  Ti5  1  0.29027354  0.65685250  0.58054708  1
  Se  Se6  1  0.42559872  0.82845793  0.85119745  1
  Se  Se7  1  0.57440128  0.17154207  0.14880255  1
  Se  Se8  1  0.90927618  0.16404066  0.81855236  1
  Se  Se9  1  0.09072382  0.83595934  0.18144764  1
  Se  Se10  1  0.83609577  0.50946966  0.67219155  1
  Se  Se11  1  0.16390423  0.49053034  0.32780845  1
  Se  Se12  1  0.75773467  0.83293534  0.51546934  1
  Se  Se13  1  0.24226533  0.16706466  0.48453066  1
