# generated using pymatgen
data_RbLaMnWO6
_symmetry_space_group_name_H-M   'P 1'
_cell_length_a   5.76542111
_cell_length_b   5.78849798
_cell_length_c   8.38668301
_cell_angle_alpha   90.00000000
_cell_angle_beta   90.52848336
_cell_angle_gamma   90.00000000
_symmetry_Int_Tables_number   1
_chemical_formula_structural   RbLaMnWO6
_chemical_formula_sum   'Rb2 La2 Mn2 W2 O12'
_cell_volume   279.87794303
_cell_formula_units_Z   2
loop_
 _symmetry_equiv_pos_site_id
 _symmetry_equiv_pos_as_xyz
  1  'x, y, z'
loop_
 _atom_site_type_symbol
 _atom_site_label
 _atom_site_symmetry_multiplicity
 _atom_site_fract_x
 _atom_site_fract_y
 _atom_site_fract_z
 _atom_site_occupancy
  Rb  Rb0  1  0.24356022  0.76210567  0.00064930  1
  Rb  Rb1  1  0.75643978  0.26210567  0.99935070  1
  La  La2  1  0.24540751  0.80435554  0.49959602  1
  La  La3  1  0.75459249  0.30435554  0.50040398  1
  Mn  Mn4  1  0.74595591  0.77481719  0.24964030  1
  Mn  Mn5  1  0.25404409  0.27481719  0.75035970  1
  W  W6  1  0.75760258  0.76920993  0.74470672  1
  W  W7  1  0.24239742  0.26920993  0.25529328  1
  O  O8  1  0.53609728  0.02130735  0.69150576  1
  O  O9  1  0.46390272  0.52130735  0.30849424  1
  O  O10  1  0.50440122  0.05269995  0.30903075  1
  O  O11  1  0.49559878  0.55269995  0.69096925  1
  O  O12  1  0.98682596  0.48043878  0.25637261  1
  O  O13  1  0.01317404  0.98043878  0.74362739  1
  O  O14  1  0.95989913  0.50137307  0.74658146  1
  O  O15  1  0.04010087  0.00137307  0.25341854  1
  O  O16  1  0.82117786  0.74721157  0.50393306  1
  O  O17  1  0.17882214  0.24721157  0.49606694  1
  O  O18  1  0.71937014  0.76987095  0.96669883  1
  O  O19  1  0.28062986  0.26987095  0.03330117  1
