# generated using pymatgen
data_Ba2Cu(SBr)2
_symmetry_space_group_name_H-M   'P 1'
_cell_length_a   4.69432988
_cell_length_b   4.69432127
_cell_length_c   9.57808737
_cell_angle_alpha   104.24114587
_cell_angle_beta   104.24117232
_cell_angle_gamma   89.77829026
_symmetry_Int_Tables_number   1
_chemical_formula_structural   Ba2Cu(SBr)2
_chemical_formula_sum   'Ba2 Cu1 S2 Br2'
_cell_volume   197.93509776
_cell_formula_units_Z   1
loop_
 _symmetry_equiv_pos_site_id
 _symmetry_equiv_pos_as_xyz
  1  'x, y, z'
loop_
 _atom_site_type_symbol
 _atom_site_label
 _atom_site_symmetry_multiplicity
 _atom_site_fract_x
 _atom_site_fract_y
 _atom_site_fract_z
 _atom_site_occupancy
  Ba  Ba0  1  0.62049257  0.62049257  0.24098514  1
  Ba  Ba1  1  0.37950743  0.37950743  0.75901486  1
  Cu  Cu2  1  -0.00000000  0.00000000  0.00000000  1
  S  S3  1  0.50000000  0.00000000  0.00000000  1
  S  S4  1  -0.00000000  0.50000000  0.00000000  1
  Br  Br5  1  0.81693213  0.81693213  0.63386526  1
  Br  Br6  1  0.18306787  0.18306787  0.36613474  1
