# generated using pymatgen
data_Cs2Hg3H2I8O
_symmetry_space_group_name_H-M   'P 1'
_cell_length_a   7.79957500
_cell_length_b   8.09170211
_cell_length_c   11.99197808
_cell_angle_alpha   84.20169973
_cell_angle_beta   71.02232668
_cell_angle_gamma   71.90094424
_symmetry_Int_Tables_number   1
_chemical_formula_structural   Cs2Hg3H2I8O
_chemical_formula_sum   'Cs2 Hg3 H2 I8 O1'
_cell_volume   680.28610384
_cell_formula_units_Z   1
loop_
 _symmetry_equiv_pos_site_id
 _symmetry_equiv_pos_as_xyz
  1  'x, y, z'
loop_
 _atom_site_type_symbol
 _atom_site_label
 _atom_site_symmetry_multiplicity
 _atom_site_fract_x
 _atom_site_fract_y
 _atom_site_fract_z
 _atom_site_occupancy
  Cs  Cs0  1  0.30268334  0.71053801  0.24856075  1
  Cs  Cs1  1  0.55124409  0.71053801  0.75143925  1
  Hg  Hg2  1  0.87512197  0.34164955  0.38882896  1
  Hg  Hg3  1  0.26395093  0.34164955  0.61117104  1
  Hg  Hg4  1  0.18048644  0.26784801  -0.00000000  1
  H  H5  1  0.72771167  0.49237926  0.00000000  1
  H  H6  1  0.58779660  0.39360381  -0.00000000  1
  I  I7  1  0.06514956  0.62537953  0.00000000  1
  I  I8  1  0.26689057  0.21000791  0.39009729  1
  I  I9  1  0.65698786  0.21000791  0.60990271  1
  I  I10  1  0.72864741  0.69890213  0.38983787  1
  I  I11  1  0.11848528  0.69890213  0.61016213  1
  I  I12  1  0.88192661  0.15622384  0.19709462  1
  I  I13  1  0.07902123  0.15622384  0.80290538  1
  I  I14  1  0.52678825  0.04244115  0.00000000  1
  O  O15  1  0.59756818  0.51122538  0.00000000  1
