# generated using pymatgen
data_Sr6Nb7O21
_symmetry_space_group_name_H-M   'P 1'
_cell_length_a   28.49498147
_cell_length_b   12.87652494
_cell_length_c   9.09879911
_cell_angle_alpha   31.96915924
_cell_angle_beta   26.57633516
_cell_angle_gamma   18.42929783
_symmetry_Int_Tables_number   1
_chemical_formula_structural   Sr6Nb7O21
_chemical_formula_sum   'Sr6 Nb7 O21'
_cell_volume   472.18089788
_cell_formula_units_Z   1
loop_
 _symmetry_equiv_pos_site_id
 _symmetry_equiv_pos_as_xyz
  1  'x, y, z'
loop_
 _atom_site_type_symbol
 _atom_site_label
 _atom_site_symmetry_multiplicity
 _atom_site_fract_x
 _atom_site_fract_y
 _atom_site_fract_z
 _atom_site_occupancy
  Sr  Sr0  1  0.14228808  0.00015080  0.99836746  1
  Sr  Sr1  1  0.28309442  0.00163254  0.00679513  1
  Sr  Sr2  1  0.42538249  0.00679513  0.00015080  1
  Sr  Sr3  1  0.57461751  0.99320487  -0.00015080  1
  Sr  Sr4  1  0.71690558  0.99836746  0.99320487  1
  Sr  Sr5  1  0.85771192  -0.00015080  0.00163254  1
  Nb  Nb6  1  0.14182861  0.50308488  0.49551596  1
  Nb  Nb7  1  0.28225806  0.50448404  0.50691217  1
  Nb  Nb8  1  0.42408667  0.50691217  0.50308487  1
  Nb  Nb9  1  0.57591333  0.49308783  0.49691513  1
  Nb  Nb10  1  0.71774194  0.49551596  0.49308783  1
  Nb  Nb11  1  0.85817139  0.49691512  0.50448404  1
  Nb  Nb12  1  -0.00000000  0.50000000  0.50000000  1
  O  O13  1  0.14661374  0.48691340  0.00019751  1
  O  O14  1  0.07304786  0.48743242  0.51308660  1
  O  O15  1  0.29306754  0.48709473  0.99969890  1
  O  O16  1  0.21374680  0.50067241  0.50061309  1
  O  O17  1  0.42877811  0.49938691  0.00053095  1
  O  O18  1  0.07292971  0.00030110  0.48784322  1
  O  O19  1  0.36599725  0.48784322  0.48709473  1
  O  O20  1  0.57122189  0.50061309  0.99946905  1
  O  O21  1  0.21966160  0.00019751  0.48743242  1
  O  O22  1  0.50000000  0.50000000  0.50000000  1
  O  O23  1  0.35747508  0.99946905  0.49932759  1
  O  O24  1  0.70693246  0.51290527  0.00030110  1
  O  O25  1  0.63400275  0.51215678  0.51290527  1
  O  O26  1  0.50000000  0.00000000  0.50000000  1
  O  O27  1  0.85338626  0.51308660  -0.00019751  1
  O  O28  1  0.78625320  0.49932759  0.49938691  1
  O  O29  1  -0.00000000  0.50000000  -0.00000000  1
  O  O30  1  0.64252492  0.00053095  0.50067241  1
  O  O31  1  0.92695214  0.51256758  0.48691340  1
  O  O32  1  0.78033840  -0.00019751  0.51256758  1
  O  O33  1  0.92707029  0.99969890  0.51215678  1
