# generated using pymatgen
data_LuNiO3
_symmetry_space_group_name_H-M   'P 1'
_cell_length_a   5.13520052
_cell_length_b   5.52408734
_cell_length_c   7.38460571
_cell_angle_alpha   90.00000000
_cell_angle_beta   90.21348402
_cell_angle_gamma   90.00000000
_symmetry_Int_Tables_number   1
_chemical_formula_structural   LuNiO3
_chemical_formula_sum   'Lu4 Ni4 O12'
_cell_volume   209.47984297
_cell_formula_units_Z   4
loop_
 _symmetry_equiv_pos_site_id
 _symmetry_equiv_pos_as_xyz
  1  'x, y, z'
loop_
 _atom_site_type_symbol
 _atom_site_label
 _atom_site_symmetry_multiplicity
 _atom_site_fract_x
 _atom_site_fract_y
 _atom_site_fract_z
 _atom_site_occupancy
  Lu  Lu0  1  0.52216784  0.57899119  0.24873451  1
  Lu  Lu1  1  0.02216784  0.92100881  0.74873451  1
  Lu  Lu2  1  0.47783216  0.42100881  0.75126549  1
  Lu  Lu3  1  0.97783216  0.07899119  0.25126549  1
  Ni  Ni4  1  -0.00000000  0.50000000  0.50000000  1
  Ni  Ni5  1  0.50000000  -0.00000000  -0.00000000  1
  Ni  Ni6  1  -0.00000000  0.50000000  -0.00000000  1
  Ni  Ni7  1  0.50000000  0.00000000  0.50000000  1
  O  O8  1  0.38427997  0.95952378  0.25528116  1
  O  O9  1  0.88427997  0.54047622  0.75528116  1
  O  O10  1  0.61572003  0.04047622  0.74471884  1
  O  O11  1  0.11572003  0.45952378  0.24471884  1
  O  O12  1  0.80539283  0.81386321  0.44485088  1
  O  O13  1  0.30539283  0.68613679  0.94485088  1
  O  O14  1  0.19460717  0.18613679  0.55514912  1
  O  O15  1  0.69460717  0.31386321  0.05514912  1
  O  O16  1  0.31615615  0.69851848  0.55961633  1
  O  O17  1  0.81615615  0.80148152  0.05961633  1
  O  O18  1  0.68384385  0.30148152  0.44038367  1
  O  O19  1  0.18384385  0.19851848  0.94038367  1
