# generated using pymatgen
data_Na5MnO5
_symmetry_space_group_name_H-M   'P 1'
_cell_length_a   5.94408146
_cell_length_b   5.94408146
_cell_length_c   10.09633845
_cell_angle_alpha   79.96635422
_cell_angle_beta   100.03364578
_cell_angle_gamma   63.29139044
_symmetry_Int_Tables_number   1
_chemical_formula_structural   Na5MnO5
_chemical_formula_sum   'Na10 Mn2 O10'
_cell_volume   300.58086068
_cell_formula_units_Z   2
loop_
 _symmetry_equiv_pos_site_id
 _symmetry_equiv_pos_as_xyz
  1  'x, y, z'
loop_
 _atom_site_type_symbol
 _atom_site_label
 _atom_site_symmetry_multiplicity
 _atom_site_fract_x
 _atom_site_fract_y
 _atom_site_fract_z
 _atom_site_occupancy
  Na  Na0  1  0.25162123  0.93777546  0.58019847  1
  Na  Na1  1  0.50465353  0.77358783  0.94493775  1
  Na  Na2  1  0.41186261  0.41186261  0.75000000  1
  Na  Na3  1  0.06222454  0.74837877  0.08019847  1
  Na  Na4  1  0.22641217  0.49534647  0.44493775  1
  Na  Na5  1  0.77358783  0.50465353  0.55506225  1
  Na  Na6  1  0.93777546  0.25162123  0.91980153  1
  Na  Na7  1  0.58813739  0.58813739  0.25000000  1
  Na  Na8  1  0.49534647  0.22641217  0.05506225  1
  Na  Na9  1  0.74837877  0.06222454  0.41980153  1
  Mn  Mn10  1  0.84520623  0.84520623  0.75000000  1
  Mn  Mn11  1  0.15479377  0.15479377  0.25000000  1
  O  O12  1  0.16566065  0.67849411  0.87249583  1
  O  O13  1  0.00800609  0.70332117  0.60686185  1
  O  O14  1  0.32150589  0.83433935  0.37249583  1
  O  O15  1  0.29667883  0.99199391  0.10686185  1
  O  O16  1  0.66929740  0.66929740  0.75000000  1
  O  O17  1  0.33070260  0.33070260  0.25000000  1
  O  O18  1  0.70332117  0.00800609  0.89313815  1
  O  O19  1  0.67849411  0.16566065  0.62750417  1
  O  O20  1  0.99199391  0.29667883  0.39313815  1
  O  O21  1  0.83433935  0.32150589  0.12750417  1
