# generated using pymatgen
data_P2Pb3O8
_symmetry_space_group_name_H-M   'P 1'
_cell_length_a   9.94363512
_cell_length_b   19.88931619
_cell_length_c   7.38907338
_cell_angle_alpha   90.00000000
_cell_angle_beta   90.00000000
_cell_angle_gamma   120.02420772
_symmetry_Int_Tables_number   1
_chemical_formula_structural   P2Pb3O8
_chemical_formula_sum   'P12 Pb18 O48'
_cell_volume   1265.25963195
_cell_formula_units_Z   6
loop_
 _symmetry_equiv_pos_site_id
 _symmetry_equiv_pos_as_xyz
  1  'x, y, z'
loop_
 _atom_site_type_symbol
 _atom_site_label
 _atom_site_symmetry_multiplicity
 _atom_site_fract_x
 _atom_site_fract_y
 _atom_site_fract_z
 _atom_site_occupancy
  P  P0  1  0.01809610  0.81206993  0.74862104  1
  P  P1  1  0.60575226  0.99087694  0.74834621  1
  P  P2  1  0.37588337  0.69708277  0.74860423  1
  P  P3  1  0.01809610  0.31206993  0.75137896  1
  P  P4  1  0.62929194  0.80399626  0.25451071  1
  P  P5  1  0.39205125  0.51058096  0.24572589  1
  P  P6  1  0.60575226  0.49087694  0.75165379  1
  P  P7  1  0.37588337  0.19708277  0.75139577  1
  P  P8  1  0.97902637  0.68540750  0.25366807  1
  P  P9  1  0.62929194  0.30399626  0.24548929  1
  P  P10  1  0.39205125  0.01058096  0.25427411  1
  P  P11  1  0.97902637  0.18540750  0.24633193  1
  Pb  Pb12  1  0.00880288  0.87239520  0.24211604  1
  Pb  Pb13  1  0.33337200  0.83320442  0.48395940  1
  Pb  Pb14  1  0.25544631  0.63208791  0.23777790  1
  Pb  Pb15  1  0.00880288  0.37239520  0.25788396  1
  Pb  Pb16  1  0.73600554  0.99557302  0.23761175  1
  Pb  Pb17  1  0.25394937  0.49599392  0.74090219  1
  Pb  Pb18  1  0.73800582  0.87295740  0.75646701  1
  Pb  Pb19  1  0.66981317  0.66814060  0.50280291  1
  Pb  Pb20  1  0.33337200  0.33320442  0.01604060  1
  Pb  Pb21  1  0.66346553  0.66531257  0.99598797  1
  Pb  Pb22  1  0.25544631  0.13208791  0.26222210  1
  Pb  Pb23  1  0.73600554  0.49557302  0.26238825  1
  Pb  Pb24  1  0.25394937  0.99599392  0.75909781  1
  Pb  Pb25  1  0.00780994  0.63104799  0.75852177  1
  Pb  Pb26  1  0.73800582  0.37295740  0.74353299  1
  Pb  Pb27  1  0.66346553  0.16531257  0.50401203  1
  Pb  Pb28  1  0.66981317  0.16814060  0.99719709  1
  Pb  Pb29  1  0.00780994  0.13104799  0.74147823  1
  O  O30  1  0.07823143  0.86659346  0.57982447  1
  O  O31  1  0.06753175  0.86681952  0.91583488  1
  O  O32  1  0.09407202  0.76007508  0.74598062  1
  O  O33  1  0.30980200  0.92134386  0.26308915  1
  O  O34  1  0.15750480  0.73359745  0.26220416  1
  O  O35  1  0.42566886  0.95288158  0.74633154  1
  O  O36  1  0.26681183  0.67230069  0.58021209  1
  O  O37  1  0.26646644  0.66738296  0.91606078  1
  O  O38  1  0.53258353  0.84483459  0.26239694  1
  O  O39  1  0.47990416  0.78712166  0.74639170  1
  O  O40  1  0.65513854  0.96087323  0.58018031  1
  O  O41  1  0.66526521  0.96604216  0.91590552  1
  O  O42  1  0.07823143  0.36659346  0.92017553  1
  O  O43  1  0.06753175  0.36681952  0.58416512  1
  O  O44  1  0.35372079  0.54618009  0.07803603  1
  O  O45  1  0.34457982  0.53936153  0.41742970  1
  O  O46  1  0.52132677  0.71244388  0.25118158  1
  O  O47  1  0.48027918  0.65845443  0.74651562  1
  O  O48  1  0.09407202  0.26007508  0.75401938  1
  O  O49  1  0.30980200  0.42134386  0.23691085  1
  O  O50  1  0.73384570  0.82737689  0.08174833  1
  O  O51  1  0.73934053  0.82360330  0.42113385  1
  O  O52  1  0.15750480  0.23359745  0.23779584  1
  O  O53  1  0.42566886  0.45288158  0.75366846  1
  O  O54  1  0.57507601  0.54804779  0.24792861  1
  O  O55  1  0.83641914  0.75986127  0.74702576  1
  O  O56  1  0.26646644  0.16738296  0.58393922  1
  O  O57  1  0.26681183  0.17230069  0.91978791  1
  O  O58  1  0.68312360  0.58172388  0.75492287  1
  O  O59  1  0.90396754  0.73939223  0.25027654  1
  O  O60  1  0.53258353  0.34483459  0.23760306  1
  O  O61  1  0.47990416  0.28712166  0.75360830  1
  O  O62  1  0.66526521  0.46604216  0.58409448  1
  O  O63  1  0.65513854  0.46087323  0.91981969  1
  O  O64  1  0.92111680  0.63284289  0.08187865  1
  O  O65  1  0.90811870  0.63078520  0.42141489  1
  O  O66  1  0.34457982  0.03936153  0.08257030  1
  O  O67  1  0.35372079  0.04618009  0.42196397  1
  O  O68  1  0.52132677  0.21244388  0.24881842  1
  O  O69  1  0.48027918  0.15845443  0.75348438  1
  O  O70  1  0.73934053  0.32360330  0.07886615  1
  O  O71  1  0.73384570  0.32737689  0.41825167  1
  O  O72  1  0.57507601  0.04804779  0.25207139  1
  O  O73  1  0.83641914  0.25986127  0.75297424  1
  O  O74  1  0.68312360  0.08172388  0.74507713  1
  O  O75  1  0.90396754  0.23939223  0.24972346  1
  O  O76  1  0.90811870  0.13078520  0.07858511  1
  O  O77  1  0.92111680  0.13284289  0.41812135  1
