# generated using pymatgen
data_Sr12Y6CuRu5O36
_symmetry_space_group_name_H-M   'P 1'
_cell_length_a   17.51616755
_cell_length_b   13.15882440
_cell_length_c   10.15130914
_cell_angle_alpha   58.75317317
_cell_angle_beta   90.31983326
_cell_angle_gamma   63.72830563
_symmetry_Int_Tables_number   1
_chemical_formula_structural   Sr12Y6CuRu5O36
_chemical_formula_sum   'Sr24 Y12 Cu2 Ru10 O72'
_cell_volume   1707.26523866
_cell_formula_units_Z   2
loop_
 _symmetry_equiv_pos_site_id
 _symmetry_equiv_pos_as_xyz
  1  'x, y, z'
loop_
 _atom_site_type_symbol
 _atom_site_label
 _atom_site_symmetry_multiplicity
 _atom_site_fract_x
 _atom_site_fract_y
 _atom_site_fract_z
 _atom_site_occupancy
  Sr  Sr0  1  0.03475842  0.39631500  0.74301877  1
  Sr  Sr1  1  0.13376155  0.10783532  0.24817325  1
  Sr  Sr2  1  0.21174977  0.35848236  0.25435386  1
  Sr  Sr3  1  0.04855990  0.84589267  0.26086820  1
  Sr  Sr4  1  0.28477310  0.15410733  0.73913180  1
  Sr  Sr5  1  0.12158423  0.64151764  0.74564614  1
  Sr  Sr6  1  0.36177903  0.39596842  0.74403986  1
  Sr  Sr7  1  0.19957145  0.89216468  0.75182675  1
  Sr  Sr8  1  0.46639234  0.10685794  0.24957828  1
  Sr  Sr9  1  0.29857558  0.60368500  0.25698123  1
  Sr  Sr10  1  0.54644930  0.36113681  0.24392675  1
  Sr  Sr11  1  0.37885244  0.85743349  0.25051773  1
  Sr  Sr12  1  0.62189599  0.14347140  0.74851425  1
  Sr  Sr13  1  0.45926312  0.64063162  0.75554278  1
  Sr  Sr14  1  0.69993477  0.39301554  0.75929521  1
  Sr  Sr15  1  0.53542992  0.88656346  0.75452946  1
  Sr  Sr16  1  0.79790408  0.11343654  0.24547054  1
  Sr  Sr17  1  0.63339823  0.60698446  0.24070479  1
  Sr  Sr18  1  0.87406988  0.35936838  0.24445722  1
  Sr  Sr19  1  0.71143801  0.85652860  0.25148575  1
  Sr  Sr20  1  0.95448056  0.14256651  0.74948227  1
  Sr  Sr21  1  0.78688370  0.63886319  0.75607325  1
  Sr  Sr22  1  0.86694066  0.89314206  0.75042172  1
  Sr  Sr23  1  0.97155397  0.60403158  0.25596014  1
  Y  Y24  1  0.08317694  0.25106303  0.49927911  1
  Y  Y25  1  0.24888667  0.25283892  0.99608292  1
  Y  Y26  1  0.08444633  0.74716108  0.00391708  1
  Y  Y27  1  0.41673763  0.25022562  0.50084340  1
  Y  Y28  1  0.25015606  0.74893697  0.50072089  1
  Y  Y29  1  0.58289825  0.25195099  0.99872627  1
  Y  Y30  1  0.41692904  0.75026748  0.99973662  1
  Y  Y31  1  0.74904629  0.25247263  0.49616625  1
  Y  Y32  1  0.58428671  0.74752737  0.50383375  1
  Y  Y33  1  0.91640496  0.24973252  0.00026338  1
  Y  Y34  1  0.75043475  0.74804901  0.00127373  1
  Y  Y35  1  0.91659637  0.74977438  0.49915660  1
  Cu  Cu36  1  0.16666700  0.50000000  0.50000000  1
  Cu  Cu37  1  0.66666700  0.50000000  -0.00000000  1
  Ru  Ru38  1  0.16666700  0.00000000  -0.00000000  1
  Ru  Ru39  1  0.00043648  0.99970384  0.50099913  1
  Ru  Ru40  1  0.49997563  0.99990076  0.00077505  1
  Ru  Ru41  1  0.33358122  0.49987166  0.00015468  1
  Ru  Ru42  1  0.50029318  0.50001390  0.49980720  1
  Ru  Ru43  1  0.33289652  0.00029616  0.49900087  1
  Ru  Ru44  1  0.83335737  0.00009924  0.99922495  1
  Ru  Ru45  1  0.83303982  0.49998610  0.50019280  1
  Ru  Ru46  1  0.66666700  0.00000000  0.50000000  1
  Ru  Ru47  1  0.99975178  0.50012834  0.99984532  1
  O  O48  1  0.02669097  0.11442140  0.54229541  1
  O  O49  1  0.05067575  0.15681864  0.95764459  1
  O  O50  1  0.01059231  0.39210524  0.23236711  1
  O  O51  1  0.15562121  0.10571516  0.76651676  1
  O  O52  1  0.11668135  0.34487089  0.03886857  1
  O  O53  1  0.03302443  0.62153006  0.46181695  1
  O  O54  1  0.20353919  0.11750340  0.46115147  1
  O  O55  1  0.22983024  0.08125941  0.03660120  1
  O  O56  1  0.06326401  0.57949425  0.03784012  1
  O  O57  1  0.13936186  0.37996357  0.46067814  1
  O  O58  1  0.18528113  0.37669978  0.73016439  1
  O  O59  1  0.01839318  0.87267809  0.73556526  1
  O  O60  1  0.31493982  0.12732191  0.26443474  1
  O  O61  1  0.14805187  0.62330022  0.26983561  1
  O  O62  1  0.36000346  0.11577754  0.53752867  1
  O  O63  1  0.19397114  0.62003643  0.53932186  1
  O  O64  1  0.27006899  0.42050575  0.96215988  1
  O  O65  1  0.10350376  0.91874059  0.96339880  1
  O  O66  1  0.30030857  0.37846994  0.53818305  1
  O  O67  1  0.12979481  0.88249660  0.53884853  1
  O  O68  1  0.38386773  0.15515031  0.96247234  1
  O  O69  1  0.21665165  0.65512911  0.96113143  1
  O  O70  1  0.34545192  0.39182763  0.23329555  1
  O  O71  1  0.17771179  0.89428484  0.23348324  1
  O  O72  1  0.32274169  0.60789476  0.76763289  1
  O  O73  1  0.48950772  0.10576792  0.76803935  1
  O  O74  1  0.28265825  0.84318136  0.04235541  1
  O  O75  1  0.44977371  0.34416709  0.04032377  1
  O  O76  1  0.37119888  0.61854041  0.46160962  1
  O  O77  1  0.53784188  0.11650681  0.46173787  1
  O  O78  1  0.56359021  0.07937224  0.03989191  1
  O  O79  1  0.39559313  0.58088267  0.03809032  1
  O  O80  1  0.47491670  0.38330390  0.45974429  1
  O  O81  1  0.30664203  0.88557860  0.45770459  1
  O  O82  1  0.34981019  0.87548663  0.73164708  1
  O  O83  1  0.51702362  0.37333861  0.73256699  1
  O  O84  1  0.64878325  0.12512884  0.26653698  1
  O  O85  1  0.48205388  0.62680417  0.26682784  1
  O  O86  1  0.69255829  0.11749280  0.53841721  1
  O  O87  1  0.52606057  0.61605219  0.53951979  1
  O  O88  1  0.43583065  0.92118449  0.96353039  1
  O  O89  1  0.60267652  0.41779955  0.96315991  1
  O  O90  1  0.62931133  0.38231832  0.53803236  1
  O  O91  1  0.46210119  0.88315030  0.53571476  1
  O  O92  1  0.71607231  0.15500928  0.95924860  1
  O  O93  1  0.54474170  0.66150322  0.95978043  1
  O  O94  1  0.67948158  0.39359642  0.22977303  1
  O  O95  1  0.51163549  0.89217799  0.23561862  1
  O  O96  1  0.82169851  0.10782201  0.76438138  1
  O  O97  1  0.65385142  0.60640358  0.77022697  1
  O  O98  1  0.78859230  0.33849678  0.04021957  1
  O  O99  1  0.61726069  0.84499072  0.04075140  1
  O  O100  1  0.87123181  0.11684970  0.46428524  1
  O  O101  1  0.70402267  0.61768168  0.46196764  1
  O  O102  1  0.89750235  0.07881551  0.03646961  1
  O  O103  1  0.73065748  0.58220045  0.03684009  1
  O  O104  1  0.80727243  0.38394781  0.46048021  1
  O  O105  1  0.64077471  0.88250720  0.46158279  1
  O  O106  1  0.85128012  0.37319583  0.73317216  1
  O  O107  1  0.68454975  0.87487116  0.73346302  1
  O  O108  1  0.98352381  0.12451337  0.26835292  1
  O  O109  1  0.81630938  0.62666139  0.26743301  1
  O  O110  1  0.85841730  0.61669610  0.54025571  1
  O  O111  1  0.76974279  0.92062776  0.96010809  1
  O  O112  1  0.93773987  0.41911733  0.96190968  1
  O  O113  1  0.96213412  0.38145959  0.53839038  1
  O  O114  1  0.79549112  0.88349319  0.53826213  1
  O  O115  1  0.88355929  0.65583291  0.95967623  1
  O  O116  1  0.84382528  0.89423208  0.23196065  1
  O  O117  1  0.98788108  0.60817237  0.76670445  1
  O  O118  1  0.94946527  0.84484969  0.03752766  1
  O  O119  1  0.97333054  0.88422246  0.46247133  1
