# generated using pymatgen
data_Nd20Mn20O59
_symmetry_space_group_name_H-M   'P 1'
_cell_length_a   27.41262911
_cell_length_b   12.50499308
_cell_length_c   9.44109999
_cell_angle_alpha   59.26763260
_cell_angle_beta   54.50301898
_cell_angle_gamma   28.34346118
_symmetry_Int_Tables_number   1
_chemical_formula_structural   Nd20Mn20O59
_chemical_formula_sum   'Nd20 Mn20 O59'
_cell_volume   1250.91993657
_cell_formula_units_Z   1
loop_
 _symmetry_equiv_pos_site_id
 _symmetry_equiv_pos_as_xyz
  1  'x, y, z'
loop_
 _atom_site_type_symbol
 _atom_site_label
 _atom_site_symmetry_multiplicity
 _atom_site_fract_x
 _atom_site_fract_y
 _atom_site_fract_z
 _atom_site_occupancy
  Nd  Nd0  1  0.01793893  0.07216144  0.74976749  1
  Nd  Nd1  1  0.07784114  0.42433582  0.24823757  1
  Nd  Nd2  1  0.21665042  0.07515414  0.75116045  1
  Nd  Nd3  1  0.27688874  0.42442551  0.25072024  1
  Nd  Nd4  1  0.12316088  0.57471533  0.75003836  1
  Nd  Nd5  1  0.41580604  0.07703462  0.75025413  1
  Nd  Nd6  1  0.18241734  0.92620815  0.24998074  1
  Nd  Nd7  1  0.47563247  0.42594299  0.25258821  1
  Nd  Nd8  1  0.32243859  0.57578944  0.75154583  1
  Nd  Nd9  1  0.61594117  0.07862886  0.74939813  1
  Nd  Nd10  1  0.38273558  0.92576490  0.25177312  1
  Nd  Nd11  1  0.67594655  0.42924510  0.24406397  1
  Nd  Nd12  1  0.52288890  0.57188168  0.74982922  1
  Nd  Nd13  1  0.82026921  0.05921702  0.74954708  1
  Nd  Nd14  1  0.58331638  0.92545731  0.24889535  1
  Nd  Nd15  1  0.87530878  0.42788639  0.25386375  1
  Nd  Nd16  1  0.72465104  0.58775793  0.74873168  1
  Nd  Nd17  1  0.78342608  0.92615016  0.24917776  1
  Nd  Nd18  1  0.92425923  0.57100663  0.74979075  1
  Nd  Nd19  1  0.98274062  0.92594561  0.24999768  1
  Mn  Mn20  1  0.09925884  0.00129671  0.00121210  1
  Mn  Mn21  1  0.00052295  0.49870373  0.00020370  1
  Mn  Mn22  1  0.30150983  0.99731312  0.99983958  1
  Mn  Mn23  1  0.19952834  0.50109344  0.00004008  1
  Mn  Mn24  1  0.10074057  0.49852653  0.49940522  1
  Mn  Mn25  1  0.99843994  0.00150438  0.50237759  1
  Mn  Mn26  1  0.49921524  0.00271008  0.99868270  1
  Mn  Mn27  1  0.29925144  0.50116363  0.50058622  1
  Mn  Mn28  1  0.39906831  0.50085650  0.00184924  1
  Mn  Mn29  1  0.70042994  0.99804140  0.00001188  1
  Mn  Mn30  1  0.19979130  0.00076125  0.50079052  1
  Mn  Mn31  1  0.59872304  0.49728482  0.00719382  1
  Mn  Mn32  1  0.49794772  0.50212346  0.50266109  1
  Mn  Mn33  1  0.89930788  0.00238541  0.99761519  1
  Mn  Mn34  1  0.40135126  0.99769481  0.50036763  1
  Mn  Mn35  1  0.80183848  0.49713613  0.99919966  1
  Mn  Mn36  1  0.70190802  0.49712244  0.49230339  1
  Mn  Mn37  1  0.59908380  0.00255395  0.49999316  1
  Mn  Mn38  1  0.90326747  0.49607100  0.49653151  1
  Mn  Mn39  1  0.79989299  0.99950279  0.49926098  1
  O  O40  1  0.05628301  0.03004604  0.25168350  1
  O  O41  1  0.07935253  0.18156069  0.45044469  1
  O  O42  1  0.15929127  0.18202164  0.04937099  1
  O  O43  1  0.25925680  0.02678589  0.25037549  1
  O  O44  1  0.10509534  0.31886386  0.54777267  1
  O  O45  1  0.02438697  0.31853288  0.95235346  1
  O  O46  1  0.11818341  0.53069145  0.24944707  1
  O  O47  1  0.08031975  0.47293734  0.74996365  1
  O  O48  1  0.35972588  0.18042127  0.04925726  1
  O  O49  1  0.27889980  0.18221027  0.45080736  1
  O  O50  1  0.09425107  0.68238997  0.45112778  1
  O  O51  1  0.17556643  0.68107909  0.04878750  1
  O  O52  1  0.45990151  0.02573703  0.24862421  1
  O  O53  1  0.30532726  0.31825025  0.54842661  1
  O  O54  1  0.22441721  0.31892341  0.95182401  1
  O  O55  1  0.04053890  0.81815642  0.95184875  1
  O  O56  1  0.12094179  0.81772953  0.54956909  1
  O  O57  1  0.31857890  0.52887896  0.25117134  1
  O  O58  1  0.28063158  0.47235428  0.75016681  1
  O  O59  1  0.55989124  0.18100597  0.04858122  1
  O  O60  1  0.47982516  0.17986378  0.45067095  1
  O  O61  1  0.29500028  0.68079662  0.45224331  1
  O  O62  1  0.37640199  0.67947886  0.04898923  1
  O  O63  1  0.14067875  0.97403978  0.75079710  1
  O  O64  1  0.65869515  0.02873560  0.24925178  1
  O  O65  1  0.42298665  0.32040688  0.95395304  1
  O  O66  1  0.50398038  0.31847304  0.55065446  1
  O  O67  1  0.23951415  0.81985295  0.95334682  1
  O  O68  1  0.31918714  0.82131568  0.55133766  1
  O  O69  1  0.51516762  0.53073133  0.26071923  1
  O  O70  1  0.47920485  0.47342547  0.75106412  1
  O  O71  1  0.67918474  0.18144146  0.45058087  1
  O  O72  1  0.75688032  0.19102292  0.03788384  1
  O  O73  1  0.58363102  0.67554073  0.03138941  1
  O  O74  1  0.49592549  0.68091336  0.44932739  1
  O  O75  1  0.34200326  0.97224125  0.75040764  1
  O  O76  1  0.85601582  0.03253182  0.24985631  1
  O  O77  1  0.62999957  0.31217971  0.93877822  1
  O  O78  1  0.70554958  0.31252422  0.56147769  1
  O  O79  1  0.44567768  0.80915886  0.94956249  1
  O  O80  1  0.52573444  0.80908815  0.55020612  1
  O  O81  1  0.71885749  0.53158523  0.23914493  1
  O  O82  1  0.95919379  0.18166178  0.05036035  1
  O  O83  1  0.87177932  0.19124808  0.46223407  1
  O  O84  1  0.69593701  0.67646104  0.46760942  1
  O  O85  1  0.77512093  0.68137935  0.05215817  1
  O  O86  1  0.53975339  0.97680416  0.74978769  1
  O  O87  1  0.90617098  0.31819436  0.54684788  1
  O  O88  1  0.82618769  0.31640344  0.94825475  1
  O  O89  1  0.64014345  0.82299145  0.94590499  1
  O  O90  1  0.72025025  0.82130605  0.54965085  1
  O  O91  1  0.91773854  0.53128405  0.24986366  1
  O  O92  1  0.87982120  0.47320491  0.74870803  1
  O  O93  1  0.89610796  0.68006519  0.44939137  1
  O  O94  1  0.97468104  0.68276328  0.04860408  1
  O  O95  1  0.74336533  0.96701472  0.74959783  1
  O  O96  1  0.84184371  0.81393350  0.95051540  1
  O  O97  1  0.92215154  0.81433345  0.54813659  1
  O  O98  1  0.94069622  0.97127264  0.74964200  1
