# generated using pymatgen
data_NaCaMg3Fe6(PO4)9
_symmetry_space_group_name_H-M   'P 1'
_cell_length_a   19.27828681
_cell_length_b   8.64978795
_cell_length_c   8.64978725
_cell_angle_alpha   93.02908830
_cell_angle_beta   105.84404281
_cell_angle_gamma   105.84404293
_symmetry_Int_Tables_number   1
_chemical_formula_structural   NaCaMg3Fe6(PO4)9
_chemical_formula_sum   'Na2 Ca2 Mg6 Fe12 P18 O72'
_cell_volume   1322.15882977
_cell_formula_units_Z   2
loop_
 _symmetry_equiv_pos_site_id
 _symmetry_equiv_pos_as_xyz
  1  'x, y, z'
loop_
 _atom_site_type_symbol
 _atom_site_label
 _atom_site_symmetry_multiplicity
 _atom_site_fract_x
 _atom_site_fract_y
 _atom_site_fract_z
 _atom_site_occupancy
  Na  Na0  1  0.41666700  0.99312972  0.00687028  1
  Na  Na1  1  0.91666700  0.00687028  0.99312972  1
  Ca  Ca2  1  0.16666700  0.50000000  0.50000000  1
  Ca  Ca3  1  0.66666700  0.50000000  0.50000000  1
  Mg  Mg4  1  0.08102144  0.26119706  0.73608321  1
  Mg  Mg5  1  0.25231156  0.73880294  0.26391679  1
  Mg  Mg6  1  0.41666700  0.28167028  0.71832972  1
  Mg  Mg7  1  0.58102144  0.73608321  0.26119706  1
  Mg  Mg8  1  0.75231156  0.26391679  0.73880294  1
  Mg  Mg9  1  0.91666700  0.71832972  0.28167028  1
  Fe  Fe10  1  0.12302172  0.93662649  0.63150944  1
  Fe  Fe11  1  0.04306543  0.37445820  0.05928756  1
  Fe  Fe12  1  0.29026757  0.62554180  0.94071244  1
  Fe  Fe13  1  0.21031128  0.06337351  0.36849056  1
  Fe  Fe14  1  0.45790555  0.93274628  0.63021173  1
  Fe  Fe15  1  0.37542845  0.36978827  0.06725372  1
  Fe  Fe16  1  0.62302172  0.63150944  0.93662649  1
  Fe  Fe17  1  0.54306543  0.05928756  0.37445820  1
  Fe  Fe18  1  0.79026757  0.94071244  0.62554180  1
  Fe  Fe19  1  0.71031128  0.36849056  0.06337351  1
  Fe  Fe20  1  0.95790555  0.63021173  0.93274628  1
  Fe  Fe21  1  0.87542845  0.06725372  0.36978827  1
  P  P22  1  0.12602462  0.64922286  0.86733378  1
  P  P23  1  0.08344398  0.71427240  0.28910854  1
  P  P24  1  0.04215416  0.12700957  0.34777908  1
  P  P25  1  0.29117984  0.87299043  0.65222092  1
  P  P26  1  0.24988902  0.28572760  0.71089146  1
  P  P27  1  0.20730838  0.35077714  0.13266622  1
  P  P28  1  0.45776820  0.65064759  0.87110372  1
  P  P29  1  0.41666700  0.70560429  0.29439571  1
  P  P30  1  0.37556480  0.12889628  0.34935241  1
  P  P31  1  0.62602462  0.86733378  0.64922286  1
  P  P32  1  0.58344398  0.28910854  0.71427240  1
  P  P33  1  0.54215416  0.34777908  0.12700957  1
  P  P34  1  0.79117984  0.65222092  0.87299043  1
  P  P35  1  0.74988902  0.71089146  0.28572760  1
  P  P36  1  0.70730838  0.13266622  0.35077714  1
  P  P37  1  0.95776820  0.87110372  0.65064759  1
  P  P38  1  0.91666700  0.29439571  0.70560429  1
  P  P39  1  0.87556480  0.34935241  0.12889628  1
  O  O40  1  0.03524536  0.00535548  0.67193292  1
  O  O41  1  0.06127341  0.59534824  0.95011776  1
  O  O42  1  0.00957996  0.73773002  0.17838571  1
  O  O43  1  0.08822755  0.73714652  0.47029459  1
  O  O44  1  0.12647193  0.81448591  0.81075897  1
  O  O45  1  0.06256407  0.26842464  0.48228996  1
  O  O46  1  0.11475861  0.51627088  0.73108345  1
  O  O47  1  0.03807752  0.18520273  0.17962397  1
  O  O48  1  0.08378356  0.53524814  0.25796476  1
  O  O49  1  0.20302328  0.67136980  0.00230000  1
  O  O50  1  0.15673974  0.82416181  0.26026060  1
  O  O51  1  0.10418458  0.03796163  0.39630325  1
  O  O52  1  0.22914842  0.96203837  0.60369675  1
  O  O53  1  0.17659326  0.17583819  0.73973940  1
  O  O54  1  0.13030972  0.32863020  0.99770000  1
  O  O55  1  0.24954944  0.46475186  0.74203524  1
  O  O56  1  0.29525548  0.81479727  0.82037603  1
  O  O57  1  0.21857539  0.48372912  0.26891655  1
  O  O58  1  0.27076893  0.73157536  0.51771004  1
  O  O59  1  0.20686207  0.18551409  0.18924103  1
  O  O60  1  0.24510645  0.26285348  0.52970541  1
  O  O61  1  0.36966666  0.00039231  0.67290781  1
  O  O62  1  0.32375404  0.26226998  0.82161429  1
  O  O63  1  0.27206059  0.40465176  0.04988224  1
  O  O64  1  0.39342858  0.59881965  0.95601504  1
  O  O65  1  0.34464532  0.73770022  0.17741413  1
  O  O66  1  0.29808764  0.99464452  0.32806708  1
  O  O67  1  0.41537824  0.74005893  0.46911079  1
  O  O68  1  0.45875062  0.82158146  0.82167761  1
  O  O69  1  0.38803567  0.26543093  0.47761652  1
  O  O70  1  0.44529733  0.52238348  0.73456907  1
  O  O71  1  0.37458238  0.17832239  0.17841854  1
  O  O72  1  0.41795476  0.53088921  0.25994107  1
  O  O73  1  0.53524536  0.67193292  0.00535548  1
  O  O74  1  0.48868768  0.82258587  0.26229978  1
  O  O75  1  0.43990442  0.04398496  0.40118035  1
  O  O76  1  0.56127341  0.95011776  0.59534824  1
  O  O77  1  0.50957996  0.17838571  0.73773002  1
  O  O78  1  0.46366734  0.32709219  0.99960769  1
  O  O79  1  0.58822755  0.47029459  0.73714652  1
  O  O80  1  0.62647193  0.81075897  0.81448591  1
  O  O81  1  0.56256407  0.48228996  0.26842464  1
  O  O82  1  0.61475861  0.73108345  0.51627088  1
  O  O83  1  0.53807752  0.17962397  0.18520273  1
  O  O84  1  0.58378356  0.25796476  0.53524814  1
  O  O85  1  0.70302328  0.00230000  0.67136980  1
  O  O86  1  0.65673974  0.26026060  0.82416181  1
  O  O87  1  0.60418458  0.39630325  0.03796163  1
  O  O88  1  0.72914842  0.60369675  0.96203837  1
  O  O89  1  0.67659326  0.73973940  0.17583819  1
  O  O90  1  0.63030972  0.99770000  0.32863020  1
  O  O91  1  0.74954944  0.74203524  0.46475186  1
  O  O92  1  0.79525548  0.82037603  0.81479727  1
  O  O93  1  0.71857539  0.26891655  0.48372912  1
  O  O94  1  0.77076893  0.51771004  0.73157536  1
  O  O95  1  0.70686207  0.18924103  0.18551409  1
  O  O96  1  0.74510645  0.52970541  0.26285348  1
  O  O97  1  0.86966666  0.67290781  0.00039231  1
  O  O98  1  0.82375404  0.82161429  0.26226998  1
  O  O99  1  0.77206059  0.04988224  0.40465176  1
  O  O100  1  0.89342858  0.95601504  0.59881965  1
  O  O101  1  0.84464532  0.17741413  0.73770022  1
  O  O102  1  0.79808764  0.32806708  0.99464452  1
  O  O103  1  0.91537824  0.46911079  0.74005893  1
  O  O104  1  0.95875062  0.82167761  0.82158146  1
  O  O105  1  0.88803567  0.47761652  0.26543093  1
  O  O106  1  0.94529733  0.73456907  0.52238348  1
  O  O107  1  0.87458238  0.17841854  0.17832239  1
  O  O108  1  0.91795476  0.25994107  0.53088921  1
  O  O109  1  0.98868768  0.26229978  0.82258587  1
  O  O110  1  0.93990442  0.40118035  0.04398496  1
  O  O111  1  0.96366734  0.99960769  0.32709219  1
