# generated using pymatgen
data_NbAlO4
_symmetry_space_group_name_H-M   'P 1'
_cell_length_a   3.82182858
_cell_length_b   6.40980740
_cell_length_c   39.29604950
_cell_angle_alpha   106.44990693
_cell_angle_beta   89.68731621
_cell_angle_gamma   107.20135772
_symmetry_Int_Tables_number   1
_chemical_formula_structural   NbAlO4
_chemical_formula_sum   'Nb12 Al12 O48'
_cell_volume   878.71840477
_cell_formula_units_Z   12
loop_
 _symmetry_equiv_pos_site_id
 _symmetry_equiv_pos_as_xyz
  1  'x, y, z'
loop_
 _atom_site_type_symbol
 _atom_site_label
 _atom_site_symmetry_multiplicity
 _atom_site_fract_x
 _atom_site_fract_y
 _atom_site_fract_z
 _atom_site_occupancy
  Nb  Nb0  1  0.10304241  0.20985712  0.28905914  1
  Nb  Nb1  1  0.09931550  0.20831388  0.45630665  1
  Nb  Nb2  1  0.09927893  0.20816236  0.62292260  1
  Nb  Nb3  1  0.09919573  0.20827125  0.78960206  1
  Nb  Nb4  1  0.09857316  0.20823324  0.95572994  1
  Nb  Nb5  1  0.19474391  0.39241177  0.21187098  1
  Nb  Nb6  1  0.80525609  0.60758823  0.12146302  1
  Nb  Nb7  1  0.90142684  0.79176676  0.37760406  1
  Nb  Nb8  1  0.90072107  0.79183764  0.71041040  1
  Nb  Nb9  1  0.89695759  0.79014288  0.04427386  1
  Nb  Nb10  1  0.90080427  0.79172875  0.54373094  1
  Nb  Nb11  1  0.90068450  0.79168612  0.87702735  1
  Al  Al12  1  0.09692900  0.19192004  0.11433776  1
  Al  Al13  1  0.20580303  0.40284144  0.05239870  1
  Al  Al14  1  0.20662125  0.40436008  0.38691681  1
  Al  Al15  1  0.20736124  0.40694763  0.55403701  1
  Al  Al16  1  0.20754884  0.40768409  0.88738650  1
  Al  Al17  1  0.20720951  0.40688726  0.72067350  1
  Al  Al18  1  0.79263876  0.59305237  0.77929599  1
  Al  Al19  1  0.79279049  0.59311274  0.61266050  1
  Al  Al20  1  0.79245116  0.59231591  0.44594650  1
  Al  Al21  1  0.79419697  0.59715856  0.28093430  1
  Al  Al22  1  0.79337875  0.59563992  0.94641619  1
  Al  Al23  1  0.90307100  0.80807996  0.21899524  1
  O  O24  1  0.06486245  0.12066335  0.06230398  1
  O  O25  1  0.05988253  0.11794602  0.22714702  1
  O  O26  1  0.06509089  0.11557676  0.56000845  1
  O  O27  1  0.06514247  0.11521995  0.39357098  1
  O  O28  1  0.06498270  0.11563082  0.72668313  1
  O  O29  1  0.06514292  0.11627014  0.89334045  1
  O  O30  1  0.13799778  0.27932991  0.00396518  1
  O  O31  1  0.13838803  0.27808739  0.16374943  1
  O  O32  1  0.14163420  0.28486610  0.50471725  1
  O  O33  1  0.14103499  0.27863057  0.33760164  1
  O  O34  1  0.14153033  0.28471785  0.67134194  1
  O  O35  1  0.14165189  0.28517217  0.83802112  1
  O  O36  1  0.26167115  0.51993917  0.10702085  1
  O  O37  1  0.26193188  0.52904550  0.27606667  1
  O  O38  1  0.26012409  0.52384435  0.44005443  1
  O  O39  1  0.26033738  0.52466593  0.60672602  1
  O  O40  1  0.26021390  0.52470209  0.77338798  1
  O  O41  1  0.26050061  0.52636986  0.94015706  1
  O  O42  1  0.35973503  0.71583950  0.04960502  1
  O  O43  1  0.36097803  0.71412759  0.38266057  1
  O  O44  1  0.36633182  0.73527498  0.21784659  1
  O  O45  1  0.36159563  0.71655105  0.54936161  1
  O  O46  1  0.36167423  0.71709239  0.88264197  1
  O  O47  1  0.36146340  0.71656653  0.71602673  1
  O  O48  1  0.63832577  0.28290761  0.45069103  1
  O  O49  1  0.63366818  0.26472502  0.11548741  1
  O  O50  1  0.63840437  0.28344895  0.78397139  1
  O  O51  1  0.64026497  0.28416050  0.28372798  1
  O  O52  1  0.63853660  0.28343347  0.61730727  1
  O  O53  1  0.63902197  0.28587241  0.95067243  1
  O  O54  1  0.73806812  0.47095450  0.05726733  1
  O  O55  1  0.73949939  0.47363014  0.39317594  1
  O  O56  1  0.73832885  0.48006083  0.22631215  1
  O  O57  1  0.73966262  0.47533407  0.72660698  1
  O  O58  1  0.73978610  0.47529791  0.55994602  1
  O  O59  1  0.73987591  0.47615565  0.89327857  1
  O  O60  1  0.86200222  0.72067009  0.32936882  1
  O  O61  1  0.86161197  0.72191261  0.16958357  1
  O  O62  1  0.85836580  0.71513390  0.82861675  1
  O  O63  1  0.85846967  0.71528215  0.66199106  1
  O  O64  1  0.85834811  0.71482783  0.49531188  1
  O  O65  1  0.85896501  0.72136943  0.99573136  1
  O  O66  1  0.93485708  0.88372986  0.43999255  1
  O  O67  1  0.94011747  0.88205398  0.10618598  1
  O  O68  1  0.93490911  0.88442324  0.77332555  1
  O  O69  1  0.93513755  0.87933665  0.27103002  1
  O  O70  1  0.93501730  0.88436918  0.60664987  1
  O  O71  1  0.93485753  0.88478005  0.93976202  1
