# generated using pymatgen
data_NaNO3
_symmetry_space_group_name_H-M   'P 1'
_cell_length_a   6.56512996
_cell_length_b   6.49041562
_cell_length_c   13.06218267
_cell_angle_alpha   46.46357679
_cell_angle_beta   46.70508003
_cell_angle_gamma   46.79261077
_symmetry_Int_Tables_number   1
_chemical_formula_structural   NaNO3
_chemical_formula_sum   'Na4 N4 O12'
_cell_volume   268.85575784
_cell_formula_units_Z   4
loop_
 _symmetry_equiv_pos_site_id
 _symmetry_equiv_pos_as_xyz
  1  'x, y, z'
loop_
 _atom_site_type_symbol
 _atom_site_label
 _atom_site_symmetry_multiplicity
 _atom_site_fract_x
 _atom_site_fract_y
 _atom_site_fract_z
 _atom_site_occupancy
  Na  Na0  1  0.00378035  0.99380977  0.99809024  1
  Na  Na1  1  0.00137994  0.99384147  0.49790664  1
  Na  Na2  1  0.46642888  0.51298267  0.25148950  1
  Na  Na3  1  0.50359119  0.49900268  0.74434631  1
  N  N4  1  0.19358239  0.31982587  0.12385882  1
  N  N5  1  0.25339941  0.24229108  0.62556436  1
  N  N6  1  0.74644278  0.75057411  0.37560487  1
  N  N7  1  0.75281180  0.74511018  0.87687569  1
  O  O8  1  0.91458328  0.47653456  0.18793082  1
  O  O9  1  0.31679848  0.03523834  0.20011733  1
  O  O10  1  0.34903257  0.45609885  0.98356244  1
  O  O11  1  0.01006114  0.23839972  0.74811412  1
  O  O12  1  0.25062149  0.49005612  0.50286941  1
  O  O13  1  0.49933153  0.99876580  0.62551759  1
  O  O14  1  0.49819548  0.99024143  0.38149595  1
  O  O15  1  0.75728142  0.49505096  0.49485468  1
  O  O16  1  0.98452797  0.76595806  0.25109512  1
  O  O17  1  0.50815374  0.98974655  0.87822852  1
  O  O18  1  0.75809374  0.49800100  0.00000928  1
  O  O19  1  0.99280244  0.74757081  0.75246832  1
