# generated using pymatgen
data_MnCd4O5
_symmetry_space_group_name_H-M   'P 1'
_cell_length_a   3.34376940
_cell_length_b   11.10483730
_cell_length_c   7.49542609
_cell_angle_alpha   78.19349670
_cell_angle_beta   77.11152789
_cell_angle_gamma   90.00000000
_symmetry_Int_Tables_number   1
_chemical_formula_structural   MnCd4O5
_chemical_formula_sum   'Mn2 Cd8 O10'
_cell_volume   265.26460436
_cell_formula_units_Z   2
loop_
 _symmetry_equiv_pos_site_id
 _symmetry_equiv_pos_as_xyz
  1  'x, y, z'
loop_
 _atom_site_type_symbol
 _atom_site_label
 _atom_site_symmetry_multiplicity
 _atom_site_fract_x
 _atom_site_fract_y
 _atom_site_fract_z
 _atom_site_occupancy
  Mn  Mn0  1  0.19995801  0.59975445  0.60008298  1
  Mn  Mn1  1  0.00004199  0.00024555  -0.00008298  1
  Cd  Cd2  1  0.60000000  0.80000000  0.80000000  1
  Cd  Cd3  1  0.29826533  0.89577641  0.40347034  1
  Cd  Cd4  1  0.10000000  0.30000000  0.80000000  1
  Cd  Cd5  1  0.70001899  0.09825212  0.59996303  1
  Cd  Cd6  1  0.90173467  0.70422359  0.19652966  1
  Cd  Cd7  1  0.79988832  0.40312799  0.40022336  1
  Cd  Cd8  1  0.49998101  0.50174788  0.00003697  1
  Cd  Cd9  1  0.40011168  0.19687201  0.19977664  1
  O  O10  1  0.05405391  0.64852556  0.89189218  1
  O  O11  1  0.14594609  0.95147444  0.70810782  1
  O  O12  1  0.74670987  0.73997221  0.50658027  1
  O  O13  1  0.54688384  0.14067719  0.90623231  1
  O  O14  1  0.65311616  0.45932281  0.69376769  1
  O  O15  1  0.24931752  0.25027948  0.50136396  1
  O  O16  1  0.34654428  0.55515175  0.30691144  1
  O  O17  1  0.45329013  0.86002779  0.09341973  1
  O  O18  1  0.85345572  0.04484825  0.29308856  1
  O  O19  1  0.95068248  0.34972052  0.09863604  1
