# generated using pymatgen
data_Na2FePCO7
_symmetry_space_group_name_H-M   'P 1'
_cell_length_a   8.95920130
_cell_length_b   8.33779065
_cell_length_c   8.37172712
_cell_angle_alpha   77.41961502
_cell_angle_beta   90.25876644
_cell_angle_gamma   90.95356524
_symmetry_Int_Tables_number   1
_chemical_formula_structural   Na2FePCO7
_chemical_formula_sum   'Na8 Fe4 P4 C4 O28'
_cell_volume   610.26856359
_cell_formula_units_Z   4
loop_
 _symmetry_equiv_pos_site_id
 _symmetry_equiv_pos_as_xyz
  1  'x, y, z'
loop_
 _atom_site_type_symbol
 _atom_site_label
 _atom_site_symmetry_multiplicity
 _atom_site_fract_x
 _atom_site_fract_y
 _atom_site_fract_z
 _atom_site_occupancy
  Na  Na0  1  0.91857629  0.25293859  0.49108702  1
  Na  Na1  1  0.91895426  0.74994486  0.98462808  1
  Na  Na2  1  0.73193461  0.11779273  0.86357097  1
  Na  Na3  1  0.73168053  0.38762696  0.13244341  1
  Na  Na4  1  0.26396461  0.38161437  0.63187223  1
  Na  Na5  1  0.26323321  0.88044371  0.13004790  1
  Na  Na6  1  0.07097830  0.75483153  0.51363462  1
  Na  Na7  1  0.08951807  0.25083929  0.01790954  1
  Fe  Fe8  1  0.65446304  0.00600052  0.24409515  1
  Fe  Fe9  1  0.65782081  0.52783772  0.72230394  1
  Fe  Fe10  1  0.34403161  0.97502342  0.75889615  1
  Fe  Fe11  1  0.34453280  0.47858182  0.26242290  1
  P  P12  1  0.57592398  0.23082918  0.52100698  1
  P  P13  1  0.57571354  0.72952848  0.01969494  1
  P  P14  1  0.42688977  0.26866591  0.97751715  1
  P  P15  1  0.42128362  0.76863697  0.47742466  1
  C  C16  1  0.93710894  0.48220892  0.76460138  1
  C  C17  1  0.93531020  0.99256522  0.25417561  1
  C  C18  1  0.06517754  0.01633019  0.74658602  1
  C  C19  1  0.06491772  0.51070286  0.24086357  1
  O  O20  1  0.92463121  0.03325725  0.73636116  1
  O  O21  1  0.92433189  0.51819594  0.22079406  1
  O  O22  1  0.87495643  0.59953517  0.65592727  1
  O  O23  1  0.87030455  0.10912059  0.14477291  1
  O  O24  1  0.84357492  0.38835469  0.86618795  1
  O  O25  1  0.84439694  0.89863355  0.35675300  1
  O  O26  1  0.67091181  0.17286167  0.38956757  1
  O  O27  1  0.67508419  0.65702917  0.90228520  1
  O  O28  1  0.68223852  0.34617550  0.59350914  1
  O  O29  1  0.67781767  0.85901801  0.07799163  1
  O  O30  1  0.56666986  0.69447316  0.55664209  1
  O  O31  1  0.57141891  0.18874217  0.06042613  1
  O  O32  1  0.53035623  0.08461744  0.66328706  1
  O  O33  1  0.53089202  0.58692879  0.16571000  1
  O  O34  1  0.47414679  0.40668150  0.82882118  1
  O  O35  1  0.46202455  0.90919425  0.32657314  1
  O  O36  1  0.43211382  0.81078502  0.94019612  1
  O  O37  1  0.43298053  0.31729078  0.44613769  1
  O  O38  1  0.32527317  0.14100299  0.91670599  1
  O  O39  1  0.32081543  0.83485145  0.59808457  1
  O  O40  1  0.31980049  0.64063931  0.41690170  1
  O  O41  1  0.32904089  0.33611923  0.09939912  1
  O  O42  1  0.15818271  0.10989734  0.64546537  1
  O  O43  1  0.15816529  0.61017424  0.14558556  1
  O  O44  1  0.12742572  0.39923825  0.35603856  1
  O  O45  1  0.12785082  0.90063317  0.85745224  1
  O  O46  1  0.07698080  0.46171583  0.77103505  1
  O  O47  1  0.07559939  0.97435335  0.25906931  1
