# generated using pymatgen
data_VIr
_symmetry_space_group_name_H-M   'P 1'
_cell_length_a   8.65966500
_cell_length_b   8.65966500
_cell_length_c   6.64202279
_cell_angle_alpha   108.62053680
_cell_angle_beta   71.37946320
_cell_angle_gamma   99.98139780
_symmetry_Int_Tables_number   1
_chemical_formula_structural   VIr
_chemical_formula_sum   'V16 Ir16'
_cell_volume   445.88831503
_cell_formula_units_Z   16
loop_
 _symmetry_equiv_pos_site_id
 _symmetry_equiv_pos_as_xyz
  1  'x, y, z'
loop_
 _atom_site_type_symbol
 _atom_site_label
 _atom_site_symmetry_multiplicity
 _atom_site_fract_x
 _atom_site_fract_y
 _atom_site_fract_z
 _atom_site_occupancy
  V  V0  1  0.04810923  0.69209982  0.34414550  1
  V  V1  1  0.30790018  0.95189077  0.34414550  1
  V  V2  1  0.79476253  0.44529036  0.36221161  1
  V  V3  1  0.55470964  0.20523747  0.36221161  1
  V  V4  1  0.17832148  0.55392986  0.62505775  1
  V  V5  1  0.44607014  0.82167852  0.62505775  1
  V  V6  1  0.92695015  0.30255118  0.62501533  1
  V  V7  1  0.69744882  0.07304985  0.62501533  1
  V  V8  1  0.93909545  0.81076440  0.11676746  1
  V  V9  1  0.18923560  0.06090455  0.11676746  1
  V  V10  1  0.68517470  0.56484910  0.13315685  1
  V  V11  1  0.43515090  0.31482530  0.13315685  1
  V  V12  1  0.31698948  0.42327952  0.90564977  1
  V  V13  1  0.57672048  0.68301052  0.90564977  1
  V  V14  1  0.07013175  0.16988948  0.88761064  1
  V  V15  1  0.83011052  0.92986825  0.88761064  1
  Ir  Ir16  1  0.99881740  0.00118260  0.50461615  1
  Ir  Ir17  1  0.26492043  0.73507957  0.97429603  1
  Ir  Ir18  1  0.48517248  0.51482752  0.53420567  1
  Ir  Ir19  1  0.75494487  0.24505513  0.99375114  1
  Ir  Ir20  1  0.86997978  0.13002022  0.25616010  1
  Ir  Ir21  1  0.13970612  0.86029388  0.71516013  1
  Ir  Ir22  1  0.36004066  0.63995934  0.27560411  1
  Ir  Ir23  1  0.62600025  0.37399975  0.74487937  1
  Ir  Ir24  1  0.74298451  0.75941713  0.52080606  1
  Ir  Ir25  1  0.24058287  0.25701549  0.52080606  1
  Ir  Ir26  1  0.00786314  0.48780099  0.98344038  1
  Ir  Ir27  1  0.51219901  0.99213686  0.98344038  1
  Ir  Ir28  1  0.61710195  0.88724326  0.26651290  1
  Ir  Ir29  1  0.11275674  0.38289805  0.26651290  1
  Ir  Ir30  1  0.88180395  0.61575524  0.72928941  1
  Ir  Ir31  1  0.38424476  0.11819605  0.72928941  1
