# generated using pymatgen
data_Cs3ScO3
_symmetry_space_group_name_H-M   'P 1'
_cell_length_a   7.46516376
_cell_length_b   13.39167790
_cell_length_c   15.19174449
_cell_angle_alpha   90.00000000
_cell_angle_beta   90.48560680
_cell_angle_gamma   90.00000000
_symmetry_Int_Tables_number   1
_chemical_formula_structural   Cs3ScO3
_chemical_formula_sum   'Cs24 Sc8 O24'
_cell_volume   1518.68038310
_cell_formula_units_Z   8
loop_
 _symmetry_equiv_pos_site_id
 _symmetry_equiv_pos_as_xyz
  1  'x, y, z'
loop_
 _atom_site_type_symbol
 _atom_site_label
 _atom_site_symmetry_multiplicity
 _atom_site_fract_x
 _atom_site_fract_y
 _atom_site_fract_z
 _atom_site_occupancy
  Cs  Cs0  1  0.14630631  0.06121442  0.64022641  1
  Cs  Cs1  1  0.17346249  0.34007717  0.74456741  1
  Cs  Cs2  1  0.16664841  0.80897101  0.53606193  1
  Cs  Cs3  1  0.14630631  0.43878558  0.14022641  1
  Cs  Cs4  1  0.17346249  0.15992283  0.24456741  1
  Cs  Cs5  1  0.16664841  0.69102899  0.03606193  1
  Cs  Cs6  1  0.33233707  0.19051766  0.96416725  1
  Cs  Cs7  1  0.32538320  0.66101844  0.75540580  1
  Cs  Cs8  1  0.35491669  0.93868092  0.85907556  1
  Cs  Cs9  1  0.33233707  0.30948234  0.46416725  1
  Cs  Cs10  1  0.32538320  0.83898156  0.25540580  1
  Cs  Cs11  1  0.35491669  0.56131908  0.35907556  1
  Cs  Cs12  1  0.64508331  0.43868092  0.64092444  1
  Cs  Cs13  1  0.67461680  0.16101844  0.74459420  1
  Cs  Cs14  1  0.66766293  0.69051766  0.53583275  1
  Cs  Cs15  1  0.64508331  0.06131908  0.14092444  1
  Cs  Cs16  1  0.67461680  0.33898156  0.24459420  1
  Cs  Cs17  1  0.66766293  0.80948234  0.03583275  1
  Cs  Cs18  1  0.83335159  0.30897101  0.96393807  1
  Cs  Cs19  1  0.82653751  0.84007717  0.75543259  1
  Cs  Cs20  1  0.85369369  0.56121442  0.85977359  1
  Cs  Cs21  1  0.83335159  0.19102899  0.46393807  1
  Cs  Cs22  1  0.82653751  0.65992283  0.25543259  1
  Cs  Cs23  1  0.85369369  0.93878558  0.35977359  1
  Sc  Sc24  1  0.08808460  0.54783383  0.57592695  1
  Sc  Sc25  1  0.08808460  0.95216617  0.07592695  1
  Sc  Sc26  1  0.41153470  0.45214257  0.92423449  1
  Sc  Sc27  1  0.41153470  0.04785743  0.42423449  1
  Sc  Sc28  1  0.58846530  0.95214257  0.57576551  1
  Sc  Sc29  1  0.58846530  0.54785743  0.07576551  1
  Sc  Sc30  1  0.91191540  0.04783383  0.92407305  1
  Sc  Sc31  1  0.91191540  0.45216617  0.42407305  1
  O  O32  1  0.00370022  0.40560458  0.54537796  1
  O  O33  1  0.04142778  0.11474772  0.82719376  1
  O  O34  1  0.00370022  0.09439542  0.04537796  1
  O  O35  1  0.04142778  0.38525228  0.32719376  1
  O  O36  1  0.15198568  0.43338754  0.90810326  1
  O  O37  1  0.15198568  0.06661246  0.40810326  1
  O  O38  1  0.34767099  0.56470887  0.59341759  1
  O  O39  1  0.34767099  0.93529113  0.09341759  1
  O  O40  1  0.45795411  0.88737765  0.67327781  1
  O  O41  1  0.49406954  0.59464394  0.95500041  1
  O  O42  1  0.45795411  0.61262235  0.17327781  1
  O  O43  1  0.49406954  0.90535606  0.45500041  1
  O  O44  1  0.50593046  0.09464394  0.54499959  1
  O  O45  1  0.54204589  0.38737765  0.82672219  1
  O  O46  1  0.50593046  0.40535606  0.04499959  1
  O  O47  1  0.54204589  0.11262235  0.32672219  1
  O  O48  1  0.65232901  0.06470887  0.90658241  1
  O  O49  1  0.65232901  0.43529113  0.40658241  1
  O  O50  1  0.84801432  0.93338754  0.59189674  1
  O  O51  1  0.84801432  0.56661246  0.09189674  1
  O  O52  1  0.95857222  0.61474772  0.67280624  1
  O  O53  1  0.99629978  0.90560458  0.95462204  1
  O  O54  1  0.95857222  0.88525228  0.17280624  1
  O  O55  1  0.99629978  0.59439542  0.45462204  1
