# generated using pymatgen
data_Li7V3P8O29
_symmetry_space_group_name_H-M   'P 1'
_cell_length_a   9.84365404
_cell_length_b   9.85795140
_cell_length_c   13.90043518
_cell_angle_alpha   89.88018881
_cell_angle_beta   89.73276823
_cell_angle_gamma   59.97673041
_symmetry_Int_Tables_number   1
_chemical_formula_structural   Li7V3P8O29
_chemical_formula_sum   'Li14 V6 P16 O58'
_cell_volume   1167.87246992
_cell_formula_units_Z   2
loop_
 _symmetry_equiv_pos_site_id
 _symmetry_equiv_pos_as_xyz
  1  'x, y, z'
loop_
 _atom_site_type_symbol
 _atom_site_label
 _atom_site_symmetry_multiplicity
 _atom_site_fract_x
 _atom_site_fract_y
 _atom_site_fract_z
 _atom_site_occupancy
  Li  Li0  1  0.91212284  0.77408261  0.06086672  1
  Li  Li1  1  0.76452452  0.90078673  0.56351741  1
  Li  Li2  1  0.89780916  0.33922891  0.56235368  1
  Li  Li3  1  0.66770420  0.66836106  0.88365917  1
  Li  Li4  1  0.77326001  0.31715969  0.06365835  1
  Li  Li5  1  0.31401291  0.91141800  0.06039554  1
  Li  Li6  1  0.33635367  0.76615310  0.55959587  1
  Li  Li7  1  0.67481159  0.09728441  0.93745494  1
  Li  Li8  1  0.22839929  0.67622214  0.93991454  1
  Li  Li9  1  0.33721586  0.33009503  0.61555719  1
  Li  Li10  1  0.09384657  0.67348706  0.43767958  1
  Li  Li11  1  0.23137379  0.09584785  0.43804676  1
  Li  Li12  1  0.09522671  0.22710890  0.93617584  1
  Li  Li13  1  0.94845641  0.03732971  0.49731440  1
  V  V14  1  0.56729123  0.42930082  0.25433440  1
  V  V15  1  0.43595725  0.56566604  0.74820715  1
  V  V16  1  0.56843556  0.99846074  0.74980089  1
  V  V17  1  0.43390759  0.00019677  0.25073150  1
  V  V18  1  0.00168237  0.56520925  0.24883351  1
  V  V19  1  -0.00002139  0.43206040  0.75074669  1
  P  P20  1  0.91101134  0.76699886  0.84346441  1
  P  P21  1  0.77336315  0.91077613  0.34398466  1
  P  P22  1  0.91195892  0.31530038  0.34149241  1
  P  P23  1  0.66689716  0.66525210  0.12850553  1
  P  P24  1  0.66571809  0.66521942  0.62319922  1
  P  P25  1  0.76656494  0.32084770  0.84631563  1
  P  P26  1  0.69104869  0.22396750  0.65780220  1
  P  P27  1  0.32234432  0.90779052  0.84255190  1
  P  P28  1  0.68138861  0.08747090  0.16003528  1
  P  P29  1  0.31565709  0.77138379  0.34154358  1
  P  P30  1  0.23432215  0.67880574  0.15782071  1
  P  P31  1  0.33103123  0.33409235  0.37310141  1
  P  P32  1  0.33561973  0.33400495  0.87474595  1
  P  P33  1  0.09191209  0.68099550  0.65597742  1
  P  P34  1  0.22900294  0.08970154  0.65543640  1
  P  P35  1  0.08997953  0.23131865  0.15771449  1
  O  O36  1  0.99851843  0.77301894  0.56872158  1
  O  O37  1  0.91780553  0.74173144  0.33587542  1
  O  O38  1  0.75665715  0.99837980  0.06920294  1
  O  O39  1  0.75320919  0.92014229  0.84534202  1
  O  O40  1  0.88113791  0.62878983  0.82675443  1
  O  O41  1  0.81504110  0.67125830  0.16602204  1
  O  O42  1  0.91194406  0.46928709  0.33135834  1
  O  O43  1  0.00049124  0.24484449  0.06750409  1
  O  O44  1  0.91811458  0.32838238  0.84688184  1
  O  O45  1  0.67287146  0.81034198  0.66148901  1
  O  O46  1  0.61973380  0.90980514  0.33228459  1
  O  O47  1  0.81066802  0.51322012  0.66070680  1
  O  O48  1  0.66593504  0.66852024  0.01992697  1
  O  O49  1  0.64701597  0.66765527  0.51615605  1
  O  O50  1  0.67211869  0.51321207  0.16612403  1
  O  O51  1  0.49003451  0.87937077  0.82905577  1
  O  O52  1  0.51411276  0.81431300  0.16751771  1
  O  O53  1  0.74449976  0.34043704  0.33571662  1
  O  O54  1  0.78000962  0.21042864  0.75791420  1
  O  O55  1  0.79543342  0.21867787  0.57673485  1
  O  O56  1  0.74516114  0.24988418  0.93722846  1
  O  O57  1  0.62602214  0.48840313  0.82738854  1
  O  O58  1  0.51302997  0.67034241  0.67102212  1
  O  O59  1  0.66504074  0.25103139  0.16030605  1
  O  O60  1  0.47312878  0.62252222  0.32892225  1
  O  O61  1  0.33477113  0.91907607  0.33813993  1
  O  O62  1  0.79219456  0.99905306  0.25080752  1
  O  O63  1  0.79042360  0.98359253  0.43452508  1
  O  O64  1  0.23472442  0.99649382  0.56711528  1
  O  O65  1  0.66988969  0.08026487  0.65492636  1
  O  O66  1  0.52722287  0.37498527  0.66435105  1
  O  O67  1  0.32836329  0.74820371  0.84278074  1
  O  O68  1  0.48141529  0.32415639  0.32965479  1
  O  O69  1  0.38395757  0.52162432  0.17704601  1
  O  O70  1  0.24413325  0.75797369  0.06759066  1
  O  O71  1  0.22455179  0.77692787  0.43076217  1
  O  O72  1  0.20852955  0.79184366  0.24865879  1
  O  O73  1  0.25398997  0.67014916  0.65535564  1
  O  O74  1  0.48645251  0.18590307  0.83732305  1
  O  O75  1  0.52073419  0.09838078  0.17924157  1
  O  O76  1  0.33856149  0.48096063  0.82454865  1
  O  O77  1  0.33280352  0.35352354  0.98145486  1
  O  O78  1  0.32459101  0.33862498  0.48141757  1
  O  O79  1  0.18646962  0.48933639  0.33369363  1
  O  O80  1  0.37217154  0.11210884  0.66626315  1
  O  O81  1  0.32002817  0.18883222  0.33603074  1
  O  O82  1  0.08635329  0.66176800  0.15764862  1
  O  O83  1  0.00394076  0.78051506  0.75111918  1
  O  O84  1  0.00687637  0.74629106  0.93232570  1
  O  O85  1  0.11384184  0.51622444  0.66472814  1
  O  O86  1  0.18706842  0.33211757  0.83671718  1
  O  O87  1  0.10207789  0.37919146  0.17697417  1
  O  O88  1  0.25433695  0.08327213  0.15765337  1
  O  O89  1  0.24210208  0.00198630  0.93151663  1
  O  O90  1  0.21830338  0.99923402  0.74982221  1
  O  O91  1  0.07812350  0.25001576  0.65588920  1
  O  O92  1  0.99521079  0.22151256  0.43050547  1
  O  O93  1  0.00144756  0.20780645  0.24861986  1
