# generated using pymatgen
data_LiCo(SO4)2
_symmetry_space_group_name_H-M   'P 1'
_cell_length_a   8.98219666
_cell_length_b   8.96219739
_cell_length_c   8.93110264
_cell_angle_alpha   55.62909586
_cell_angle_beta   55.37140331
_cell_angle_gamma   55.62709581
_symmetry_Int_Tables_number   1
_chemical_formula_structural   LiCo(SO4)2
_chemical_formula_sum   'Li3 Co3 S6 O24'
_cell_volume   455.76677886
_cell_formula_units_Z   3
loop_
 _symmetry_equiv_pos_site_id
 _symmetry_equiv_pos_as_xyz
  1  'x, y, z'
loop_
 _atom_site_type_symbol
 _atom_site_label
 _atom_site_symmetry_multiplicity
 _atom_site_fract_x
 _atom_site_fract_y
 _atom_site_fract_z
 _atom_site_occupancy
  Li  Li0  1  0.35564786  0.35721426  0.35037084  1
  Li  Li1  1  0.18393410  0.43133122  0.75301765  1
  Li  Li2  1  0.75544317  0.18248848  0.43036435  1
  Co  Co3  1  0.16939837  0.13890333  0.15999307  1
  Co  Co4  1  0.64318308  0.64575097  0.64196470  1
  Co  Co5  1  0.85143068  0.84371855  0.85518612  1
  S  S6  1  0.03946294  0.75057700  0.46047877  1
  S  S7  1  0.45762703  0.03684322  0.75887039  1
  S  S8  1  0.75740554  0.46238661  0.03452280  1
  S  S9  1  0.24964770  0.54441159  0.95944675  1
  S  S10  1  0.54574569  0.95757616  0.25392547  1
  S  S11  1  0.95682471  0.24665820  0.54712657  1
  O  O12  1  0.10746668  0.28848410  0.51477526  1
  O  O13  1  0.29249505  0.50640644  0.11233543  1
  O  O14  1  0.00397725  0.96228208  0.33874031  1
  O  O15  1  0.52409104  0.10446193  0.29485193  1
  O  O16  1  0.02230734  0.71006464  0.65909344  1
  O  O17  1  0.23186238  0.62729710  0.37494430  1
  O  O18  1  0.37169251  0.23525640  0.63651999  1
  O  O19  1  0.33488016  0.00661240  0.96994836  1
  O  O20  1  0.64127867  0.36909445  0.23290656  1
  O  O21  1  0.04672328  0.68354021  0.97731647  1
  O  O22  1  0.26896707  0.36181412  0.96359638  1
  O  O23  1  0.34981983  0.97230479  0.29456541  1
  O  O24  1  0.65598790  0.01794458  0.71402793  1
  O  O25  1  0.72249028  0.65536179  0.01904012  1
  O  O26  1  0.96841775  0.33862526  0.99448998  1
  O  O27  1  0.38496166  0.62455876  0.76102537  1
  O  O28  1  0.66868927  0.97727660  0.04685399  1
  O  O29  1  0.63054368  0.75699739  0.38350429  1
  O  O30  1  0.75748174  0.37879038  0.62458577  1
  O  O31  1  0.97018169  0.26834491  0.35565541  1
  O  O32  1  0.47596460  0.89266432  0.71214617  1
  O  O33  1  0.97227736  0.04210285  0.68166716  1
  O  O34  1  0.70178901  0.49226990  0.88922002  1
  O  O35  1  0.88440592  0.70958804  0.48922443  1
