# generated using pymatgen
data_Li4Cu3Ni3(TeO8)2
_symmetry_space_group_name_H-M   'P 1'
_cell_length_a   5.90555158
_cell_length_b   5.93044894
_cell_length_c   9.70895361
_cell_angle_alpha   89.92837028
_cell_angle_beta   90.72709685
_cell_angle_gamma   120.16718070
_symmetry_Int_Tables_number   1
_chemical_formula_structural   Li4Cu3Ni3(TeO8)2
_chemical_formula_sum   'Li4 Cu3 Ni3 Te2 O16'
_cell_volume   293.95063117
_cell_formula_units_Z   1
loop_
 _symmetry_equiv_pos_site_id
 _symmetry_equiv_pos_as_xyz
  1  'x, y, z'
loop_
 _atom_site_type_symbol
 _atom_site_label
 _atom_site_symmetry_multiplicity
 _atom_site_fract_x
 _atom_site_fract_y
 _atom_site_fract_z
 _atom_site_occupancy
  Li  Li0  1  0.32550166  0.66265069  0.91119926  1
  Li  Li1  1  0.01151771  0.00587367  0.98644618  1
  Li  Li2  1  0.00354556  0.00175867  0.48407260  1
  Li  Li3  1  0.65436475  0.32747957  0.41296010  1
  Cu  Cu4  1  0.16664600  0.82665118  0.21196227  1
  Cu  Cu5  1  0.16673162  0.33983631  0.21186622  1
  Cu  Cu6  1  0.33806418  0.16909015  0.71173034  1
  Ni  Ni7  1  0.65931929  0.82964533  0.21270421  1
  Ni  Ni8  1  0.82969561  0.65996558  0.71251156  1
  Ni  Ni9  1  0.82977209  0.16978272  0.71256727  1
  Te  Te10  1  0.33333865  0.66705596  0.48428267  1
  Te  Te11  1  0.67379461  0.33694301  0.98122776  1
  O  O12  1  0.17015060  0.83135896  0.58930458  1
  O  O13  1  0.02335698  0.51201947  0.36178312  1
  O  O14  1  0.31420567  0.65656087  0.11751655  1
  O  O15  1  0.01846569  0.00934826  0.29191441  1
  O  O16  1  0.01168008  0.00566121  0.79587774  1
  O  O17  1  0.17017286  0.33894679  0.58932229  1
  O  O18  1  0.47761482  0.96223361  0.35084297  1
  O  O19  1  0.47764275  0.51588908  0.35110677  1
  O  O20  1  0.35363167  0.17643693  0.08940761  1
  O  O21  1  0.66485232  0.83285443  0.58782621  1
  O  O22  1  0.51713609  0.48503554  0.85294239  1
  O  O23  1  0.51656602  0.03209813  0.85273764  1
  O  O24  1  0.65136824  0.32574573  0.61703253  1
  O  O25  1  0.83766531  0.66692792  0.08842691  1
  O  O26  1  0.96524787  0.48244086  0.84990014  1
  O  O27  1  0.83794930  0.17000935  0.08836671  1
