# generated using pymatgen
data_Gd4Ga2O9
_symmetry_space_group_name_H-M   'P 1'
_cell_length_a   7.54837232
_cell_length_b   10.79361709
_cell_length_c   11.49917996
_cell_angle_alpha   90.00000000
_cell_angle_beta   108.12484576
_cell_angle_gamma   90.00000000
_symmetry_Int_Tables_number   1
_chemical_formula_structural   Gd4Ga2O9
_chemical_formula_sum   'Gd16 Ga8 O36'
_cell_volume   890.39948470
_cell_formula_units_Z   4
loop_
 _symmetry_equiv_pos_site_id
 _symmetry_equiv_pos_as_xyz
  1  'x, y, z'
loop_
 _atom_site_type_symbol
 _atom_site_label
 _atom_site_symmetry_multiplicity
 _atom_site_fract_x
 _atom_site_fract_y
 _atom_site_fract_z
 _atom_site_occupancy
  Gd  Gd0  1  0.09259608  0.37134959  0.93972615  1
  Gd  Gd1  1  0.09259608  0.12865041  0.43972615  1
  Gd  Gd2  1  0.22531671  0.59559885  0.69711247  1
  Gd  Gd3  1  0.26401681  0.11242270  0.78257392  1
  Gd  Gd4  1  0.22531671  0.90440115  0.19711247  1
  Gd  Gd5  1  0.41679676  0.88402743  0.59077990  1
  Gd  Gd6  1  0.26401681  0.38757730  0.28257392  1
  Gd  Gd7  1  0.58320324  0.38402743  0.90922010  1
  Gd  Gd8  1  0.41679676  0.61597257  0.09077990  1
  Gd  Gd9  1  0.73598319  0.61242270  0.71742608  1
  Gd  Gd10  1  0.58320324  0.11597257  0.40922010  1
  Gd  Gd11  1  0.77468329  0.09559885  0.80288753  1
  Gd  Gd12  1  0.73598319  0.88757730  0.21742608  1
  Gd  Gd13  1  0.77468329  0.40440115  0.30288753  1
  Gd  Gd14  1  0.90740392  0.87134959  0.56027385  1
  Gd  Gd15  1  0.90740392  0.62865041  0.06027385  1
  Ga  Ga16  1  0.05161923  0.82515229  0.87698956  1
  Ga  Ga17  1  0.05161923  0.67484771  0.37698956  1
  Ga  Ga18  1  0.41299626  0.32017843  0.61174064  1
  Ga  Ga19  1  0.58700374  0.82017843  0.88825936  1
  Ga  Ga20  1  0.41299626  0.17982157  0.11174064  1
  Ga  Ga21  1  0.58700374  0.67982157  0.38825936  1
  Ga  Ga22  1  0.94838077  0.32515229  0.62301044  1
  Ga  Ga23  1  0.94838077  0.17484771  0.12301044  1
  O  O24  1  0.06401670  0.99311203  0.85534544  1
  O  O25  1  0.02199732  0.74035058  0.73012447  1
  O  O26  1  0.16648109  0.99748911  0.60763723  1
  O  O27  1  0.17836945  0.26303530  0.61476423  1
  O  O28  1  0.31188197  0.50562485  0.89462243  1
  O  O29  1  0.06401670  0.50688797  0.35534544  1
  O  O30  1  0.02199732  0.75964942  0.23012447  1
  O  O31  1  0.38106769  0.23915849  0.95595778  1
  O  O32  1  0.18737273  0.73589733  0.52709883  1
  O  O33  1  0.46591443  0.72773450  0.75049166  1
  O  O34  1  0.16648109  0.50251089  0.10763723  1
  O  O35  1  0.17836945  0.23696470  0.11476423  1
  O  O36  1  0.52403656  0.97677869  0.82419637  1
  O  O37  1  0.31188197  0.99437515  0.39462243  1
  O  O38  1  0.47596344  0.47677869  0.67580363  1
  O  O39  1  0.38106769  0.26084151  0.45595778  1
  O  O40  1  0.53408557  0.22773450  0.74950834  1
  O  O41  1  0.18737273  0.76410267  0.02709883  1
  O  O42  1  0.81262727  0.23589733  0.97290117  1
  O  O43  1  0.46591443  0.77226550  0.25049166  1
  O  O44  1  0.61893231  0.73915849  0.54404222  1
  O  O45  1  0.52403656  0.52322131  0.32419637  1
  O  O46  1  0.68811803  0.00562485  0.60537757  1
  O  O47  1  0.47596344  0.02322131  0.17580263  1
  O  O48  1  0.82163055  0.76303530  0.88523577  1
  O  O49  1  0.83351891  0.49748911  0.89236277  1
  O  O50  1  0.53408557  0.27226550  0.24950834  1
  O  O51  1  0.81262727  0.26410267  0.47290117  1
  O  O52  1  0.61893231  0.76084151  0.04404222  1
  O  O53  1  0.97800268  0.24035058  0.76987553  1
  O  O54  1  0.93598330  0.49311203  0.64465456  1
  O  O55  1  0.68811803  0.49437515  0.10537757  1
  O  O56  1  0.82163055  0.73696470  0.38523577  1
  O  O57  1  0.83351891  0.00251089  0.39236277  1
  O  O58  1  0.97800268  0.25964942  0.26987553  1
  O  O59  1  0.93598330  0.00688797  0.14465456  1
