# generated using pymatgen
data_Li7V3P8O29
_symmetry_space_group_name_H-M   'P 1'
_cell_length_a   9.86523631
_cell_length_b   9.88368741
_cell_length_c   13.91895347
_cell_angle_alpha   89.48651898
_cell_angle_beta   89.39254303
_cell_angle_gamma   59.96505516
_symmetry_Int_Tables_number   1
_chemical_formula_structural   Li7V3P8O29
_chemical_formula_sum   'Li14 V6 P16 O58'
_cell_volume   1174.84992562
_cell_formula_units_Z   2
loop_
 _symmetry_equiv_pos_site_id
 _symmetry_equiv_pos_as_xyz
  1  'x, y, z'
loop_
 _atom_site_type_symbol
 _atom_site_label
 _atom_site_symmetry_multiplicity
 _atom_site_fract_x
 _atom_site_fract_y
 _atom_site_fract_z
 _atom_site_occupancy
  Li  Li0  1  0.90523258  0.76560625  0.06491168  1
  Li  Li1  1  0.77340048  0.91325341  0.56294947  1
  Li  Li2  1  0.91352459  0.31163218  0.55989394  1
  Li  Li3  1  0.66827029  0.66863633  0.38354077  1
  Li  Li4  1  0.66106016  0.67051951  0.88269307  1
  Li  Li5  1  0.76870930  0.32556070  0.06148613  1
  Li  Li6  1  0.32888855  0.90449218  0.06324290  1
  Li  Li7  1  0.68093435  0.22451124  0.44122893  1
  Li  Li8  1  0.31382132  0.77400586  0.56192795  1
  Li  Li9  1  0.33786206  0.33066420  0.11360488  1
  Li  Li10  1  0.09617726  0.67688098  0.43639512  1
  Li  Li11  1  0.22546504  0.09400670  0.43540230  1
  Li  Li12  1  0.09535388  0.23139465  0.93902957  1
  Li  Li13  1  0.98692740  0.97006346  0.99920536  1
  V  V14  1  0.56476699  0.43508385  0.24835107  1
  V  V15  1  0.43003365  0.56356729  0.75599163  1
  V  V16  1  0.56712256  0.00370803  0.75089448  1
  V  V17  1  0.43502348  0.99880147  0.24843991  1
  V  V18  1  0.99931650  0.56879301  0.24986691  1
  V  V19  1  0.00140243  0.43272073  0.74684236  1
  P  P20  1  0.90670283  0.77337176  0.84342720  1
  P  P21  1  0.76534264  0.91143008  0.34561902  1
  P  P22  1  0.90711243  0.32347061  0.34195125  1
  P  P23  1  0.66554228  0.66485045  0.12257144  1
  P  P24  1  0.66443682  0.66756093  0.62756519  1
  P  P25  1  0.77421681  0.31672913  0.84247254  1
  P  P26  1  0.68052951  0.23454948  0.65905735  1
  P  P27  1  0.31576081  0.90963971  0.84272811  1
  P  P28  1  0.68999504  0.08819747  0.15747439  1
  P  P29  1  0.32157655  0.76619670  0.34462118  1
  P  P30  1  0.22572533  0.68976181  0.15719737  1
  P  P31  1  0.33277057  0.33577330  0.37483323  1
  P  P32  1  0.33303116  0.32931797  0.87248924  1
  P  P33  1  0.08745815  0.68317412  0.65936497  1
  P  P34  1  0.23444705  0.08629395  0.65765735  1
  P  P35  1  0.09052612  0.23025395  0.15608756  1
  O  O36  1  0.99754691  0.75711690  0.56929406  1
  O  O37  1  0.91910144  0.75401708  0.34483631  1
  O  O38  1  0.79917621  0.99125329  0.07816647  1
  O  O39  1  0.73855692  0.91512643  0.83391345  1
  O  O40  1  0.89448816  0.62433059  0.83087888  1
  O  O41  1  0.81157166  0.67034191  0.15785627  1
  O  O42  1  0.87883198  0.49035475  0.32687432  1
  O  O43  1  0.99739443  0.23718408  0.06833818  1
  O  O44  1  0.92085336  0.33888456  0.83505338  1
  O  O45  1  0.67002890  0.81403473  0.66466063  1
  O  O46  1  0.62893777  0.88027337  0.32714896  1
  O  O47  1  0.81511658  0.51419251  0.66463030  1
  O  O48  1  0.66683236  0.65056453  0.01453596  1
  O  O49  1  0.66269274  0.66650851  0.51947623  1
  O  O50  1  0.66957077  0.51299650  0.16691276  1
  O  O51  1  0.47926408  0.89402876  0.82973814  1
  O  O52  1  0.51294992  0.81024550  0.15854599  1
  O  O53  1  0.74745132  0.32998485  0.34290903  1
  O  O54  1  0.79117633  0.21257903  0.75044714  1
  O  O55  1  0.76217755  0.24198837  0.56896308  1
  O  O56  1  0.78288998  0.23216620  0.93332501  1
  O  O57  1  0.62712963  0.48121699  0.83031688  1
  O  O58  1  0.51563782  0.66756975  0.67027151  1
  O  O59  1  0.66960161  0.25411169  0.15711651  1
  O  O60  1  0.48908726  0.62589695  0.32530277  1
  O  O61  1  0.32918676  0.91731925  0.34464526  1
  O  O62  1  0.77655564  0.01179877  0.25803954  1
  O  O63  1  0.74424958  0.00392196  0.43586709  1
  O  O64  1  0.24442601  0.99869353  0.56760640  1
  O  O65  1  0.66723363  0.08482215  0.66058716  1
  O  O66  1  0.52269390  0.38200676  0.67548415  1
  O  O67  1  0.33571712  0.74640775  0.84049384  1
  O  O68  1  0.48040768  0.34004028  0.32468527  1
  O  O69  1  0.37625669  0.52557681  0.16530367  1
  O  O70  1  0.22072546  0.79182243  0.07558776  1
  O  O71  1  0.25086832  0.74445456  0.43597282  1
  O  O72  1  0.21135643  0.77906033  0.25734874  1
  O  O73  1  0.25083269  0.66506614  0.65957697  1
  O  O74  1  0.48038309  0.18877352  0.82852574  1
  O  O75  1  0.52633667  0.10437169  0.16206308  1
  O  O76  1  0.33344799  0.47991731  0.82974166  1
  O  O77  1  0.33099927  0.33110980  0.97970046  1
  O  O78  1  0.35177165  0.33322835  0.48115713  1
  O  O79  1  0.18507497  0.48699267  0.33818101  1
  O  O80  1  0.38407962  0.09373262  0.67622724  1
  O  O81  1  0.33289435  0.18832845  0.33504562  1
  O  O82  1  0.08218916  0.66814182  0.15626059  1
  O  O83  1  0.99876197  0.78946101  0.75135393  1
  O  O84  1  0.98218131  0.78345048  0.93333849  1
  O  O85  1  0.09703722  0.52344465  0.67959272  1
  O  O86  1  0.18402376  0.32917963  0.83485396  1
  O  O87  1  0.11379125  0.37206281  0.16770039  1
  O  O88  1  0.25021165  0.07935977  0.15654217  1
  O  O89  1  0.22721853  0.00190338  0.93028176  1
  O  O90  1  0.21074159  0.00032842  0.74934523  1
  O  O91  1  0.08729749  0.25187801  0.65707232  1
  O  O92  1  0.00100053  0.24461392  0.43082972  1
  O  O93  1  0.99897534  0.21865867  0.25008809  1
