# generated using pymatgen
data_Li7V3P8O29
_symmetry_space_group_name_H-M   'P 1'
_cell_length_a   9.86806421
_cell_length_b   9.90488300
_cell_length_c   13.95768724
_cell_angle_alpha   89.76823984
_cell_angle_beta   90.14975693
_cell_angle_gamma   59.83541582
_symmetry_Int_Tables_number   1
_chemical_formula_structural   Li7V3P8O29
_chemical_formula_sum   'Li14 V6 P16 O58'
_cell_volume   1179.48639322
_cell_formula_units_Z   2
loop_
 _symmetry_equiv_pos_site_id
 _symmetry_equiv_pos_as_xyz
  1  'x, y, z'
loop_
 _atom_site_type_symbol
 _atom_site_label
 _atom_site_symmetry_multiplicity
 _atom_site_fract_x
 _atom_site_fract_y
 _atom_site_fract_z
 _atom_site_occupancy
  Li  Li0  1  0.77494455  0.91316822  0.56437676  1
  Li  Li1  1  0.91372276  0.31508990  0.56291317  1
  Li  Li2  1  0.66957348  0.66757468  0.38623824  1
  Li  Li3  1  0.67161577  0.67283094  0.88461934  1
  Li  Li4  1  0.76885958  0.31948754  0.05832248  1
  Li  Li5  1  0.32207764  0.90702857  0.06107253  1
  Li  Li6  1  0.68988271  0.22282235  0.44267327  1
  Li  Li7  1  0.31360590  0.77632487  0.56718833  1
  Li  Li8  1  0.67610251  0.09152764  0.93467715  1
  Li  Li9  1  0.33023172  0.34053463  0.11214199  1
  Li  Li10  1  0.09523846  0.68034845  0.44097506  1
  Li  Li11  1  0.22515103  0.08975626  0.44063591  1
  Li  Li12  1  0.09523600  0.22438732  0.93740190  1
  Li  Li13  1  0.02043030  0.91221457  0.00636503  1
  V  V14  1  0.56377454  0.43684430  0.24952311  1
  V  V15  1  0.42673470  0.56807042  0.75258766  1
  V  V16  1  0.56632607  0.00097241  0.74802530  1
  V  V17  1  0.43361325  0.99989796  0.24860836  1
  V  V18  1  0.99604248  0.57038857  0.24556495  1
  V  V19  1  0.00169430  0.43639656  0.75283722  1
  P  P20  1  0.91535602  0.77499174  0.84249209  1
  P  P21  1  0.76969154  0.90977764  0.34041429  1
  P  P22  1  0.90952938  0.32349545  0.34264302  1
  P  P23  1  0.66667443  0.66133653  0.12442070  1
  P  P24  1  0.66733111  0.66540840  0.62732868  1
  P  P25  1  0.77117740  0.31977047  0.84256294  1
  P  P26  1  0.68052492  0.23729262  0.65773233  1
  P  P27  1  0.32029518  0.90633119  0.84126781  1
  P  P28  1  0.68171546  0.09270628  0.15427903  1
  P  P29  1  0.32321277  0.76670283  0.34658175  1
  P  P30  1  0.22241991  0.68975392  0.16090046  1
  P  P31  1  0.32893606  0.33870825  0.37185254  1
  P  P32  1  0.33244493  0.33344174  0.87326430  1
  P  P33  1  0.08547242  0.68019443  0.65747879  1
  P  P34  1  0.23024975  0.09162885  0.65789370  1
  P  P35  1  0.08710049  0.23274703  0.15683203  1
  O  O36  1  0.99954443  0.75549974  0.56560271  1
  O  O37  1  0.92251621  0.74955810  0.34049716  1
  O  O38  1  0.77064395  0.01118740  0.06562565  1
  O  O39  1  0.74885537  0.91774855  0.84202226  1
  O  O40  1  0.90009269  0.62546838  0.83226693  1
  O  O41  1  0.81507436  0.65820158  0.17017532  1
  O  O42  1  0.88611526  0.48875656  0.32741671  1
  O  O43  1  0.99286674  0.24526911  0.06847532  1
  O  O44  1  0.91897142  0.33515894  0.84538938  1
  O  O45  1  0.67281085  0.81298803  0.66004721  1
  O  O46  1  0.63114886  0.88060579  0.32510038  1
  O  O47  1  0.81622601  0.51723320  0.67381632  1
  O  O48  1  0.67954516  0.64205639  0.01801792  1
  O  O49  1  0.67776120  0.64899260  0.51978321  1
  O  O50  1  0.66724624  0.51292343  0.16879621  1
  O  O51  1  0.48447665  0.88662086  0.83452552  1
  O  O52  1  0.51705401  0.81123927  0.15664862  1
  O  O53  1  0.74819940  0.33329114  0.34282983  1
  O  O54  1  0.79119274  0.21706960  0.74878837  1
  O  O55  1  0.75410221  0.25698178  0.56811863  1
  O  O56  1  0.76453276  0.23230959  0.92973605  1
  O  O57  1  0.62588196  0.48369982  0.82955737  1
  O  O58  1  0.51507595  0.67094751  0.66493199  1
  O  O59  1  0.66606315  0.25661901  0.16003213  1
  O  O60  1  0.49063849  0.62759960  0.32568153  1
  O  O61  1  0.33015165  0.91818519  0.34494550  1
  O  O62  1  0.78292685  0.00110113  0.24851638  1
  O  O63  1  0.75404889  0.00246364  0.42930076  1
  O  O64  1  0.23628853  0.00198877  0.56903462  1
  O  O65  1  0.66739453  0.09051235  0.65532028  1
  O  O66  1  0.52236964  0.38570356  0.67973608  1
  O  O67  1  0.33811804  0.74184475  0.83474627  1
  O  O68  1  0.47478165  0.34512726  0.32451357  1
  O  O69  1  0.37620384  0.52805886  0.16573329  1
  O  O70  1  0.21404503  0.79443917  0.08037161  1
  O  O71  1  0.25496850  0.74350894  0.43708322  1
  O  O72  1  0.21076843  0.77909842  0.25980450  1
  O  O73  1  0.24897494  0.66628331  0.66007070  1
  O  O74  1  0.48305183  0.18507059  0.83942299  1
  O  O75  1  0.51718185  0.11237750  0.16564959  1
  O  O76  1  0.32624979  0.48009408  0.82939482  1
  O  O77  1  0.32126356  0.33491546  0.98071089  1
  O  O78  1  0.33318512  0.35462574  0.47727648  1
  O  O79  1  0.17718397  0.48411593  0.32700721  1
  O  O80  1  0.37424941  0.10760401  0.67234693  1
  O  O81  1  0.33377457  0.18790057  0.33653631  1
  O  O82  1  0.08323524  0.66264870  0.16041045  1
  O  O83  1  0.98986763  0.79408644  0.74337946  1
  O  O84  1  0.01298408  0.77259348  0.92400369  1
  O  O85  1  0.09980661  0.52017250  0.67544274  1
  O  O86  1  0.18163833  0.32892527  0.83282152  1
  O  O87  1  0.10980196  0.37549314  0.17063991  1
  O  O88  1  0.24768564  0.08283549  0.15621057  1
  O  O89  1  0.22993948  0.99195362  0.93003523  1
  O  O90  1  0.21553658  0.99798691  0.74978927  1
  O  O91  1  0.07792718  0.25193632  0.66132865  1
  O  O92  1  0.00290081  0.24427476  0.43138682  1
  O  O93  1  0.99866525  0.21926763  0.25028973  1
