# generated using pymatgen
data_Dy3TaO7
_symmetry_space_group_name_H-M   'P 1'
_cell_length_a   7.45705188
_cell_length_b   10.58409435
_cell_length_c   7.58704935
_cell_angle_alpha   90.00000000
_cell_angle_beta   90.00000000
_cell_angle_gamma   90.00000000
_symmetry_Int_Tables_number   1
_chemical_formula_structural   Dy3TaO7
_chemical_formula_sum   'Dy12 Ta4 O28'
_cell_volume   598.81652427
_cell_formula_units_Z   4
loop_
 _symmetry_equiv_pos_site_id
 _symmetry_equiv_pos_as_xyz
  1  'x, y, z'
loop_
 _atom_site_type_symbol
 _atom_site_label
 _atom_site_symmetry_multiplicity
 _atom_site_fract_x
 _atom_site_fract_y
 _atom_site_fract_z
 _atom_site_occupancy
  Dy  Dy0  1  0.01584457  0.25000000  0.79725050  1
  Dy  Dy1  1  0.25243182  0.52079596  0.96856198  1
  Dy  Dy2  1  0.25243182  0.97920404  0.96856198  1
  Dy  Dy3  1  0.24756818  0.02079696  0.46856198  1
  Dy  Dy4  1  0.24756818  0.47920404  0.46856198  1
  Dy  Dy5  1  0.48415543  0.75000000  0.29725050  1
  Dy  Dy6  1  0.51584457  0.25000000  0.70274950  1
  Dy  Dy7  1  0.75243182  0.52079596  0.53143802  1
  Dy  Dy8  1  0.75243182  0.97920404  0.53143802  1
  Dy  Dy9  1  0.74756818  0.02079696  0.03143802  1
  Dy  Dy10  1  0.74756818  0.47920404  0.03143802  1
  Dy  Dy11  1  0.98415543  0.75000000  0.20274950  1
  Ta  Ta12  1  0.99788970  0.75000000  0.75002863  1
  Ta  Ta13  1  0.50211030  0.25000000  0.25002863  1
  Ta  Ta14  1  0.49788970  0.75000000  0.74997137  1
  Ta  Ta15  1  0.00211030  0.25000000  0.24997137  1
  O  O16  1  0.03673430  0.12481194  0.04614054  1
  O  O17  1  0.03673430  0.37518806  0.04614054  1
  O  O18  1  0.03966941  0.61063248  0.58840165  1
  O  O19  1  0.03966941  0.88936752  0.58840165  1
  O  O20  1  0.24877845  0.25000000  0.33497649  1
  O  O21  1  0.25765987  0.11603758  0.73328105  1
  O  O22  1  0.25765987  0.38396242  0.73328105  1
  O  O23  1  0.24234013  0.61603758  0.23328105  1
  O  O24  1  0.24234013  0.88396242  0.23328105  1
  O  O25  1  0.25122155  0.75000000  0.83497649  1
  O  O26  1  0.46033059  0.11063248  0.08840165  1
  O  O27  1  0.46033059  0.38936752  0.08840165  1
  O  O28  1  0.46326570  0.62481194  0.54614054  1
  O  O29  1  0.46326570  0.87518806  0.54614054  1
  O  O30  1  0.53673430  0.12481194  0.45385946  1
  O  O31  1  0.53673430  0.37518806  0.45385946  1
  O  O32  1  0.53966941  0.61063248  0.91159835  1
  O  O33  1  0.53966941  0.88936752  0.91159835  1
  O  O34  1  0.74877845  0.25000000  0.16502351  1
  O  O35  1  0.75765987  0.11603758  0.76671895  1
  O  O36  1  0.75765987  0.38396242  0.76671895  1
  O  O37  1  0.74234013  0.61603758  0.26671895  1
  O  O38  1  0.74234013  0.88396242  0.26671895  1
  O  O39  1  0.75122155  0.75000000  0.66502351  1
  O  O40  1  0.96033059  0.11063248  0.41159835  1
  O  O41  1  0.96033059  0.38936752  0.41159835  1
  O  O42  1  0.96326570  0.62481194  0.95385946  1
  O  O43  1  0.96326570  0.87518806  0.95385946  1
