# generated using pymatgen
data_Li12Mn7V(PO4)12
_symmetry_space_group_name_H-M   'P 1'
_cell_length_a   8.63947262
_cell_length_b   12.30209270
_cell_length_c   8.73647086
_cell_angle_alpha   89.60200840
_cell_angle_beta   90.64478260
_cell_angle_gamma   92.32166748
_symmetry_Int_Tables_number   1
_chemical_formula_structural   Li12Mn7V(PO4)12
_chemical_formula_sum   'Li12 Mn7 V1 P12 O48'
_cell_volume   927.70299327
_cell_formula_units_Z   1
loop_
 _symmetry_equiv_pos_site_id
 _symmetry_equiv_pos_as_xyz
  1  'x, y, z'
loop_
 _atom_site_type_symbol
 _atom_site_label
 _atom_site_symmetry_multiplicity
 _atom_site_fract_x
 _atom_site_fract_y
 _atom_site_fract_z
 _atom_site_occupancy
  Li  Li0  1  0.08053191  0.69614978  0.08145530  1
  Li  Li1  1  0.07996284  0.76011474  0.69662890  1
  Li  Li2  1  0.20763357  0.17387133  0.78193512  1
  Li  Li3  1  0.29052617  0.32659595  0.27866722  1
  Li  Li4  1  0.42311863  0.73856270  0.19365730  1
  Li  Li5  1  0.42315441  0.80310371  0.58465197  1
  Li  Li6  1  0.57888759  0.19809456  0.41925274  1
  Li  Li7  1  0.58013179  0.26320520  0.80487869  1
  Li  Li8  1  0.70774611  0.67188242  0.71851710  1
  Li  Li9  1  0.79346028  0.82774095  0.21698306  1
  Li  Li10  1  0.91657242  0.23713550  0.30567493  1
  Li  Li11  1  0.91865582  0.30305029  0.91809314  1
  Mn  Mn12  1  0.25305289  0.89815206  0.03754629  1
  Mn  Mn13  1  0.24798056  0.11008300  0.45873018  1
  Mn  Mn14  1  0.25120865  0.39089901  0.95762099  1
  Mn  Mn15  1  0.74801749  0.60884100  0.04015543  1
  Mn  Mn16  1  0.75255403  0.89010742  0.54289382  1
  Mn  Mn17  1  0.74754794  0.10174098  0.96279065  1
  Mn  Mn18  1  0.75122970  0.39799578  0.46295670  1
  V  V19  1  0.24799966  0.60743025  0.53143644  1
  P  P20  1  0.03486530  0.49352481  0.24980646  1
  P  P21  1  0.10605258  0.85504843  0.38337131  1
  P  P22  1  0.10006831  0.15473646  0.09870861  1
  P  P23  1  0.39704926  0.34762715  0.59840379  1
  P  P24  1  0.39740533  0.64116876  0.88582202  1
  P  P25  1  0.46027010  0.00518856  0.75244958  1
  P  P26  1  0.54002520  0.99607729  0.24914071  1
  P  P27  1  0.60221133  0.35962573  0.11599730  1
  P  P28  1  0.60477583  0.65701671  0.39991238  1
  P  P29  1  0.90019916  0.84488713  0.90080026  1
  P  P30  1  0.89492004  0.14082315  0.61717821  1
  P  P31  1  0.96079035  0.50501883  0.74682722  1
  O  O32  1  0.04786672  0.43374087  0.86519137  1
  O  O33  1  0.08211670  0.84958803  0.89281626  1
  O  O34  1  0.07057265  0.59572784  0.67859365  1
  O  O35  1  0.07041212  0.16694445  0.59619804  1
  O  O36  1  0.10192680  0.57530676  0.36764396  1
  O  O37  1  0.14365927  0.82244575  0.21421831  1
  O  O38  1  0.14367037  0.97758190  0.40465221  1
  O  O39  1  0.14042492  0.24672519  0.97656223  1
  O  O40  1  0.15036471  0.19292391  0.26108760  1
  O  O41  1  0.16684528  0.43447782  0.17496636  1
  O  O42  1  0.17044127  0.05235274  0.04393335  1
  O  O43  1  0.19834528  0.78640174  0.50189523  1
  O  O44  1  0.30478066  0.70250783  0.00559348  1
  O  O45  1  0.32608975  0.45197529  0.54537220  1
  O  O46  1  0.32825556  0.06606673  0.67515274  1
  O  O47  1  0.34901635  0.30606121  0.75879101  1
  O  O48  1  0.36474616  0.51727995  0.89712007  1
  O  O49  1  0.36055015  0.67871752  0.71785582  1
  O  O50  1  0.35525125  0.25629180  0.47512826  1
  O  O51  1  0.39538369  0.92365619  0.87276560  1
  O  O52  1  0.43030740  0.90411074  0.17998023  1
  O  O53  1  0.42353708  0.65190050  0.39214657  1
  O  O54  1  0.42529541  0.33394360  0.09354235  1
  O  O55  1  0.45411915  0.06747496  0.36318815  1
  O  O56  1  0.54555539  0.93456478  0.63764606  1
  O  O57  1  0.57474967  0.66617308  0.90838214  1
  O  O58  1  0.57921874  0.35138952  0.60514494  1
  O  O59  1  0.57018460  0.09693041  0.82193577  1
  O  O60  1  0.60507513  0.07672066  0.12796541  1
  O  O61  1  0.64245361  0.74817678  0.52439241  1
  O  O62  1  0.63891211  0.32274304  0.28531754  1
  O  O63  1  0.63414435  0.48343390  0.10539757  1
  O  O64  1  0.65425067  0.69746605  0.23983593  1
  O  O65  1  0.67269375  0.93606169  0.32739081  1
  O  O66  1  0.67621463  0.55470460  0.45768696  1
  O  O67  1  0.69532661  0.29807486  0.99685323  1
  O  O68  1  0.79989919  0.20279431  0.49662758  1
  O  O69  1  0.82902059  0.94697175  0.95660863  1
  O  O70  1  0.82673062  0.56195647  0.82129938  1
  O  O71  1  0.84892924  0.80609252  0.73877793  1
  O  O72  1  0.86121134  0.75244873  0.02223793  1
  O  O73  1  0.86429359  0.01667864  0.60429139  1
  O  O74  1  0.85743576  0.17627529  0.78573095  1
  O  O75  1  0.89836635  0.42146001  0.62718584  1
  O  O76  1  0.93066777  0.83149766  0.40369700  1
  O  O77  1  0.92579470  0.40255514  0.32053895  1
  O  O78  1  0.91808120  0.15068360  0.10623381  1
  O  O79  1  0.94820644  0.56444256  0.13148799  1
