# generated using pymatgen
data_Fe6P4H17O27
_symmetry_space_group_name_H-M   'P 1'
_cell_length_a   11.02353817
_cell_length_b   11.02353817
_cell_length_c   19.40176281
_cell_angle_alpha   85.98376277
_cell_angle_beta   94.01623723
_cell_angle_gamma   152.78941916
_symmetry_Int_Tables_number   1
_chemical_formula_structural   Fe6P4H17O27
_chemical_formula_sum   'Fe12 P8 H34 O54'
_cell_volume   1075.27101009
_cell_formula_units_Z   2
loop_
 _symmetry_equiv_pos_site_id
 _symmetry_equiv_pos_as_xyz
  1  'x, y, z'
loop_
 _atom_site_type_symbol
 _atom_site_label
 _atom_site_symmetry_multiplicity
 _atom_site_fract_x
 _atom_site_fract_y
 _atom_site_fract_z
 _atom_site_occupancy
  Fe  Fe0  1  0.00000000  -0.00000000  0.50000000  1
  Fe  Fe1  1  0.00000000  -0.00000000  0.00000000  1
  Fe  Fe2  1  0.00000000  0.50000000  0.50000000  1
  Fe  Fe3  1  0.50000000  -0.00000000  0.00000000  1
  Fe  Fe4  1  0.77254203  0.68486796  0.67287208  1
  Fe  Fe5  1  0.68486796  0.77254203  0.82712792  1
  Fe  Fe6  1  0.22745797  0.31513204  0.32712792  1
  Fe  Fe7  1  0.31513204  0.22745797  0.17287208  1
  Fe  Fe8  1  0.07158804  0.85311454  0.92014594  1
  Fe  Fe9  1  0.85311454  0.07158804  0.57985406  1
  Fe  Fe10  1  0.92841196  0.14688546  0.07985406  1
  Fe  Fe11  1  0.14688546  0.92841196  0.42014594  1
  P  P12  1  0.63330996  0.42093934  0.52705840  1
  P  P13  1  0.42093934  0.63330996  0.97294160  1
  P  P14  1  0.36669004  0.57906066  0.47294160  1
  P  P15  1  0.57906066  0.36669004  0.02705840  1
  P  P16  1  0.36293278  0.54697992  0.67952975  1
  P  P17  1  0.54697992  0.36293278  0.82047025  1
  P  P18  1  0.63706722  0.45302008  0.32047025  1
  P  P19  1  0.45302008  0.63706722  0.17952975  1
  H  H20  1  0.15819438  0.14824013  0.87310062  1
  H  H21  1  0.14824013  0.15819438  0.62689938  1
  H  H22  1  0.84180562  0.85175987  0.12689938  1
  H  H23  1  0.85175987  0.84180562  0.37310062  1
  H  H24  1  0.00244986  0.61181781  0.99775851  1
  H  H25  1  0.61181781  0.00244986  0.50224149  1
  H  H26  1  0.99755014  0.38818219  0.00224149  1
  H  H27  1  0.38818219  0.99755014  0.49775851  1
  H  H28  1  0.08017459  0.08017459  0.75000000  1
  H  H29  1  0.91982541  0.91982541  0.25000000  1
  H  H30  1  0.09127511  0.30524000  0.80844094  1
  H  H31  1  0.30524000  0.09127511  0.69155906  1
  H  H32  1  0.90872489  0.69476000  0.19155906  1
  H  H33  1  0.69476000  0.90872489  0.30844094  1
  H  H34  1  0.86697226  0.12224677  0.75454715  1
  H  H35  1  0.12224677  0.86697226  0.74545285  1
  H  H36  1  0.13302774  0.87775323  0.24545285  1
  H  H37  1  0.87775323  0.13302774  0.25454715  1
  H  H38  1  0.03483537  0.55028549  0.63954351  1
  H  H39  1  0.55028549  0.03483537  0.86045649  1
  H  H40  1  0.96516463  0.44971451  0.36045649  1
  H  H41  1  0.44971451  0.96516463  0.13954351  1
  H  H42  1  0.29875418  0.71923836  0.61542763  1
  H  H43  1  0.71923836  0.29875418  0.88457237  1
  H  H44  1  0.70124582  0.28076164  0.38457237  1
  H  H45  1  0.28076164  0.70124582  0.11542763  1
  H  H46  1  0.75339505  0.38842905  0.72629285  1
  H  H47  1  0.38842905  0.75339505  0.77370715  1
  H  H48  1  0.24660495  0.61157095  0.27370715  1
  H  H49  1  0.61157095  0.24660495  0.22629285  1
  H  H50  1  0.67684301  0.18359659  0.73466604  1
  H  H51  1  0.18359659  0.67684301  0.76533396  1
  H  H52  1  0.32315699  0.81640341  0.26533396  1
  H  H53  1  0.81640341  0.32315699  0.23466604  1
  O  O54  1  0.69557205  0.33986142  0.52176597  1
  O  O55  1  0.33986142  0.69557205  0.97823403  1
  O  O56  1  0.30442795  0.66013858  0.47823403  1
  O  O57  1  0.66013858  0.30442795  0.02176597  1
  O  O58  1  0.17102933  0.32577018  0.51842142  1
  O  O59  1  0.32577018  0.17102933  0.98157858  1
  O  O60  1  0.82897067  0.67422982  0.48157858  1
  O  O61  1  0.67422982  0.82897067  0.01842142  1
  O  O62  1  0.18940037  0.34491998  0.00127881  1
  O  O63  1  0.34491998  0.18940037  0.49872119  1
  O  O64  1  0.81059963  0.65508002  0.99872119  1
  O  O65  1  0.65508002  0.81059963  0.50127881  1
  O  O66  1  0.65009387  0.47107195  0.60198782  1
  O  O67  1  0.47107195  0.65009387  0.89801218  1
  O  O68  1  0.34990613  0.52892805  0.39801218  1
  O  O69  1  0.52892805  0.34990613  0.10198782  1
  O  O70  1  0.43054036  0.47382129  0.66552194  1
  O  O71  1  0.47382129  0.43054036  0.83447806  1
  O  O72  1  0.56945964  0.52617871  0.33447806  1
  O  O73  1  0.52617871  0.56945964  0.16552194  1
  O  O74  1  0.61118505  0.41188867  0.74253969  1
  O  O75  1  0.41188867  0.61118505  0.75746031  1
  O  O76  1  0.38881495  0.58811133  0.25746031  1
  O  O77  1  0.58811133  0.38881495  0.24253969  1
  O  O78  1  0.06437123  0.30454221  0.66247501  1
  O  O79  1  0.30454221  0.06437123  0.83752499  1
  O  O80  1  0.93562877  0.69545779  0.33752499  1
  O  O81  1  0.69545779  0.93562877  0.16247501  1
  O  O82  1  0.78673237  0.52703544  0.86514727  1
  O  O83  1  0.52703544  0.78673237  0.63485273  1
  O  O84  1  0.21326763  0.47296456  0.13485273  1
  O  O85  1  0.47296456  0.21326763  0.36514727  1
  O  O86  1  0.98070340  0.96836642  0.89235641  1
  O  O87  1  0.96836642  0.98070340  0.60764359  1
  O  O88  1  0.01929660  0.03163358  0.10764359  1
  O  O89  1  0.03163358  0.01929660  0.39235641  1
  O  O90  1  0.15808218  0.77224991  0.96851663  1
  O  O91  1  0.77224991  0.15808218  0.53148337  1
  O  O92  1  0.84191782  0.22775009  0.03148337  1
  O  O93  1  0.22775009  0.84191782  0.46851663  1
  O  O94  1  0.89195067  0.89195067  0.75000000  1
  O  O95  1  0.10804933  0.10804933  0.25000000  1
  O  O96  1  0.89521983  0.12741106  0.80457269  1
  O  O97  1  0.12741106  0.89521983  0.69542731  1
  O  O98  1  0.10478017  0.87258894  0.19542731  1
  O  O99  1  0.87258894  0.10478017  0.30457269  1
  O  O100  1  0.15766079  0.65277356  0.60046977  1
  O  O101  1  0.65277356  0.15766079  0.89953023  1
  O  O102  1  0.84233921  0.34722644  0.39953023  1
  O  O103  1  0.34722644  0.84233921  0.10046977  1
  O  O104  1  0.37255849  0.82814265  0.77694051  1
  O  O105  1  0.82814265  0.37255849  0.72305949  1
  O  O106  1  0.62744151  0.17185735  0.22305949  1
  O  O107  1  0.17185735  0.62744151  0.27694051  1
