# generated using pymatgen
data_Na12Mn7H24S14O67
_symmetry_space_group_name_H-M   'P 1'
_cell_length_a   12.07196261
_cell_length_b   12.07211311
_cell_length_c   12.07218367
_cell_angle_alpha   106.53312553
_cell_angle_beta   106.53726457
_cell_angle_gamma   106.53687331
_symmetry_Int_Tables_number   1
_chemical_formula_structural   Na12Mn7H24S14O67
_chemical_formula_sum   'Na12 Mn7 H24 S14 O67'
_cell_volume   1483.35003727
_cell_formula_units_Z   1
loop_
 _symmetry_equiv_pos_site_id
 _symmetry_equiv_pos_as_xyz
  1  'x, y, z'
loop_
 _atom_site_type_symbol
 _atom_site_label
 _atom_site_symmetry_multiplicity
 _atom_site_fract_x
 _atom_site_fract_y
 _atom_site_fract_z
 _atom_site_occupancy
  Na  Na0  1  0.90369986  0.49836646  0.35858704  1
  Na  Na1  1  0.49835894  0.35856347  0.90367905  1
  Na  Na2  1  0.35858103  0.90370158  0.49834244  1
  Na  Na3  1  0.09624647  0.50160590  0.64145126  1
  Na  Na4  1  0.50164463  0.64151742  0.09626174  1
  Na  Na5  1  0.64147711  0.09627153  0.50164210  1
  Na  Na6  1  0.69508842  0.54905498  0.81093039  1
  Na  Na7  1  0.54906887  0.81094574  0.69512113  1
  Na  Na8  1  0.81095246  0.69513569  0.54910080  1
  Na  Na9  1  0.30510974  0.45126649  0.18917324  1
  Na  Na10  1  0.45128556  0.18916647  0.30512694  1
  Na  Na11  1  0.18919558  0.30511061  0.45126068  1
  Mn  Mn12  1  0.88401515  0.31797043  0.79750025  1
  Mn  Mn13  1  0.31796481  0.79742518  0.88400579  1
  Mn  Mn14  1  0.79755166  0.88416295  0.31808451  1
  Mn  Mn15  1  0.11579072  0.68194564  0.20247350  1
  Mn  Mn16  1  0.68196055  0.20236200  0.11597250  1
  Mn  Mn17  1  0.20242516  0.11579161  0.68195425  1
  Mn  Mn18  1  0.50002206  0.49997879  0.49991372  1
  H  H19  1  0.62369658  0.23853320  0.71738056  1
  H  H20  1  0.23852803  0.71737398  0.62366270  1
  H  H21  1  0.71738531  0.62373238  0.23853206  1
  H  H22  1  0.37628643  0.76149138  0.28262023  1
  H  H23  1  0.76148050  0.28261823  0.37628694  1
  H  H24  1  0.28262447  0.37629991  0.76149642  1
  H  H25  1  0.66282600  0.15371876  0.78369754  1
  H  H26  1  0.15372441  0.78371680  0.66283987  1
  H  H27  1  0.78369960  0.66288723  0.15373797  1
  H  H28  1  0.33711239  0.84627852  0.21631362  1
  H  H29  1  0.84627219  0.21631292  0.33709843  1
  H  H30  1  0.21632151  0.33712907  0.84628561  1
  H  H31  1  0.01713085  0.19030564  0.90902477  1
  H  H32  1  0.19035150  0.90902875  0.01710873  1
  H  H33  1  0.90901628  0.01713457  0.19032312  1
  H  H34  1  0.98291148  0.80973154  0.09099178  1
  H  H35  1  0.80973288  0.09099238  0.98292012  1
  H  H36  1  0.09097987  0.98289030  0.80972310  1
  H  H37  1  0.95352895  0.12285335  0.76117145  1
  H  H38  1  0.12282942  0.76116687  0.95353273  1
  H  H39  1  0.76116027  0.95352210  0.12283636  1
  H  H40  1  0.04651612  0.87717714  0.23885795  1
  H  H41  1  0.87718113  0.23886482  0.04651941  1
  H  H42  1  0.23885879  0.04650423  0.87719653  1
  S  S43  1  0.77105947  0.44101618  0.58773148  1
  S  S44  1  0.44103051  0.58771238  0.77104606  1
  S  S45  1  0.58772097  0.77106150  0.44102054  1
  S  S46  1  0.22889650  0.55896976  0.41226312  1
  S  S47  1  0.55894747  0.41224687  0.22886201  1
  S  S48  1  0.41226501  0.22889993  0.55896956  1
  S  S49  1  0.82545972  0.44976227  0.04945774  1
  S  S50  1  0.44974708  0.04942691  0.82546988  1
  S  S51  1  0.04945034  0.82547210  0.44978784  1
  S  S52  1  0.17447561  0.55021253  0.95053844  1
  S  S53  1  0.55020967  0.95052916  0.17447230  1
  S  S54  1  0.95055293  0.17453354  0.55025045  1
  S  S55  1  0.88096741  0.88095852  0.88093128  1
  S  S56  1  0.11912992  0.11908326  0.11905023  1
  O  O57  1  0.69462956  0.52059172  0.59148599  1
  O  O58  1  0.52059683  0.59144683  0.69460616  1
  O  O59  1  0.59148161  0.69461790  0.52058297  1
  O  O60  1  0.30530610  0.47936800  0.40845842  1
  O  O61  1  0.47931893  0.40845876  0.30525591  1
  O  O62  1  0.40846763  0.30531601  0.47936155  1
  O  O63  1  0.81142857  0.43600645  0.71522355  1
  O  O64  1  0.43602001  0.71521696  0.81138310  1
  O  O65  1  0.71524120  0.81143954  0.43603355  1
  O  O66  1  0.18852170  0.56399808  0.28477112  1
  O  O67  1  0.56398579  0.28476669  0.18852591  1
  O  O68  1  0.28476146  0.18852019  0.56399222  1
  O  O69  1  0.69219943  0.31294558  0.48633516  1
  O  O70  1  0.31293145  0.48633177  0.69218333  1
  O  O71  1  0.48633646  0.69219594  0.31293236  1
  O  O72  1  0.30776830  0.68702462  0.51365264  1
  O  O73  1  0.68702567  0.51364273  0.30777695  1
  O  O74  1  0.51365182  0.30778121  0.68703792  1
  O  O75  1  0.88269514  0.50485681  0.56587086  1
  O  O76  1  0.50485583  0.56586319  0.88267875  1
  O  O77  1  0.56585842  0.88267486  0.50484366  1
  O  O78  1  0.11726409  0.49513821  0.43413681  1
  O  O79  1  0.49517691  0.43414456  0.11724970  1
  O  O80  1  0.43414375  0.11728416  0.49517222  1
  O  O81  1  0.88995110  0.37981936  0.98692362  1
  O  O82  1  0.37978888  0.98684896  0.88991165  1
  O  O83  1  0.98691079  0.88995128  0.37984108  1
  O  O84  1  0.11006752  0.62020881  0.01312006  1
  O  O85  1  0.62020704  0.01312482  0.11006247  1
  O  O86  1  0.01310564  0.11007787  0.62020175  1
  O  O87  1  0.78747764  0.39064137  0.13290609  1
  O  O88  1  0.39061881  0.13287727  0.78749069  1
  O  O89  1  0.13292720  0.78753455  0.39070872  1
  O  O90  1  0.21244451  0.60931390  0.86706328  1
  O  O91  1  0.60934877  0.86710903  0.21248561  1
  O  O92  1  0.86706799  0.21247246  0.60931777  1
  O  O93  1  0.91448197  0.58315336  0.13230493  1
  O  O94  1  0.58313212  0.13228892  0.91448921  1
  O  O95  1  0.13224382  0.91444828  0.58319502  1
  O  O96  1  0.08544010  0.41683441  0.86772338  1
  O  O97  1  0.41686008  0.86770831  0.08541317  1
  O  O98  1  0.86776997  0.08553186  0.41683914  1
  O  O99  1  0.71550103  0.44916830  0.95520470  1
  O  O100  1  0.44913340  0.95519486  0.71547237  1
  O  O101  1  0.95519306  0.71545905  0.44914888  1
  O  O102  1  0.28449219  0.55083106  0.04475229  1
  O  O103  1  0.55084285  0.04476001  0.28448777  1
  O  O104  1  0.04480104  0.28455994  0.55090326  1
  O  O105  1  0.85936680  0.77888444  0.92513867  1
  O  O106  1  0.77882706  0.92507101  0.85928721  1
  O  O107  1  0.92516219  0.85939873  0.77894712  1
  O  O108  1  0.14072560  0.22107957  0.07481709  1
  O  O109  1  0.22104438  0.07474650  0.14057990  1
  O  O110  1  0.07493886  0.14073761  0.22113778  1
  O  O111  1  0.99985806  0.00007036  0.00004190  1
  O  O112  1  0.68003743  0.19207027  0.72554910  1
  O  O113  1  0.19200315  0.72548962  0.67995476  1
  O  O114  1  0.72554170  0.68008413  0.19208545  1
  O  O115  1  0.31991617  0.80791172  0.27445280  1
  O  O116  1  0.80794058  0.27448433  0.31994548  1
  O  O117  1  0.27446393  0.31993283  0.80792234  1
  O  O118  1  0.94035832  0.16677503  0.83521717  1
  O  O119  1  0.16674198  0.83519229  0.94032957  1
  O  O120  1  0.83521244  0.94036704  0.16678090  1
  O  O121  1  0.05964871  0.83321001  0.16480365  1
  O  O122  1  0.83322978  0.16480710  0.05966229  1
  O  O123  1  0.16480233  0.05964667  0.83323883  1
