# generated using pymatgen
data_H4SO5
_symmetry_space_group_name_H-M   'P 1'
_cell_length_a   6.74894248
_cell_length_b   7.03068131
_cell_length_c   8.07470839
_cell_angle_alpha   90.00000000
_cell_angle_beta   90.00000000
_cell_angle_gamma   90.00000000
_symmetry_Int_Tables_number   1
_chemical_formula_structural   H4SO5
_chemical_formula_sum   'H16 S4 O20'
_cell_volume   383.14219804
_cell_formula_units_Z   4
loop_
 _symmetry_equiv_pos_site_id
 _symmetry_equiv_pos_as_xyz
  1  'x, y, z'
loop_
 _atom_site_type_symbol
 _atom_site_label
 _atom_site_symmetry_multiplicity
 _atom_site_fract_x
 _atom_site_fract_y
 _atom_site_fract_z
 _atom_site_occupancy
  H  H0  1  0.09953603  0.10858880  0.56510182  1
  H  H1  1  0.40046397  0.89141120  0.06510182  1
  H  H2  1  0.59953603  0.39141120  0.43489818  1
  H  H3  1  0.90046397  0.60858880  0.93489818  1
  H  H4  1  0.24632500  0.59781576  0.29088427  1
  H  H5  1  0.25367500  0.40218424  0.79088427  1
  H  H6  1  0.74632500  0.90218424  0.70911573  1
  H  H7  1  0.75367500  0.09781576  0.20911573  1
  H  H8  1  0.11120160  0.44839215  0.40763561  1
  H  H9  1  0.38879840  0.55160785  0.90763561  1
  H  H10  1  0.61120160  0.05160785  0.59236439  1
  H  H11  1  0.88879840  0.94839215  0.09236439  1
  H  H12  1  0.20846974  0.37222846  0.22298756  1
  H  H13  1  0.29153026  0.62777154  0.72298756  1
  H  H14  1  0.70846974  0.12777154  0.77701244  1
  H  H15  1  0.79153026  0.87222846  0.27701244  1
  S  S16  1  0.30025327  0.92124274  0.44337309  1
  S  S17  1  0.19974673  0.07875726  0.94337309  1
  S  S18  1  0.80025327  0.57875726  0.55662691  1
  S  S19  1  0.69974673  0.42124274  0.05662691  1
  O  O20  1  0.27927963  0.82649456  0.28177078  1
  O  O21  1  0.22072037  0.17350544  0.78177078  1
  O  O22  1  0.77927963  0.67350544  0.71822922  1
  O  O23  1  0.72072037  0.32649456  0.21822922  1
  O  O24  1  0.47258504  0.05059509  0.44750968  1
  O  O25  1  0.02741496  0.94940491  0.94750968  1
  O  O26  1  0.97258504  0.44940491  0.55249032  1
  O  O27  1  0.52741496  0.55059509  0.05249032  1
  O  O28  1  0.29431656  0.79081807  0.58282459  1
  O  O29  1  0.20568344  0.20918193  0.08282459  1
  O  O30  1  0.79431656  0.70918193  0.41717541  1
  O  O31  1  0.70568344  0.29081807  0.91717541  1
  O  O32  1  0.10731255  0.05189440  0.45271514  1
  O  O33  1  0.39268745  0.94810560  0.95271514  1
  O  O34  1  0.60731255  0.44810560  0.54728486  1
  O  O35  1  0.89268745  0.55189440  0.04728486  1
  O  O36  1  0.22505223  0.45880195  0.32131497  1
  O  O37  1  0.27494777  0.54119805  0.82131497  1
  O  O38  1  0.72505223  0.04119805  0.67868503  1
  O  O39  1  0.77494777  0.95880195  0.17868503  1
