# generated using pymatgen
data_MnP(HO)7
_symmetry_space_group_name_H-M   'P 1'
_cell_length_a   10.53368953
_cell_length_b   11.01691142
_cell_length_c   10.28071467
_cell_angle_alpha   90.00000000
_cell_angle_beta   90.00000000
_cell_angle_gamma   90.00000000
_symmetry_Int_Tables_number   1
_chemical_formula_structural   MnP(HO)7
_chemical_formula_sum   'Mn8 P8 H56 O56'
_cell_volume   1193.06382417
_cell_formula_units_Z   8
loop_
 _symmetry_equiv_pos_site_id
 _symmetry_equiv_pos_as_xyz
  1  'x, y, z'
loop_
 _atom_site_type_symbol
 _atom_site_label
 _atom_site_symmetry_multiplicity
 _atom_site_fract_x
 _atom_site_fract_y
 _atom_site_fract_z
 _atom_site_occupancy
  Mn  Mn0  1  0.80242635  0.25033696  0.40811522  1
  Mn  Mn1  1  0.30242635  0.24966304  0.59188478  1
  Mn  Mn2  1  0.19757365  0.75033696  0.09188478  1
  Mn  Mn3  1  0.69757365  0.74966304  0.90811522  1
  Mn  Mn4  1  0.19757365  0.74966304  0.59188478  1
  Mn  Mn5  1  0.69757365  0.75033696  0.40811522  1
  Mn  Mn6  1  0.80242635  0.24966304  0.90811522  1
  Mn  Mn7  1  0.30242635  0.25033696  0.09188478  1
  P  P8  1  0.49616205  0.13508133  0.35099228  1
  P  P9  1  0.99616205  0.36491867  0.64900772  1
  P  P10  1  0.50383795  0.63508133  0.14900772  1
  P  P11  1  0.00383795  0.86491867  0.85099228  1
  P  P12  1  0.50383795  0.86491867  0.64900772  1
  P  P13  1  0.00383795  0.63508133  0.35099228  1
  P  P14  1  0.49616205  0.36491867  0.85099228  1
  P  P15  1  0.99616205  0.13508133  0.14900772  1
  H  H16  1  0.67447332  0.32697682  0.65372292  1
  H  H17  1  0.17447332  0.17302318  0.34627708  1
  H  H18  1  0.32552668  0.82697682  0.84627708  1
  H  H19  1  0.82552668  0.67302318  0.15372292  1
  H  H20  1  0.32552668  0.67302318  0.34627708  1
  H  H21  1  0.82552668  0.82697682  0.65372292  1
  H  H22  1  0.67447332  0.17302318  0.15372292  1
  H  H23  1  0.17447332  0.32697682  0.84627708  1
  H  H24  1  0.58318056  0.28001459  0.54403839  1
  H  H25  1  0.08318056  0.21998541  0.45596161  1
  H  H26  1  0.41681944  0.78001459  0.95596161  1
  H  H27  1  0.91681944  0.71998541  0.04403839  1
  H  H28  1  0.41681944  0.71998541  0.45596161  1
  H  H29  1  0.91681944  0.78001459  0.54403839  1
  H  H30  1  0.58318056  0.21998541  0.04403839  1
  H  H31  1  0.08318056  0.28001459  0.95596161  1
  H  H32  1  0.79691825  0.49992560  0.31804752  1
  H  H33  1  0.29691825  0.00007440  0.68195248  1
  H  H34  1  0.20308175  -0.00007440  0.18195248  1
  H  H35  1  0.70308175  0.50007440  0.81804752  1
  H  H36  1  0.20308175  0.50007440  0.68195248  1
  H  H37  1  0.70308175  -0.00007440  0.31804752  1
  H  H38  1  0.79691825  0.00007440  0.81804752  1
  H  H39  1  0.29691825  0.49992560  0.18195248  1
  H  H40  1  0.67155610  0.44124486  0.26294722  1
  H  H41  1  0.17155610  0.05875514  0.73705278  1
  H  H42  1  0.32844390  0.94124486  0.23705278  1
  H  H43  1  0.82844390  0.55875514  0.76294722  1
  H  H44  1  0.32844390  0.55875514  0.73705278  1
  H  H45  1  0.82844390  0.94124486  0.26294722  1
  H  H46  1  0.67155610  0.05875514  0.76294722  1
  H  H47  1  0.17155610  0.44124486  0.23705278  1
  H  H48  1  0.86337673  0.11296556  0.62339464  1
  H  H49  1  0.36337673  0.38703444  0.37660536  1
  H  H50  1  0.13662327  0.61296556  0.87660536  1
  H  H51  1  0.63662327  0.88703444  0.12339464  1
  H  H52  1  0.13662327  0.88703444  0.37660536  1
  H  H53  1  0.63662327  0.61296556  0.62339464  1
  H  H54  1  0.86337673  0.38703444  0.12339464  1
  H  H55  1  0.36337673  0.11296556  0.87660536  1
  H  H56  1  0.84850830  0.00688054  0.52196799  1
  H  H57  1  0.34850830  0.49311946  0.47803201  1
  H  H58  1  0.15149170  0.50688054  0.97803201  1
  H  H59  1  0.65149170  0.99311946  0.02196799  1
  H  H60  1  0.15149170  0.99311946  0.47803201  1
  H  H61  1  0.65149170  0.50688054  0.52196799  1
  H  H62  1  0.84850830  0.49311946  0.02196799  1
  H  H63  1  0.34850830  0.00688054  0.97803201  1
  H  H64  1  0.48732644  0.93632095  0.39584440  1
  H  H65  1  0.98732644  0.56367905  0.60415560  1
  H  H66  1  0.51267356  0.43632095  0.10415560  1
  H  H67  1  0.01267356  0.06367905  0.89584440  1
  H  H68  1  0.51267356  0.06367905  0.60415560  1
  H  H69  1  0.01267356  0.43632095  0.39584440  1
  H  H70  1  0.48732644  0.56367905  0.89584440  1
  H  H71  1  0.98732644  0.93632095  0.10415560  1
  O  O72  1  0.41536840  0.20972994  0.25964410  1
  O  O73  1  0.91536840  0.29027006  0.74035590  1
  O  O74  1  0.58463160  0.70972994  0.24035590  1
  O  O75  1  0.08463160  0.79027006  0.75964410  1
  O  O76  1  0.58463160  0.79027006  0.74035590  1
  O  O77  1  0.08463160  0.70972994  0.25964410  1
  O  O78  1  0.41536840  0.29027006  0.75964410  1
  O  O79  1  0.91536840  0.20972994  0.24035590  1
  O  O80  1  0.46857531  0.16132603  0.49730362  1
  O  O81  1  0.96857531  0.33867397  0.50269638  1
  O  O82  1  0.53142469  0.66132603  0.00269638  1
  O  O83  1  0.03142469  0.83867397  0.99730362  1
  O  O84  1  0.53142469  0.83867397  0.50269638  1
  O  O85  1  0.03142469  0.66132603  0.49730362  1
  O  O86  1  0.46857531  0.33867397  0.99730362  1
  O  O87  1  0.96857531  0.16132603  0.00269638  1
  O  O88  1  0.64113164  0.14687147  0.32569328  1
  O  O89  1  0.14113164  0.35312853  0.67430672  1
  O  O90  1  0.35886836  0.64687147  0.17430672  1
  O  O91  1  0.85886836  0.85312853  0.82569328  1
  O  O92  1  0.35886836  0.85312853  0.67430672  1
  O  O93  1  0.85886836  0.64687147  0.32569328  1
  O  O94  1  0.64113164  0.35312853  0.82569328  1
  O  O95  1  0.14113164  0.14687147  0.17430672  1
  O  O96  1  0.45969302  0.99502664  0.32477264  1
  O  O97  1  0.95969302  0.50497336  0.67522736  1
  O  O98  1  0.54030698  0.49502664  0.17522736  1
  O  O99  1  0.04030698  0.00497336  0.82477264  1
  O  O100  1  0.54030698  0.00497336  0.67522736  1
  O  O101  1  0.04030698  0.49502664  0.32477264  1
  O  O102  1  0.45969302  0.50497336  0.82477264  1
  O  O103  1  0.95969302  0.99502664  0.17522736  1
  O  O104  1  0.66432569  0.32403422  0.55765414  1
  O  O105  1  0.16432569  0.17596578  0.44234586  1
  O  O106  1  0.33567431  0.82403422  0.94234586  1
  O  O107  1  0.83567431  0.67596578  0.05765414  1
  O  O108  1  0.33567431  0.67596578  0.44234586  1
  O  O109  1  0.83567431  0.82403422  0.55765414  1
  O  O110  1  0.66432569  0.17596578  0.05765414  1
  O  O111  1  0.16432569  0.32403422  0.94234586  1
  O  O112  1  0.75493424  0.42041934  0.30187689  1
  O  O113  1  0.25493424  0.07958066  0.69812311  1
  O  O114  1  0.24506576  0.92041934  0.19812311  1
  O  O115  1  0.74506576  0.57958066  0.80187689  1
  O  O116  1  0.24506576  0.57958066  0.69812311  1
  O  O117  1  0.74506576  0.92041934  0.30187689  1
  O  O118  1  0.75493424  0.07958066  0.80187689  1
  O  O119  1  0.25493424  0.42041934  0.19812311  1
  O  O120  1  0.86409604  0.09445314  0.52974132  1
  O  O121  1  0.36409604  0.40554686  0.47025868  1
  O  O122  1  0.13590396  0.59445314  0.97025868  1
  O  O123  1  0.63590396  0.90554686  0.02974132  1
  O  O124  1  0.13590396  0.90554686  0.47025868  1
  O  O125  1  0.63590396  0.59445314  0.52974132  1
  O  O126  1  0.86409604  0.40554686  0.02974132  1
  O  O127  1  0.36409604  0.09445314  0.97025868  1
