# generated using pymatgen
data_Sn3(HO2)2
_symmetry_space_group_name_H-M   'P 1'
_cell_length_a   8.15475015
_cell_length_b   8.15475015
_cell_length_c   9.21286745
_cell_angle_alpha   89.88025082
_cell_angle_beta   90.11974918
_cell_angle_gamma   89.93282293
_symmetry_Int_Tables_number   1
_chemical_formula_structural   Sn3(HO2)2
_chemical_formula_sum   'Sn12 H8 O16'
_cell_volume   612.65212385
_cell_formula_units_Z   4
loop_
 _symmetry_equiv_pos_site_id
 _symmetry_equiv_pos_as_xyz
  1  'x, y, z'
loop_
 _atom_site_type_symbol
 _atom_site_label
 _atom_site_symmetry_multiplicity
 _atom_site_fract_x
 _atom_site_fract_y
 _atom_site_fract_z
 _atom_site_occupancy
  Sn  Sn0  1  0.80245269  0.61011219  0.49967204  1
  Sn  Sn1  1  0.29529905  0.87006659  0.99968199  1
  Sn  Sn2  1  0.22219217  0.37931018  0.51377261  1
  Sn  Sn3  1  0.71461293  0.10137099  0.99917484  1
  Sn  Sn4  1  0.62993341  0.20470095  0.49968199  1
  Sn  Sn5  1  0.88988781  0.69754731  0.99967204  1
  Sn  Sn6  1  0.39862901  0.78538707  0.49917484  1
  Sn  Sn7  1  0.12068982  0.27780783  0.01377261  1
  Sn  Sn8  1  0.51941152  0.49687314  0.77936187  1
  Sn  Sn9  1  0.01082873  0.99773688  0.72695198  1
  Sn  Sn10  1  0.50226312  0.48917127  0.22695198  1
  Sn  Sn11  1  0.00312686  0.98058848  0.27936187  1
  H  H12  1  0.68051681  0.81642414  0.73167473  1
  H  H13  1  0.17551053  0.67647790  0.76268216  1
  H  H14  1  0.35606595  0.17885894  0.74725182  1
  H  H15  1  0.85055852  0.31424166  0.77100017  1
  H  H16  1  0.82352210  0.32448947  0.26268216  1
  H  H17  1  0.68357586  0.81948319  0.23167473  1
  H  H18  1  0.18575834  0.64944148  0.27100017  1
  H  H19  1  0.32114106  0.14393405  0.24725182  1
  O  O20  1  0.62735496  0.73881643  0.66350029  1
  O  O21  1  0.11985952  0.75146993  0.83138830  1
  O  O22  1  0.40688177  0.25619818  0.67795422  1
  O  O23  1  0.89918515  0.23413313  0.83946676  1
  O  O24  1  0.74853007  0.38014048  0.33138830  1
  O  O25  1  0.76118357  0.87264504  0.16350029  1
  O  O26  1  0.26586687  0.60081485  0.33946676  1
  O  O27  1  0.24380182  0.09311823  0.17795422  1
  O  O28  1  0.69782870  0.41476015  0.62394113  1
  O  O29  1  0.19061091  0.07281064  0.88438288  1
  O  O30  1  0.33343209  0.57807472  0.62910629  1
  O  O31  1  0.82622081  0.91016303  0.87504191  1
  O  O32  1  0.42718936  0.30938909  0.38438288  1
  O  O33  1  0.08523985  0.80217130  0.12394113  1
  O  O34  1  0.58983697  0.67377919  0.37504191  1
  O  O35  1  0.92192528  0.16656791  0.12910629  1
