# generated using pymatgen
data_FePH6(NO2)2
_symmetry_space_group_name_H-M   'P 1'
_cell_length_a   6.47379036
_cell_length_b   10.19092350
_cell_length_c   7.66654451
_cell_angle_alpha   90.00000000
_cell_angle_beta   92.78307517
_cell_angle_gamma   90.00000000
_symmetry_Int_Tables_number   1
_chemical_formula_structural   FePH6(NO2)2
_chemical_formula_sum   'Fe4 P4 H24 N8 O16'
_cell_volume   505.19528907
_cell_formula_units_Z   4
loop_
 _symmetry_equiv_pos_site_id
 _symmetry_equiv_pos_as_xyz
  1  'x, y, z'
loop_
 _atom_site_type_symbol
 _atom_site_label
 _atom_site_symmetry_multiplicity
 _atom_site_fract_x
 _atom_site_fract_y
 _atom_site_fract_z
 _atom_site_occupancy
  Fe  Fe0  1  0.24499029  0.84195976  0.91181672  1
  Fe  Fe1  1  0.74499029  0.65804024  0.41181672  1
  Fe  Fe2  1  0.75500971  0.15804024  0.08818328  1
  Fe  Fe3  1  0.25500971  0.34195976  0.58818328  1
  P  P4  1  0.25109709  0.16287244  0.95784778  1
  P  P5  1  0.75109709  0.33712756  0.45784778  1
  P  P6  1  0.74890291  0.83712756  0.04215222  1
  P  P7  1  0.24890291  0.66287244  0.54215222  1
  H  H8  1  0.65531532  0.87450721  0.59419421  1
  H  H9  1  0.15531532  0.62549279  0.09419421  1
  H  H10  1  0.34468468  0.12549279  0.40580579  1
  H  H11  1  0.84468468  0.37450721  0.90580579  1
  H  H12  1  0.40957571  0.63262225  0.08075473  1
  H  H13  1  0.90957571  0.86737775  0.58075473  1
  H  H14  1  0.59042429  0.36737775  0.91924527  1
  H  H15  1  0.09042429  0.13262225  0.41924527  1
  H  H16  1  0.26288715  0.57756383  0.90943708  1
  H  H17  1  0.76288715  0.92243617  0.40943708  1
  H  H18  1  0.73711285  0.42243617  0.09056292  1
  H  H19  1  0.23711285  0.07756383  0.59056292  1
  H  H20  1  0.13649447  0.47473796  0.30667663  1
  H  H21  1  0.63649447  0.02526204  0.80667663  1
  H  H22  1  0.86350553  0.52526204  0.69332337  1
  H  H23  1  0.36350553  0.97473796  0.19332337  1
  H  H24  1  0.87915063  0.07105203  0.78176377  1
  H  H25  1  0.37915063  0.42894797  0.28176377  1
  H  H26  1  0.12084937  0.92894797  0.21823623  1
  H  H27  1  0.62084937  0.57105203  0.71823623  1
  H  H28  1  0.18616369  0.32439418  0.23104566  1
  H  H29  1  0.68616369  0.17560582  0.73104566  1
  H  H30  1  0.81383631  0.67560582  0.76895434  1
  H  H31  1  0.31383631  0.82439418  0.26895434  1
  N  N32  1  0.27100406  0.64318808  0.01143237  1
  N  N33  1  0.77100406  0.85681192  0.51143237  1
  N  N34  1  0.72899594  0.35681192  0.98856763  1
  N  N35  1  0.22899594  0.14318808  0.48856763  1
  N  N36  1  0.26298819  0.89709375  0.18389754  1
  N  N37  1  0.76298819  0.60290625  0.68389754  1
  N  N38  1  0.73701181  0.10290625  0.81610246  1
  N  N39  1  0.23701181  0.39709375  0.31610246  1
  O  O40  1  0.94380133  0.34888090  0.58595034  1
  O  O41  1  0.44380133  0.15111910  0.08595034  1
  O  O42  1  0.05619867  0.65111910  0.41404966  1
  O  O43  1  0.55619867  0.84888090  0.91404966  1
  O  O44  1  0.06364773  0.18076093  0.07392316  1
  O  O45  1  0.56364773  0.31923907  0.57392316  1
  O  O46  1  0.93635227  0.81923907  0.92607684  1
  O  O47  1  0.43635227  0.68076093  0.42607684  1
  O  O48  1  0.27517008  0.28368784  0.83769448  1
  O  O49  1  0.77517008  0.21631216  0.33769448  1
  O  O50  1  0.72482992  0.71631216  0.16230552  1
  O  O51  1  0.22482992  0.78368784  0.66230552  1
  O  O52  1  0.22324493  0.03610131  0.84428254  1
  O  O53  1  0.72324493  0.46389869  0.34428254  1
  O  O54  1  0.77675507  0.96389869  0.15571746  1
  O  O55  1  0.27675507  0.53610131  0.65571746  1
