# generated using pymatgen
data_BaTe2Mo2(HO6)2
_symmetry_space_group_name_H-M   'P 1'
_cell_length_a   7.49751361
_cell_length_b   7.63978939
_cell_length_c   19.10793035
_cell_angle_alpha   90.00000000
_cell_angle_beta   90.00000000
_cell_angle_gamma   90.00000000
_symmetry_Int_Tables_number   1
_chemical_formula_structural   BaTe2Mo2(HO6)2
_chemical_formula_sum   'Ba4 Te8 Mo8 H8 O48'
_cell_volume   1094.49126203
_cell_formula_units_Z   4
loop_
 _symmetry_equiv_pos_site_id
 _symmetry_equiv_pos_as_xyz
  1  'x, y, z'
loop_
 _atom_site_type_symbol
 _atom_site_label
 _atom_site_symmetry_multiplicity
 _atom_site_fract_x
 _atom_site_fract_y
 _atom_site_fract_z
 _atom_site_occupancy
  Ba  Ba0  1  0.25514298  0.82873037  0.44642449  1
  Ba  Ba1  1  0.74485702  0.32873037  0.05357551  1
  Ba  Ba2  1  0.75514298  0.67126963  0.55357551  1
  Ba  Ba3  1  0.24485702  0.17126963  0.94642449  1
  Te  Te4  1  0.98525637  0.38216893  0.39562681  1
  Te  Te5  1  0.51474363  0.61783107  0.89562681  1
  Te  Te6  1  0.33746038  0.59101064  0.25999054  1
  Te  Te7  1  0.83746038  0.90898936  0.74000946  1
  Te  Te8  1  0.01474363  0.88216893  0.10437319  1
  Te  Te9  1  0.66253962  0.09101064  0.24000946  1
  Te  Te10  1  0.48525637  0.11783107  0.60437319  1
  Te  Te11  1  0.16253962  0.40898936  0.75999054  1
  Mo  Mo12  1  0.52758108  0.85713936  0.09590319  1
  Mo  Mo13  1  0.02758108  0.64286064  0.90409681  1
  Mo  Mo14  1  0.77055056  0.56314784  0.24047457  1
  Mo  Mo15  1  0.97241892  0.14286064  0.59590319  1
  Mo  Mo16  1  0.27055056  0.93685216  0.75952543  1
  Mo  Mo17  1  0.47241892  0.35713936  0.40409681  1
  Mo  Mo18  1  0.72944944  0.43685216  0.74047457  1
  Mo  Mo19  1  0.22944944  0.06314784  0.25952543  1
  H  H20  1  0.81888406  0.97683722  0.92550222  1
  H  H21  1  0.31888406  0.52316278  0.07449778  1
  H  H22  1  0.76865912  0.16240091  0.89698913  1
  H  H23  1  0.23134088  0.66240091  0.60301087  1
  H  H24  1  0.68111594  0.02316278  0.42550222  1
  H  H25  1  0.26865912  0.33759909  0.10301087  1
  H  H26  1  0.18111594  0.47683722  0.57449778  1
  H  H27  1  0.73134088  0.83759909  0.39698913  1
  O  O28  1  0.76387027  0.96269263  0.14062517  1
  O  O29  1  0.95871218  0.49792635  0.81221058  1
  O  O30  1  0.54787088  0.65082307  0.19492690  1
  O  O31  1  0.43449046  0.89643833  0.56980044  1
  O  O32  1  0.09305652  0.07420796  0.33487283  1
  O  O33  1  0.29977511  0.76882532  0.09490468  1
  O  O34  1  0.51019938  0.02898610  0.03376290  1
  O  O35  1  0.68102116  0.24741049  0.78732834  1
  O  O36  1  0.40694348  0.92579204  0.83487283  1
  O  O37  1  0.17049164  0.19210432  0.80555737  1
  O  O38  1  0.09859115  0.90106838  0.20014084  1
  O  O39  1  0.70022489  0.26882532  0.40509532  1
  O  O40  1  0.20022489  0.23117468  0.59490468  1
  O  O41  1  0.93449046  0.60356167  0.43019956  1
  O  O42  1  0.73612973  0.03730737  0.64062517  1
  O  O43  1  0.40140885  0.09893162  0.70014084  1
  O  O44  1  0.45871218  0.00207365  0.18778942  1
  O  O45  1  0.18102116  0.25258951  0.21267166  1
  O  O46  1  0.84893336  0.30713318  0.55227948  1
  O  O47  1  0.04128782  0.99792635  0.68778942  1
  O  O48  1  0.84238763  0.10294174  0.93213637  1
  O  O49  1  0.34238763  0.39705826  0.06786363  1
  O  O50  1  0.59305652  0.42579204  0.66512717  1
  O  O51  1  0.15106664  0.80713318  0.94772052  1
  O  O52  1  0.82950836  0.69210432  0.69444263  1
  O  O53  1  0.81897884  0.75258951  0.28732834  1
  O  O54  1  0.45212912  0.15082307  0.30507310  1
  O  O55  1  0.90140885  0.40106838  0.29985916  1
  O  O56  1  0.31897884  0.74741049  0.71267166  1
  O  O57  1  0.67049164  0.30789568  0.19444263  1
  O  O58  1  0.65106664  0.69286682  0.05227948  1
  O  O59  1  0.01019938  0.47101390  0.96623710  1
  O  O60  1  0.59859115  0.59893162  0.79985916  1
  O  O61  1  0.04787088  0.84917693  0.80507310  1
  O  O62  1  0.26387027  0.53730737  0.85937483  1
  O  O63  1  0.34893336  0.19286682  0.44772052  1
  O  O64  1  0.15761237  0.60294174  0.56786363  1
  O  O65  1  0.54128782  0.50207365  0.31221058  1
  O  O66  1  0.48980062  0.52898610  0.46623710  1
  O  O67  1  0.65761237  0.89705826  0.43213637  1
  O  O68  1  0.06550954  0.10356167  0.06980044  1
  O  O69  1  0.95212912  0.34917693  0.69492690  1
  O  O70  1  0.79977511  0.73117468  0.90509532  1
  O  O71  1  0.98980062  0.97101390  0.53376290  1
  O  O72  1  0.23612973  0.46269263  0.35937483  1
  O  O73  1  0.56550954  0.39643833  0.93019956  1
  O  O74  1  0.90694348  0.57420796  0.16512717  1
  O  O75  1  0.32950836  0.80789568  0.30555737  1
