# generated using pymatgen
data_Ag3Hg
_symmetry_space_group_name_H-M   'P 1'
_cell_length_a   6.02243494
_cell_length_b   6.02245301
_cell_length_c   4.83920643
_cell_angle_alpha   90.01256514
_cell_angle_beta   89.98742469
_cell_angle_gamma   119.95247048
_symmetry_Int_Tables_number   1
_chemical_formula_structural   Ag3Hg
_chemical_formula_sum   'Ag6 Hg2'
_cell_volume   152.07509788
_cell_formula_units_Z   2
loop_
 _symmetry_equiv_pos_site_id
 _symmetry_equiv_pos_as_xyz
  1  'x, y, z'
loop_
 _atom_site_type_symbol
 _atom_site_label
 _atom_site_symmetry_multiplicity
 _atom_site_fract_x
 _atom_site_fract_y
 _atom_site_fract_z
 _atom_site_occupancy
  Ag  Ag0  1  0.16453140  0.32902914  0.25001187  1
  Ag  Ag1  1  0.67096412  0.83546491  0.25001303  1
  Ag  Ag2  1  0.16452552  0.83547551  0.24998073  1
  Ag  Ag3  1  0.83546964  0.67097016  0.74998901  1
  Ag  Ag4  1  0.32903116  0.16453424  0.74998758  1
  Ag  Ag5  1  0.83547571  0.16452553  0.75002039  1
  Hg  Hg6  1  0.33332508  0.66667688  0.75000822  1
  Hg  Hg7  1  0.66667737  0.33332363  0.24999318  1
