# generated using pymatgen
data_Mg30AlBO32
_symmetry_space_group_name_H-M   'P 1'
_cell_length_a   8.51546470
_cell_length_b   8.51766048
_cell_length_c   8.51766048
_cell_angle_alpha   90.00000000
_cell_angle_beta   90.00000000
_cell_angle_gamma   90.00000000
_symmetry_Int_Tables_number   1
_chemical_formula_structural   Mg30AlBO32
_chemical_formula_sum   'Mg30 Al1 B1 O32'
_cell_volume   617.80156278
_cell_formula_units_Z   1
loop_
 _symmetry_equiv_pos_site_id
 _symmetry_equiv_pos_as_xyz
  1  'x, y, z'
loop_
 _atom_site_type_symbol
 _atom_site_label
 _atom_site_symmetry_multiplicity
 _atom_site_fract_x
 _atom_site_fract_y
 _atom_site_fract_z
 _atom_site_occupancy
  Mg  Mg0  1  0.00000000  0.00000000  0.50000000  1
  Mg  Mg1  1  0.00000000  0.50000000  0.00000000  1
  Mg  Mg2  1  0.50000000  0.00000000  0.00000000  1
  Mg  Mg3  1  0.50000000  0.00000000  0.50000000  1
  Mg  Mg4  1  0.50000000  0.50000000  0.00000000  1
  Mg  Mg5  1  0.50000000  0.50000000  0.50000000  1
  Mg  Mg6  1  0.00000000  0.25398558  0.25398558  1
  Mg  Mg7  1  0.00000000  0.25398558  0.74601442  1
  Mg  Mg8  1  0.00000000  0.74601442  0.25398558  1
  Mg  Mg9  1  0.00000000  0.74601442  0.74601442  1
  Mg  Mg10  1  0.50000000  0.25147127  0.25147127  1
  Mg  Mg11  1  0.50000000  0.25147127  0.74852873  1
  Mg  Mg12  1  0.50000000  0.74852873  0.25147127  1
  Mg  Mg13  1  0.50000000  0.74852873  0.74852873  1
  Mg  Mg14  1  0.25018559  0.00000000  0.25171607  1
  Mg  Mg15  1  0.25018559  0.00000000  0.74828393  1
  Mg  Mg16  1  0.24795340  0.50000000  0.25331842  1
  Mg  Mg17  1  0.24795340  0.50000000  0.74668158  1
  Mg  Mg18  1  0.74981441  0.00000000  0.25171607  1
  Mg  Mg19  1  0.74981441  0.00000000  0.74828393  1
  Mg  Mg20  1  0.75204660  0.50000000  0.25331842  1
  Mg  Mg21  1  0.75204660  0.50000000  0.74668158  1
  Mg  Mg22  1  0.25018559  0.25171607  0.00000000  1
  Mg  Mg23  1  0.24795340  0.25331842  0.50000000  1
  Mg  Mg24  1  0.25018559  0.74828393  0.00000000  1
  Mg  Mg25  1  0.24795340  0.74668158  0.50000000  1
  Mg  Mg26  1  0.74981441  0.25171607  0.00000000  1
  Mg  Mg27  1  0.75204660  0.25331842  0.50000000  1
  Mg  Mg28  1  0.74981441  0.74828393  0.00000000  1
  Mg  Mg29  1  0.75204660  0.74668158  0.50000000  1
  Al  Al30  1  0.00000000  0.00000000  0.00000000  1
  B  B31  1  0.00000000  0.50000000  0.50000000  1
  O  O32  1  0.23597294  0.00000000  0.00000000  1
  O  O33  1  0.24978459  0.00000000  0.50000000  1
  O  O34  1  0.24978459  0.50000000  0.00000000  1
  O  O35  1  0.26386709  0.50000000  0.50000000  1
  O  O36  1  0.76402706  0.00000000  0.00000000  1
  O  O37  1  0.75021541  0.00000000  0.50000000  1
  O  O38  1  0.75021541  0.50000000  0.00000000  1
  O  O39  1  0.73613291  0.50000000  0.50000000  1
  O  O40  1  0.24939311  0.24979291  0.24979291  1
  O  O41  1  0.24939311  0.24979291  0.75020709  1
  O  O42  1  0.24939311  0.75020709  0.24979291  1
  O  O43  1  0.24939311  0.75020709  0.75020709  1
  O  O44  1  0.75060689  0.24979291  0.24979291  1
  O  O45  1  0.75060689  0.24979291  0.75020709  1
  O  O46  1  0.75060689  0.75020709  0.24979291  1
  O  O47  1  0.75060689  0.75020709  0.75020709  1
  O  O48  1  0.00000000  0.00000000  0.23250499  1
  O  O49  1  0.00000000  0.00000000  0.76749501  1
  O  O50  1  0.00000000  0.50000000  0.23318472  1
  O  O51  1  0.00000000  0.50000000  0.76681528  1
  O  O52  1  0.50000000  0.00000000  0.24676382  1
  O  O53  1  0.50000000  0.00000000  0.75323618  1
  O  O54  1  0.50000000  0.50000000  0.24734209  1
  O  O55  1  0.50000000  0.50000000  0.75265791  1
  O  O56  1  0.00000000  0.23250499  0.00000000  1
  O  O57  1  0.00000000  0.23318472  0.50000000  1
  O  O58  1  0.00000000  0.76749501  0.00000000  1
  O  O59  1  0.00000000  0.76681528  0.50000000  1
  O  O60  1  0.50000000  0.24676382  0.00000000  1
  O  O61  1  0.50000000  0.24734209  0.50000000  1
  O  O62  1  0.50000000  0.75323618  0.00000000  1
  O  O63  1  0.50000000  0.75265791  0.50000000  1
