# generated using pymatgen
data_ErAl3
_symmetry_space_group_name_H-M   'P 1'
_cell_length_a   6.21813770
_cell_length_b   6.21813801
_cell_length_c   4.62804682
_cell_angle_alpha   90.00000000
_cell_angle_beta   90.00000000
_cell_angle_gamma   119.99999243
_symmetry_Int_Tables_number   1
_chemical_formula_structural   ErAl3
_chemical_formula_sum   'Er2 Al6'
_cell_volume   154.97052369
_cell_formula_units_Z   2
loop_
 _symmetry_equiv_pos_site_id
 _symmetry_equiv_pos_as_xyz
  1  'x, y, z'
loop_
 _atom_site_type_symbol
 _atom_site_label
 _atom_site_symmetry_multiplicity
 _atom_site_fract_x
 _atom_site_fract_y
 _atom_site_fract_z
 _atom_site_occupancy
  Er  Er0  1  0.66666700  0.33333300  0.25000000  1
  Er  Er1  1  0.33333400  0.66666800  0.75000000  1
  Al  Al2  1  0.85063783  0.14936217  0.75000000  1
  Al  Al3  1  0.29872334  0.14936217  0.75000000  1
  Al  Al4  1  0.85063683  0.70127566  0.75000000  1
  Al  Al5  1  0.14936217  0.85063883  0.25000000  1
  Al  Al6  1  0.70127666  0.85063883  0.25000000  1
  Al  Al7  1  0.14936117  0.29872334  0.25000000  1
