# generated using pymatgen
data_LaCoO3
_symmetry_space_group_name_H-M   'P 1'
_cell_length_a   5.55013638
_cell_length_b   5.46744733
_cell_length_c   7.80973475
_cell_angle_alpha   90.08806909
_cell_angle_beta   89.59839883
_cell_angle_gamma   89.99556431
_symmetry_Int_Tables_number   1
_chemical_formula_structural   LaCoO3
_chemical_formula_sum   'La4 Co4 O12'
_cell_volume   236.98091070
_cell_formula_units_Z   4
loop_
 _symmetry_equiv_pos_site_id
 _symmetry_equiv_pos_as_xyz
  1  'x, y, z'
loop_
 _atom_site_type_symbol
 _atom_site_label
 _atom_site_symmetry_multiplicity
 _atom_site_fract_x
 _atom_site_fract_y
 _atom_site_fract_z
 _atom_site_occupancy
  La  La0  1  0.00435644  0.98984111  0.75242524  1
  La  La1  1  0.50781054  0.51046710  0.24862813  1
  La  La2  1  0.49219185  0.48953274  0.75136673  1
  La  La3  1  0.99564928  0.01016476  0.24757621  1
  Co  Co4  1  0.49999729  0.99999804  0.50000045  1
  Co  Co5  1  0.00000194  0.50000149  0.50000105  1
  Co  Co6  1  0.00000235  0.50000241  0.00000021  1
  Co  Co7  1  0.49999714  -0.00000070  0.00000090  1
  O  O8  1  0.74354065  0.26370182  0.45815530  1
  O  O9  1  0.24878184  0.23136370  0.53879387  1
  O  O10  1  0.76109194  0.75776355  0.04039784  1
  O  O11  1  0.25252775  0.73661995  0.95884125  1
  O  O12  1  0.25645801  0.73629601  0.54184804  1
  O  O13  1  0.75121638  0.76863538  0.46120787  1
  O  O14  1  0.23890631  0.24223650  0.95960109  1
  O  O15  1  0.74747022  0.26338047  0.04115717  1
  O  O16  1  0.92504748  0.50190011  0.75249763  1
  O  O17  1  0.42809158  0.99244295  0.24761195  1
  O  O18  1  0.57190640  0.00755837  0.75239019  1
  O  O19  1  0.07495460  0.49809522  0.24750389  1
