# generated using pymatgen
data_BaMg30AlO32
_symmetry_space_group_name_H-M   'P 1'
_cell_length_a   8.67842852
_cell_length_b   8.66688421
_cell_length_c   8.66688421
_cell_angle_alpha   90.00000000
_cell_angle_beta   90.00000000
_cell_angle_gamma   90.00000000
_symmetry_Int_Tables_number   1
_chemical_formula_structural   BaMg30AlO32
_chemical_formula_sum   'Ba1 Mg30 Al1 O32'
_cell_volume   651.87913344
_cell_formula_units_Z   1
loop_
 _symmetry_equiv_pos_site_id
 _symmetry_equiv_pos_as_xyz
  1  'x, y, z'
loop_
 _atom_site_type_symbol
 _atom_site_label
 _atom_site_symmetry_multiplicity
 _atom_site_fract_x
 _atom_site_fract_y
 _atom_site_fract_z
 _atom_site_occupancy
  Ba  Ba0  1  -0.00000000  0.50000000  0.50000000  1
  Mg  Mg1  1  -0.00000000  0.00000000  0.50000000  1
  Mg  Mg2  1  -0.00000000  0.50000000  0.00000000  1
  Mg  Mg3  1  0.50000000  0.00000000  0.00000000  1
  Mg  Mg4  1  0.50000000  0.00000000  0.50000000  1
  Mg  Mg5  1  0.50000000  0.50000000  0.00000000  1
  Mg  Mg6  1  0.50000000  0.50000000  0.50000000  1
  Mg  Mg7  1  -0.00000000  0.24326508  0.24326508  1
  Mg  Mg8  1  -0.00000000  0.24326508  0.75673492  1
  Mg  Mg9  1  -0.00000000  0.75673492  0.24326508  1
  Mg  Mg10  1  -0.00000000  0.75673492  0.75673492  1
  Mg  Mg11  1  0.50000000  0.24983197  0.24983197  1
  Mg  Mg12  1  0.50000000  0.24983197  0.75016803  1
  Mg  Mg13  1  0.50000000  0.75016803  0.24983197  1
  Mg  Mg14  1  0.50000000  0.75016803  0.75016803  1
  Mg  Mg15  1  0.25173039  0.00000000  0.25006586  1
  Mg  Mg16  1  0.25173039  0.00000000  0.74993414  1
  Mg  Mg17  1  0.25813526  0.50000000  0.24312145  1
  Mg  Mg18  1  0.25813526  0.50000000  0.75687855  1
  Mg  Mg19  1  0.74826961  0.00000000  0.25006586  1
  Mg  Mg20  1  0.74826961  0.00000000  0.74993414  1
  Mg  Mg21  1  0.74186474  0.50000000  0.24312145  1
  Mg  Mg22  1  0.74186474  0.50000000  0.75687855  1
  Mg  Mg23  1  0.25173039  0.25006586  0.00000000  1
  Mg  Mg24  1  0.25813526  0.24312145  0.50000000  1
  Mg  Mg25  1  0.25173039  0.74993414  0.00000000  1
  Mg  Mg26  1  0.25813526  0.75687855  0.50000000  1
  Mg  Mg27  1  0.74826961  0.25006586  0.00000000  1
  Mg  Mg28  1  0.74186474  0.24312145  0.50000000  1
  Mg  Mg29  1  0.74826961  0.74993414  0.00000000  1
  Mg  Mg30  1  0.74186474  0.75687855  0.50000000  1
  Al  Al31  1  -0.00000000  0.00000000  0.00000000  1
  O  O32  1  0.23548665  0.00000000  0.00000000  1
  O  O33  1  0.25370371  0.00000000  0.50000000  1
  O  O34  1  0.25370371  0.50000000  0.00000000  1
  O  O35  1  0.27876606  0.50000000  0.50000000  1
  O  O36  1  0.76451335  0.00000000  0.00000000  1
  O  O37  1  0.74629629  0.00000000  0.50000000  1
  O  O38  1  0.74629629  0.50000000  0.00000000  1
  O  O39  1  0.72123394  0.50000000  0.50000000  1
  O  O40  1  0.24875266  0.25020293  0.25020293  1
  O  O41  1  0.24875266  0.25020293  0.74979707  1
  O  O42  1  0.24875266  0.74979707  0.25020293  1
  O  O43  1  0.24875266  0.74979707  0.74979707  1
  O  O44  1  0.75124734  0.25020293  0.25020293  1
  O  O45  1  0.75124734  0.25020293  0.74979707  1
  O  O46  1  0.75124734  0.74979707  0.25020293  1
  O  O47  1  0.75124734  0.74979707  0.74979707  1
  O  O48  1  -0.00000000  0.00000000  0.22856201  1
  O  O49  1  -0.00000000  0.00000000  0.77143799  1
  O  O50  1  -0.00000000  0.50000000  0.21981892  1
  O  O51  1  -0.00000000  0.50000000  0.78018108  1
  O  O52  1  0.50000000  0.00000000  0.24623273  1
  O  O53  1  0.50000000  0.00000000  0.75376727  1
  O  O54  1  0.50000000  0.50000000  0.24372383  1
  O  O55  1  0.50000000  0.50000000  0.75627617  1
  O  O56  1  -0.00000000  0.22856201  0.00000000  1
  O  O57  1  -0.00000000  0.21981892  0.50000000  1
  O  O58  1  -0.00000000  0.77143799  0.00000000  1
  O  O59  1  -0.00000000  0.78018108  0.50000000  1
  O  O60  1  0.50000000  0.24623273  0.00000000  1
  O  O61  1  0.50000000  0.24372383  0.50000000  1
  O  O62  1  0.50000000  0.75376727  0.00000000  1
  O  O63  1  0.50000000  0.75627617  0.50000000  1
