# generated using pymatgen
data_MgAg2
_symmetry_space_group_name_H-M   'P 1'
_cell_length_a   5.06669086
_cell_length_b   5.15739309
_cell_length_c   5.56478713
_cell_angle_alpha   117.60641150
_cell_angle_beta   70.00047381
_cell_angle_gamma   120.59395797
_symmetry_Int_Tables_number   1
_chemical_formula_structural   MgAg2
_chemical_formula_sum   'Mg2 Ag4'
_cell_volume   109.84078558
_cell_formula_units_Z   2
loop_
 _symmetry_equiv_pos_site_id
 _symmetry_equiv_pos_as_xyz
  1  'x, y, z'
loop_
 _atom_site_type_symbol
 _atom_site_label
 _atom_site_symmetry_multiplicity
 _atom_site_fract_x
 _atom_site_fract_y
 _atom_site_fract_z
 _atom_site_occupancy
  Mg  Mg0  1  0.33333300  0.68924768  0.00000100  1
  Mg  Mg1  1  0.83333300  0.47741832  0.50000000  1
  Ag  Ag2  1  0.66582802  0.34866711  0.00431284  1
  Ag  Ag3  1  0.50083798  0.81799789  0.49568616  1
  Ag  Ag4  1  0.16582702  0.15480676  0.50431284  1
  Ag  Ag5  1  0.00083998  0.01185824  0.99568616  1
