# generated using pymatgen
data_Sn2P3O10
_symmetry_space_group_name_H-M   'P 1'
_cell_length_a   7.70562096
_cell_length_b   7.70562065
_cell_length_c   10.19161530
_cell_angle_alpha   68.74433893
_cell_angle_beta   111.25566444
_cell_angle_gamma   93.53511985
_symmetry_Int_Tables_number   1
_chemical_formula_structural   Sn2P3O10
_chemical_formula_sum   'Sn4 P6 O20'
_cell_volume   523.91215385
_cell_formula_units_Z   2
loop_
 _symmetry_equiv_pos_site_id
 _symmetry_equiv_pos_as_xyz
  1  'x, y, z'
loop_
 _atom_site_type_symbol
 _atom_site_label
 _atom_site_symmetry_multiplicity
 _atom_site_fract_x
 _atom_site_fract_y
 _atom_site_fract_z
 _atom_site_occupancy
  Sn  Sn0  1  0.35395602  0.67858002  0.90650078  1
  Sn  Sn1  1  0.32141998  0.64604398  0.40650078  1
  Sn  Sn2  1  0.67858002  0.35395602  0.59349922  1
  Sn  Sn3  1  0.64604398  0.32141998  0.09349922  1
  P  P4  1  0.09329798  0.42562980  0.83401072  1
  P  P5  1  0.09622979  0.09622979  0.75000000  1
  P  P6  1  0.42562980  0.09329798  0.66598928  1
  P  P7  1  0.57437020  0.90670202  0.33401072  1
  P  P8  1  0.90377021  0.90377021  0.25000000  1
  P  P9  1  0.90670202  0.57437020  0.16598928  1
  O  O10  1  0.14516494  0.89186733  0.85075447  1
  O  O11  1  0.16278886  0.21436808  0.85725722  1
  O  O12  1  0.19227916  0.56757765  0.73549560  1
  O  O13  1  0.10813267  0.85483506  0.35075447  1
  O  O14  1  0.11934853  0.55769490  0.23882723  1
  O  O15  1  0.21436808  0.16278886  0.64274278  1
  O  O16  1  0.44230510  0.88065147  0.73882723  1
  O  O17  1  0.17514330  0.44020195  0.98939938  1
  O  O18  1  0.44020195  0.17514330  0.51060062  1
  O  O19  1  0.43242235  0.80772084  0.23549560  1
  O  O20  1  0.56757765  0.19227916  0.76450440  1
  O  O21  1  0.55979805  0.82485670  0.48939938  1
  O  O22  1  0.82485670  0.55979805  0.01060062  1
  O  O23  1  0.55769490  0.11934853  0.26117277  1
  O  O24  1  0.78563192  0.83721114  0.35725722  1
  O  O25  1  0.88065147  0.44230510  0.76117277  1
  O  O26  1  0.89186733  0.14516494  0.64924553  1
  O  O27  1  0.80772084  0.43242235  0.26450440  1
  O  O28  1  0.83721114  0.78563192  0.14274278  1
  O  O29  1  0.85483506  0.10813267  0.14924553  1
