# generated using pymatgen
data_BaSrMg30O32
_symmetry_space_group_name_H-M   'P 1'
_cell_length_a   8.71777633
_cell_length_b   8.73710613
_cell_length_c   8.73710613
_cell_angle_alpha   90.00000000
_cell_angle_beta   90.00000000
_cell_angle_gamma   90.00000000
_symmetry_Int_Tables_number   1
_chemical_formula_structural   BaSrMg30O32
_chemical_formula_sum   'Ba1 Sr1 Mg30 O32'
_cell_volume   665.48909681
_cell_formula_units_Z   1
loop_
 _symmetry_equiv_pos_site_id
 _symmetry_equiv_pos_as_xyz
  1  'x, y, z'
loop_
 _atom_site_type_symbol
 _atom_site_label
 _atom_site_symmetry_multiplicity
 _atom_site_fract_x
 _atom_site_fract_y
 _atom_site_fract_z
 _atom_site_occupancy
  Ba  Ba0  1  0.00000000  0.50000000  0.50000000  1
  Sr  Sr1  1  0.00000000  0.00000000  -0.00000000  1
  Mg  Mg2  1  0.00000000  0.00000000  0.50000000  1
  Mg  Mg3  1  0.00000000  0.50000000  -0.00000000  1
  Mg  Mg4  1  0.50000000  0.00000000  -0.00000000  1
  Mg  Mg5  1  0.50000000  0.00000000  0.50000000  1
  Mg  Mg6  1  0.50000000  0.50000000  -0.00000000  1
  Mg  Mg7  1  0.50000000  0.50000000  0.50000000  1
  Mg  Mg8  1  0.00000000  0.24778798  0.24778798  1
  Mg  Mg9  1  0.00000000  0.24778798  0.75221202  1
  Mg  Mg10  1  0.00000000  0.75221202  0.24778798  1
  Mg  Mg11  1  0.00000000  0.75221202  0.75221202  1
  Mg  Mg12  1  0.50000000  0.24981641  0.24981641  1
  Mg  Mg13  1  0.50000000  0.24981641  0.75018359  1
  Mg  Mg14  1  0.50000000  0.75018359  0.24981641  1
  Mg  Mg15  1  0.50000000  0.75018359  0.75018359  1
  Mg  Mg16  1  0.25557167  0.00000000  0.25487876  1
  Mg  Mg17  1  0.25557167  0.00000000  0.74512124  1
  Mg  Mg18  1  0.25767174  0.50000000  0.24274446  1
  Mg  Mg19  1  0.25767174  0.50000000  0.75725554  1
  Mg  Mg20  1  0.74442833  0.00000000  0.25487876  1
  Mg  Mg21  1  0.74442833  0.00000000  0.74512124  1
  Mg  Mg22  1  0.74232826  0.50000000  0.24274446  1
  Mg  Mg23  1  0.74232826  0.50000000  0.75725554  1
  Mg  Mg24  1  0.25557167  0.25487876  -0.00000000  1
  Mg  Mg25  1  0.25767174  0.24274446  0.50000000  1
  Mg  Mg26  1  0.25557167  0.74512124  -0.00000000  1
  Mg  Mg27  1  0.25767174  0.75725554  0.50000000  1
  Mg  Mg28  1  0.74442833  0.25487876  -0.00000000  1
  Mg  Mg29  1  0.74232826  0.24274446  0.50000000  1
  Mg  Mg30  1  0.74442833  0.74512124  -0.00000000  1
  Mg  Mg31  1  0.74232826  0.75725554  0.50000000  1
  O  O32  1  0.27017694  0.00000000  -0.00000000  1
  O  O33  1  0.25915095  0.00000000  0.50000000  1
  O  O34  1  0.25915095  0.50000000  -0.00000000  1
  O  O35  1  0.27889301  0.50000000  0.50000000  1
  O  O36  1  0.72982306  0.00000000  -0.00000000  1
  O  O37  1  0.74084905  0.00000000  0.50000000  1
  O  O38  1  0.74084905  0.50000000  -0.00000000  1
  O  O39  1  0.72110699  0.50000000  0.50000000  1
  O  O40  1  0.24953693  0.25031156  0.25031156  1
  O  O41  1  0.24953693  0.25031156  0.74968844  1
  O  O42  1  0.24953693  0.74968844  0.25031156  1
  O  O43  1  0.24953693  0.74968844  0.74968844  1
  O  O44  1  0.75046307  0.25031156  0.25031156  1
  O  O45  1  0.75046307  0.25031156  0.74968844  1
  O  O46  1  0.75046307  0.74968844  0.25031156  1
  O  O47  1  0.75046307  0.74968844  0.74968844  1
  O  O48  1  0.00000000  0.00000000  0.26612325  1
  O  O49  1  0.00000000  0.00000000  0.73387675  1
  O  O50  1  0.00000000  0.50000000  0.22328474  1
  O  O51  1  0.00000000  0.50000000  0.77671526  1
  O  O52  1  0.50000000  0.00000000  0.25250104  1
  O  O53  1  0.50000000  0.00000000  0.74749896  1
  O  O54  1  0.50000000  0.50000000  0.24493120  1
  O  O55  1  0.50000000  0.50000000  0.75506880  1
  O  O56  1  0.00000000  0.26612325  -0.00000000  1
  O  O57  1  0.00000000  0.22328474  0.50000000  1
  O  O58  1  0.00000000  0.73387675  -0.00000000  1
  O  O59  1  0.00000000  0.77671526  0.50000000  1
  O  O60  1  0.50000000  0.25250104  -0.00000000  1
  O  O61  1  0.50000000  0.24493120  0.50000000  1
  O  O62  1  0.50000000  0.74749896  -0.00000000  1
  O  O63  1  0.50000000  0.75506880  0.50000000  1
