# generated using pymatgen
data_Cu5(AsO6)2
_symmetry_space_group_name_H-M   'P 1'
_cell_length_a   6.14152540
_cell_length_b   6.12144496
_cell_length_c   7.08032714
_cell_angle_alpha   97.80482444
_cell_angle_beta   109.87725948
_cell_angle_gamma   106.75066888
_symmetry_Int_Tables_number   1
_chemical_formula_structural   Cu5(AsO6)2
_chemical_formula_sum   'Cu5 As2 O12'
_cell_volume   231.48548413
_cell_formula_units_Z   1
loop_
 _symmetry_equiv_pos_site_id
 _symmetry_equiv_pos_as_xyz
  1  'x, y, z'
loop_
 _atom_site_type_symbol
 _atom_site_label
 _atom_site_symmetry_multiplicity
 _atom_site_fract_x
 _atom_site_fract_y
 _atom_site_fract_z
 _atom_site_occupancy
  Cu  Cu0  1  0.00000000  -0.00000000  -0.00000000  1
  Cu  Cu1  1  0.00019084  0.67407697  0.65880507  1
  Cu  Cu2  1  0.99980916  0.32592303  0.34119493  1
  Cu  Cu3  1  0.49534315  0.66977043  0.67983986  1
  Cu  Cu4  1  0.50465685  0.33022957  0.32016014  1
  As  As5  1  0.54178789  0.81904811  0.19089068  1
  As  As6  1  0.45821211  0.18095189  0.80910932  1
  O  O7  1  0.17736403  0.30539219  0.17480766  1
  O  O8  1  0.82263597  0.69460781  0.82519234  1
  O  O9  1  0.15365279  0.00906579  0.78036126  1
  O  O10  1  0.84634721  0.99093421  0.21963874  1
  O  O11  1  0.39114373  0.99638978  0.26323695  1
  O  O12  1  0.60885627  0.00361022  0.73676305  1
  O  O13  1  0.17846851  0.64424366  0.49605017  1
  O  O14  1  0.82153149  0.35575634  0.50394983  1
  O  O15  1  0.60843364  0.66425295  0.38199381  1
  O  O16  1  0.39156636  0.33574705  0.61800619  1
  O  O17  1  0.63691331  0.34174819  0.05628850  1
  O  O18  1  0.36308669  0.65825181  0.94371150  1
