# generated using pymatgen
data_HoScS3
_symmetry_space_group_name_H-M   'P 1'
_cell_length_a   6.36994868
_cell_length_b   6.99189758
_cell_length_c   9.53923045
_cell_angle_alpha   90.00000000
_cell_angle_beta   90.00000000
_cell_angle_gamma   90.00000000
_symmetry_Int_Tables_number   1
_chemical_formula_structural   HoScS3
_chemical_formula_sum   'Ho4 Sc4 S12'
_cell_volume   424.85852013
_cell_formula_units_Z   4
loop_
 _symmetry_equiv_pos_site_id
 _symmetry_equiv_pos_as_xyz
  1  'x, y, z'
loop_
 _atom_site_type_symbol
 _atom_site_label
 _atom_site_symmetry_multiplicity
 _atom_site_fract_x
 _atom_site_fract_y
 _atom_site_fract_z
 _atom_site_occupancy
  Ho  Ho0  1  0.54104226  0.39909618  0.99208594  1
  Ho  Ho1  1  0.45895774  0.60090382  0.49208594  1
  Ho  Ho2  1  0.04104226  0.10090382  0.49208594  1
  Ho  Ho3  1  0.95895774  0.89909618  0.99208594  1
  Sc  Sc4  1  0.00394081  0.49587648  0.23817350  1
  Sc  Sc5  1  0.99605919  0.50412352  0.73817350  1
  Sc  Sc6  1  0.50394081  0.00412352  0.73817350  1
  Sc  Sc7  1  0.49605919  0.99587648  0.23817350  1
  S  S8  1  0.82566688  0.18660559  0.81466742  1
  S  S9  1  0.17433312  0.81339441  0.31466742  1
  S  S10  1  0.32566688  0.31339441  0.31466742  1
  S  S11  1  0.67433312  0.68660559  0.81466742  1
  S  S12  1  0.82269993  0.18159514  0.17049371  1
  S  S13  1  0.17730007  0.81840486  0.67049371  1
  S  S14  1  0.32269993  0.31840486  0.67049371  1
  S  S15  1  0.67730007  0.68159514  0.17049371  1
  S  S16  1  0.85429291  0.45106138  0.48957942  1
  S  S17  1  0.14570709  0.54893862  0.98957942  1
  S  S18  1  0.35429291  0.04893862  0.98957942  1
  S  S19  1  0.64570709  0.95106138  0.48957942  1
