# generated using pymatgen
data_Ce5Sb3
_symmetry_space_group_name_H-M   'P 1'
_cell_length_a   6.34791538
_cell_length_b   9.28400777
_cell_length_c   9.28881801
_cell_angle_alpha   119.98287528
_cell_angle_beta   90.00000000
_cell_angle_gamma   90.00000000
_symmetry_Int_Tables_number   1
_chemical_formula_structural   Ce5Sb3
_chemical_formula_sum   'Ce10 Sb6'
_cell_volume   474.16841950
_cell_formula_units_Z   2
loop_
 _symmetry_equiv_pos_site_id
 _symmetry_equiv_pos_as_xyz
  1  'x, y, z'
loop_
 _atom_site_type_symbol
 _atom_site_label
 _atom_site_symmetry_multiplicity
 _atom_site_fract_x
 _atom_site_fract_y
 _atom_site_fract_z
 _atom_site_occupancy
  Ce  Ce0  1  0.49998387  0.33335027  0.66671228  1
  Ce  Ce1  1  0.49998387  0.66663799  0.33328772  1
  Ce  Ce2  1  0.99998387  0.66664973  0.33328772  1
  Ce  Ce3  1  0.99998387  0.33336201  0.66671228  1
  Ce  Ce4  1  0.75008112  0.25499566  0.00000000  1
  Ce  Ce5  1  0.74997638  0.74446757  0.74459601  1
  Ce  Ce6  1  0.74997638  0.99987156  0.25540399  1
  Ce  Ce7  1  0.25008112  0.74500434  1.00000000  1
  Ce  Ce8  1  0.24997638  0.25553243  0.25540399  1
  Ce  Ce9  1  0.24997638  0.00012844  0.74459601  1
  Sb  Sb10  1  0.75001779  0.61490074  0.00000000  1
  Sb  Sb11  1  0.74999030  0.38489579  0.38495330  1
  Sb  Sb12  1  0.74999030  0.99994249  0.61504670  1
  Sb  Sb13  1  0.25001779  0.38509926  1.00000000  1
  Sb  Sb14  1  0.24999030  0.61510421  0.61504670  1
  Sb  Sb15  1  0.24999030  0.00005751  0.38495330  1
