# generated using pymatgen
data_Zr5Ir3
_symmetry_space_group_name_H-M   'P 1'
_cell_length_a   5.52210012
_cell_length_b   8.11578509
_cell_length_c   8.11752332
_cell_angle_alpha   119.99291987
_cell_angle_beta   90.00000000
_cell_angle_gamma   90.00000000
_symmetry_Int_Tables_number   1
_chemical_formula_structural   Zr5Ir3
_chemical_formula_sum   'Zr10 Ir6'
_cell_volume   315.07937204
_cell_formula_units_Z   2
loop_
 _symmetry_equiv_pos_site_id
 _symmetry_equiv_pos_as_xyz
  1  'x, y, z'
loop_
 _atom_site_type_symbol
 _atom_site_label
 _atom_site_symmetry_multiplicity
 _atom_site_fract_x
 _atom_site_fract_y
 _atom_site_fract_z
 _atom_site_occupancy
  Zr  Zr0  1  0.49999967  0.33332413  0.66670128  1
  Zr  Zr1  1  0.49999967  0.66662286  0.33329872  1
  Zr  Zr2  1  0.99999967  0.66667587  0.33329872  1
  Zr  Zr3  1  0.99999967  0.33337714  0.66670128  1
  Zr  Zr4  1  0.75000841  0.24367195  0.00000000  1
  Zr  Zr5  1  0.74999564  0.75624739  0.75601592  1
  Zr  Zr6  1  0.74999564  0.00023147  0.24398408  1
  Zr  Zr7  1  0.25000841  0.75632805  1.00000000  1
  Zr  Zr8  1  0.24999564  0.24375261  0.24398408  1
  Zr  Zr9  1  0.24999564  0.99976853  0.75601592  1
  Ir  Ir10  1  0.74999657  0.60409352  1.00000000  1
  Ir  Ir11  1  0.75000221  0.39590580  0.39577770  1
  Ir  Ir12  1  0.75000221  0.00012810  0.60422230  1
  Ir  Ir13  1  0.24999657  0.39590648  0.00000000  1
  Ir  Ir14  1  0.25000221  0.60409420  0.60422230  1
  Ir  Ir15  1  0.25000221  0.99987190  0.39577770  1
