# generated using pymatgen
data_Ce2Co7
_symmetry_space_group_name_H-M   'P 1'
_cell_length_a   4.87867795
_cell_length_b   4.87867795
_cell_length_c   12.69466862
_cell_angle_alpha   78.92144959
_cell_angle_beta   78.92144959
_cell_angle_gamma   59.99999633
_symmetry_Int_Tables_number   1
_chemical_formula_structural   Ce2Co7
_chemical_formula_sum   'Ce4 Co14'
_cell_volume   255.14892950
_cell_formula_units_Z   2
loop_
 _symmetry_equiv_pos_site_id
 _symmetry_equiv_pos_as_xyz
  1  'x, y, z'
loop_
 _atom_site_type_symbol
 _atom_site_label
 _atom_site_symmetry_multiplicity
 _atom_site_fract_x
 _atom_site_fract_y
 _atom_site_fract_z
 _atom_site_occupancy
  Ce  Ce0  1  0.05142295  0.05142295  0.84573114  1
  Ce  Ce1  1  0.94857705  0.94857705  0.15426886  1
  Ce  Ce2  1  0.14737586  0.14737586  0.55787241  1
  Ce  Ce3  1  0.85262414  0.85262414  0.44212759  1
  Co  Co4  1  0.50000000  0.50000000  0.50000000  1
  Co  Co5  1  0.27820004  0.27820004  0.16539988  1
  Co  Co6  1  0.72179996  0.72179996  0.83460012  1
  Co  Co7  1  0.38821914  0.38821914  0.83534257  1
  Co  Co8  1  0.61178086  0.61178086  0.16465743  1
  Co  Co9  1  0.50000000  0.50000000  -0.00000000  1
  Co  Co10  1  0.50000000  0.00000000  -0.00000000  1
  Co  Co11  1  -0.00000000  0.50000000  -0.00000000  1
  Co  Co12  1  0.10971715  0.60890090  0.67248105  1
  Co  Co13  1  0.60890090  0.60890090  0.67248105  1
  Co  Co14  1  0.60890090  0.10971715  0.67248105  1
  Co  Co15  1  0.89028285  0.39109910  0.32751895  1
  Co  Co16  1  0.39109910  0.39109910  0.32751895  1
  Co  Co17  1  0.39109910  0.89028285  0.32751895  1
