# generated using pymatgen
data_Sm2Ge5Pt3
_symmetry_space_group_name_H-M   'P 1'
_cell_length_a   6.32185516
_cell_length_b   8.46652207
_cell_length_c   8.46652207
_cell_angle_alpha   74.68768762
_cell_angle_beta   68.07798390
_cell_angle_gamma   68.07798390
_symmetry_Int_Tables_number   1
_chemical_formula_structural   Sm2Ge5Pt3
_chemical_formula_sum   'Sm4 Ge10 Pt6'
_cell_volume   385.88325777
_cell_formula_units_Z   2
loop_
 _symmetry_equiv_pos_site_id
 _symmetry_equiv_pos_as_xyz
  1  'x, y, z'
loop_
 _atom_site_type_symbol
 _atom_site_label
 _atom_site_symmetry_multiplicity
 _atom_site_fract_x
 _atom_site_fract_y
 _atom_site_fract_z
 _atom_site_occupancy
  Sm  Sm0  1  0.63081766  0.13967722  0.59868747  1
  Sm  Sm1  1  0.36918234  0.86032278  0.40131253  1
  Sm  Sm2  1  0.13081766  0.59868747  0.13967722  1
  Sm  Sm3  1  0.86918234  0.40131253  0.86032278  1
  Ge  Ge4  1  0.75000000  0.50000000  0.50000000  1
  Ge  Ge5  1  0.25000000  0.50000000  0.50000000  1
  Ge  Ge6  1  0.52205724  0.22794276  0.22794276  1
  Ge  Ge7  1  0.97794276  0.77205724  0.77205724  1
  Ge  Ge8  1  0.47794276  0.77205724  0.77205724  1
  Ge  Ge9  1  0.02205724  0.22794276  0.22794276  1
  Ge  Ge10  1  0.39510723  0.25977930  0.95000624  1
  Ge  Ge11  1  0.60489277  0.74022070  0.04999376  1
  Ge  Ge12  1  0.89510723  0.95000624  0.25977930  1
  Ge  Ge13  1  0.10489277  0.04999376  0.74022070  1
  Pt  Pt14  1  0.25000000  -0.00000000  -0.00000000  1
  Pt  Pt15  1  0.75000000  -0.00000000  -0.00000000  1
  Pt  Pt16  1  0.86130552  0.74990206  0.52748690  1
  Pt  Pt17  1  0.13869448  0.25009794  0.47251310  1
  Pt  Pt18  1  0.36130552  0.52748690  0.74990206  1
  Pt  Pt19  1  0.63869448  0.47251310  0.25009794  1
