# generated using pymatgen
data_Ca3Tl5
_symmetry_space_group_name_H-M   'P 1'
_cell_length_a   6.70059071
_cell_length_b   6.70059071
_cell_length_c   10.87177656
_cell_angle_alpha   90.00000000
_cell_angle_beta   90.00000000
_cell_angle_gamma   103.31239859
_symmetry_Int_Tables_number   1
_chemical_formula_structural   Ca3Tl5
_chemical_formula_sum   'Ca6 Tl10'
_cell_volume   475.00386716
_cell_formula_units_Z   2
loop_
 _symmetry_equiv_pos_site_id
 _symmetry_equiv_pos_as_xyz
  1  'x, y, z'
loop_
 _atom_site_type_symbol
 _atom_site_label
 _atom_site_symmetry_multiplicity
 _atom_site_fract_x
 _atom_site_fract_y
 _atom_site_fract_z
 _atom_site_occupancy
  Ca  Ca0  1  0.08568929  0.08568929  0.25000000  1
  Ca  Ca1  1  0.91431071  0.91431071  0.75000000  1
  Ca  Ca2  1  0.71376708  0.28623292  -0.00000000  1
  Ca  Ca3  1  0.71376708  0.28623292  0.50000000  1
  Ca  Ca4  1  0.28623292  0.71376708  0.00000000  1
  Ca  Ca5  1  0.28623292  0.71376708  0.50000000  1
  Tl  Tl6  1  0.52558766  0.52558766  0.75000000  1
  Tl  Tl7  1  0.47441234  0.47441234  0.25000000  1
  Tl  Tl8  1  0.01780346  0.44449826  0.75000000  1
  Tl  Tl9  1  0.55550174  0.98219654  0.25000000  1
  Tl  Tl10  1  0.98219654  0.55550174  0.25000000  1
  Tl  Tl11  1  0.44449826  0.01780346  0.75000000  1
  Tl  Tl12  1  0.20396984  0.20396984  0.96502963  1
  Tl  Tl13  1  0.79603016  0.79603016  0.03497037  1
  Tl  Tl14  1  0.20396984  0.20396984  0.53497037  1
  Tl  Tl15  1  0.79603016  0.79603016  0.46502963  1
