# generated using pymatgen
data_Lu5Ga3
_symmetry_space_group_name_H-M   'P 1'
_cell_length_a   6.40762959
_cell_length_b   8.40765862
_cell_length_c   8.39001497
_cell_angle_alpha   120.06959159
_cell_angle_beta   89.98730140
_cell_angle_gamma   90.02534383
_symmetry_Int_Tables_number   1
_chemical_formula_structural   Lu5Ga3
_chemical_formula_sum   'Lu10 Ga6'
_cell_volume   391.16574469
_cell_formula_units_Z   2
loop_
 _symmetry_equiv_pos_site_id
 _symmetry_equiv_pos_as_xyz
  1  'x, y, z'
loop_
 _atom_site_type_symbol
 _atom_site_label
 _atom_site_symmetry_multiplicity
 _atom_site_fract_x
 _atom_site_fract_y
 _atom_site_fract_z
 _atom_site_occupancy
  Lu  Lu0  1  0.49995929  0.33350713  0.66696825  1
  Lu  Lu1  1  0.49995929  0.66653888  0.33303175  1
  Lu  Lu2  1  0.99968381  0.66651704  0.33314425  1
  Lu  Lu3  1  0.99968381  0.33337279  0.66685575  1
  Lu  Lu4  1  0.75102339  0.24101641  0.00000000  1
  Lu  Lu5  1  0.75031704  0.75887342  0.75912727  1
  Lu  Lu6  1  0.75031704  0.99974616  0.24087273  1
  Lu  Lu7  1  0.24985331  0.75885504  1.00000000  1
  Lu  Lu8  1  0.24948591  0.24139347  0.24096103  1
  Lu  Lu9  1  0.24948591  0.00043244  0.75903897  1
  Ga  Ga10  1  0.75009899  0.59814127  1.00000000  1
  Ga  Ga11  1  0.75008201  0.40223041  0.40208049  1
  Ga  Ga12  1  0.75008201  0.00014992  0.59791951  1
  Ga  Ga13  1  0.25004710  0.40174100  0.00000000  1
  Ga  Ga14  1  0.24996055  0.59770076  0.59791691  1
  Ga  Ga15  1  0.24996055  0.99978385  0.40208309  1
