# generated using pymatgen
data_Ce(In2Ni)3
_symmetry_space_group_name_H-M   'P 1'
_cell_length_a   4.41109720
_cell_length_b   7.70492131
_cell_length_c   11.87064587
_cell_angle_alpha   90.00000000
_cell_angle_beta   90.00000000
_cell_angle_gamma   90.00000000
_symmetry_Int_Tables_number   1
_chemical_formula_structural   Ce(In2Ni)3
_chemical_formula_sum   'Ce2 In12 Ni6'
_cell_volume   403.44950270
_cell_formula_units_Z   2
loop_
 _symmetry_equiv_pos_site_id
 _symmetry_equiv_pos_as_xyz
  1  'x, y, z'
loop_
 _atom_site_type_symbol
 _atom_site_label
 _atom_site_symmetry_multiplicity
 _atom_site_fract_x
 _atom_site_fract_y
 _atom_site_fract_z
 _atom_site_occupancy
  Ce  Ce0  1  0.75000000  0.75000000  0.67599548  1
  Ce  Ce1  1  0.25000000  0.25000000  0.32400452  1
  In  In2  1  0.25000000  0.75000000  0.25141346  1
  In  In3  1  0.75000000  0.25000000  0.74858654  1
  In  In4  1  0.75000000  0.75000000  0.98788961  1
  In  In5  1  0.25000000  0.25000000  0.01211039  1
  In  In6  1  0.75000000  0.94994035  0.41568641  1
  In  In7  1  0.75000000  0.55005965  0.41568641  1
  In  In8  1  0.25000000  0.05005965  0.58431359  1
  In  In9  1  0.25000000  0.44994035  0.58431359  1
  In  In10  1  0.75000000  0.04957322  0.16403525  1
  In  In11  1  0.75000000  0.45042678  0.16403525  1
  In  In12  1  0.25000000  0.95042678  0.83596475  1
  In  In13  1  0.25000000  0.54957322  0.83596475  1
  Ni  Ni14  1  0.75000000  0.25000000  0.52961213  1
  Ni  Ni15  1  0.25000000  0.75000000  0.47038787  1
  Ni  Ni16  1  0.75000000  0.07442405  0.93474109  1
  Ni  Ni17  1  0.75000000  0.42557595  0.93474109  1
  Ni  Ni18  1  0.25000000  0.92557595  0.06525891  1
  Ni  Ni19  1  0.25000000  0.57442405  0.06525891  1
