# generated using pymatgen
data_Sr3CoRuO6
_symmetry_space_group_name_H-M   'P 1'
_cell_length_a   6.74523103
_cell_length_b   6.74523103
_cell_length_c   6.74523083
_cell_angle_alpha   92.48202637
_cell_angle_beta   92.48202637
_cell_angle_gamma   92.48202979
_symmetry_Int_Tables_number   1
_chemical_formula_structural   Sr3CoRuO6
_chemical_formula_sum   'Sr6 Co2 Ru2 O12'
_cell_volume   306.00592136
_cell_formula_units_Z   2
loop_
 _symmetry_equiv_pos_site_id
 _symmetry_equiv_pos_as_xyz
  1  'x, y, z'
loop_
 _atom_site_type_symbol
 _atom_site_label
 _atom_site_symmetry_multiplicity
 _atom_site_fract_x
 _atom_site_fract_y
 _atom_site_fract_z
 _atom_site_occupancy
  Sr  Sr0  1  0.61271888  0.88728112  0.25000000  1
  Sr  Sr1  1  0.88728112  0.25000000  0.61271888  1
  Sr  Sr2  1  0.25000000  0.61271888  0.88728112  1
  Sr  Sr3  1  0.11271888  0.75000000  0.38728112  1
  Sr  Sr4  1  0.75000000  0.38728112  0.11271888  1
  Sr  Sr5  1  0.38728112  0.11271888  0.75000000  1
  Co  Co6  1  0.25000000  0.25000000  0.25000000  1
  Co  Co7  1  0.75000000  0.75000000  0.75000000  1
  Ru  Ru8  1  0.50000000  0.50000000  0.50000000  1
  Ru  Ru9  1  -0.00000000  -0.00000000  0.00000000  1
  O  O10  1  0.53695105  0.21207680  0.41636533  1
  O  O11  1  0.21207680  0.41636533  0.53695105  1
  O  O12  1  0.41636533  0.53695105  0.21207680  1
  O  O13  1  0.03695105  0.91636533  0.71207680  1
  O  O14  1  0.91636533  0.71207680  0.03695105  1
  O  O15  1  0.71207680  0.03695105  0.91636533  1
  O  O16  1  0.46304895  0.78792320  0.58363467  1
  O  O17  1  0.78792320  0.58363467  0.46304895  1
  O  O18  1  0.58363467  0.46304895  0.78792320  1
  O  O19  1  0.96304895  0.08363467  0.28792320  1
  O  O20  1  0.08363467  0.28792320  0.96304895  1
  O  O21  1  0.28792320  0.96304895  0.08363467  1
