# generated using pymatgen
data_BH8N
_symmetry_space_group_name_H-M   'P 1'
_cell_length_a   4.08989612
_cell_length_b   4.14256907
_cell_length_c   8.64049152
_cell_angle_alpha   90.00000000
_cell_angle_beta   90.00000000
_cell_angle_gamma   90.00000000
_symmetry_Int_Tables_number   1
_chemical_formula_structural   BH8N
_chemical_formula_sum   'B2 H16 N2'
_cell_volume   146.39305838
_cell_formula_units_Z   2
loop_
 _symmetry_equiv_pos_site_id
 _symmetry_equiv_pos_as_xyz
  1  'x, y, z'
loop_
 _atom_site_type_symbol
 _atom_site_label
 _atom_site_symmetry_multiplicity
 _atom_site_fract_x
 _atom_site_fract_y
 _atom_site_fract_z
 _atom_site_occupancy
  B  B0  1  0.52424286  0.45462859  0.25000000  1
  B  B1  1  0.52424286  0.54537141  0.75000000  1
  H  H2  1  0.89982703  0.84985489  0.56583408  1
  H  H3  1  0.89982703  0.15014511  0.43416592  1
  H  H4  1  0.89982703  0.84985489  0.93416592  1
  H  H5  1  0.89982703  0.15014511  0.06583408  1
  H  H6  1  0.19133203  0.13730915  0.57315231  1
  H  H7  1  0.19133203  0.86269085  0.42684769  1
  H  H8  1  0.19133203  0.13730915  0.92684769  1
  H  H9  1  0.19133203  0.86269085  0.07315231  1
  H  H10  1  0.64972724  0.57286939  0.13473115  1
  H  H11  1  0.64972724  0.42713061  0.86526885  1
  H  H12  1  0.64972724  0.57286939  0.36526885  1
  H  H13  1  0.64972724  0.42713061  0.63473115  1
  H  H14  1  0.57102888  0.16070600  0.25000000  1
  H  H15  1  0.57102888  0.83929400  0.75000000  1
  H  H16  1  0.22842577  0.50488908  0.25000000  1
  H  H17  1  0.22842577  0.49511092  0.75000000  1
  N  N18  1  0.04652989  -0.00000000  0.50000000  1
  N  N19  1  0.04652989  0.00000000  -0.00000000  1
