# generated using pymatgen
data_NaCdAsS3
_symmetry_space_group_name_H-M   'P 1'
_cell_length_a   5.76701144
_cell_length_b   5.82720713
_cell_length_c   16.73399145
_cell_angle_alpha   90.00000000
_cell_angle_beta   90.00000000
_cell_angle_gamma   88.78027129
_symmetry_Int_Tables_number   1
_chemical_formula_structural   NaCdAsS3
_chemical_formula_sum   'Na4 Cd4 As4 S12'
_cell_volume   562.22790106
_cell_formula_units_Z   4
loop_
 _symmetry_equiv_pos_site_id
 _symmetry_equiv_pos_as_xyz
  1  'x, y, z'
loop_
 _atom_site_type_symbol
 _atom_site_label
 _atom_site_symmetry_multiplicity
 _atom_site_fract_x
 _atom_site_fract_y
 _atom_site_fract_z
 _atom_site_occupancy
  Na  Na0  1  0.03310101  0.76583712  0.42581606  1
  Na  Na1  1  0.53310101  0.26583712  0.07418394  1
  Na  Na2  1  0.96689899  0.23416288  0.57418394  1
  Na  Na3  1  0.46689899  0.73416288  0.92581606  1
  Cd  Cd4  1  0.49866922  0.74552155  0.24929179  1
  Cd  Cd5  1  0.99866922  0.24552155  0.25070821  1
  Cd  Cd6  1  0.50133078  0.25447845  0.75070821  1
  Cd  Cd7  1  0.00133078  0.75447845  0.74929179  1
  As  As8  1  0.98828071  0.72969114  0.10064516  1
  As  As9  1  0.48828071  0.22969114  0.39935484  1
  As  As10  1  0.01171929  0.27030886  0.89935484  1
  As  As11  1  0.51171929  0.77030886  0.60064516  1
  S  S12  1  0.53216890  0.84027507  0.39956000  1
  S  S13  1  0.03216890  0.34027507  0.10044000  1
  S  S14  1  0.46783110  0.15972493  0.60044000  1
  S  S15  1  0.96783110  0.65972493  0.89956000  1
  S  S16  1  0.59210224  0.77209225  0.09761204  1
  S  S17  1  0.09210224  0.27209225  0.40238796  1
  S  S18  1  0.40789776  0.22790775  0.90238796  1
  S  S19  1  0.90789776  0.72790775  0.59761204  1
  S  S20  1  0.53474599  0.28611201  0.26382255  1
  S  S21  1  0.03474599  0.78611201  0.23617745  1
  S  S22  1  0.46525401  0.71388799  0.73617745  1
  S  S23  1  0.96525401  0.21388799  0.76382255  1
