# generated using pymatgen
data_BiPO4
_symmetry_space_group_name_H-M   'P 1'
_cell_length_a   6.53979304
_cell_length_b   6.86403987
_cell_length_c   7.02960004
_cell_angle_alpha   90.00000000
_cell_angle_beta   90.00000000
_cell_angle_gamma   104.19457843
_symmetry_Int_Tables_number   1
_chemical_formula_structural   BiPO4
_chemical_formula_sum   'Bi4 P4 O16'
_cell_volume   305.92019444
_cell_formula_units_Z   4
loop_
 _symmetry_equiv_pos_site_id
 _symmetry_equiv_pos_as_xyz
  1  'x, y, z'
loop_
 _atom_site_type_symbol
 _atom_site_label
 _atom_site_symmetry_multiplicity
 _atom_site_fract_x
 _atom_site_fract_y
 _atom_site_fract_z
 _atom_site_occupancy
  Bi  Bi0  1  0.41485511  0.21392336  0.64309405  1
  Bi  Bi1  1  0.91485511  0.71392336  0.85690595  1
  Bi  Bi2  1  0.58514489  0.78607664  0.35690595  1
  Bi  Bi3  1  0.08514489  0.28607664  0.14309405  1
  P  P4  1  0.88834217  0.20216983  0.66027882  1
  P  P5  1  0.38834217  0.70216983  0.83972118  1
  P  P6  1  0.11165783  0.79783017  0.33972118  1
  P  P7  1  0.61165783  0.29783017  0.16027882  1
  O  O8  1  0.05980087  0.23944343  0.50451459  1
  O  O9  1  0.55980087  0.73944343  0.99548541  1
  O  O10  1  0.94019913  0.76055657  0.49548541  1
  O  O11  1  0.44019913  0.26055657  0.00451459  1
  O  O12  1  0.98235023  0.12182442  0.83928616  1
  O  O13  1  0.48235023  0.62182442  0.66071384  1
  O  O14  1  0.01764977  0.87817558  0.16071384  1
  O  O15  1  0.51764977  0.37817558  0.33928616  1
  O  O16  1  0.68292610  0.04012422  0.59839450  1
  O  O17  1  0.18292610  0.54012422  0.90160550  1
  O  O18  1  0.31707390  0.95987578  0.40160550  1
  O  O19  1  0.81707390  0.45987578  0.09839450  1
  O  O20  1  0.79345140  0.38404116  0.70244210  1
  O  O21  1  0.29345140  0.88404116  0.79755790  1
  O  O22  1  0.20654860  0.61595884  0.29755790  1
  O  O23  1  0.70654860  0.11595884  0.20244210  1
