# generated using pymatgen
data_Y2CuTe2(SO7)2
_symmetry_space_group_name_H-M   'P 1'
_cell_length_a   5.21942633
_cell_length_b   7.98835810
_cell_length_c   8.24716820
_cell_angle_alpha   62.22141933
_cell_angle_beta   74.22375182
_cell_angle_gamma   85.33951411
_symmetry_Int_Tables_number   1
_chemical_formula_structural   Y2CuTe2(SO7)2
_chemical_formula_sum   'Y2 Cu1 Te2 S2 O14'
_cell_volume   292.35649090
_cell_formula_units_Z   1
loop_
 _symmetry_equiv_pos_site_id
 _symmetry_equiv_pos_as_xyz
  1  'x, y, z'
loop_
 _atom_site_type_symbol
 _atom_site_label
 _atom_site_symmetry_multiplicity
 _atom_site_fract_x
 _atom_site_fract_y
 _atom_site_fract_z
 _atom_site_occupancy
  Y  Y0  1  0.92630665  0.74876901  0.98196617  1
  Y  Y1  1  0.07369335  0.25123099  0.01803383  1
  Cu  Cu2  1  0.00000000  -0.00000000  0.50000000  1
  Te  Te3  1  0.48824242  0.72842758  0.65548666  1
  Te  Te4  1  0.51175758  0.27157242  0.34451334  1
  S  S5  1  0.25177745  0.74806977  0.24975749  1
  S  S6  1  0.74822255  0.25193023  0.75024251  1
  O  O7  1  0.13748085  0.58845624  0.24043481  1
  O  O8  1  0.86251915  0.41154376  0.75956519  1
  O  O9  1  0.14125906  0.74745884  0.43397148  1
  O  O10  1  0.85874094  0.25254116  0.56602852  1
  O  O11  1  0.54620690  0.73762436  0.21279519  1
  O  O12  1  0.45379310  0.26237564  0.78720481  1
  O  O13  1  0.17521008  0.92236626  0.09231821  1
  O  O14  1  0.82478992  0.07763374  0.90768179  1
  O  O15  1  0.25031834  0.56112640  0.89084136  1
  O  O16  1  0.74968166  0.43887360  0.10915864  1
  O  O17  1  0.72848911  0.81321932  0.74429523  1
  O  O18  1  0.27151089  0.18678068  0.25570477  1
  O  O19  1  0.24894730  0.92703093  0.65849177  1
  O  O20  1  0.75105270  0.07296907  0.34150823  1
