# generated using pymatgen
data_CsHo2Cu3Se5
_symmetry_space_group_name_H-M   'P 1'
_cell_length_a   4.15350632
_cell_length_b   7.62723461
_cell_length_c   17.35813665
_cell_angle_alpha   90.00000000
_cell_angle_beta   90.00000000
_cell_angle_gamma   105.80006299
_symmetry_Int_Tables_number   1
_chemical_formula_structural   CsHo2Cu3Se5
_chemical_formula_sum   'Cs2 Ho4 Cu6 Se10'
_cell_volume   529.12517180
_cell_formula_units_Z   2
loop_
 _symmetry_equiv_pos_site_id
 _symmetry_equiv_pos_as_xyz
  1  'x, y, z'
loop_
 _atom_site_type_symbol
 _atom_site_label
 _atom_site_symmetry_multiplicity
 _atom_site_fract_x
 _atom_site_fract_y
 _atom_site_fract_z
 _atom_site_occupancy
  Cs  Cs0  1  0.93889246  0.87778492  0.25000000  1
  Cs  Cs1  1  0.06110754  0.12221508  0.75000000  1
  Ho  Ho2  1  0.19269321  0.38538642  0.09104914  1
  Ho  Ho3  1  0.80730679  0.61461358  0.90895086  1
  Ho  Ho4  1  0.19269321  0.38538642  0.40895086  1
  Ho  Ho5  1  0.80730679  0.61461358  0.59104914  1
  Cu  Cu6  1  0.65676907  0.31353814  0.25000000  1
  Cu  Cu7  1  0.34323093  0.68646186  0.75000000  1
  Cu  Cu8  1  0.41712496  0.83424993  0.46747341  1
  Cu  Cu9  1  0.58287504  0.16575007  0.53252659  1
  Cu  Cu10  1  0.41712496  0.83424993  0.03252659  1
  Cu  Cu11  1  0.58287504  0.16575007  0.96747341  1
  Se  Se12  1  0.23717094  0.47434188  0.25000000  1
  Se  Se13  1  0.76282906  0.52565812  0.75000000  1
  Se  Se14  1  0.43804642  0.87609284  0.88854563  1
  Se  Se15  1  0.56195358  0.12390716  0.11145437  1
  Se  Se16  1  0.43804642  0.87609284  0.61145437  1
  Se  Se17  1  0.56195358  0.12390716  0.38854563  1
  Se  Se18  1  0.16930496  0.33860991  0.92967274  1
  Se  Se19  1  0.83069504  0.66139009  0.07032726  1
  Se  Se20  1  0.16930496  0.33860991  0.57032726  1
  Se  Se21  1  0.83069504  0.66139009  0.42967274  1
