# generated using pymatgen
data_BaGa4Se7
_symmetry_space_group_name_H-M   'P 1'
_cell_length_a   6.65009719
_cell_length_b   7.77078620
_cell_length_c   12.82557847
_cell_angle_alpha   89.93251218
_cell_angle_beta   90.00000000
_cell_angle_gamma   90.00000000
_symmetry_Int_Tables_number   1
_chemical_formula_structural   BaGa4Se7
_chemical_formula_sum   'Ba2 Ga8 Se14'
_cell_volume   662.78033383
_cell_formula_units_Z   2
loop_
 _symmetry_equiv_pos_site_id
 _symmetry_equiv_pos_as_xyz
  1  'x, y, z'
loop_
 _atom_site_type_symbol
 _atom_site_label
 _atom_site_symmetry_multiplicity
 _atom_site_fract_x
 _atom_site_fract_y
 _atom_site_fract_z
 _atom_site_occupancy
  Ba  Ba0  1  0.35308396  0.98224975  0.45370657  1
  Ba  Ba1  1  0.64691604  0.48224975  0.95370657  1
  Ga  Ga2  1  0.16609146  0.23349313  0.75940579  1
  Ga  Ga3  1  0.83390854  0.73349313  0.25940579  1
  Ga  Ga4  1  0.00822676  0.50004061  0.49984129  1
  Ga  Ga5  1  0.99177324  0.00004061  0.99984129  1
  Ga  Ga6  1  0.15849860  0.73530195  0.77224399  1
  Ga  Ga7  1  0.84150140  0.23530195  0.27224399  1
  Ga  Ga8  1  0.36325070  0.48778329  0.27481132  1
  Ga  Ga9  1  0.63674930  0.98778329  0.77481132  1
  Se  Se10  1  0.14985816  0.27018053  0.94587241  1
  Se  Se11  1  0.85014184  0.77018053  0.44587241  1
  Se  Se12  1  0.36151248  0.53372227  0.46070395  1
  Se  Se13  1  0.63848752  0.03372227  0.96070395  1
  Se  Se14  1  0.10895968  0.71415030  0.95708859  1
  Se  Se15  1  0.89104032  0.21415030  0.45708859  1
  Se  Se16  1  0.01772944  0.48027191  0.19096588  1
  Se  Se17  1  0.98227056  0.98027191  0.69096588  1
  Se  Se18  1  0.50946592  0.72445272  0.17727254  1
  Se  Se19  1  0.49053408  0.22445272  0.67727254  1
  Se  Se20  1  0.49571136  0.21131827  0.22029163  1
  Se  Se21  1  0.50428864  0.71131827  0.72029163  1
  Se  Se22  1  0.02910009  0.98715527  0.19575603  1
  Se  Se23  1  0.97089991  0.48715527  0.69575603  1
