# generated using pymatgen
data_Ho2ZnS4
_symmetry_space_group_name_H-M   'P 1'
_cell_length_a   6.34019938
_cell_length_b   7.85105231
_cell_length_c   13.51692888
_cell_angle_alpha   90.00000000
_cell_angle_beta   90.00000000
_cell_angle_gamma   90.00000000
_symmetry_Int_Tables_number   1
_chemical_formula_structural   Ho2ZnS4
_chemical_formula_sum   'Ho8 Zn4 S16'
_cell_volume   672.83537221
_cell_formula_units_Z   4
loop_
 _symmetry_equiv_pos_site_id
 _symmetry_equiv_pos_as_xyz
  1  'x, y, z'
loop_
 _atom_site_type_symbol
 _atom_site_label
 _atom_site_symmetry_multiplicity
 _atom_site_fract_x
 _atom_site_fract_y
 _atom_site_fract_z
 _atom_site_occupancy
  Ho  Ho0  1  0.50000000  0.00000000  0.50000000  1
  Ho  Ho1  1  -0.00000000  0.50000000  0.00000000  1
  Ho  Ho2  1  0.50000000  0.50000000  0.50000000  1
  Ho  Ho3  1  -0.00000000  0.00000000  0.00000000  1
  Ho  Ho4  1  0.99918921  0.75000000  0.26681446  1
  Ho  Ho5  1  0.50081079  0.75000000  0.76681446  1
  Ho  Ho6  1  0.00081079  0.25000000  0.73318554  1
  Ho  Ho7  1  0.49918921  0.25000000  0.23318554  1
  Zn  Zn8  1  0.58438144  0.75000000  0.09540656  1
  Zn  Zn9  1  0.91561856  0.75000000  0.59540656  1
  Zn  Zn10  1  0.41561856  0.25000000  0.90459344  1
  Zn  Zn11  1  0.08438144  0.25000000  0.40459344  1
  S  S12  1  0.75467560  0.98758901  0.16853937  1
  S  S13  1  0.74532440  0.51241099  0.66853937  1
  S  S14  1  0.24532440  0.48758901  0.83146063  1
  S  S15  1  0.25467560  0.01241099  0.33146063  1
  S  S16  1  0.24532440  0.01241099  0.83146063  1
  S  S17  1  0.25467560  0.48758901  0.33146063  1
  S  S18  1  0.75467560  0.51241099  0.16853937  1
  S  S19  1  0.74532440  0.98758901  0.66853937  1
  S  S20  1  0.22180658  0.75000000  0.09184452  1
  S  S21  1  0.27819342  0.75000000  0.59184452  1
  S  S22  1  0.77819342  0.25000000  0.90815548  1
  S  S23  1  0.72180658  0.25000000  0.40815548  1
  S  S24  1  0.74127503  0.75000000  0.93270788  1
  S  S25  1  0.75872497  0.75000000  0.43270788  1
  S  S26  1  0.25872497  0.25000000  0.06729212  1
  S  S27  1  0.24127503  0.25000000  0.56729212  1
