# generated using pymatgen
data_CeNi9Ge4
_symmetry_space_group_name_H-M   'P 1'
_cell_length_a   7.94340901
_cell_length_b   7.94340901
_cell_length_c   8.11003159
_cell_angle_alpha   119.32266451
_cell_angle_beta   119.32266451
_cell_angle_gamma   90.00000000
_symmetry_Int_Tables_number   1
_chemical_formula_structural   CeNi9Ge4
_chemical_formula_sum   'Ce2 Ni18 Ge8'
_cell_volume   369.12850025
_cell_formula_units_Z   2
loop_
 _symmetry_equiv_pos_site_id
 _symmetry_equiv_pos_as_xyz
  1  'x, y, z'
loop_
 _atom_site_type_symbol
 _atom_site_label
 _atom_site_symmetry_multiplicity
 _atom_site_fract_x
 _atom_site_fract_y
 _atom_site_fract_z
 _atom_site_occupancy
  Ce  Ce0  1  0.75000000  0.75000000  0.50000000  1
  Ce  Ce1  1  0.25000000  0.25000000  0.50000000  1
  Ni  Ni2  1  0.05851449  0.80411543  0.36262993  1
  Ni  Ni3  1  0.30411543  0.55851449  0.36262993  1
  Ni  Ni4  1  0.80411543  0.30411543  0.36262993  1
  Ni  Ni5  1  0.55851449  0.05851449  0.36262993  1
  Ni  Ni6  1  0.94148551  0.19588457  0.63737007  1
  Ni  Ni7  1  0.69588457  0.44148551  0.63737007  1
  Ni  Ni8  1  0.19588457  0.69588457  0.63737007  1
  Ni  Ni9  1  0.44148551  0.94148551  0.63737007  1
  Ni  Ni10  1  0.43381533  0.70359267  0.00000000  1
  Ni  Ni11  1  0.56618467  0.29640733  0.00000000  1
  Ni  Ni12  1  0.06618467  0.20359267  0.00000000  1
  Ni  Ni13  1  0.93381533  0.79640733  0.00000000  1
  Ni  Ni14  1  0.29640733  0.43381533  0.00000000  1
  Ni  Ni15  1  0.70359267  0.56618467  0.00000000  1
  Ni  Ni16  1  0.79640733  0.06618467  0.00000000  1
  Ni  Ni17  1  0.20359267  0.93381533  0.00000000  1
  Ni  Ni18  1  0.00000000  0.50000000  0.00000000  1
  Ni  Ni19  1  0.50000000  0.00000000  0.00000000  1
  Ge  Ge20  1  0.79790445  0.94648404  0.24438849  1
  Ge  Ge21  1  0.44648404  0.29790445  0.24438849  1
  Ge  Ge22  1  0.94648404  0.44648404  0.24438849  1
  Ge  Ge23  1  0.29790445  0.79790445  0.24438849  1
  Ge  Ge24  1  0.20209555  0.05351596  0.75561151  1
  Ge  Ge25  1  0.55351596  0.70209555  0.75561151  1
  Ge  Ge26  1  0.05351596  0.55351596  0.75561151  1
  Ge  Ge27  1  0.70209555  0.20209555  0.75561151  1
