# generated using pymatgen
data_Eu(BiS2)2
_symmetry_space_group_name_H-M   'P 1'
_cell_length_a   4.08536710
_cell_length_b   11.68485745
_cell_length_c   14.64687800
_cell_angle_alpha   90.00000000
_cell_angle_beta   90.00000000
_cell_angle_gamma   90.00000000
_symmetry_Int_Tables_number   1
_chemical_formula_structural   Eu(BiS2)2
_chemical_formula_sum   'Eu4 Bi8 S16'
_cell_volume   699.19702195
_cell_formula_units_Z   4
loop_
 _symmetry_equiv_pos_site_id
 _symmetry_equiv_pos_as_xyz
  1  'x, y, z'
loop_
 _atom_site_type_symbol
 _atom_site_label
 _atom_site_symmetry_multiplicity
 _atom_site_fract_x
 _atom_site_fract_y
 _atom_site_fract_z
 _atom_site_occupancy
  Eu  Eu0  1  0.75000000  0.23838981  0.15193498  1
  Eu  Eu1  1  0.75000000  0.73838981  0.34806502  1
  Eu  Eu2  1  0.25000000  0.76161019  0.84806502  1
  Eu  Eu3  1  0.25000000  0.26161019  0.65193498  1
  Bi  Bi4  1  0.75000000  0.43320634  0.89263675  1
  Bi  Bi5  1  0.75000000  0.93320634  0.60736325  1
  Bi  Bi6  1  0.25000000  0.56679366  0.10736325  1
  Bi  Bi7  1  0.25000000  0.06679366  0.39263675  1
  Bi  Bi8  1  0.75000000  0.39504115  0.39919788  1
  Bi  Bi9  1  0.75000000  0.89504115  0.10080212  1
  Bi  Bi10  1  0.25000000  0.60495885  0.60080212  1
  Bi  Bi11  1  0.25000000  0.10495885  0.89919788  1
  S  S12  1  0.75000000  0.16832558  0.51431721  1
  S  S13  1  0.75000000  0.66832558  0.98568279  1
  S  S14  1  0.25000000  0.83167442  0.48568279  1
  S  S15  1  0.25000000  0.33167442  0.01431721  1
  S  S16  1  0.75000000  0.23642882  0.80032108  1
  S  S17  1  0.75000000  0.73642882  0.69967892  1
  S  S18  1  0.25000000  0.76357118  0.19967892  1
  S  S19  1  0.25000000  0.26357118  0.30032108  1
  S  S20  1  0.75000000  0.43814968  0.58836706  1
  S  S21  1  0.75000000  0.93814968  0.91163294  1
  S  S22  1  0.25000000  0.56185032  0.41163294  1
  S  S23  1  0.25000000  0.06185032  0.08836706  1
  S  S24  1  0.75000000  0.48732183  0.21337516  1
  S  S25  1  0.75000000  0.98732183  0.28662484  1
  S  S26  1  0.25000000  0.51267817  0.78662484  1
  S  S27  1  0.25000000  0.01267817  0.71337516  1
