# generated using pymatgen
data_Ce3TiAlS7
_symmetry_space_group_name_H-M   'P 1'
_cell_length_a   6.11129167
_cell_length_b   10.05624212
_cell_length_c   10.10419579
_cell_angle_alpha   120.21717376
_cell_angle_beta   90.00000000
_cell_angle_gamma   90.00000000
_symmetry_Int_Tables_number   1
_chemical_formula_structural   Ce3TiAlS7
_chemical_formula_sum   'Ce6 Ti2 Al2 S14'
_cell_volume   536.59490820
_cell_formula_units_Z   2
loop_
 _symmetry_equiv_pos_site_id
 _symmetry_equiv_pos_as_xyz
  1  'x, y, z'
loop_
 _atom_site_type_symbol
 _atom_site_label
 _atom_site_symmetry_multiplicity
 _atom_site_fract_x
 _atom_site_fract_y
 _atom_site_fract_z
 _atom_site_occupancy
  Ce  Ce0  1  0.26288328  0.23093405  0.36960911  1
  Ce  Ce1  1  0.26458733  0.62718156  0.86082086  1
  Ce  Ce2  1  0.26455033  0.14249313  0.77003945  1
  Ce  Ce3  1  0.76288328  0.76906595  0.63039089  1
  Ce  Ce4  1  0.76458733  0.37281844  0.13917914  1
  Ce  Ce5  1  0.76455033  0.85750687  0.22996055  1
  Ti  Ti6  1  0.45668879  0.00056438  -0.00027781  1
  Ti  Ti7  1  0.95668879  0.99943562  0.00027781  1
  Al  Al8  1  0.83784151  0.33427095  0.66721547  1
  Al  Al9  1  0.33784151  0.66572905  0.33278453  1
  S  S10  1  0.70476317  0.14208283  0.23020691  1
  S  S11  1  0.70487575  0.76857055  0.91054106  1
  S  S12  1  0.70677752  0.08920823  0.85928028  1
  S  S13  1  0.20476317  0.85791717  0.76979309  1
  S  S14  1  0.20487575  0.23142945  0.08945894  1
  S  S15  1  0.20677752  0.91079177  0.14071972  1
  S  S16  1  0.98828299  0.09833608  0.51747596  1
  S  S17  1  0.98730974  0.48232363  0.58248150  1
  S  S18  1  0.98598323  0.42106191  0.90201741  1
  S  S19  1  0.48828299  0.90166392  0.48252404  1
  S  S20  1  0.48730974  0.51767637  0.41751850  1
  S  S21  1  0.48598323  0.57893809  0.09798259  1
  S  S22  1  0.47145636  0.33301494  0.66620659  1
  S  S23  1  0.97145636  0.66698506  0.33379341  1
