# generated using pymatgen
data_Rb2Ba6Sb5HO
_symmetry_space_group_name_H-M   'P 1'
_cell_length_a   8.91276968
_cell_length_b   8.91276968
_cell_length_c   15.63246356
_cell_angle_alpha   106.56317991
_cell_angle_beta   106.56317991
_cell_angle_gamma   90.00000000
_symmetry_Int_Tables_number   1
_chemical_formula_structural   Rb2Ba6Sb5HO
_chemical_formula_sum   'Rb4 Ba12 Sb10 H2 O2'
_cell_volume   1136.41444098
_cell_formula_units_Z   2
loop_
 _symmetry_equiv_pos_site_id
 _symmetry_equiv_pos_as_xyz
  1  'x, y, z'
loop_
 _atom_site_type_symbol
 _atom_site_label
 _atom_site_symmetry_multiplicity
 _atom_site_fract_x
 _atom_site_fract_y
 _atom_site_fract_z
 _atom_site_occupancy
  Rb  Rb0  1  0.16795541  0.66795541  -0.00000000  1
  Rb  Rb1  1  0.83204459  0.33204459  -0.00000000  1
  Rb  Rb2  1  0.33204459  0.16795541  -0.00000000  1
  Rb  Rb3  1  0.66795541  0.83204459  -0.00000000  1
  Ba  Ba4  1  0.96364380  0.46364380  0.61263086  1
  Ba  Ba5  1  0.64898706  0.14898706  0.61263086  1
  Ba  Ba6  1  0.14898706  0.96364380  0.61263086  1
  Ba  Ba7  1  0.46364380  0.64898706  0.61263086  1
  Ba  Ba8  1  0.03635620  0.53635620  0.38736914  1
  Ba  Ba9  1  0.35101294  0.85101294  0.38736914  1
  Ba  Ba10  1  0.85101294  0.03635620  0.38736914  1
  Ba  Ba11  1  0.53635620  0.35101294  0.38736914  1
  Ba  Ba12  1  0.40718212  0.40718212  0.81436424  1
  Ba  Ba13  1  0.90718212  0.90718212  0.81436424  1
  Ba  Ba14  1  0.59281788  0.59281788  0.18563576  1
  Ba  Ba15  1  0.09281788  0.09281788  0.18563576  1
  Sb  Sb16  1  0.51389485  0.01389485  0.79466249  1
  Sb  Sb17  1  0.28076764  0.78076764  0.79466249  1
  Sb  Sb18  1  0.78076764  0.51389485  0.79466249  1
  Sb  Sb19  1  0.01389485  0.28076764  0.79466249  1
  Sb  Sb20  1  0.48610515  0.98610515  0.20533751  1
  Sb  Sb21  1  0.71923236  0.21923236  0.20533751  1
  Sb  Sb22  1  0.21923236  0.48610515  0.20533751  1
  Sb  Sb23  1  0.98610515  0.71923236  0.20533751  1
  Sb  Sb24  1  0.25000000  0.25000000  0.50000000  1
  Sb  Sb25  1  0.75000000  0.75000000  0.50000000  1
  H  H26  1  0.50000000  0.50000000  -0.00000000  1
  H  H27  1  0.00000000  0.00000000  -0.00000000  1
  O  O28  1  0.75000000  0.25000000  0.50000000  1
  O  O29  1  0.25000000  0.75000000  0.50000000  1
