# generated using pymatgen
data_Na5Cu3(AsO4)4
_symmetry_space_group_name_H-M   'P 1'
_cell_length_a   5.36157709
_cell_length_b   8.69749014
_cell_length_c   9.46827618
_cell_angle_alpha   63.20134134
_cell_angle_beta   89.13372592
_cell_angle_gamma   74.65247600
_symmetry_Int_Tables_number   1
_chemical_formula_structural   Na5Cu3(AsO4)4
_chemical_formula_sum   'Na5 Cu3 As4 O16'
_cell_volume   377.25546973
_cell_formula_units_Z   1
loop_
 _symmetry_equiv_pos_site_id
 _symmetry_equiv_pos_as_xyz
  1  'x, y, z'
loop_
 _atom_site_type_symbol
 _atom_site_label
 _atom_site_symmetry_multiplicity
 _atom_site_fract_x
 _atom_site_fract_y
 _atom_site_fract_z
 _atom_site_occupancy
  Na  Na0  1  0.50000000  -0.00000000  0.50000000  1
  Na  Na1  1  0.20577268  0.54497112  0.24011999  1
  Na  Na2  1  0.79422732  0.45502888  0.75988001  1
  Na  Na3  1  0.84226782  0.35569969  0.13695878  1
  Na  Na4  1  0.15773218  0.64430031  0.86304122  1
  Cu  Cu5  1  -0.00000000  -0.00000000  0.00000000  1
  Cu  Cu6  1  0.65987398  0.74730762  0.29022288  1
  Cu  Cu7  1  0.34012602  0.25269238  0.70977712  1
  As  As8  1  0.43884254  0.17651768  0.07272753  1
  As  As9  1  0.56115746  0.82348232  0.92727247  1
  As  As10  1  0.23782656  0.69248406  0.52057692  1
  As  As11  1  0.76217344  0.30751594  0.47942308  1
  O  O12  1  0.24662486  0.16009906  0.93024167  1
  O  O13  1  0.75337514  0.83990094  0.06975833  1
  O  O14  1  0.47466672  0.98800518  0.25302469  1
  O  O15  1  0.52533328  0.01199482  0.74697531  1
  O  O16  1  0.73351602  0.20213198  0.00033327  1
  O  O17  1  0.26648398  0.79786802  0.99966673  1
  O  O18  1  0.28425261  0.36180557  0.09382471  1
  O  O19  1  0.71574739  0.63819443  0.90617529  1
  O  O20  1  0.57319489  0.66846800  0.50260111  1
  O  O21  1  0.42680511  0.33153200  0.49739889  1
  O  O22  1  0.23146108  0.48863077  0.69062395  1
  O  O23  1  0.76853892  0.51136923  0.30937605  1
  O  O24  1  0.07751753  0.74071376  0.34662908  1
  O  O25  1  0.92248247  0.25928624  0.65337092  1
  O  O26  1  0.14537311  0.83364014  0.60238283  1
  O  O27  1  0.85462689  0.16635986  0.39761717  1
