# generated using pymatgen
data_Ag2Te(H2O3)2
_symmetry_space_group_name_H-M   'P 1'
_cell_length_a   5.60553912
_cell_length_b   5.60553912
_cell_length_c   9.94398252
_cell_angle_alpha   101.04542384
_cell_angle_beta   101.04542384
_cell_angle_gamma   108.67897644
_symmetry_Int_Tables_number   1
_chemical_formula_structural   Ag2Te(H2O3)2
_chemical_formula_sum   'Ag4 Te2 H8 O12'
_cell_volume   279.56183439
_cell_formula_units_Z   2
loop_
 _symmetry_equiv_pos_site_id
 _symmetry_equiv_pos_as_xyz
  1  'x, y, z'
loop_
 _atom_site_type_symbol
 _atom_site_label
 _atom_site_symmetry_multiplicity
 _atom_site_fract_x
 _atom_site_fract_y
 _atom_site_fract_z
 _atom_site_occupancy
  Ag  Ag0  1  0.71337158  0.18439816  0.34456968  1
  Ag  Ag1  1  0.81560184  0.28662842  0.65543032  1
  Ag  Ag2  1  0.61880190  0.58982848  0.15543032  1
  Ag  Ag3  1  0.41017152  0.38119810  0.84456968  1
  Te  Te4  1  0.24737300  0.75262700  0.50000000  1
  Te  Te5  1  0.99737300  0.00262700  -0.00000000  1
  H  H6  1  0.78252453  0.75522898  0.47973729  1
  H  H7  1  0.24477102  0.21747547  0.52026271  1
  H  H8  1  0.55278725  0.02549169  0.02026271  1
  H  H9  1  0.97450831  0.44721275  0.97973729  1
  H  H10  1  0.19429586  0.80251792  0.23908632  1
  H  H11  1  0.19748208  0.80570414  0.76091368  1
  H  H12  1  0.20520954  0.31343160  0.26091368  1
  H  H13  1  0.68656840  0.79479046  0.73908632  1
  O  O14  1  0.16393216  0.38900256  0.41538079  1
  O  O15  1  0.61099744  0.83606784  0.58461921  1
  O  O16  1  0.99855137  0.72362178  0.08461921  1
  O  O17  1  0.27637822  0.00144863  0.91538079  1
  O  O18  1  0.87675162  0.70081400  0.40817067  1
  O  O19  1  0.29918600  0.12324838  0.59182933  1
  O  O20  1  0.71858095  0.04264333  0.09182933  1
  O  O21  1  0.95735667  0.28141905  0.90817067  1
  O  O22  1  0.34128764  0.85375477  0.33055359  1
  O  O23  1  0.14624523  0.65871236  0.66944641  1
  O  O24  1  0.26073406  0.27320119  0.16944641  1
  O  O25  1  0.72679881  0.73926594  0.83055359  1
