# generated using pymatgen
data_KZn4SbO7
_symmetry_space_group_name_H-M   'P 1'
_cell_length_a   6.23785748
_cell_length_b   6.23784830
_cell_length_c   10.10553628
_cell_angle_alpha   90.00000000
_cell_angle_beta   90.00000000
_cell_angle_gamma   120.00032075
_symmetry_Int_Tables_number   1
_chemical_formula_structural   KZn4SbO7
_chemical_formula_sum   'K2 Zn8 Sb2 O14'
_cell_volume   340.53272262
_cell_formula_units_Z   2
loop_
 _symmetry_equiv_pos_site_id
 _symmetry_equiv_pos_as_xyz
  1  'x, y, z'
loop_
 _atom_site_type_symbol
 _atom_site_label
 _atom_site_symmetry_multiplicity
 _atom_site_fract_x
 _atom_site_fract_y
 _atom_site_fract_z
 _atom_site_occupancy
  K  K0  1  0.33331598  0.66669689  0.82249075  1
  K  K1  1  0.66668402  0.33330311  0.32249075  1
  Zn  Zn2  1  0.99999774  0.00000161  0.25245907  1
  Zn  Zn3  1  0.00000226  0.99999839  0.75245907  1
  Zn  Zn4  1  0.34649581  0.17325710  0.00693920  1
  Zn  Zn5  1  0.82674636  0.65350448  0.00693934  1
  Zn  Zn6  1  0.82675149  0.17324443  0.00694083  1
  Zn  Zn7  1  0.65350419  0.82674290  0.50693920  1
  Zn  Zn8  1  0.17325364  0.34649552  0.50693934  1
  Zn  Zn9  1  0.17324851  0.82675557  0.50694083  1
  Sb  Sb10  1  0.33332620  0.66667531  0.19502525  1
  Sb  Sb11  1  0.66667380  0.33332469  0.69502525  1
  O  O12  1  0.00000034  -0.00000116  0.05714207  1
  O  O13  1  -0.00000034  0.00000116  0.55714207  1
  O  O14  1  0.17837329  0.35685039  0.31074119  1
  O  O15  1  0.17846597  0.82162650  0.31074225  1
  O  O16  1  0.64315035  0.82153230  0.31074169  1
  O  O17  1  0.82162671  0.64314961  0.81074119  1
  O  O18  1  0.82153403  0.17837350  0.81074225  1
  O  O19  1  0.35684965  0.17846770  0.81074169  1
  O  O20  1  0.48824438  0.97649788  0.08005540  1
  O  O21  1  0.48824460  0.51175735  0.08005758  1
  O  O22  1  0.02350199  0.51175351  0.08005539  1
  O  O23  1  0.51175562  0.02350212  0.58005540  1
  O  O24  1  0.51175540  0.48824265  0.58005758  1
  O  O25  1  0.97649801  0.48824649  0.58005539  1
