# generated using pymatgen
data_ThP2O7
_symmetry_space_group_name_H-M   'P 1'
_cell_length_a   7.25535021
_cell_length_b   11.86770097
_cell_length_c   13.09447498
_cell_angle_alpha   90.00000000
_cell_angle_beta   90.00000000
_cell_angle_gamma   90.00000000
_symmetry_Int_Tables_number   1
_chemical_formula_structural   ThP2O7
_chemical_formula_sum   'Th8 P16 O56'
_cell_volume   1127.49095197
_cell_formula_units_Z   8
loop_
 _symmetry_equiv_pos_site_id
 _symmetry_equiv_pos_as_xyz
  1  'x, y, z'
loop_
 _atom_site_type_symbol
 _atom_site_label
 _atom_site_symmetry_multiplicity
 _atom_site_fract_x
 _atom_site_fract_y
 _atom_site_fract_z
 _atom_site_occupancy
  Th  Th0  1  0.79029424  0.97329315  0.17329141  1
  Th  Th1  1  0.29029424  0.02670685  0.82670859  1
  Th  Th2  1  0.29029424  0.52670685  0.67329141  1
  Th  Th3  1  0.79029424  0.47329315  0.32670859  1
  Th  Th4  1  0.29021655  0.35674497  0.18932587  1
  Th  Th5  1  0.79021655  0.64325503  0.81067413  1
  Th  Th6  1  0.79021655  0.14325503  0.68932587  1
  Th  Th7  1  0.29021655  0.85674497  0.31067413  1
  P  P8  1  0.28802556  0.54304171  0.38243958  1
  P  P9  1  0.78802556  0.45695829  0.61756042  1
  P  P10  1  0.78802556  0.95695829  0.88243958  1
  P  P11  1  0.28802556  0.04304171  0.11756042  1
  P  P12  1  0.78407892  0.79245933  0.37066164  1
  P  P13  1  0.28407892  0.20754067  0.62933836  1
  P  P14  1  0.28407892  0.70754067  0.87066164  1
  P  P15  1  0.78407892  0.29245933  0.12933836  1
  P  P16  1  0.26993771  0.83226657  0.59072959  1
  P  P17  1  0.76993771  0.16773343  0.40927041  1
  P  P18  1  0.76993771  0.66773343  0.09072959  1
  P  P19  1  0.26993771  0.33226657  0.90927041  1
  P  P20  1  0.84346773  0.83897661  0.59292761  1
  P  P21  1  0.34346773  0.16102339  0.40707239  1
  P  P22  1  0.34346773  0.66102339  0.09292761  1
  P  P23  1  0.84346773  0.33897661  0.90707239  1
  O  O24  1  0.11861136  0.48615312  0.32757624  1
  O  O25  1  0.61861136  0.51384688  0.67242376  1
  O  O26  1  0.61861136  0.01384688  0.82757624  1
  O  O27  1  0.11861136  0.98615312  0.17242376  1
  O  O28  1  0.45899695  0.48124584  0.33425891  1
  O  O29  1  0.95899695  0.51875416  0.66574109  1
  O  O30  1  0.95899695  0.01875416  0.83425891  1
  O  O31  1  0.45899695  0.98124584  0.16574109  1
  O  O32  1  0.27913772  0.52259983  0.49795265  1
  O  O33  1  0.77913772  0.47740017  0.50204735  1
  O  O34  1  0.77913772  0.97740017  0.99795265  1
  O  O35  1  0.27913772  0.02259983  0.00204735  1
  O  O36  1  0.29377119  0.66942470  0.35783658  1
  O  O37  1  0.79377119  0.33057530  0.64216342  1
  O  O38  1  0.79377119  0.83057530  0.85783658  1
  O  O39  1  0.29377119  0.16942470  0.14216342  1
  O  O40  1  0.96267621  0.84790611  0.33109574  1
  O  O41  1  0.46267621  0.15209389  0.66890426  1
  O  O42  1  0.46267621  0.65209389  0.83109574  1
  O  O43  1  0.96267621  0.34790611  0.16890426  1
  O  O44  1  0.78702126  0.66567779  0.37242928  1
  O  O45  1  0.28702126  0.33432221  0.62757072  1
  O  O46  1  0.28702126  0.83432221  0.87242928  1
  O  O47  1  0.78702126  0.16567779  0.12757072  1
  O  O48  1  0.62253428  0.84263672  0.30799615  1
  O  O49  1  0.12253428  0.15736328  0.69200385  1
  O  O50  1  0.12253428  0.65736328  0.80799615  1
  O  O51  1  0.62253428  0.34263672  0.19200385  1
  O  O52  1  0.28828561  0.92537541  0.67005132  1
  O  O53  1  0.78828561  0.07462459  0.32994868  1
  O  O54  1  0.78828561  0.57462459  0.17005132  1
  O  O55  1  0.28828561  0.42537541  0.82994868  1
  O  O56  1  0.32918252  0.71667534  0.62935823  1
  O  O57  1  0.82918252  0.28332466  0.37064177  1
  O  O58  1  0.82918252  0.78332466  0.12935823  1
  O  O59  1  0.32918252  0.21667534  0.87064177  1
  O  O60  1  0.34856198  0.86190243  0.48652566  1
  O  O61  1  0.84856198  0.13809757  0.51347434  1
  O  O62  1  0.84856198  0.63809757  0.98652566  1
  O  O63  1  0.34856198  0.36190243  0.01347434  1
  O  O64  1  0.77248895  0.74090478  0.65409659  1
  O  O65  1  0.27248895  0.25909522  0.34590341  1
  O  O66  1  0.27248895  0.75909522  0.15409659  1
  O  O67  1  0.77248895  0.24090478  0.84590341  1
  O  O68  1  0.81162346  0.95349583  0.63862285  1
  O  O69  1  0.31162346  0.04650417  0.36137715  1
  O  O70  1  0.31162346  0.54650417  0.13862285  1
  O  O71  1  0.81162346  0.45349583  0.86137715  1
  O  O72  1  0.74686735  0.83901833  0.48364408  1
  O  O73  1  0.24686735  0.16098167  0.51635592  1
  O  O74  1  0.24686735  0.66098167  0.98364408  1
  O  O75  1  0.74686735  0.33901833  0.01635592  1
  O  O76  1  0.05062044  0.81788315  0.56420366  1
  O  O77  1  0.55062044  0.18211685  0.43579634  1
  O  O78  1  0.55062044  0.68211685  0.06420366  1
  O  O79  1  0.05062044  0.31788315  0.93579634  1
