# generated using pymatgen
data_Dy2ZnS4
_symmetry_space_group_name_H-M   'P 1'
_cell_length_a   6.33903148
_cell_length_b   7.92212563
_cell_length_c   13.56332575
_cell_angle_alpha   90.00000000
_cell_angle_beta   90.00000000
_cell_angle_gamma   90.00000000
_symmetry_Int_Tables_number   1
_chemical_formula_structural   Dy2ZnS4
_chemical_formula_sum   'Dy8 Zn4 S16'
_cell_volume   681.13128147
_cell_formula_units_Z   4
loop_
 _symmetry_equiv_pos_site_id
 _symmetry_equiv_pos_as_xyz
  1  'x, y, z'
loop_
 _atom_site_type_symbol
 _atom_site_label
 _atom_site_symmetry_multiplicity
 _atom_site_fract_x
 _atom_site_fract_y
 _atom_site_fract_z
 _atom_site_occupancy
  Dy  Dy0  1  0.50000000  0.00000000  0.50000000  1
  Dy  Dy1  1  -0.00000000  0.50000000  0.00000000  1
  Dy  Dy2  1  0.50000000  0.50000000  0.50000000  1
  Dy  Dy3  1  -0.00000000  -0.00000000  0.00000000  1
  Dy  Dy4  1  0.50490421  0.75000000  0.23371629  1
  Dy  Dy5  1  0.99509579  0.75000000  0.73371629  1
  Dy  Dy6  1  0.49509579  0.25000000  0.76628371  1
  Dy  Dy7  1  0.00490421  0.25000000  0.26628371  1
  Zn  Zn8  1  0.08913730  0.75000000  0.40762136  1
  Zn  Zn9  1  0.41086270  0.75000000  0.90762136  1
  Zn  Zn10  1  0.91086270  0.25000000  0.59237864  1
  Zn  Zn11  1  0.58913730  0.25000000  0.09237864  1
  S  S12  1  0.72502226  0.75000000  0.40957645  1
  S  S13  1  0.77497774  0.75000000  0.90957645  1
  S  S14  1  0.27497774  0.25000000  0.59042355  1
  S  S15  1  0.22502226  0.25000000  0.09042355  1
  S  S16  1  0.25694252  0.75000000  0.06912817  1
  S  S17  1  0.24305748  0.75000000  0.56912817  1
  S  S18  1  0.74305748  0.25000000  0.93087183  1
  S  S19  1  0.75694252  0.25000000  0.43087183  1
  S  S20  1  0.75611483  0.01481031  0.16840995  1
  S  S21  1  0.74388517  0.48518969  0.66840995  1
  S  S22  1  0.24388517  0.51481031  0.83159005  1
  S  S23  1  0.25611483  0.98518969  0.33159005  1
  S  S24  1  0.24388517  0.98518969  0.83159005  1
  S  S25  1  0.25611483  0.51481031  0.33159005  1
  S  S26  1  0.75611483  0.48518969  0.16840995  1
  S  S27  1  0.74388517  0.01481031  0.66840995  1
