# generated using pymatgen
data_Mg2SnS4
_symmetry_space_group_name_H-M   'P 1'
_cell_length_a   6.26708155
_cell_length_b   7.62729384
_cell_length_c   13.10737406
_cell_angle_alpha   90.00000000
_cell_angle_beta   90.00000000
_cell_angle_gamma   90.00000000
_symmetry_Int_Tables_number   1
_chemical_formula_structural   Mg2SnS4
_chemical_formula_sum   'Mg8 Sn4 S16'
_cell_volume   626.54391627
_cell_formula_units_Z   4
loop_
 _symmetry_equiv_pos_site_id
 _symmetry_equiv_pos_as_xyz
  1  'x, y, z'
loop_
 _atom_site_type_symbol
 _atom_site_label
 _atom_site_symmetry_multiplicity
 _atom_site_fract_x
 _atom_site_fract_y
 _atom_site_fract_z
 _atom_site_occupancy
  Mg  Mg0  1  0.50000000  -0.00000000  0.50000000  1
  Mg  Mg1  1  0.00000000  0.50000000  0.00000000  1
  Mg  Mg2  1  0.50000000  0.50000000  0.50000000  1
  Mg  Mg3  1  0.00000000  -0.00000000  0.00000000  1
  Mg  Mg4  1  0.00529796  0.75000000  0.27028306  1
  Mg  Mg5  1  0.49470204  0.75000000  0.77028306  1
  Mg  Mg6  1  0.99470204  0.25000000  0.72971694  1
  Mg  Mg7  1  0.50529796  0.25000000  0.22971694  1
  Sn  Sn8  1  0.57759326  0.75000000  0.09071957  1
  Sn  Sn9  1  0.92240674  0.75000000  0.59071957  1
  Sn  Sn10  1  0.42240674  0.25000000  0.90928043  1
  Sn  Sn11  1  0.07759326  0.25000000  0.40928043  1
  S  S12  1  0.19727099  0.75000000  0.09242139  1
  S  S13  1  0.30272901  0.75000000  0.59242139  1
  S  S14  1  0.80272901  0.25000000  0.90757861  1
  S  S15  1  0.69727099  0.25000000  0.40757861  1
  S  S16  1  0.75258972  0.75000000  0.92527188  1
  S  S17  1  0.74741028  0.75000000  0.42527188  1
  S  S18  1  0.24741028  0.25000000  0.07472812  1
  S  S19  1  0.25258972  0.25000000  0.57472812  1
  S  S20  1  0.76133602  0.99405884  0.16961444  1
  S  S21  1  0.73866398  0.50594116  0.66961444  1
  S  S22  1  0.23866398  0.49405884  0.83038556  1
  S  S23  1  0.26133602  0.00594116  0.33038556  1
  S  S24  1  0.23866398  0.00594116  0.83038556  1
  S  S25  1  0.26133602  0.49405884  0.33038556  1
  S  S26  1  0.76133602  0.50594116  0.16961444  1
  S  S27  1  0.73866398  0.99405884  0.66961444  1
