# generated using pymatgen
data_HgH9C3SI3
_symmetry_space_group_name_H-M   'P 1'
_cell_length_a   9.05067153
_cell_length_b   9.93761449
_cell_length_c   16.59109724
_cell_angle_alpha   90.00000000
_cell_angle_beta   90.00000000
_cell_angle_gamma   97.46906270
_symmetry_Int_Tables_number   1
_chemical_formula_structural   HgH9C3SI3
_chemical_formula_sum   'Hg4 H36 C12 S4 I12'
_cell_volume   1479.57652346
_cell_formula_units_Z   4
loop_
 _symmetry_equiv_pos_site_id
 _symmetry_equiv_pos_as_xyz
  1  'x, y, z'
loop_
 _atom_site_type_symbol
 _atom_site_label
 _atom_site_symmetry_multiplicity
 _atom_site_fract_x
 _atom_site_fract_y
 _atom_site_fract_z
 _atom_site_occupancy
  Hg  Hg0  1  0.74612638  0.43212626  0.47836695  1
  Hg  Hg1  1  0.24612638  0.93212626  0.02163305  1
  Hg  Hg2  1  0.25387362  0.56787374  0.52163305  1
  Hg  Hg3  1  0.75387362  0.06787374  0.97836695  1
  H  H4  1  0.03794771  0.21292905  0.73176176  1
  H  H5  1  0.53794771  0.71292905  0.76823824  1
  H  H6  1  0.96205229  0.78707095  0.26823824  1
  H  H7  1  0.46205229  0.28707095  0.23176176  1
  H  H8  1  0.12079607  0.07122295  0.69403104  1
  H  H9  1  0.62079607  0.57122295  0.80596896  1
  H  H10  1  0.87920393  0.92877705  0.30596896  1
  H  H11  1  0.37920393  0.42877705  0.19403104  1
  H  H12  1  0.97751263  0.04366828  0.77062885  1
  H  H13  1  0.47751263  0.54366828  0.72937115  1
  H  H14  1  0.02248737  0.95633172  0.22937115  1
  H  H15  1  0.52248737  0.45633172  0.27062885  1
  H  H16  1  0.96473750  0.88641921  0.58418482  1
  H  H17  1  0.46473750  0.38641921  0.91581518  1
  H  H18  1  0.03526250  0.11358079  0.41581518  1
  H  H19  1  0.53526250  0.61358079  0.08418482  1
  H  H20  1  0.76638140  0.88491745  0.57768175  1
  H  H21  1  0.26638140  0.38491745  0.92231825  1
  H  H22  1  0.23361860  0.11508255  0.42231825  1
  H  H23  1  0.73361860  0.61508255  0.07768175  1
  H  H24  1  0.85164039  0.84821346  0.67250786  1
  H  H25  1  0.35164039  0.34821346  0.82749214  1
  H  H26  1  0.14835961  0.15178654  0.32749214  1
  H  H27  1  0.64835961  0.65178654  0.17250786  1
  H  H28  1  0.71427913  0.21489732  0.69703567  1
  H  H29  1  0.21427913  0.71489732  0.80296433  1
  H  H30  1  0.28572087  0.78510268  0.30296433  1
  H  H31  1  0.78572087  0.28510268  0.19703567  1
  H  H32  1  0.69883207  0.04650817  0.74146200  1
  H  H33  1  0.19883207  0.54650817  0.75853800  1
  H  H34  1  0.30116793  0.95349183  0.25853800  1
  H  H35  1  0.80116793  0.45349183  0.24146200  1
  H  H36  1  0.62473562  0.07168891  0.64190238  1
  H  H37  1  0.12473562  0.57168891  0.85809762  1
  H  H38  1  0.37526438  0.92831109  0.35809762  1
  H  H39  1  0.87526438  0.42831109  0.14190238  1
  C  C40  1  0.01840019  0.10404734  0.71780247  1
  C  C41  1  0.51840019  0.60404734  0.78219753  1
  C  C42  1  0.98159981  0.89595266  0.28219753  1
  C  C43  1  0.48159981  0.39595266  0.21780247  1
  C  C44  1  0.86446205  0.90717638  0.61673579  1
  C  C45  1  0.36446205  0.40717638  0.88326421  1
  C  C46  1  0.13553795  0.09282362  0.38326421  1
  C  C47  1  0.63553795  0.59282362  0.11673579  1
  C  C48  1  0.71242595  0.10574616  0.68556308  1
  C  C49  1  0.21242595  0.60574616  0.81443692  1
  C  C50  1  0.28757405  0.89425384  0.31443692  1
  C  C51  1  0.78757405  0.39425384  0.18556308  1
  S  S52  1  0.88539438  0.08619062  0.63701188  1
  S  S53  1  0.38539438  0.58619062  0.86298812  1
  S  S54  1  0.11460562  0.91380938  0.36298812  1
  S  S55  1  0.61460562  0.41380938  0.13701188  1
  I  I56  1  0.89177454  0.49410357  0.62452385  1
  I  I57  1  0.39177454  0.99410357  0.87547615  1
  I  I58  1  0.10822546  0.50589643  0.37547615  1
  I  I59  1  0.60822546  0.00589643  0.12452385  1
  I  I60  1  0.64023513  0.65511708  0.40896237  1
  I  I61  1  0.14023513  0.15511708  0.09103763  1
  I  I62  1  0.35976487  0.34488292  0.59103763  1
  I  I63  1  0.85976487  0.84488292  0.90896237  1
  I  I64  1  0.68282113  0.17240669  0.41812510  1
  I  I65  1  0.18282113  0.67240669  0.08187490  1
  I  I66  1  0.31717887  0.82759331  0.58187490  1
  I  I67  1  0.81717887  0.32759331  0.91812510  1
