# generated using pymatgen
data_UPCl7O
_symmetry_space_group_name_H-M   'P 1'
_cell_length_a   8.55512172
_cell_length_b   9.09841208
_cell_length_c   15.21047421
_cell_angle_alpha   89.50139251
_cell_angle_beta   90.00000000
_cell_angle_gamma   90.00000000
_symmetry_Int_Tables_number   1
_chemical_formula_structural   UPCl7O
_chemical_formula_sum   'U4 P4 Cl28 O4'
_cell_volume   1183.90840691
_cell_formula_units_Z   4
loop_
 _symmetry_equiv_pos_site_id
 _symmetry_equiv_pos_as_xyz
  1  'x, y, z'
loop_
 _atom_site_type_symbol
 _atom_site_label
 _atom_site_symmetry_multiplicity
 _atom_site_fract_x
 _atom_site_fract_y
 _atom_site_fract_z
 _atom_site_occupancy
  U  U0  1  0.71582597  0.18690557  0.22337331  1
  U  U1  1  0.21582597  0.31309443  0.27662669  1
  U  U2  1  0.28417403  0.81309443  0.77662669  1
  U  U3  1  0.78417403  0.68690557  0.72337331  1
  P  P4  1  0.74209611  0.81087957  0.11576899  1
  P  P5  1  0.24209611  0.68912043  0.38423101  1
  P  P6  1  0.25790389  0.18912043  0.88423101  1
  P  P7  1  0.75790389  0.31087957  0.61576899  1
  Cl  Cl8  1  0.80183582  0.69382865  0.22128056  1
  Cl  Cl9  1  0.30183582  0.80617135  0.27871944  1
  Cl  Cl10  1  0.19816418  0.30617135  0.77871944  1
  Cl  Cl11  1  0.69816418  0.19382865  0.72128056  1
  Cl  Cl12  1  0.91065469  0.78360639  0.02860283  1
  Cl  Cl13  1  0.41065469  0.71639361  0.47139717  1
  Cl  Cl14  1  0.08934531  0.21639361  0.97139717  1
  Cl  Cl15  1  0.58934531  0.28360639  0.52860283  1
  Cl  Cl16  1  0.55382665  0.71593109  0.06630574  1
  Cl  Cl17  1  0.05382665  0.78406891  0.43369426  1
  Cl  Cl18  1  0.44617335  0.28406891  0.93369426  1
  Cl  Cl19  1  0.94617335  0.21593109  0.56630574  1
  Cl  Cl20  1  0.52465327  0.40360528  0.29585612  1
  Cl  Cl21  1  0.02465327  0.09639472  0.20414388  1
  Cl  Cl22  1  0.47534673  0.59639472  0.70414388  1
  Cl  Cl23  1  0.97534673  0.90360528  0.79585612  1
  Cl  Cl24  1  0.90700033  0.36585611  0.32634256  1
  Cl  Cl25  1  0.40700033  0.13414389  0.17365744  1
  Cl  Cl26  1  0.09299967  0.63414389  0.67365744  1
  Cl  Cl27  1  0.59299967  0.86585611  0.82634256  1
  Cl  Cl28  1  0.75462220  0.34387476  0.08564149  1
  Cl  Cl29  1  0.25462220  0.15612524  0.41435851  1
  Cl  Cl30  1  0.24537780  0.65612524  0.91435851  1
  Cl  Cl31  1  0.74537780  0.84387476  0.58564149  1
  Cl  Cl32  1  0.68217876  0.01739746  0.35552292  1
  Cl  Cl33  1  0.18217876  0.48260254  0.14447708  1
  Cl  Cl34  1  0.31782124  0.98260254  0.64447708  1
  Cl  Cl35  1  0.81782124  0.51739746  0.85552292  1
  O  O36  1  0.21381259  0.53111816  0.36424069  1
  O  O37  1  0.71381259  0.96888184  0.13575931  1
  O  O38  1  0.78618741  0.46888184  0.63575931  1
  O  O39  1  0.28618741  0.03111816  0.86424069  1
