# generated using pymatgen
data_K5Mn3O6
_symmetry_space_group_name_H-M   'P 1'
_cell_length_a   6.22671237
_cell_length_b   9.87152683
_cell_length_c   17.01672456
_cell_angle_alpha   90.00000000
_cell_angle_beta   90.00000000
_cell_angle_gamma   90.00000000
_symmetry_Int_Tables_number   1
_chemical_formula_structural   K5Mn3O6
_chemical_formula_sum   'K20 Mn12 O24'
_cell_volume   1045.96970097
_cell_formula_units_Z   4
loop_
 _symmetry_equiv_pos_site_id
 _symmetry_equiv_pos_as_xyz
  1  'x, y, z'
loop_
 _atom_site_type_symbol
 _atom_site_label
 _atom_site_symmetry_multiplicity
 _atom_site_fract_x
 _atom_site_fract_y
 _atom_site_fract_z
 _atom_site_occupancy
  K  K0  1  0.63633454  0.41918994  0.58762447  1
  K  K1  1  0.13633454  0.58081006  0.41237553  1
  K  K2  1  0.13633454  0.91918994  0.91237553  1
  K  K3  1  0.63633454  0.08081006  0.08762447  1
  K  K4  1  0.65053740  0.38913926  0.38742256  1
  K  K5  1  0.15053740  0.61086074  0.61257744  1
  K  K6  1  0.15053740  0.88913926  0.11257744  1
  K  K7  1  0.65053740  0.11086074  0.88742256  1
  K  K8  1  0.24192024  0.91112329  0.50320438  1
  K  K9  1  0.74192024  0.08887671  0.49679562  1
  K  K10  1  0.74192024  0.41112329  0.99679562  1
  K  K11  1  0.24192024  0.58887671  0.00320438  1
  K  K12  1  0.54547108  0.05642900  0.28647111  1
  K  K13  1  0.04547108  0.94357100  0.71352889  1
  K  K14  1  0.04547108  0.55642900  0.21352889  1
  K  K15  1  0.54547108  0.44357100  0.78647111  1
  K  K16  1  0.01181030  0.88534102  0.31535200  1
  K  K17  1  0.51181030  0.11465898  0.68464800  1
  K  K18  1  0.51181030  0.38534102  0.18464800  1
  K  K19  1  0.01181030  0.61465898  0.81535200  1
  Mn  Mn20  1  0.63023262  0.72513504  0.41897876  1
  Mn  Mn21  1  0.13023262  0.27486496  0.58102124  1
  Mn  Mn22  1  0.13023262  0.22513504  0.08102124  1
  Mn  Mn23  1  0.63023262  0.77486496  0.91897876  1
  Mn  Mn24  1  0.65274079  0.75031072  0.58676191  1
  Mn  Mn25  1  0.15274079  0.24968928  0.41323809  1
  Mn  Mn26  1  0.15274079  0.25031072  0.91323809  1
  Mn  Mn27  1  0.65274079  0.74968928  0.08676191  1
  Mn  Mn28  1  0.56411037  0.72767732  0.25026891  1
  Mn  Mn29  1  0.06411037  0.27232268  0.74973109  1
  Mn  Mn30  1  0.06411037  0.22767732  0.24973109  1
  Mn  Mn31  1  0.56411037  0.77232268  0.75026891  1
  O  O32  1  0.78306142  0.64363377  0.33139227  1
  O  O33  1  0.28306142  0.35636623  0.66860773  1
  O  O34  1  0.28306142  0.14363377  0.16860773  1
  O  O35  1  0.78306142  0.85636623  0.83139227  1
  O  O36  1  0.46318519  0.64943121  0.50273833  1
  O  O37  1  0.96318519  0.35056879  0.49726167  1
  O  O38  1  0.96318519  0.14943121  0.99726167  1
  O  O39  1  0.46318519  0.85056879  0.00273833  1
  O  O40  1  0.76143111  0.64243114  0.68303462  1
  O  O41  1  0.26143111  0.35756886  0.31696538  1
  O  O42  1  0.26143111  0.14243114  0.81696538  1
  O  O43  1  0.76143111  0.85756886  0.18303462  1
  O  O44  1  0.42292094  0.64221985  0.15173045  1
  O  O45  1  0.92292094  0.35778015  0.84826955  1
  O  O46  1  0.92292094  0.14221985  0.34826955  1
  O  O47  1  0.42292094  0.85778015  0.65173045  1
  O  O48  1  0.41329155  0.80813721  0.35195696  1
  O  O49  1  0.91329155  0.19186279  0.64804304  1
  O  O50  1  0.91329155  0.30813721  0.14804304  1
  O  O51  1  0.41329155  0.69186279  0.85195696  1
  O  O52  1  0.84873244  0.80041972  0.48986694  1
  O  O53  1  0.34873244  0.19958028  0.51013306  1
  O  O54  1  0.34873244  0.30041972  0.01013306  1
  O  O55  1  0.84873244  0.69958028  0.98986694  1
