# generated using pymatgen
data_Dy6Fe23
_symmetry_space_group_name_H-M   'P 1'
_cell_length_a   8.50929758
_cell_length_b   8.50929758
_cell_length_c   8.50929758
_cell_angle_alpha   60.00000000
_cell_angle_beta   60.00000000
_cell_angle_gamma   60.00000000
_symmetry_Int_Tables_number   1
_chemical_formula_structural   Dy6Fe23
_chemical_formula_sum   'Dy6 Fe23'
_cell_volume   435.67850812
_cell_formula_units_Z   1
loop_
 _symmetry_equiv_pos_site_id
 _symmetry_equiv_pos_as_xyz
  1  'x, y, z'
loop_
 _atom_site_type_symbol
 _atom_site_label
 _atom_site_symmetry_multiplicity
 _atom_site_fract_x
 _atom_site_fract_y
 _atom_site_fract_z
 _atom_site_occupancy
  Dy  Dy0  1  0.71024637  0.28975363  0.28975363  1
  Dy  Dy1  1  0.71024637  0.28975363  0.71024637  1
  Dy  Dy2  1  0.71024637  0.71024637  0.28975363  1
  Dy  Dy3  1  0.28975363  0.71024637  0.71024637  1
  Dy  Dy4  1  0.28975363  0.71024637  0.28975363  1
  Dy  Dy5  1  0.28975363  0.28975363  0.71024637  1
  Fe  Fe6  1  -0.00000000  0.00000000  -0.00000000  1
  Fe  Fe7  1  0.50000000  0.00000000  -0.00000000  1
  Fe  Fe8  1  0.50000000  0.00000000  0.50000000  1
  Fe  Fe9  1  0.50000000  0.50000000  -0.00000000  1
  Fe  Fe10  1  -0.00000000  0.50000000  0.50000000  1
  Fe  Fe11  1  -0.00000000  0.50000000  -0.00000000  1
  Fe  Fe12  1  -0.00000000  0.00000000  0.50000000  1
  Fe  Fe13  1  0.63507659  0.12164114  0.12164114  1
  Fe  Fe14  1  0.12164114  0.63507659  0.12164114  1
  Fe  Fe15  1  0.12164114  0.12164114  0.63507659  1
  Fe  Fe16  1  0.12164114  0.12164114  0.12164114  1
  Fe  Fe17  1  0.36492341  0.87835886  0.87835886  1
  Fe  Fe18  1  0.87835886  0.36492341  0.87835886  1
  Fe  Fe19  1  0.87835886  0.87835886  0.36492341  1
  Fe  Fe20  1  0.87835886  0.87835886  0.87835886  1
  Fe  Fe21  1  0.02726192  0.32424603  0.32424603  1
  Fe  Fe22  1  0.32424603  0.02726192  0.32424603  1
  Fe  Fe23  1  0.32424603  0.32424603  0.02726192  1
  Fe  Fe24  1  0.32424603  0.32424603  0.32424603  1
  Fe  Fe25  1  0.97273808  0.67575397  0.67575397  1
  Fe  Fe26  1  0.67575397  0.97273808  0.67575397  1
  Fe  Fe27  1  0.67575397  0.67575397  0.97273808  1
  Fe  Fe28  1  0.67575397  0.67575397  0.67575397  1
