# generated using pymatgen
data_V6H2Pb4Se3O26
_symmetry_space_group_name_H-M   'P 1'
_cell_length_a   7.24570134
_cell_length_b   7.43417358
_cell_length_c   21.74298601
_cell_angle_alpha   90.00000000
_cell_angle_beta   90.00000000
_cell_angle_gamma   94.94937649
_symmetry_Int_Tables_number   1
_chemical_formula_structural   V6H2Pb4Se3O26
_chemical_formula_sum   'V12 H4 Pb8 Se6 O52'
_cell_volume   1166.83631977
_cell_formula_units_Z   2
loop_
 _symmetry_equiv_pos_site_id
 _symmetry_equiv_pos_as_xyz
  1  'x, y, z'
loop_
 _atom_site_type_symbol
 _atom_site_label
 _atom_site_symmetry_multiplicity
 _atom_site_fract_x
 _atom_site_fract_y
 _atom_site_fract_z
 _atom_site_occupancy
  V  V0  1  0.14967668  0.64505769  0.26492216  1
  V  V1  1  0.85032332  0.35494231  0.76492216  1
  V  V2  1  0.89796789  0.63089171  0.38678860  1
  V  V3  1  0.10203211  0.36910829  0.88678860  1
  V  V4  1  0.31511994  0.31784285  0.46811650  1
  V  V5  1  0.68488006  0.68215715  0.96811650  1
  V  V6  1  0.52001978  0.33592285  0.18300706  1
  V  V7  1  0.47998022  0.66407715  0.68300706  1
  V  V8  1  0.39865840  0.69440098  0.38406571  1
  V  V9  1  0.60134160  0.30559902  0.88406571  1
  V  V10  1  0.65501806  0.70043423  0.26832203  1
  V  V11  1  0.34498194  0.29956577  0.76832203  1
  H  H12  1  0.97761487  0.99885884  0.32932808  1
  H  H13  1  0.02238513  0.00114116  0.82932808  1
  H  H14  1  0.95246095  0.19824620  0.33226692  1
  H  H15  1  0.04753905  0.80175380  0.83226692  1
  Pb  Pb16  1  0.79035657  0.10967981  0.46485375  1
  Pb  Pb17  1  0.20964343  0.89032019  0.96485375  1
  Pb  Pb18  1  0.21426911  0.80414609  0.52606890  1
  Pb  Pb19  1  0.78573089  0.19585391  0.02606890  1
  Pb  Pb20  1  0.43612516  0.82817612  0.12541656  1
  Pb  Pb21  1  0.56387484  0.17182388  0.62541656  1
  Pb  Pb22  1  0.02386426  0.12422941  0.19422406  1
  Pb  Pb23  1  0.97613574  0.87577059  0.69422406  1
  Se  Se24  1  0.07375592  0.31080980  0.60089899  1
  Se  Se25  1  0.92624408  0.68919020  0.10089899  1
  Se  Se26  1  0.28607143  0.33259539  0.05160622  1
  Se  Se27  1  0.71392857  0.66740461  0.55160622  1
  Se  Se28  1  0.48141812  0.18756165  0.32763886  1
  Se  Se29  1  0.51858188  0.81243835  0.82763886  1
  O  O30  1  0.19336104  0.42839864  0.53917782  1
  O  O31  1  0.80663896  0.57160136  0.03917782  1
  O  O32  1  0.17879996  0.11264311  0.60432308  1
  O  O33  1  0.82120004  0.88735689  0.10432308  1
  O  O34  1  0.85972730  0.24716347  0.56735960  1
  O  O35  1  0.14027270  0.75283653  0.06735960  1
  O  O36  1  0.40554413  0.45032370  0.11371912  1
  O  O37  1  0.59445587  0.54967630  0.61371912  1
  O  O38  1  0.39993926  0.13993042  0.04568371  1
  O  O39  1  0.60006074  0.86006958  0.54568371  1
  O  O40  1  0.07853025  0.26006326  0.08676577  1
  O  O41  1  0.92146975  0.73993674  0.58676577  1
  O  O42  1  0.39978255  0.34023883  0.38202137  1
  O  O43  1  0.60021745  0.65976117  0.88202137  1
  O  O44  1  0.68701209  0.14603463  0.35777590  1
  O  O45  1  0.31298791  0.85396537  0.85777590  1
  O  O46  1  0.56043867  0.35293148  0.27156929  1
  O  O47  1  0.43956133  0.64706852  0.77156929  1
  O  O48  1  0.36420741  0.14816520  0.18511594  1
  O  O49  1  0.63579259  0.85183480  0.68511594  1
  O  O50  1  0.14755005  0.63689116  0.35711024  1
  O  O51  1  0.85244995  0.36310884  0.85711024  1
  O  O52  1  0.89265454  0.63235980  0.28998261  1
  O  O53  1  0.10734546  0.36764020  0.78998261  1
  O  O54  1  0.14815444  0.80957721  0.20936676  1
  O  O55  1  0.85184556  0.19042279  0.70936676  1
  O  O56  1  0.94149220  0.79141746  0.44274822  1
  O  O57  1  0.05850780  0.20858254  0.94274822  1
  O  O58  1  0.60019782  0.60246375  0.19558121  1
  O  O59  1  0.39980218  0.39753625  0.69558121  1
  O  O60  1  0.14104650  0.15493038  0.45971778  1
  O  O61  1  0.85895350  0.84506962  0.95971778  1
  O  O62  1  0.40089077  0.70755918  0.29234309  1
  O  O63  1  0.59910923  0.29244082  0.79234309  1
  O  O64  1  0.49182910  0.22832316  0.50548491  1
  O  O65  1  0.50817090  0.77167684  0.00548491  1
  O  O66  1  0.36505759  0.58212549  0.45630540  1
  O  O67  1  0.63494241  0.41787451  0.95630540  1
  O  O68  1  0.71176843  0.26386767  0.15164067  1
  O  O69  1  0.28823157  0.73613233  0.65164067  1
  O  O70  1  0.65260319  0.68410560  0.36376528  1
  O  O71  1  0.34739681  0.31589440  0.86376528  1
  O  O72  1  0.70665328  0.91239193  0.24841352  1
  O  O73  1  0.29334672  0.08760807  0.74841352  1
  O  O74  1  0.39147439  0.90345761  0.40840928  1
  O  O75  1  0.60852561  0.09654239  0.90840928  1
  O  O76  1  0.16373696  0.44714121  0.23022176  1
  O  O77  1  0.83626304  0.55285879  0.73022176  1
  O  O78  1  0.87243472  0.43279778  0.42205181  1
  O  O79  1  0.12756528  0.56720222  0.92205181  1
  O  O80  1  0.04135420  0.11505055  0.31751146  1
  O  O81  1  0.95864580  0.88494945  0.81751146  1
