# generated using pymatgen
data_VGa(TeO4)2
_symmetry_space_group_name_H-M   'P 1'
_cell_length_a   5.02067742
_cell_length_b   8.10544272
_cell_length_c   16.70671188
_cell_angle_alpha   94.26561716
_cell_angle_beta   90.00000000
_cell_angle_gamma   90.00000000
_symmetry_Int_Tables_number   1
_chemical_formula_structural   VGa(TeO4)2
_chemical_formula_sum   'V4 Ga4 Te8 O32'
_cell_volume   677.99322661
_cell_formula_units_Z   4
loop_
 _symmetry_equiv_pos_site_id
 _symmetry_equiv_pos_as_xyz
  1  'x, y, z'
loop_
 _atom_site_type_symbol
 _atom_site_label
 _atom_site_symmetry_multiplicity
 _atom_site_fract_x
 _atom_site_fract_y
 _atom_site_fract_z
 _atom_site_occupancy
  V  V0  1  0.22016892  0.84500121  0.57240650  1
  V  V1  1  0.27983108  0.34500121  0.07240650  1
  V  V2  1  0.77983108  0.15499879  0.42759350  1
  V  V3  1  0.72016892  0.65499879  0.92759350  1
  Ga  Ga4  1  0.74019424  0.66220692  0.67483561  1
  Ga  Ga5  1  0.75980576  0.16220692  0.17483561  1
  Ga  Ga6  1  0.25980576  0.33779308  0.32516439  1
  Ga  Ga7  1  0.24019424  0.83779308  0.82516439  1
  Te  Te8  1  0.26428874  0.44959711  0.77773727  1
  Te  Te9  1  0.23571126  0.94959711  0.27773727  1
  Te  Te10  1  0.73571126  0.55040289  0.22226273  1
  Te  Te11  1  0.76428874  0.05040289  0.72226273  1
  Te  Te12  1  0.15653082  0.36373093  0.56939826  1
  Te  Te13  1  0.34346918  0.86373093  0.06939826  1
  Te  Te14  1  0.84346918  0.63626907  0.43060174  1
  Te  Te15  1  0.65653082  0.13626907  0.93060174  1
  O  O16  1  0.57025218  0.47429509  0.71335363  1
  O  O17  1  0.92974782  0.97429509  0.21335363  1
  O  O18  1  0.42974782  0.52570491  0.28664637  1
  O  O19  1  0.07025218  0.02570491  0.78664637  1
  O  O20  1  0.91222825  0.54463661  0.57724863  1
  O  O21  1  0.58777175  0.04463661  0.07724863  1
  O  O22  1  0.08777175  0.45536339  0.42275137  1
  O  O23  1  0.41222825  0.95536339  0.92275137  1
  O  O24  1  0.93225306  0.86252143  0.63940808  1
  O  O25  1  0.56774694  0.36252143  0.13940808  1
  O  O26  1  0.06774694  0.13747857  0.36059192  1
  O  O27  1  0.43225306  0.63747857  0.86059192  1
  O  O28  1  0.57152157  0.85256367  0.74929591  1
  O  O29  1  0.92847843  0.35256367  0.24929591  1
  O  O30  1  0.42847843  0.14743633  0.25070409  1
  O  O31  1  0.07152157  0.64743633  0.75070409  1
  O  O32  1  0.43895262  0.69422555  0.59813886  1
  O  O33  1  0.06104738  0.19422555  0.09813886  1
  O  O34  1  0.56104738  0.30577445  0.40186114  1
  O  O35  1  0.93895262  0.80577445  0.90186114  1
  O  O36  1  0.10024192  0.31112450  0.67916767  1
  O  O37  1  0.39975808  0.81112450  0.17916767  1
  O  O38  1  0.89975808  0.68887550  0.32083233  1
  O  O39  1  0.60024192  0.18887550  0.82083233  1
  O  O40  1  0.89596904  0.19925047  0.53170919  1
  O  O41  1  0.60403096  0.69925047  0.03170919  1
  O  O42  1  0.10403096  0.80074953  0.46829081  1
  O  O43  1  0.39596904  0.30074953  0.96829081  1
  O  O44  1  0.37299066  0.02542638  0.58187462  1
  O  O45  1  0.12700934  0.52542638  0.08187462  1
  O  O46  1  0.62700934  0.97457362  0.41812538  1
  O  O47  1  0.87299066  0.47457362  0.91812538  1
