# generated using pymatgen
data_LiNbO3
_symmetry_space_group_name_H-M   'P 1'
_cell_length_a   6.30796856
_cell_length_b   8.34765814
_cell_length_c   9.57447747
_cell_angle_alpha   90.00000000
_cell_angle_beta   89.59441611
_cell_angle_gamma   90.00000000
_symmetry_Int_Tables_number   1
_chemical_formula_structural   LiNbO3
_chemical_formula_sum   'Li8 Nb8 O24'
_cell_volume   504.14837930
_cell_formula_units_Z   8
loop_
 _symmetry_equiv_pos_site_id
 _symmetry_equiv_pos_as_xyz
  1  'x, y, z'
loop_
 _atom_site_type_symbol
 _atom_site_label
 _atom_site_symmetry_multiplicity
 _atom_site_fract_x
 _atom_site_fract_y
 _atom_site_fract_z
 _atom_site_occupancy
  Li  Li0  1  0.51887777  0.18282206  0.52278262  1
  Li  Li1  1  0.48112223  0.68282206  0.97721738  1
  Li  Li2  1  0.48112223  0.81717794  0.47721738  1
  Li  Li3  1  0.51887777  0.31717794  0.02278262  1
  Li  Li4  1  0.77951002  0.37777832  0.76996644  1
  Li  Li5  1  0.22048998  0.87777832  0.73003356  1
  Li  Li6  1  0.22048998  0.62222168  0.23003356  1
  Li  Li7  1  0.77951002  0.12222168  0.26996644  1
  Nb  Nb8  1  0.99220421  0.69576342  0.50255742  1
  Nb  Nb9  1  0.00779579  0.19576342  0.99744258  1
  Nb  Nb10  1  0.00779579  0.30423658  0.49744258  1
  Nb  Nb11  1  0.99220421  0.80423658  0.00255742  1
  Nb  Nb12  1  0.73424476  0.49646187  0.25871787  1
  Nb  Nb13  1  0.26575524  0.99646187  0.24128213  1
  Nb  Nb14  1  0.26575524  0.50353813  0.74128213  1
  Nb  Nb15  1  0.73424476  0.00353813  0.75871787  1
  O  O16  1  0.91549209  0.63729687  0.12527772  1
  O  O17  1  0.08450791  0.13729687  0.37472228  1
  O  O18  1  0.08450791  0.36270313  0.87472228  1
  O  O19  1  0.91549209  0.86270313  0.62527772  1
  O  O20  1  0.82871254  0.31077331  0.13288074  1
  O  O21  1  0.17128746  0.81077331  0.36711926  1
  O  O22  1  0.17128746  0.68922669  0.86711926  1
  O  O23  1  0.82871254  0.18922669  0.63288074  1
  O  O24  1  0.70440235  0.33206977  0.40038566  1
  O  O25  1  0.29559765  0.83206977  0.09961434  1
  O  O26  1  0.29559765  0.66793023  0.59961434  1
  O  O27  1  0.70440235  0.16793023  0.90038566  1
  O  O28  1  0.72257960  0.67772576  0.40065076  1
  O  O29  1  0.27742040  0.17772576  0.09934924  1
  O  O30  1  0.27742040  0.32227424  0.59934924  1
  O  O31  1  0.72257960  0.82227424  0.90065076  1
  O  O32  1  0.06176070  0.48965758  0.36854237  1
  O  O33  1  0.93823930  0.98965758  0.13145763  1
  O  O34  1  0.93823930  0.51034242  0.63145763  1
  O  O35  1  0.06176070  0.01034242  0.86854237  1
  O  O36  1  0.48649460  0.52502916  0.16330824  1
  O  O37  1  0.51350540  0.02502916  0.33669176  1
  O  O38  1  0.51350540  0.47497084  0.83669176  1
  O  O39  1  0.48649460  0.97497084  0.66330824  1
