# generated using pymatgen
data_LiH3CN2O
_symmetry_space_group_name_H-M   'P 1'
_cell_length_a   7.76634999
_cell_length_b   9.47157572
_cell_length_c   13.47099614
_cell_angle_alpha   90.00000000
_cell_angle_beta   98.09280223
_cell_angle_gamma   90.00000000
_symmetry_Int_Tables_number   1
_chemical_formula_structural   LiH3CN2O
_chemical_formula_sum   'Li12 H36 C12 N24 O12'
_cell_volume   981.05247885
_cell_formula_units_Z   12
loop_
 _symmetry_equiv_pos_site_id
 _symmetry_equiv_pos_as_xyz
  1  'x, y, z'
loop_
 _atom_site_type_symbol
 _atom_site_label
 _atom_site_symmetry_multiplicity
 _atom_site_fract_x
 _atom_site_fract_y
 _atom_site_fract_z
 _atom_site_occupancy
  Li  Li0  1  0.97454568  0.43257537  0.86455388  1
  Li  Li1  1  0.47454568  0.06742463  0.36455388  1
  Li  Li2  1  0.02545432  0.56742463  0.13544612  1
  Li  Li3  1  0.52545432  0.93257537  0.63544612  1
  Li  Li4  1  0.16315005  0.34992966  0.05183884  1
  Li  Li5  1  0.66315005  0.15007034  0.55183884  1
  Li  Li6  1  0.83684995  0.65007034  0.94816116  1
  Li  Li7  1  0.33684995  0.84992966  0.44816116  1
  Li  Li8  1  0.02678228  0.31078228  0.22532079  1
  Li  Li9  1  0.52678228  0.18921772  0.72532079  1
  Li  Li10  1  0.97321772  0.68921772  0.77467921  1
  Li  Li11  1  0.47321772  0.81078228  0.27467921  1
  H  H12  1  0.68351675  0.25073224  0.13542857  1
  H  H13  1  0.18351675  0.24926776  0.63542857  1
  H  H14  1  0.31648325  0.74926776  0.86457143  1
  H  H15  1  0.81648325  0.75073224  0.36457143  1
  H  H16  1  0.54848499  0.26647071  0.01972468  1
  H  H17  1  0.04848499  0.23352929  0.51972468  1
  H  H18  1  0.45151501  0.73352929  0.98027532  1
  H  H19  1  0.95151501  0.76647071  0.48027532  1
  H  H20  1  0.64334181  0.41125585  0.90371929  1
  H  H21  1  0.14334181  0.08874415  0.40371929  1
  H  H22  1  0.35665819  0.58874415  0.09628071  1
  H  H23  1  0.85665819  0.91125585  0.59628071  1
  H  H24  1  0.86639369  0.09878997  0.87577899  1
  H  H25  1  0.36639369  0.40121003  0.37577899  1
  H  H26  1  0.13360631  0.90121003  0.12422101  1
  H  H27  1  0.63360631  0.59878997  0.62422101  1
  H  H28  1  0.96353054  0.94426685  0.91385068  1
  H  H29  1  0.46353054  0.55573315  0.41385068  1
  H  H30  1  0.03646946  0.05573315  0.08614932  1
  H  H31  1  0.53646946  0.44426685  0.58614932  1
  H  H32  1  0.63773351  0.73906026  0.78124804  1
  H  H33  1  0.13773351  0.76093974  0.28124804  1
  H  H34  1  0.36226649  0.26093974  0.21875196  1
  H  H35  1  0.86226649  0.23906026  0.71875196  1
  H  H36  1  0.73505575  0.94734184  0.04081618  1
  H  H37  1  0.23505575  0.55265816  0.54081618  1
  H  H38  1  0.26494425  0.05265816  0.95918382  1
  H  H39  1  0.76494425  0.44734184  0.45918382  1
  H  H40  1  0.58044448  0.94952142  0.12387484  1
  H  H41  1  0.08044448  0.55047858  0.62387484  1
  H  H42  1  0.41955552  0.05047858  0.87612516  1
  H  H43  1  0.91955552  0.44952142  0.37612516  1
  H  H44  1  0.70573445  0.61388783  0.21736297  1
  H  H45  1  0.20573445  0.88611217  0.71736297  1
  H  H46  1  0.29426555  0.38611217  0.78263703  1
  H  H47  1  0.79426555  0.11388783  0.28263703  1
  C  C48  1  0.78644851  0.36944648  0.03074133  1
  C  C49  1  0.28644851  0.13055352  0.53074133  1
  C  C50  1  0.21355149  0.63055352  0.96925867  1
  C  C51  1  0.71355149  0.86944648  0.46925867  1
  C  C52  1  0.72612490  0.92108473  0.82653385  1
  C  C53  1  0.22612490  0.57891527  0.32653385  1
  C  C54  1  0.27387510  0.07891527  0.17346615  1
  C  C55  1  0.77387510  0.42108473  0.67346615  1
  C  C56  1  0.73262318  0.76861978  0.12873014  1
  C  C57  1  0.23262318  0.73138022  0.62873014  1
  C  C58  1  0.26737682  0.23138022  0.87126986  1
  C  C59  1  0.76737682  0.26861978  0.37126986  1
  N  N60  1  0.66445903  0.28345874  0.06289184  1
  N  N61  1  0.16445903  0.21654126  0.56289184  1
  N  N62  1  0.33554097  0.71654126  0.93710816  1
  N  N63  1  0.83554097  0.78345874  0.43710816  1
  N  N64  1  0.76343207  0.43408243  0.94208470  1
  N  N65  1  0.26343207  0.06591757  0.44208470  1
  N  N66  1  0.23656793  0.56591757  0.05791530  1
  N  N67  1  0.73656793  0.93408243  0.55791530  1
  N  N68  1  0.84945885  0.99503992  0.89157697  1
  N  N69  1  0.34945885  0.50496008  0.39157697  1
  N  N70  1  0.15054115  0.00496008  0.10842303  1
  N  N71  1  0.65054115  0.49503992  0.60842303  1
  N  N72  1  0.74380328  0.78079327  0.82522510  1
  N  N73  1  0.24380328  0.71920673  0.32522510  1
  N  N74  1  0.25619672  0.21920673  0.17477490  1
  N  N75  1  0.75619672  0.28079327  0.67477490  1
  N  N76  1  0.66890560  0.89558765  0.08953610  1
  N  N77  1  0.16890560  0.60441235  0.58953610  1
  N  N78  1  0.33109440  0.10441235  0.91046390  1
  N  N79  1  0.83109440  0.39558765  0.41046390  1
  N  N80  1  0.65595796  0.71276882  0.20176410  1
  N  N81  1  0.15595796  0.78723118  0.70176410  1
  N  N82  1  0.34404204  0.28723118  0.79823590  1
  N  N83  1  0.84404204  0.21276882  0.29823590  1
  O  O84  1  0.93053121  0.38305653  0.09198874  1
  O  O85  1  0.43053121  0.11694347  0.59198874  1
  O  O86  1  0.06946879  0.61694347  0.90801126  1
  O  O87  1  0.56946879  0.88305653  0.40801126  1
  O  O88  1  0.60228808  0.99334303  0.77630001  1
  O  O89  1  0.10228808  0.50665697  0.27630001  1
  O  O90  1  0.39771192  0.00665697  0.22369999  1
  O  O91  1  0.89771192  0.49334303  0.72369999  1
  O  O92  1  0.86020291  0.71401843  0.08786269  1
  O  O93  1  0.36020291  0.78598157  0.58786269  1
  O  O94  1  0.13979709  0.28598157  0.91213731  1
  O  O95  1  0.63979709  0.21401843  0.41213731  1
