# generated using pymatgen
data_Na2H20SeO14
_symmetry_space_group_name_H-M   'P 1'
_cell_length_a   10.52863490
_cell_length_b   11.73935416
_cell_length_c   13.08269736
_cell_angle_alpha   108.03545858
_cell_angle_beta   90.00000000
_cell_angle_gamma   90.00000000
_symmetry_Int_Tables_number   1
_chemical_formula_structural   Na2H20SeO14
_chemical_formula_sum   'Na8 H80 Se4 O56'
_cell_volume   1537.56141007
_cell_formula_units_Z   4
loop_
 _symmetry_equiv_pos_site_id
 _symmetry_equiv_pos_as_xyz
  1  'x, y, z'
loop_
 _atom_site_type_symbol
 _atom_site_label
 _atom_site_symmetry_multiplicity
 _atom_site_fract_x
 _atom_site_fract_y
 _atom_site_fract_z
 _atom_site_occupancy
  Na  Na0  1  0.25453474  0.25820805  0.52192508  1
  Na  Na1  1  0.75453474  0.74179195  0.97807492  1
  Na  Na2  1  0.74546526  0.74179195  0.47807492  1
  Na  Na3  1  0.24546526  0.25820805  0.02192508  1
  Na  Na4  1  0.38705955  0.24294638  0.26385804  1
  Na  Na5  1  0.88705955  0.75705362  0.23614196  1
  Na  Na6  1  0.61294045  0.75705362  0.73614196  1
  Na  Na7  1  0.11294045  0.24294638  0.76385804  1
  H  H8  1  0.36335262  0.17217747  0.68700606  1
  H  H9  1  0.86335262  0.82782253  0.81299394  1
  H  H10  1  0.63664738  0.82782253  0.31299394  1
  H  H11  1  0.13664738  0.17217747  0.18700606  1
  H  H12  1  0.29523833  0.06075593  0.61219923  1
  H  H13  1  0.79523833  0.93924407  0.88780077  1
  H  H14  1  0.70476167  0.93924407  0.38780077  1
  H  H15  1  0.20476167  0.06075593  0.11219923  1
  H  H16  1  0.20549027  0.44132452  0.40177911  1
  H  H17  1  0.70549027  0.55867548  0.09822089  1
  H  H18  1  0.79450973  0.55867548  0.59822089  1
  H  H19  1  0.29450973  0.44132452  0.90177911  1
  H  H20  1  0.13942572  0.31894715  0.35051150  1
  H  H21  1  0.63942572  0.68105285  0.14948850  1
  H  H22  1  0.86057428  0.68105285  0.64948850  1
  H  H23  1  0.36057428  0.31894715  0.85051150  1
  H  H24  1  0.63054684  0.13452556  0.14760092  1
  H  H25  1  0.13054684  0.86547444  0.35239908  1
  H  H26  1  0.36945316  0.86547444  0.85239908  1
  H  H27  1  0.86945316  0.13452556  0.64760092  1
  H  H28  1  0.51333462  0.13299166  0.06986456  1
  H  H29  1  0.01333462  0.86700834  0.43013544  1
  H  H30  1  0.48666538  0.86700834  0.93013544  1
  H  H31  1  0.98666538  0.13299166  0.56986456  1
  H  H32  1  0.03353472  0.16456256  0.39605348  1
  H  H33  1  0.53353472  0.83543744  0.10394652  1
  H  H34  1  0.96646528  0.83543744  0.60394652  1
  H  H35  1  0.46646528  0.16456256  0.89605348  1
  H  H36  1  0.06037316  0.04171981  0.41504590  1
  H  H37  1  0.56037316  0.95828019  0.08495410  1
  H  H38  1  0.93962684  0.95828019  0.58495410  1
  H  H39  1  0.43962684  0.04171981  0.91504590  1
  H  H40  1  0.35719645  0.03826565  0.35821441  1
  H  H41  1  0.85719645  0.96173435  0.14178559  1
  H  H42  1  0.64280355  0.96173435  0.64178559  1
  H  H43  1  0.14280355  0.03826565  0.85821441  1
  H  H44  1  0.47933208  0.11035461  0.40597466  1
  H  H45  1  0.97933208  0.88964539  0.09402534  1
  H  H46  1  0.52066792  0.88964539  0.59402534  1
  H  H47  1  0.02066792  0.11035461  0.90597466  1
  H  H48  1  0.01753180  0.38585989  0.62783681  1
  H  H49  1  0.51753180  0.61414011  0.87216319  1
  H  H50  1  0.98246820  0.61414011  0.37216319  1
  H  H51  1  0.48246820  0.38585989  0.12783681  1
  H  H52  1  0.12950040  0.46366879  0.69026965  1
  H  H53  1  0.62950040  0.53633121  0.80973035  1
  H  H54  1  0.87049960  0.53633121  0.30973035  1
  H  H55  1  0.37049960  0.46366879  0.19026965  1
  H  H56  1  0.50449309  0.37751260  0.63349893  1
  H  H57  1  0.00449309  0.62248740  0.86650107  1
  H  H58  1  0.49550691  0.62248740  0.36650107  1
  H  H59  1  0.99550691  0.37751260  0.13349893  1
  H  H60  1  0.48208918  0.37492793  0.51282758  1
  H  H61  1  0.98208918  0.62507207  0.98717242  1
  H  H62  1  0.51791082  0.62507207  0.48717242  1
  H  H63  1  0.01791082  0.37492793  0.01282758  1
  H  H64  1  0.62701934  0.33218245  0.37781423  1
  H  H65  1  0.12701934  0.66781755  0.12218577  1
  H  H66  1  0.37298066  0.66781755  0.62218577  1
  H  H67  1  0.87298066  0.33218245  0.87781423  1
  H  H68  1  0.55110916  0.45120055  0.38945003  1
  H  H69  1  0.05110916  0.54879945  0.11054997  1
  H  H70  1  0.44889084  0.54879945  0.61054997  1
  H  H71  1  0.94889084  0.45120055  0.88945003  1
  H  H72  1  0.33748269  0.88494580  0.47904306  1
  H  H73  1  0.83748269  0.11505420  0.02095694  1
  H  H74  1  0.66251731  0.11505420  0.52095694  1
  H  H75  1  0.16251731  0.88494580  0.97904306  1
  H  H76  1  0.29932812  0.85204782  0.58370768  1
  H  H77  1  0.79932812  0.14795218  0.91629232  1
  H  H78  1  0.70067188  0.14795218  0.41629232  1
  H  H79  1  0.20067188  0.85204782  0.08370768  1
  H  H80  1  0.16835227  0.64437001  0.48941577  1
  H  H81  1  0.66835227  0.35562999  0.01058423  1
  H  H82  1  0.83164773  0.35562999  0.51058423  1
  H  H83  1  0.33164773  0.64437001  0.98941577  1
  H  H84  1  0.21563099  0.61772581  0.36919853  1
  H  H85  1  0.71563099  0.38227419  0.13080147  1
  H  H86  1  0.78436901  0.38227419  0.63080147  1
  H  H87  1  0.28436901  0.61772581  0.86919853  1
  Se  Se88  1  0.63955984  0.24807412  0.75955224  1
  Se  Se89  1  0.13955984  0.75192588  0.74044776  1
  Se  Se90  1  0.36044016  0.75192588  0.24044776  1
  Se  Se91  1  0.86044016  0.24807412  0.25955224  1
  O  O92  1  0.69869989  0.13119871  0.66194979  1
  O  O93  1  0.19869989  0.86880129  0.83805021  1
  O  O94  1  0.30130011  0.86880129  0.33805021  1
  O  O95  1  0.80130011  0.13119871  0.16194979  1
  O  O96  1  0.72326146  0.26794188  0.87344423  1
  O  O97  1  0.22326146  0.73205812  0.62655577  1
  O  O98  1  0.27673854  0.73205812  0.12655577  1
  O  O99  1  0.77673854  0.26794188  0.37344423  1
  O  O100  1  0.64829294  0.37024114  0.71914493  1
  O  O101  1  0.14829294  0.62975886  0.78085507  1
  O  O102  1  0.35170706  0.62975886  0.28085507  1
  O  O103  1  0.85170706  0.37024114  0.21914493  1
  O  O104  1  0.48817356  0.22122307  0.78435219  1
  O  O105  1  0.98817356  0.77877693  0.71564781  1
  O  O106  1  0.51182644  0.77877693  0.21564781  1
  O  O107  1  0.01182644  0.22122307  0.28435219  1
  O  O108  1  0.28387380  0.14791498  0.64609291  1
  O  O109  1  0.78387380  0.85208502  0.85390709  1
  O  O110  1  0.71612620  0.85208502  0.35390709  1
  O  O111  1  0.21612620  0.14791498  0.14609291  1
  O  O112  1  0.21973860  0.35424380  0.38471349  1
  O  O113  1  0.71973860  0.64575620  0.11528651  1
  O  O114  1  0.78026140  0.64575620  0.61528651  1
  O  O115  1  0.28026140  0.35424380  0.88471349  1
  O  O116  1  0.53905113  0.11551410  0.13674072  1
  O  O117  1  0.03905113  0.88448590  0.36325928  1
  O  O118  1  0.46094887  0.88448590  0.86325928  1
  O  O119  1  0.96094887  0.11551410  0.63674072  1
  O  O120  1  0.06612741  0.12989951  0.45080319  1
  O  O121  1  0.56612741  0.87010049  0.04919681  1
  O  O122  1  0.93387259  0.87010049  0.54919681  1
  O  O123  1  0.43387259  0.12989951  0.95080319  1
  O  O124  1  0.39109735  0.12005533  0.38382845  1
  O  O125  1  0.89109735  0.87994467  0.11617155  1
  O  O126  1  0.60890265  0.87994467  0.61617155  1
  O  O127  1  0.10890265  0.12005533  0.88382845  1
  O  O128  1  0.10556841  0.38043209  0.65226887  1
  O  O129  1  0.60556841  0.61956791  0.84773113  1
  O  O130  1  0.89443159  0.61956791  0.34773113  1
  O  O131  1  0.39443159  0.38043209  0.15226887  1
  O  O132  1  0.43966585  0.39217001  0.58457465  1
  O  O133  1  0.93966585  0.60782999  0.91542535  1
  O  O134  1  0.56033415  0.60782999  0.41542535  1
  O  O135  1  0.06033415  0.39217001  0.08457465  1
  O  O136  1  0.53993218  0.36609760  0.38717393  1
  O  O137  1  0.03993218  0.63390240  0.11282607  1
  O  O138  1  0.46006782  0.63390240  0.61282607  1
  O  O139  1  0.96006782  0.36609760  0.88717393  1
  O  O140  1  0.35246287  0.90652000  0.55739734  1
  O  O141  1  0.85246287  0.09348000  0.94260266  1
  O  O142  1  0.64753713  0.09348000  0.44260266  1
  O  O143  1  0.14753713  0.90652000  0.05739734  1
  O  O144  1  0.15046123  0.59593881  0.41436711  1
  O  O145  1  0.65046123  0.40406119  0.08563289  1
  O  O146  1  0.84953877  0.40406119  0.58563289  1
  O  O147  1  0.34953877  0.59593881  0.91436711  1
