# generated using pymatgen
data_LiZr2(AsO4)3
_symmetry_space_group_name_H-M   'P 1'
_cell_length_a   9.33440285
_cell_length_b   9.33440285
_cell_length_c   9.26130634
_cell_angle_alpha   59.73856516
_cell_angle_beta   59.73856516
_cell_angle_gamma   59.99999437
_symmetry_Int_Tables_number   1
_chemical_formula_structural   LiZr2(AsO4)3
_chemical_formula_sum   'Li2 Zr4 As6 O24'
_cell_volume   568.33291842
_cell_formula_units_Z   2
loop_
 _symmetry_equiv_pos_site_id
 _symmetry_equiv_pos_as_xyz
  1  'x, y, z'
loop_
 _atom_site_type_symbol
 _atom_site_label
 _atom_site_symmetry_multiplicity
 _atom_site_fract_x
 _atom_site_fract_y
 _atom_site_fract_z
 _atom_site_occupancy
  Li  Li0  1  0.50000000  0.50000000  0.50000000  1
  Li  Li1  1  -0.00000000  -0.00000000  0.00000000  1
  Zr  Zr2  1  0.64039812  0.64039812  0.07880563  1
  Zr  Zr3  1  0.14039812  0.14039812  0.57880563  1
  Zr  Zr4  1  0.35960188  0.35960188  0.92119437  1
  Zr  Zr5  1  0.85960188  0.85960188  0.42119437  1
  As  As6  1  0.45674390  0.04325610  0.75000000  1
  As  As7  1  0.04325610  0.75000000  0.75000000  1
  As  As8  1  0.75000000  0.45674390  0.75000000  1
  As  As9  1  0.95674390  0.25000000  0.25000000  1
  As  As10  1  0.25000000  0.54325610  0.25000000  1
  As  As11  1  0.54325610  0.95674390  0.25000000  1
  O  O12  1  0.50281423  0.87724324  0.93483513  1
  O  O13  1  0.87724324  0.68510740  0.93483513  1
  O  O14  1  0.68510741  0.50281423  0.93483513  1
  O  O15  1  0.00281423  0.18510741  0.43483513  1
  O  O16  1  0.18510740  0.37724324  0.43483513  1
  O  O17  1  0.37724324  0.00281423  0.43483513  1
  O  O18  1  0.49718577  0.12275676  0.06516487  1
  O  O19  1  0.12275676  0.31489260  0.06516487  1
  O  O20  1  0.31489259  0.49718577  0.06516487  1
  O  O21  1  0.99718577  0.81489259  0.56516487  1
  O  O22  1  0.81489260  0.62275676  0.56516487  1
  O  O23  1  0.62275676  0.99718577  0.56516487  1
  O  O24  1  0.55426314  0.75964220  0.26824023  1
  O  O25  1  0.75964220  0.41785443  0.26824023  1
  O  O26  1  0.41785443  0.55426314  0.26824023  1
  O  O27  1  0.05426314  0.91785443  0.76824023  1
  O  O28  1  0.91785443  0.25964220  0.76824023  1
  O  O29  1  0.25964220  0.05426314  0.76824023  1
  O  O30  1  0.44573686  0.24035780  0.73175977  1
  O  O31  1  0.24035780  0.58214557  0.73175977  1
  O  O32  1  0.58214557  0.44573686  0.73175977  1
  O  O33  1  0.94573686  0.08214557  0.23175977  1
  O  O34  1  0.08214557  0.74035780  0.23175977  1
  O  O35  1  0.74035780  0.94573686  0.23175977  1
