# generated using pymatgen
data_K2Fe2B2O7
_symmetry_space_group_name_H-M   'P 1'
_cell_length_a   8.70620727
_cell_length_b   8.85979645
_cell_length_c   8.85979158
_cell_angle_alpha   120.00002417
_cell_angle_beta   90.00004260
_cell_angle_gamma   89.99963497
_symmetry_Int_Tables_number   1
_chemical_formula_structural   K2Fe2B2O7
_chemical_formula_sum   'K6 Fe6 B6 O21'
_cell_volume   591.84335812
_cell_formula_units_Z   3
loop_
 _symmetry_equiv_pos_site_id
 _symmetry_equiv_pos_as_xyz
  1  'x, y, z'
loop_
 _atom_site_type_symbol
 _atom_site_label
 _atom_site_symmetry_multiplicity
 _atom_site_fract_x
 _atom_site_fract_y
 _atom_site_fract_z
 _atom_site_occupancy
  K  K0  1  0.00000044  0.31896058  0.31896170  1
  K  K1  1  0.00000140  0.68104133  0.00000266  1
  K  K2  1  0.00000215  0.00000109  0.68103914  1
  K  K3  1  0.49999777  0.35233236  0.35233797  1
  K  K4  1  0.50000112  0.64766920  0.00000795  1
  K  K5  1  0.49999942  0.00000145  0.64766018  1
  Fe  Fe6  1  0.71282805  0.00000312  -0.00000189  1
  Fe  Fe7  1  0.28716336  0.99999254  0.99998909  1
  Fe  Fe8  1  0.80735459  0.66665485  0.33332462  1
  Fe  Fe9  1  0.19265425  0.33334520  0.66667263  1
  Fe  Fe10  1  0.76503287  0.33335287  0.66667318  1
  Fe  Fe11  1  0.23497001  0.66664683  0.33332152  1
  B  B12  1  0.74102297  0.33440693  0.99848518  1
  B  B13  1  0.74102726  0.00150866  0.33592366  1
  B  B14  1  0.74102126  0.66408774  0.66559366  1
  B  B15  1  0.25897665  0.66559280  0.66407822  1
  B  B16  1  0.25897840  0.33591238  0.00150615  1
  B  B17  1  0.25897249  0.99849147  0.33441548  1
  O  O18  1  0.49999958  -0.00000000  0.00000046  1
  O  O19  1  0.97880085  0.33339522  0.66669833  1
  O  O20  1  0.02119839  0.66660468  0.33330336  1
  O  O21  1  0.69822827  0.17481707  0.43513673  1
  O  O22  1  0.69820905  0.56489028  0.73970095  1
  O  O23  1  0.69822366  0.26030591  0.82517763  1
  O  O24  1  0.30177090  0.82518321  0.26031968  1
  O  O25  1  0.30177583  0.73969405  0.56487146  1
  O  O26  1  0.30179080  0.43510917  0.17481054  1
  O  O27  1  0.74154338  0.51383035  0.10088648  1
  O  O28  1  0.74155659  0.89909461  0.41293386  1
  O  O29  1  0.74154765  0.58705866  0.48616929  1
  O  O30  1  0.25845615  0.48617030  0.58705683  1
  O  O31  1  0.25845229  0.41294150  0.89911080  1
  O  O32  1  0.25844378  0.10090404  0.51383845  1
  O  O33  1  0.78222876  0.83715787  0.76982729  1
  O  O34  1  0.78222566  0.23017472  0.06732565  1
  O  O35  1  0.78222390  0.93267758  0.16284939  1
  O  O36  1  0.21777079  0.16284227  0.93266926  1
  O  O37  1  0.21777559  0.06732226  0.23017203  1
  O  O38  1  0.21777368  0.76982484  0.83715043  1
