# generated using pymatgen
data_Li2TbF6
_symmetry_space_group_name_H-M   'P 1'
_cell_length_a   5.08207156
_cell_length_b   7.66895660
_cell_length_c   11.71699387
_cell_angle_alpha   106.43409708
_cell_angle_beta   90.00000000
_cell_angle_gamma   90.00000000
_symmetry_Int_Tables_number   1
_chemical_formula_structural   Li2TbF6
_chemical_formula_sum   'Li8 Tb4 F24'
_cell_volume   438.00380128
_cell_formula_units_Z   4
loop_
 _symmetry_equiv_pos_site_id
 _symmetry_equiv_pos_as_xyz
  1  'x, y, z'
loop_
 _atom_site_type_symbol
 _atom_site_label
 _atom_site_symmetry_multiplicity
 _atom_site_fract_x
 _atom_site_fract_y
 _atom_site_fract_z
 _atom_site_occupancy
  Li  Li0  1  0.99537209  0.59660375  0.19601505  1
  Li  Li1  1  0.49537209  0.40339625  0.30398495  1
  Li  Li2  1  0.00462791  0.40339625  0.80398495  1
  Li  Li3  1  0.50462791  0.59660375  0.69601505  1
  Li  Li4  1  0.48460939  0.97323017  0.34031979  1
  Li  Li5  1  0.98460939  0.02676983  0.15968021  1
  Li  Li6  1  0.51539061  0.02676983  0.65968021  1
  Li  Li7  1  0.01539061  0.97323017  0.84031979  1
  Tb  Tb8  1  0.01905969  0.75080580  0.50155388  1
  Tb  Tb9  1  0.51905969  0.24919420  0.99844612  1
  Tb  Tb10  1  0.98094031  0.24919420  0.49844612  1
  Tb  Tb11  1  0.48094031  0.75080580  0.00155388  1
  F  F12  1  0.69219201  0.54072736  0.07796716  1
  F  F13  1  0.19219201  0.45927264  0.42203284  1
  F  F14  1  0.30780799  0.45927264  0.92203284  1
  F  F15  1  0.80780799  0.54072736  0.57796716  1
  F  F16  1  0.85293117  0.91329700  0.68217529  1
  F  F17  1  0.35293117  0.08670300  0.81782471  1
  F  F18  1  0.14706883  0.08670300  0.31782471  1
  F  F19  1  0.64706883  0.91329700  0.18217529  1
  F  F20  1  0.73554024  0.95941647  0.95398035  1
  F  F21  1  0.23554024  0.04058353  0.54601965  1
  F  F22  1  0.26445976  0.04058353  0.04601965  1
  F  F23  1  0.76445976  0.95941647  0.45398035  1
  F  F24  1  0.72916686  0.59282427  0.83731114  1
  F  F25  1  0.22916686  0.40717573  0.66268886  1
  F  F26  1  0.27083314  0.40717573  0.16268886  1
  F  F27  1  0.77083314  0.59282427  0.33731114  1
  F  F28  1  0.11434659  0.75143804  0.10356064  1
  F  F29  1  0.61434659  0.24856196  0.39643936  1
  F  F30  1  0.88565341  0.24856196  0.89643936  1
  F  F31  1  0.38565341  0.75143804  0.60356064  1
  F  F32  1  0.24008543  0.75825288  0.83721184  1
  F  F33  1  0.74008543  0.24174712  0.66278816  1
  F  F34  1  0.75991457  0.24174712  0.16278816  1
  F  F35  1  0.25991457  0.75825288  0.33721184  1
