# generated using pymatgen
data_CsMg30CrO32
_symmetry_space_group_name_H-M   'P 1'
_cell_length_a   8.66342616
_cell_length_b   8.66342616
_cell_length_c   8.67833121
_cell_angle_alpha   90.00000000
_cell_angle_beta   90.00000000
_cell_angle_gamma   90.00000000
_symmetry_Int_Tables_number   1
_chemical_formula_structural   CsMg30CrO32
_chemical_formula_sum   'Cs1 Mg30 Cr1 O32'
_cell_volume   651.35173961
_cell_formula_units_Z   1
loop_
 _symmetry_equiv_pos_site_id
 _symmetry_equiv_pos_as_xyz
  1  'x, y, z'
loop_
 _atom_site_type_symbol
 _atom_site_label
 _atom_site_symmetry_multiplicity
 _atom_site_fract_x
 _atom_site_fract_y
 _atom_site_fract_z
 _atom_site_occupancy
  Cs  Cs0  1  0.00000000  0.00000000  -0.00000000  1
  Mg  Mg1  1  0.00000000  0.50000000  -0.00000000  1
  Mg  Mg2  1  0.00000000  0.50000000  0.50000000  1
  Mg  Mg3  1  0.50000000  0.00000000  -0.00000000  1
  Mg  Mg4  1  0.50000000  0.00000000  0.50000000  1
  Mg  Mg5  1  0.50000000  0.50000000  -0.00000000  1
  Mg  Mg6  1  0.50000000  0.50000000  0.50000000  1
  Mg  Mg7  1  0.00000000  0.25658627  0.25097098  1
  Mg  Mg8  1  0.00000000  0.25658627  0.74902902  1
  Mg  Mg9  1  0.00000000  0.74341373  0.25097098  1
  Mg  Mg10  1  0.00000000  0.74341373  0.74902902  1
  Mg  Mg11  1  0.50000000  0.25077612  0.24977158  1
  Mg  Mg12  1  0.50000000  0.25077612  0.75022842  1
  Mg  Mg13  1  0.50000000  0.74922388  0.24977158  1
  Mg  Mg14  1  0.50000000  0.74922388  0.75022842  1
  Mg  Mg15  1  0.25658627  0.00000000  0.25097098  1
  Mg  Mg16  1  0.25658627  0.00000000  0.74902902  1
  Mg  Mg17  1  0.25077612  0.50000000  0.24977158  1
  Mg  Mg18  1  0.25077612  0.50000000  0.75022842  1
  Mg  Mg19  1  0.74341373  0.00000000  0.25097098  1
  Mg  Mg20  1  0.74341373  0.00000000  0.74902902  1
  Mg  Mg21  1  0.74922388  0.50000000  0.24977158  1
  Mg  Mg22  1  0.74922388  0.50000000  0.75022842  1
  Mg  Mg23  1  0.25522415  0.25522415  -0.00000000  1
  Mg  Mg24  1  0.25097190  0.25097190  0.50000000  1
  Mg  Mg25  1  0.25522415  0.74477585  -0.00000000  1
  Mg  Mg26  1  0.25097190  0.74902810  0.50000000  1
  Mg  Mg27  1  0.74477585  0.25522415  -0.00000000  1
  Mg  Mg28  1  0.74902810  0.25097190  0.50000000  1
  Mg  Mg29  1  0.74477585  0.74477585  -0.00000000  1
  Mg  Mg30  1  0.74902810  0.74902810  0.50000000  1
  Cr  Cr31  1  0.00000000  0.00000000  0.50000000  1
  O  O32  1  0.28531563  0.00000000  -0.00000000  1
  O  O33  1  0.24552930  0.00000000  0.50000000  1
  O  O34  1  0.25702870  0.50000000  -0.00000000  1
  O  O35  1  0.24978943  0.50000000  0.50000000  1
  O  O36  1  0.71468437  0.00000000  -0.00000000  1
  O  O37  1  0.75447070  0.00000000  0.50000000  1
  O  O38  1  0.74297130  0.50000000  -0.00000000  1
  O  O39  1  0.75021057  0.50000000  0.50000000  1
  O  O40  1  0.24917234  0.24917234  0.25038309  1
  O  O41  1  0.24917234  0.24917234  0.74961691  1
  O  O42  1  0.24917234  0.75082766  0.25038309  1
  O  O43  1  0.24917234  0.75082766  0.74961691  1
  O  O44  1  0.75082766  0.24917234  0.25038309  1
  O  O45  1  0.75082766  0.24917234  0.74961691  1
  O  O46  1  0.75082766  0.75082766  0.25038309  1
  O  O47  1  0.75082766  0.75082766  0.74961691  1
  O  O48  1  0.00000000  0.00000000  0.28324796  1
  O  O49  1  0.00000000  0.00000000  0.71675204  1
  O  O50  1  0.00000000  0.50000000  0.26042986  1
  O  O51  1  0.00000000  0.50000000  0.73957014  1
  O  O52  1  0.50000000  0.00000000  0.26042986  1
  O  O53  1  0.50000000  0.00000000  0.73957014  1
  O  O54  1  0.50000000  0.50000000  0.25360036  1
  O  O55  1  0.50000000  0.50000000  0.74639964  1
  O  O56  1  0.00000000  0.28531563  -0.00000000  1
  O  O57  1  0.00000000  0.24552930  0.50000000  1
  O  O58  1  0.00000000  0.71468437  -0.00000000  1
  O  O59  1  0.00000000  0.75447070  0.50000000  1
  O  O60  1  0.50000000  0.25702870  -0.00000000  1
  O  O61  1  0.50000000  0.24978943  0.50000000  1
  O  O62  1  0.50000000  0.74297130  -0.00000000  1
  O  O63  1  0.50000000  0.75021057  0.50000000  1
