# generated using pymatgen
data_KB5O8
_symmetry_space_group_name_H-M   'P 1'
_cell_length_a   7.52698189
_cell_length_b   11.83385844
_cell_length_c   14.91711025
_cell_angle_alpha   90.00000000
_cell_angle_beta   90.00000000
_cell_angle_gamma   90.00000000
_symmetry_Int_Tables_number   1
_chemical_formula_structural   KB5O8
_chemical_formula_sum   'K8 B40 O64'
_cell_volume   1328.71531406
_cell_formula_units_Z   8
loop_
 _symmetry_equiv_pos_site_id
 _symmetry_equiv_pos_as_xyz
  1  'x, y, z'
loop_
 _atom_site_type_symbol
 _atom_site_label
 _atom_site_symmetry_multiplicity
 _atom_site_fract_x
 _atom_site_fract_y
 _atom_site_fract_z
 _atom_site_occupancy
  K  K0  1  0.57244808  0.29408349  0.37930650  1
  K  K1  1  0.07244808  0.20591651  0.62069350  1
  K  K2  1  0.42755192  0.79408349  0.12069350  1
  K  K3  1  0.92755192  0.70591651  0.87930650  1
  K  K4  1  0.42755192  0.70591651  0.62069350  1
  K  K5  1  0.92755192  0.79408349  0.37930650  1
  K  K6  1  0.57244808  0.20591651  0.87930650  1
  K  K7  1  0.07244808  0.29408349  0.12069350  1
  B  B8  1  0.05531032  0.27689529  0.37451409  1
  B  B9  1  0.55531032  0.22310471  0.62548591  1
  B  B10  1  0.94468968  0.77689529  0.12548591  1
  B  B11  1  0.44468968  0.72310471  0.87451409  1
  B  B12  1  0.94468968  0.72310471  0.62548591  1
  B  B13  1  0.44468968  0.77689529  0.37451409  1
  B  B14  1  0.05531032  0.22310471  0.87451409  1
  B  B15  1  0.55531032  0.27689529  0.12548591  1
  B  B16  1  0.91525827  0.09183250  0.41819690  1
  B  B17  1  0.41525827  0.40816750  0.58180310  1
  B  B18  1  0.08474173  0.59183250  0.08180310  1
  B  B19  1  0.58474173  0.90816750  0.91819690  1
  B  B20  1  0.08474173  0.90816750  0.58180310  1
  B  B21  1  0.58474173  0.59183250  0.41819690  1
  B  B22  1  0.91525827  0.40816750  0.91819690  1
  B  B23  1  0.41525827  0.09183250  0.08180310  1
  B  B24  1  0.97649235  0.47814042  0.34703875  1
  B  B25  1  0.47649235  0.02185958  0.65296125  1
  B  B26  1  0.02350765  0.97814042  0.15296125  1
  B  B27  1  0.52350765  0.52185958  0.84703875  1
  B  B28  1  0.02350765  0.52185958  0.65296125  1
  B  B29  1  0.52350765  0.97814042  0.34703875  1
  B  B30  1  0.97649235  0.02185958  0.84703875  1
  B  B31  1  0.47649235  0.47814042  0.15296125  1
  B  B32  1  0.19941953  0.43594054  0.45641080  1
  B  B33  1  0.69941953  0.06405946  0.54358920  1
  B  B34  1  0.80058047  0.93594054  0.04358920  1
  B  B35  1  0.30058047  0.56405946  0.95641080  1
  B  B36  1  0.80058047  0.56405946  0.54358920  1
  B  B37  1  0.30058047  0.93594054  0.45641080  1
  B  B38  1  0.19941953  0.06405946  0.95641080  1
  B  B39  1  0.69941953  0.43594054  0.04358920  1
  B  B40  1  0.08703529  0.10320801  0.28446058  1
  B  B41  1  0.58703529  0.39679199  0.71553942  1
  B  B42  1  0.91296471  0.60320801  0.21553942  1
  B  B43  1  0.41296471  0.89679199  0.78446058  1
  B  B44  1  0.91296471  0.89679199  0.71553942  1
  B  B45  1  0.41296471  0.60320801  0.28446058  1
  B  B46  1  0.08703529  0.39679199  0.78446058  1
  B  B47  1  0.58703529  0.10320801  0.21553942  1
  O  O48  1  0.81047771  0.02562459  0.47489160  1
  O  O49  1  0.31047771  0.47437541  0.52510840  1
  O  O50  1  0.18952229  0.52562459  0.02510840  1
  O  O51  1  0.68952229  0.97437541  0.97489160  1
  O  O52  1  0.18952229  0.97437541  0.52510840  1
  O  O53  1  0.68952229  0.52562459  0.47489160  1
  O  O54  1  0.81047771  0.47437541  0.97489160  1
  O  O55  1  0.31047771  0.02562459  0.02510840  1
  O  O56  1  0.93610727  0.20466079  0.42942448  1
  O  O57  1  0.43610727  0.29533921  0.57057552  1
  O  O58  1  0.06389273  0.70466079  0.07057552  1
  O  O59  1  0.56389273  0.79533921  0.92942448  1
  O  O60  1  0.06389273  0.79533921  0.57057552  1
  O  O61  1  0.56389273  0.70466079  0.42942448  1
  O  O62  1  0.93610727  0.29533921  0.92942448  1
  O  O63  1  0.43610727  0.20466079  0.07057552  1
  O  O64  1  0.13920230  0.21065520  0.30235133  1
  O  O65  1  0.63920230  0.28934480  0.69764867  1
  O  O66  1  0.86079770  0.71065520  0.19764867  1
  O  O67  1  0.36079770  0.78934480  0.80235133  1
  O  O68  1  0.86079770  0.78934480  0.69764867  1
  O  O69  1  0.36079770  0.71065520  0.30235133  1
  O  O70  1  0.13920230  0.28934480  0.80235133  1
  O  O71  1  0.63920230  0.21065520  0.19764867  1
  O  O72  1  0.94671892  0.36718419  0.33150382  1
  O  O73  1  0.44671892  0.13281581  0.66849618  1
  O  O74  1  0.05328108  0.86718419  0.16849618  1
  O  O75  1  0.55328108  0.63281581  0.83150382  1
  O  O76  1  0.05328108  0.63281581  0.66849618  1
  O  O77  1  0.55328108  0.86718419  0.33150382  1
  O  O78  1  0.94671892  0.13281581  0.83150382  1
  O  O79  1  0.44671892  0.36718419  0.16849618  1
  O  O80  1  0.19200505  0.32494950  0.43393699  1
  O  O81  1  0.69200505  0.17505050  0.56606301  1
  O  O82  1  0.80799495  0.82494950  0.06606301  1
  O  O83  1  0.30799495  0.67505050  0.93393699  1
  O  O84  1  0.80799495  0.67505050  0.56606301  1
  O  O85  1  0.30799495  0.82494950  0.43393699  1
  O  O86  1  0.19200505  0.17505050  0.93393699  1
  O  O87  1  0.69200505  0.32494950  0.06606301  1
  O  O88  1  0.61400605  0.06286475  0.30086086  1
  O  O89  1  0.11400605  0.43713525  0.69913914  1
  O  O90  1  0.38599395  0.56286475  0.19913914  1
  O  O91  1  0.88599395  0.93713525  0.80086086  1
  O  O92  1  0.38599395  0.93713525  0.69913914  1
  O  O93  1  0.88599395  0.56286475  0.30086086  1
  O  O94  1  0.61400605  0.43713525  0.80086086  1
  O  O95  1  0.11400605  0.06286475  0.19913914  1
  O  O96  1  0.99757038  0.03531239  0.34700735  1
  O  O97  1  0.49757038  0.46468761  0.65299265  1
  O  O98  1  0.00242962  0.53531239  0.15299265  1
  O  O99  1  0.50242962  0.96468761  0.84700735  1
  O  O100  1  0.00242962  0.96468761  0.65299265  1
  O  O101  1  0.50242962  0.53531239  0.34700735  1
  O  O102  1  0.99757038  0.46468761  0.84700735  1
  O  O103  1  0.49757038  0.03531239  0.15299265  1
  O  O104  1  0.40242559  0.01629720  0.41140036  1
  O  O105  1  0.90242559  0.48370280  0.58859964  1
  O  O106  1  0.59757441  0.51629720  0.08859964  1
  O  O107  1  0.09757441  0.98370280  0.91140036  1
  O  O108  1  0.59757441  0.98370280  0.58859964  1
  O  O109  1  0.09757441  0.51629720  0.41140036  1
  O  O110  1  0.40242559  0.48370280  0.91140036  1
  O  O111  1  0.90242559  0.01629720  0.08859964  1
