# generated using pymatgen
data_Y(Ga5Mo)8
_symmetry_space_group_name_H-M   'P 1'
_cell_length_a   9.64555702
_cell_length_b   9.64555702
_cell_length_c   9.64555684
_cell_angle_alpha   94.56065103
_cell_angle_beta   94.56065103
_cell_angle_gamma   94.56064650
_symmetry_Int_Tables_number   1
_chemical_formula_structural   Y(Ga5Mo)8
_chemical_formula_sum   'Y1 Ga40 Mo8'
_cell_volume   888.38443437
_cell_formula_units_Z   1
loop_
 _symmetry_equiv_pos_site_id
 _symmetry_equiv_pos_as_xyz
  1  'x, y, z'
loop_
 _atom_site_type_symbol
 _atom_site_label
 _atom_site_symmetry_multiplicity
 _atom_site_fract_x
 _atom_site_fract_y
 _atom_site_fract_z
 _atom_site_occupancy
  Y  Y0  1  -0.00000000  -0.00000000  -0.00000000  1
  Ga  Ga1  1  0.50000000  0.50000000  0.50000000  1
  Ga  Ga2  1  0.50000000  -0.00000000  0.50000000  1
  Ga  Ga3  1  -0.00000000  0.50000000  0.50000000  1
  Ga  Ga4  1  0.50000000  0.50000000  -0.00000000  1
  Ga  Ga5  1  0.63726862  0.26847954  0.61161753  1
  Ga  Ga6  1  0.26847954  0.61161753  0.63726862  1
  Ga  Ga7  1  0.61161753  0.63726862  0.26847954  1
  Ga  Ga8  1  0.36273138  0.73152046  0.38838247  1
  Ga  Ga9  1  0.73152046  0.38838247  0.36273138  1
  Ga  Ga10  1  0.38838247  0.36273138  0.73152046  1
  Ga  Ga11  1  0.77853833  0.67561272  0.53537764  1
  Ga  Ga12  1  0.67561272  0.53537764  0.77853833  1
  Ga  Ga13  1  0.53537764  0.77853833  0.67561272  1
  Ga  Ga14  1  0.22146167  0.32438728  0.46462236  1
  Ga  Ga15  1  0.32438728  0.46462236  0.22146167  1
  Ga  Ga16  1  0.46462236  0.22146167  0.32438728  1
  Ga  Ga17  1  0.07194029  0.77912777  0.44912716  1
  Ga  Ga18  1  0.77912777  0.44912716  0.07194029  1
  Ga  Ga19  1  0.44912716  0.07194029  0.77912777  1
  Ga  Ga20  1  0.92805971  0.22087223  0.55087284  1
  Ga  Ga21  1  0.22087223  0.55087284  0.92805971  1
  Ga  Ga22  1  0.55087284  0.92805971  0.22087223  1
  Ga  Ga23  1  0.78565968  0.96679949  0.59781357  1
  Ga  Ga24  1  0.96679949  0.59781357  0.78565968  1
  Ga  Ga25  1  0.59781357  0.78565968  0.96679949  1
  Ga  Ga26  1  0.21434032  0.03320051  0.40218643  1
  Ga  Ga27  1  0.03320051  0.40218643  0.21434032  1
  Ga  Ga28  1  0.40218643  0.21434032  0.03320051  1
  Ga  Ga29  1  0.72262104  0.04988010  0.86444879  1
  Ga  Ga30  1  0.04988010  0.86444879  0.72262104  1
  Ga  Ga31  1  0.86444879  0.72262104  0.04988010  1
  Ga  Ga32  1  0.27737896  0.95011990  0.13555121  1
  Ga  Ga33  1  0.95011990  0.13555121  0.27737896  1
  Ga  Ga34  1  0.13555121  0.27737896  0.95011990  1
  Ga  Ga35  1  0.17379999  0.12251155  0.68593927  1
  Ga  Ga36  1  0.12251155  0.68593927  0.17379999  1
  Ga  Ga37  1  0.68593927  0.17379999  0.12251155  1
  Ga  Ga38  1  0.82620001  0.87748845  0.31406073  1
  Ga  Ga39  1  0.87748845  0.31406073  0.82620001  1
  Ga  Ga40  1  0.31406073  0.82620001  0.87748845  1
  Mo  Mo41  1  0.79424134  0.79424134  0.79424134  1
  Mo  Mo42  1  0.20575866  0.20575866  0.20575866  1
  Mo  Mo43  1  0.61060244  0.29403018  0.88717811  1
  Mo  Mo44  1  0.29403018  0.88717811  0.61060244  1
  Mo  Mo45  1  0.88717811  0.61060244  0.29403018  1
  Mo  Mo46  1  0.38939756  0.70596982  0.11282189  1
  Mo  Mo47  1  0.70596982  0.11282189  0.38939756  1
  Mo  Mo48  1  0.11282189  0.38939756  0.70596982  1
