# generated using pymatgen
data_V3Pb5O12F
_symmetry_space_group_name_H-M   'P 1'
_cell_length_a   7.31702596
_cell_length_b   10.37908366
_cell_length_c   10.38063821
_cell_angle_alpha   119.98718892
_cell_angle_beta   90.00000000
_cell_angle_gamma   90.00000000
_symmetry_Int_Tables_number   1
_chemical_formula_structural   V3Pb5O12F
_chemical_formula_sum   'V6 Pb10 O24 F2'
_cell_volume   682.81703160
_cell_formula_units_Z   2
loop_
 _symmetry_equiv_pos_site_id
 _symmetry_equiv_pos_as_xyz
  1  'x, y, z'
loop_
 _atom_site_type_symbol
 _atom_site_label
 _atom_site_symmetry_multiplicity
 _atom_site_fract_x
 _atom_site_fract_y
 _atom_site_fract_z
 _atom_site_occupancy
  V  V0  1  0.75000000  0.02595707  0.61624286  1
  V  V1  1  0.75000000  0.38378258  0.40976024  1
  V  V2  1  0.75000000  0.59020162  0.97397752  1
  V  V3  1  0.25000000  0.97404293  0.38375714  1
  V  V4  1  0.25000000  0.61621742  0.59023976  1
  V  V5  1  0.25000000  0.40979838  0.02602248  1
  Pb  Pb6  1  0.50711024  0.66668948  0.33328386  1
  Pb  Pb7  1  0.00711024  0.33331052  0.66671614  1
  Pb  Pb8  1  0.49288976  0.33331052  0.66671614  1
  Pb  Pb9  1  0.99288976  0.66668948  0.33328386  1
  Pb  Pb10  1  0.75000000  0.22482259  0.98136579  1
  Pb  Pb11  1  0.75000000  0.01863192  0.24367823  1
  Pb  Pb12  1  0.75000000  0.75628210  0.77483255  1
  Pb  Pb13  1  0.25000000  0.77517741  0.01863421  1
  Pb  Pb14  1  0.25000000  0.98136808  0.75632177  1
  Pb  Pb15  1  0.25000000  0.24371790  0.22516745  1
  O  O16  1  0.75000000  0.83312740  0.50285535  1
  O  O17  1  0.75000000  0.49722076  0.33031974  1
  O  O18  1  0.75000000  0.66964947  0.16676449  1
  O  O19  1  0.25000000  0.16687260  0.49714465  1
  O  O20  1  0.25000000  0.50277924  0.66968026  1
  O  O21  1  0.25000000  0.33035053  0.83323551  1
  O  O22  1  0.75000000  0.11589104  0.51033970  1
  O  O23  1  0.75000000  0.48960730  0.60549934  1
  O  O24  1  0.75000000  0.39445973  0.88415497  1
  O  O25  1  0.25000000  0.88410896  0.48966030  1
  O  O26  1  0.25000000  0.51039270  0.39450066  1
  O  O27  1  0.25000000  0.60554027  0.11584503  1
  O  O28  1  0.56145619  0.08949558  0.73490443  1
  O  O29  1  0.56149308  0.26509560  0.35462557  1
  O  O30  1  0.56147439  0.64540607  0.91043436  1
  O  O31  1  0.06145619  0.91050442  0.26509557  1
  O  O32  1  0.06149308  0.73490440  0.64537443  1
  O  O33  1  0.06147439  0.35459393  0.08956564  1
  O  O34  1  0.43854381  0.91050442  0.26509557  1
  O  O35  1  0.43850692  0.73490440  0.64537443  1
  O  O36  1  0.43852561  0.35459393  0.08956564  1
  O  O37  1  0.93854381  0.08949558  0.73490443  1
  O  O38  1  0.93850692  0.26509560  0.35462557  1
  O  O39  1  0.93852561  0.64540607  0.91043436  1
  F  F40  1  0.50000000  -0.00000000  0.00000000  1
  F  F41  1  0.00000000  -0.00000000  0.00000000  1
