# generated using pymatgen
data_ZrMnSi2
_symmetry_space_group_name_H-M   'P 1'
_cell_length_a   7.89407253
_cell_length_b   9.05190428
_cell_length_c   9.86220603
_cell_angle_alpha   90.00000000
_cell_angle_beta   90.00000000
_cell_angle_gamma   90.00000000
_symmetry_Int_Tables_number   1
_chemical_formula_structural   ZrMnSi2
_chemical_formula_sum   'Zr12 Mn12 Si24'
_cell_volume   704.71762970
_cell_formula_units_Z   12
loop_
 _symmetry_equiv_pos_site_id
 _symmetry_equiv_pos_as_xyz
  1  'x, y, z'
loop_
 _atom_site_type_symbol
 _atom_site_label
 _atom_site_symmetry_multiplicity
 _atom_site_fract_x
 _atom_site_fract_y
 _atom_site_fract_z
 _atom_site_occupancy
  Zr  Zr0  1  0.74588727  0.82560174  0.04843901  1
  Zr  Zr1  1  0.74588727  0.17439826  0.95156099  1
  Zr  Zr2  1  0.25411273  0.67439826  0.54843901  1
  Zr  Zr3  1  0.25411273  0.32560174  0.45156099  1
  Zr  Zr4  1  0.25411273  0.17439826  0.95156099  1
  Zr  Zr5  1  0.25411273  0.82560174  0.04843901  1
  Zr  Zr6  1  0.74588727  0.32560174  0.45156099  1
  Zr  Zr7  1  0.74588727  0.67439826  0.54843901  1
  Zr  Zr8  1  0.50000000  0.83119003  0.32129202  1
  Zr  Zr9  1  0.50000000  0.16880997  0.67870798  1
  Zr  Zr10  1  0.50000000  0.66880997  0.82129202  1
  Zr  Zr11  1  0.50000000  0.33119003  0.17870798  1
  Mn  Mn12  1  0.74991714  0.58401984  0.25146135  1
  Mn  Mn13  1  0.74991714  0.41598016  0.74853865  1
  Mn  Mn14  1  0.25008286  0.91598016  0.75146135  1
  Mn  Mn15  1  0.25008286  0.08401984  0.24853865  1
  Mn  Mn16  1  0.25008286  0.41598016  0.74853865  1
  Mn  Mn17  1  0.25008286  0.58401984  0.25146135  1
  Mn  Mn18  1  0.74991714  0.08401984  0.24853865  1
  Mn  Mn19  1  0.74991714  0.91598016  0.75146135  1
  Mn  Mn20  1  0.74702434  -0.00000000  0.50000000  1
  Mn  Mn21  1  0.25297566  0.50000000  -0.00000000  1
  Mn  Mn22  1  0.25297566  -0.00000000  0.50000000  1
  Mn  Mn23  1  0.74702434  0.50000000  -0.00000000  1
  Si  Si24  1  0.85026023  0.83487237  0.31910595  1
  Si  Si25  1  0.85026023  0.16512763  0.68089405  1
  Si  Si26  1  0.14973977  0.66512763  0.81910595  1
  Si  Si27  1  0.14973977  0.33487237  0.18089405  1
  Si  Si28  1  0.14973977  0.16512763  0.68089405  1
  Si  Si29  1  0.14973977  0.83487237  0.31910595  1
  Si  Si30  1  0.85026023  0.33487237  0.18089405  1
  Si  Si31  1  0.85026023  0.66512763  0.81910595  1
  Si  Si32  1  0.50000000  0.53872261  0.37962248  1
  Si  Si33  1  0.50000000  0.46127739  0.62037752  1
  Si  Si34  1  0.50000000  0.96127739  0.87962248  1
  Si  Si35  1  0.50000000  0.03872261  0.12037752  1
  Si  Si36  1  -0.00000000  0.53956507  0.37419430  1
  Si  Si37  1  -0.00000000  0.46043493  0.62580570  1
  Si  Si38  1  -0.00000000  0.96043493  0.87419430  1
  Si  Si39  1  -0.00000000  0.03956507  0.12580570  1
  Si  Si40  1  0.50000000  0.62206417  0.10637593  1
  Si  Si41  1  0.50000000  0.37793583  0.89362407  1
  Si  Si42  1  0.50000000  0.87793583  0.60637593  1
  Si  Si43  1  0.50000000  0.12206417  0.39362407  1
  Si  Si44  1  -0.00000000  0.60889318  0.10281347  1
  Si  Si45  1  -0.00000000  0.39110682  0.89718653  1
  Si  Si46  1  -0.00000000  0.89110682  0.60281347  1
  Si  Si47  1  -0.00000000  0.10889318  0.39718653  1
