# generated using pymatgen
data_LiPH4CO3
_symmetry_space_group_name_H-M   'P 1'
_cell_length_a   4.68585612
_cell_length_b   9.40819925
_cell_length_c   9.62248517
_cell_angle_alpha   96.23819638
_cell_angle_beta   90.00000000
_cell_angle_gamma   90.00000000
_symmetry_Int_Tables_number   1
_chemical_formula_structural   LiPH4CO3
_chemical_formula_sum   'Li4 P4 H16 C4 O12'
_cell_volume   421.69989643
_cell_formula_units_Z   4
loop_
 _symmetry_equiv_pos_site_id
 _symmetry_equiv_pos_as_xyz
  1  'x, y, z'
loop_
 _atom_site_type_symbol
 _atom_site_label
 _atom_site_symmetry_multiplicity
 _atom_site_fract_x
 _atom_site_fract_y
 _atom_site_fract_z
 _atom_site_occupancy
  Li  Li0  1  0.60110066  0.49133984  0.86049201  1
  Li  Li1  1  0.10110066  0.50866016  0.63950799  1
  Li  Li2  1  0.39889934  0.50866016  0.13950799  1
  Li  Li3  1  0.89889934  0.49133984  0.36049201  1
  P  P4  1  0.60125596  0.29802362  0.57723813  1
  P  P5  1  0.10125596  0.70197638  0.92276187  1
  P  P6  1  0.39874404  0.70197638  0.42276187  1
  P  P7  1  0.89874404  0.29802362  0.07723813  1
  H  H8  1  0.17990623  0.27593682  0.47561154  1
  H  H9  1  0.67990623  0.72406318  0.02438846  1
  H  H10  1  0.82009377  0.72406318  0.52438846  1
  H  H11  1  0.32009377  0.27593682  0.97561154  1
  H  H12  1  0.51854820  0.09491226  0.70308637  1
  H  H13  1  0.01854820  0.90508774  0.79691363  1
  H  H14  1  0.48145180  0.90508774  0.29691363  1
  H  H15  1  0.98145180  0.09491226  0.20308637  1
  H  H16  1  0.86794414  0.16667761  0.73429602  1
  H  H17  1  0.36794414  0.83332239  0.76570398  1
  H  H18  1  0.13205586  0.83332239  0.26570398  1
  H  H19  1  0.63205586  0.16667761  0.23429602  1
  H  H20  1  0.78808613  0.05920323  0.57329304  1
  H  H21  1  0.28808613  0.94079677  0.92670696  1
  H  H22  1  0.21191387  0.94079677  0.42670696  1
  H  H23  1  0.71191387  0.05920323  0.07329304  1
  C  C24  1  0.70418840  0.13984446  0.65425172  1
  C  C25  1  0.20418840  0.86015554  0.84574828  1
  C  C26  1  0.29581160  0.86015554  0.34574828  1
  C  C27  1  0.79581160  0.13984446  0.15425172  1
  O  O28  1  0.38322963  0.24485965  0.45466474  1
  O  O29  1  0.88322963  0.75514035  0.04533526  1
  O  O30  1  0.61677037  0.75514035  0.54533526  1
  O  O31  1  0.11677037  0.24485965  0.95466474  1
  O  O32  1  0.86979002  0.35728161  0.51157362  1
  O  O33  1  0.36979002  0.64271839  0.98842638  1
  O  O34  1  0.13020998  0.64271839  0.48842638  1
  O  O35  1  0.63020998  0.35728161  0.01157362  1
  O  O36  1  0.45185283  0.40542002  0.68337158  1
  O  O37  1  0.95185283  0.59457998  0.81662842  1
  O  O38  1  0.54814717  0.59457998  0.31662842  1
  O  O39  1  0.04814717  0.40542002  0.18337158  1
