# generated using pymatgen
data_Sr7Ge6
_symmetry_space_group_name_H-M   'P 1'
_cell_length_a   7.83861436
_cell_length_b   8.61246681
_cell_length_c   23.75179664
_cell_angle_alpha   90.00000000
_cell_angle_beta   90.00000000
_cell_angle_gamma   90.00000000
_symmetry_Int_Tables_number   1
_chemical_formula_structural   Sr7Ge6
_chemical_formula_sum   'Sr28 Ge24'
_cell_volume   1603.47918360
_cell_formula_units_Z   4
loop_
 _symmetry_equiv_pos_site_id
 _symmetry_equiv_pos_as_xyz
  1  'x, y, z'
loop_
 _atom_site_type_symbol
 _atom_site_label
 _atom_site_symmetry_multiplicity
 _atom_site_fract_x
 _atom_site_fract_y
 _atom_site_fract_z
 _atom_site_occupancy
  Sr  Sr0  1  0.47121702  0.68027007  0.33769918  1
  Sr  Sr1  1  0.97121702  0.81972993  0.16230082  1
  Sr  Sr2  1  0.52878298  0.31972993  0.83769918  1
  Sr  Sr3  1  0.02878298  0.18027007  0.66230082  1
  Sr  Sr4  1  0.52878298  0.31972993  0.66230082  1
  Sr  Sr5  1  0.02878298  0.18027007  0.83769918  1
  Sr  Sr6  1  0.47121702  0.68027007  0.16230082  1
  Sr  Sr7  1  0.97121702  0.81972993  0.33769918  1
  Sr  Sr8  1  0.36504925  0.81731374  0.85995859  1
  Sr  Sr9  1  0.86504925  0.68268626  0.64004141  1
  Sr  Sr10  1  0.63495075  0.18268626  0.35995859  1
  Sr  Sr11  1  0.13495075  0.31731374  0.14004141  1
  Sr  Sr12  1  0.63495075  0.18268626  0.14004141  1
  Sr  Sr13  1  0.13495075  0.31731374  0.35995859  1
  Sr  Sr14  1  0.36504925  0.81731374  0.64004141  1
  Sr  Sr15  1  0.86504925  0.68268626  0.85995859  1
  Sr  Sr16  1  0.16175164  0.67804869  0.48172610  1
  Sr  Sr17  1  0.66175164  0.82195131  0.01827390  1
  Sr  Sr18  1  0.83824836  0.32195131  0.98172610  1
  Sr  Sr19  1  0.33824836  0.17804869  0.51827390  1
  Sr  Sr20  1  0.83824836  0.32195131  0.51827390  1
  Sr  Sr21  1  0.33824836  0.17804869  0.98172610  1
  Sr  Sr22  1  0.16175164  0.67804869  0.01827390  1
  Sr  Sr23  1  0.66175164  0.82195131  0.48172610  1
  Sr  Sr24  1  0.19881833  0.52812735  0.75000000  1
  Sr  Sr25  1  0.69881833  0.97187265  0.75000000  1
  Sr  Sr26  1  0.80118167  0.47187265  0.25000000  1
  Sr  Sr27  1  0.30118167  0.02812735  0.25000000  1
  Ge  Ge28  1  0.49641451  0.53762080  0.94761770  1
  Ge  Ge29  1  0.99641451  0.96237920  0.55238230  1
  Ge  Ge30  1  0.50358549  0.46237920  0.44761770  1
  Ge  Ge31  1  0.00358549  0.03762080  0.05238230  1
  Ge  Ge32  1  0.50358549  0.46237920  0.05238230  1
  Ge  Ge33  1  0.00358549  0.03762080  0.44761770  1
  Ge  Ge34  1  0.49641451  0.53762080  0.55238230  1
  Ge  Ge35  1  0.99641451  0.96237920  0.94761770  1
  Ge  Ge36  1  0.30157079  0.97207128  0.40324389  1
  Ge  Ge37  1  0.80157079  0.52792872  0.09675611  1
  Ge  Ge38  1  0.69842921  0.02792872  0.90324389  1
  Ge  Ge39  1  0.19842921  0.47207128  0.59675611  1
  Ge  Ge40  1  0.69842921  0.02792872  0.59675611  1
  Ge  Ge41  1  0.19842921  0.47207128  0.90324389  1
  Ge  Ge42  1  0.30157079  0.97207128  0.09675611  1
  Ge  Ge43  1  0.80157079  0.52792872  0.40324389  1
  Ge  Ge44  1  0.32342552  0.09163481  0.75000000  1
  Ge  Ge45  1  0.82342552  0.40836519  0.75000000  1
  Ge  Ge46  1  0.67657448  0.90836519  0.25000000  1
  Ge  Ge47  1  0.17657448  0.59163481  0.25000000  1
  Ge  Ge48  1  0.09358490  0.88221619  0.75000000  1
  Ge  Ge49  1  0.59358490  0.61778381  0.75000000  1
  Ge  Ge50  1  0.90641510  0.11778381  0.25000000  1
  Ge  Ge51  1  0.40641510  0.38221619  0.25000000  1
