# generated using pymatgen
data_Cu3TePbO7
_symmetry_space_group_name_H-M   'P 1'
_cell_length_a   6.42067647
_cell_length_b   8.89775397
_cell_length_c   10.66654347
_cell_angle_alpha   90.00000000
_cell_angle_beta   90.00000000
_cell_angle_gamma   90.00000000
_symmetry_Int_Tables_number   1
_chemical_formula_structural   Cu3TePbO7
_chemical_formula_sum   'Cu12 Te4 Pb4 O28'
_cell_volume   609.37535703
_cell_formula_units_Z   4
loop_
 _symmetry_equiv_pos_site_id
 _symmetry_equiv_pos_as_xyz
  1  'x, y, z'
loop_
 _atom_site_type_symbol
 _atom_site_label
 _atom_site_symmetry_multiplicity
 _atom_site_fract_x
 _atom_site_fract_y
 _atom_site_fract_z
 _atom_site_occupancy
  Cu  Cu0  1  0.00907953  0.87607556  0.88821841  1
  Cu  Cu1  1  0.49092047  0.62392444  0.38821841  1
  Cu  Cu2  1  0.50907953  0.12392444  0.11178159  1
  Cu  Cu3  1  0.99092047  0.37607556  0.61178159  1
  Cu  Cu4  1  0.99092047  0.12392444  0.11178159  1
  Cu  Cu5  1  0.50907953  0.37607556  0.61178159  1
  Cu  Cu6  1  0.49092047  0.87607556  0.88821841  1
  Cu  Cu7  1  0.00907953  0.62392444  0.38821841  1
  Cu  Cu8  1  0.25000000  0.59475494  0.74707613  1
  Cu  Cu9  1  0.25000000  0.90524506  0.24707613  1
  Cu  Cu10  1  0.75000000  0.40524506  0.25292387  1
  Cu  Cu11  1  0.75000000  0.09475494  0.75292387  1
  Te  Te12  1  0.25000000  0.20238649  0.88530040  1
  Te  Te13  1  0.25000000  0.29761351  0.38530040  1
  Te  Te14  1  0.75000000  0.79761351  0.11469960  1
  Te  Te15  1  0.75000000  0.70238649  0.61469960  1
  Pb  Pb16  1  0.25000000  0.95461308  0.60716542  1
  Pb  Pb17  1  0.25000000  0.54538692  0.10716542  1
  Pb  Pb18  1  0.75000000  0.04538692  0.39283458  1
  Pb  Pb19  1  0.75000000  0.45461308  0.89283458  1
  O  O20  1  0.25000000  0.36076968  0.76466678  1
  O  O21  1  0.25000000  0.13923032  0.26466678  1
  O  O22  1  0.75000000  0.63923032  0.23533322  1
  O  O23  1  0.75000000  0.86076968  0.73533322  1
  O  O24  1  0.25000000  0.79842544  0.79752514  1
  O  O25  1  0.25000000  0.70157456  0.29752514  1
  O  O26  1  0.75000000  0.20157456  0.20247486  1
  O  O27  1  0.75000000  0.29842544  0.70247486  1
  O  O28  1  0.25000000  0.04507525  0.01880890  1
  O  O29  1  0.25000000  0.45492475  0.51880890  1
  O  O30  1  0.75000000  0.95492475  0.98119110  1
  O  O31  1  0.75000000  0.54507525  0.48119110  1
  O  O32  1  0.95558167  0.57284933  0.70936935  1
  O  O33  1  0.54441833  0.92715067  0.20936935  1
  O  O34  1  0.45558167  0.42715067  0.29063065  1
  O  O35  1  0.04441833  0.07284933  0.79063065  1
  O  O36  1  0.04441833  0.42715067  0.29063065  1
  O  O37  1  0.45558167  0.07284933  0.79063065  1
  O  O38  1  0.54441833  0.57284933  0.70936935  1
  O  O39  1  0.95558167  0.92715067  0.20936935  1
  O  O40  1  0.97268303  0.71034207  0.01244507  1
  O  O41  1  0.52731697  0.78965793  0.51244507  1
  O  O42  1  0.47268303  0.28965793  0.98755493  1
  O  O43  1  0.02731697  0.21034207  0.48755493  1
  O  O44  1  0.02731697  0.28965793  0.98755493  1
  O  O45  1  0.47268303  0.21034207  0.48755493  1
  O  O46  1  0.52731697  0.71034207  0.01244507  1
  O  O47  1  0.97268303  0.78965793  0.51244507  1
