# generated using pymatgen
data_RbNaMg30O31
_symmetry_space_group_name_H-M   'P 1'
_cell_length_a   8.64979412
_cell_length_b   8.61758564
_cell_length_c   8.70286423
_cell_angle_alpha   90.00000000
_cell_angle_beta   90.00000000
_cell_angle_gamma   90.00000000
_symmetry_Int_Tables_number   1
_chemical_formula_structural   RbNaMg30O31
_chemical_formula_sum   'Rb1 Na1 Mg30 O31'
_cell_volume   648.71447258
_cell_formula_units_Z   1
loop_
 _symmetry_equiv_pos_site_id
 _symmetry_equiv_pos_as_xyz
  1  'x, y, z'
loop_
 _atom_site_type_symbol
 _atom_site_label
 _atom_site_symmetry_multiplicity
 _atom_site_fract_x
 _atom_site_fract_y
 _atom_site_fract_z
 _atom_site_occupancy
  Rb  Rb0  1  0.99104526  0.50000000  0.50000000  1
  Na  Na1  1  0.99671101  0.00000000  0.00000000  1
  Mg  Mg2  1  0.97852451  0.00000000  0.50000000  1
  Mg  Mg3  1  0.99850229  0.50000000  0.00000000  1
  Mg  Mg4  1  0.50077675  0.00000000  0.00000000  1
  Mg  Mg5  1  0.51918979  0.00000000  0.50000000  1
  Mg  Mg6  1  0.50103832  0.50000000  0.00000000  1
  Mg  Mg7  1  0.49733249  0.50000000  0.50000000  1
  Mg  Mg8  1  0.00277348  0.24609879  0.24461934  1
  Mg  Mg9  1  0.00277348  0.24609879  0.75538066  1
  Mg  Mg10  1  0.00277348  0.75390121  0.24461934  1
  Mg  Mg11  1  0.00277348  0.75390121  0.75538066  1
  Mg  Mg12  1  0.49838748  0.24917580  0.24877400  1
  Mg  Mg13  1  0.49838748  0.24917580  0.75122600  1
  Mg  Mg14  1  0.49838748  0.75082420  0.24877400  1
  Mg  Mg15  1  0.49838748  0.75082420  0.75122600  1
  Mg  Mg16  1  0.24484985  0.00000000  0.22624378  1
  Mg  Mg17  1  0.24484985  0.00000000  0.77375622  1
  Mg  Mg18  1  0.25090951  0.50000000  0.24171401  1
  Mg  Mg19  1  0.25090951  0.50000000  0.75828599  1
  Mg  Mg20  1  0.75377931  0.00000000  0.24475466  1
  Mg  Mg21  1  0.75377931  0.00000000  0.75524534  1
  Mg  Mg22  1  0.74731793  0.50000000  0.24451288  1
  Mg  Mg23  1  0.74731793  0.50000000  0.75548712  1
  Mg  Mg24  1  0.24883969  0.25291768  0.00000000  1
  Mg  Mg25  1  0.25164996  0.27040344  0.50000000  1
  Mg  Mg26  1  0.24883969  0.74708232  0.00000000  1
  Mg  Mg27  1  0.25164996  0.72959656  0.50000000  1
  Mg  Mg28  1  0.75239200  0.24983760  0.00000000  1
  Mg  Mg29  1  0.74254467  0.25107458  0.50000000  1
  Mg  Mg30  1  0.75239200  0.75016240  0.00000000  1
  Mg  Mg31  1  0.74254467  0.74892542  0.50000000  1
  O  O32  1  0.26485147  0.00000000  0.00000000  1
  O  O33  1  0.25940727  0.50000000  0.00000000  1
  O  O34  1  0.27582641  0.50000000  0.50000000  1
  O  O35  1  0.73458486  0.00000000  0.00000000  1
  O  O36  1  0.74707543  0.00000000  0.50000000  1
  O  O37  1  0.74226439  0.50000000  0.00000000  1
  O  O38  1  0.71564182  0.50000000  0.50000000  1
  O  O39  1  0.25191677  0.24601788  0.25222393  1
  O  O40  1  0.25191677  0.24601788  0.74777607  1
  O  O41  1  0.25191677  0.75398212  0.25222393  1
  O  O42  1  0.25191677  0.75398212  0.74777607  1
  O  O43  1  0.75051107  0.24900713  0.25440902  1
  O  O44  1  0.75051107  0.24900713  0.74559098  1
  O  O45  1  0.75051107  0.75099287  0.25440902  1
  O  O46  1  0.75051107  0.75099287  0.74559098  1
  O  O47  1  0.00414875  0.00000000  0.26015349  1
  O  O48  1  0.00414875  0.00000000  0.73984651  1
  O  O49  1  0.00356842  0.50000000  0.22281193  1
  O  O50  1  0.00356842  0.50000000  0.77718807  1
  O  O51  1  0.49261709  0.00000000  0.25804815  1
  O  O52  1  0.49261709  0.00000000  0.74195185  1
  O  O53  1  0.49810717  0.50000000  0.24644791  1
  O  O54  1  0.49810717  0.50000000  0.75355209  1
  O  O55  1  0.00117283  0.25767561  0.00000000  1
  O  O56  1  0.02274943  0.21794439  0.50000000  1
  O  O57  1  0.00117283  0.74232439  0.00000000  1
  O  O58  1  0.02274943  0.78205561  0.50000000  1
  O  O59  1  0.50037341  0.24910640  0.00000000  1
  O  O60  1  0.49141638  0.23784178  0.50000000  1
  O  O61  1  0.50037341  0.75089360  0.00000000  1
  O  O62  1  0.49141638  0.76215822  0.50000000  1
