# generated using pymatgen
data_Nd2Mo4O15
_symmetry_space_group_name_H-M   'P 1'
_cell_length_a   7.52642633
_cell_length_b   7.63798239
_cell_length_c   11.90455445
_cell_angle_alpha   88.84311200
_cell_angle_beta   84.07278480
_cell_angle_gamma   84.04211141
_symmetry_Int_Tables_number   1
_chemical_formula_structural   Nd2Mo4O15
_chemical_formula_sum   'Nd4 Mo8 O30'
_cell_volume   676.98721733
_cell_formula_units_Z   2
loop_
 _symmetry_equiv_pos_site_id
 _symmetry_equiv_pos_as_xyz
  1  'x, y, z'
loop_
 _atom_site_type_symbol
 _atom_site_label
 _atom_site_symmetry_multiplicity
 _atom_site_fract_x
 _atom_site_fract_y
 _atom_site_fract_z
 _atom_site_occupancy
  Nd  Nd0  1  0.75290819  0.58597415  0.77692638  1
  Nd  Nd1  1  0.24709181  0.41402585  0.22307362  1
  Nd  Nd2  1  0.31946545  0.91063444  0.77615351  1
  Nd  Nd3  1  0.68053455  0.08936556  0.22384649  1
  Mo  Mo4  1  0.56095133  0.74715240  0.47173818  1
  Mo  Mo5  1  0.43904867  0.25284760  0.52826182  1
  Mo  Mo6  1  0.27183876  0.43007896  0.87178177  1
  Mo  Mo7  1  0.72816124  0.56992104  0.12821823  1
  Mo  Mo8  1  0.77183637  0.07082858  0.87066559  1
  Mo  Mo9  1  0.22816363  0.92917142  0.12933441  1
  Mo  Mo10  1  0.90417082  0.33015145  0.47078943  1
  Mo  Mo11  1  0.09582918  0.66984855  0.52921057  1
  O  O12  1  0.91610585  0.52640728  0.59684903  1
  O  O13  1  0.08389415  0.47359272  0.40315097  1
  O  O14  1  0.33195173  0.70803554  0.44112232  1
  O  O15  1  0.66804827  0.29196446  0.55887768  1
  O  O16  1  0.42626226  0.59294010  0.81936100  1
  O  O17  1  0.57373774  0.40705990  0.18063900  1
  O  O18  1  0.64575038  0.90472585  0.81306602  1
  O  O19  1  0.35424962  0.09527415  0.18693398  1
  O  O20  1  0.70401268  0.56967456  0.40981770  1
  O  O21  1  0.29598732  0.43032544  0.59018230  1
  O  O22  1  0.13649604  0.77306030  0.65607796  1
  O  O23  1  0.86350396  0.22693970  0.34392204  1
  O  O24  1  0.29457120  0.90345543  0.98241804  1
  O  O25  1  0.70542880  0.09654457  0.01758196  1
  O  O26  1  0.03273830  0.16998571  0.53820634  1
  O  O27  1  0.96726170  0.83001429  0.46179366  1
  O  O28  1  0.57806475  0.73480991  0.62117603  1
  O  O29  1  0.42193525  0.26519009  0.37882397  1
  O  O30  1  0.00324338  0.99181342  0.84725173  1
  O  O31  1  0.99675662  0.00818658  0.15274827  1
  O  O32  1  0.72551261  0.59186010  0.97939630  1
  O  O33  1  0.27448739  0.40813990  0.02060370  1
  O  O34  1  0.73707787  0.28283069  0.80433135  1
  O  O35  1  0.26292213  0.71716931  0.19566865  1
  O  O36  1  0.33473826  0.21540718  0.81463435  1
  O  O37  1  0.66526174  0.78459282  0.18536565  1
  O  O38  1  0.05228405  0.51311470  0.84078755  1
  O  O39  1  0.94771595  0.48688530  0.15921245  1
  O  O40  1  0.62035310  0.94711431  0.40390729  1
  O  O41  1  0.37964690  0.05288569  0.59609271  1
