# generated using pymatgen
data_Pr6Fe13Sn
_symmetry_space_group_name_H-M   'P 1'
_cell_length_a   8.07564961
_cell_length_b   8.07564961
_cell_length_c   13.17316701
_cell_angle_alpha   107.84956860
_cell_angle_beta   107.84956860
_cell_angle_gamma   90.00000000
_symmetry_Int_Tables_number   1
_chemical_formula_structural   Pr6Fe13Sn
_chemical_formula_sum   'Pr12 Fe26 Sn2'
_cell_volume   774.19049068
_cell_formula_units_Z   2
loop_
 _symmetry_equiv_pos_site_id
 _symmetry_equiv_pos_as_xyz
  1  'x, y, z'
loop_
 _atom_site_type_symbol
 _atom_site_label
 _atom_site_symmetry_multiplicity
 _atom_site_fract_x
 _atom_site_fract_y
 _atom_site_fract_z
 _atom_site_occupancy
  Pr  Pr0  1  0.60440566  0.60440566  0.20881132  1
  Pr  Pr1  1  0.10440566  0.10440566  0.20881132  1
  Pr  Pr2  1  0.39559434  0.39559434  0.79118868  1
  Pr  Pr3  1  0.89559434  0.89559434  0.79118868  1
  Pr  Pr4  1  0.97848388  0.47848388  0.63007453  1
  Pr  Pr5  1  0.65159065  0.15159065  0.63007453  1
  Pr  Pr6  1  0.15159065  0.97848388  0.63007453  1
  Pr  Pr7  1  0.47848388  0.65159065  0.63007453  1
  Pr  Pr8  1  0.02151612  0.52151612  0.36992547  1
  Pr  Pr9  1  0.34840935  0.84840935  0.36992547  1
  Pr  Pr10  1  0.84840935  0.02151612  0.36992547  1
  Pr  Pr11  1  0.52151612  0.34840935  0.36992547  1
  Fe  Fe12  1  0.00000000  0.50000000  0.00000000  1
  Fe  Fe13  1  0.50000000  -0.00000000  0.00000000  1
  Fe  Fe14  1  0.71019219  0.56669208  -0.00000000  1
  Fe  Fe15  1  0.28980781  0.43330792  0.00000000  1
  Fe  Fe16  1  0.78980781  0.06669208  0.00000000  1
  Fe  Fe17  1  0.21019219  0.93330792  -0.00000000  1
  Fe  Fe18  1  0.56669208  0.28980781  -0.00000000  1
  Fe  Fe19  1  0.43330792  0.71019219  0.00000000  1
  Fe  Fe20  1  0.06669208  0.21019219  -0.00000000  1
  Fe  Fe21  1  0.93330792  0.78980781  0.00000000  1
  Fe  Fe22  1  0.12079238  0.62079238  0.88435748  1
  Fe  Fe23  1  0.76356510  0.26356510  0.88435748  1
  Fe  Fe24  1  0.26356510  0.12079238  0.88435748  1
  Fe  Fe25  1  0.62079238  0.76356510  0.88435748  1
  Fe  Fe26  1  0.87920762  0.37920762  0.11564252  1
  Fe  Fe27  1  0.23643490  0.73643490  0.11564252  1
  Fe  Fe28  1  0.73643490  0.87920762  0.11564252  1
  Fe  Fe29  1  0.37920762  0.23643490  0.11564252  1
  Fe  Fe30  1  0.29509844  0.79509844  0.81532755  1
  Fe  Fe31  1  0.52022911  0.02022911  0.81532755  1
  Fe  Fe32  1  0.02022911  0.29509844  0.81532755  1
  Fe  Fe33  1  0.79509844  0.52022911  0.81532755  1
  Fe  Fe34  1  0.70490156  0.20490156  0.18467245  1
  Fe  Fe35  1  0.47977089  0.97977089  0.18467245  1
  Fe  Fe36  1  0.97977089  0.70490156  0.18467245  1
  Fe  Fe37  1  0.20490156  0.47977089  0.18467245  1
  Sn  Sn38  1  0.25000000  0.25000000  0.50000000  1
  Sn  Sn39  1  0.75000000  0.75000000  0.50000000  1
