# generated using pymatgen
data_FeH14SO11
_symmetry_space_group_name_H-M   'P 1'
_cell_length_a   6.56176971
_cell_length_b   11.16844598
_cell_length_c   14.15621758
_cell_angle_alpha   106.13658936
_cell_angle_beta   90.00000000
_cell_angle_gamma   90.00000000
_symmetry_Int_Tables_number   1
_chemical_formula_structural   FeH14SO11
_chemical_formula_sum   'Fe4 H56 S4 O44'
_cell_volume   996.56214561
_cell_formula_units_Z   4
loop_
 _symmetry_equiv_pos_site_id
 _symmetry_equiv_pos_as_xyz
  1  'x, y, z'
loop_
 _atom_site_type_symbol
 _atom_site_label
 _atom_site_symmetry_multiplicity
 _atom_site_fract_x
 _atom_site_fract_y
 _atom_site_fract_z
 _atom_site_occupancy
  Fe  Fe0  1  0.50000000  0.50000000  -0.00000000  1
  Fe  Fe1  1  -0.00000000  0.00000000  -0.00000000  1
  Fe  Fe2  1  -0.00000000  0.50000000  0.50000000  1
  Fe  Fe3  1  0.50000000  0.00000000  0.50000000  1
  H  H4  1  0.24486471  0.95937967  0.14828704  1
  H  H5  1  0.74486471  0.54062033  0.85171296  1
  H  H6  1  0.75513529  0.04062033  0.85171296  1
  H  H7  1  0.25513529  0.45937967  0.14828704  1
  H  H8  1  0.07004980  0.85209226  0.12474815  1
  H  H9  1  0.57004980  0.64790774  0.87525185  1
  H  H10  1  0.92995020  0.14790774  0.87525185  1
  H  H11  1  0.42995020  0.35209226  0.12474815  1
  H  H12  1  0.68639677  0.70046451  0.12278718  1
  H  H13  1  0.18639677  0.79953549  0.87721282  1
  H  H14  1  0.31360323  0.29953549  0.87721282  1
  H  H15  1  0.81360323  0.20046451  0.12278718  1
  H  H16  1  0.45128260  0.70039148  0.15839061  1
  H  H17  1  0.95128260  0.79960852  0.84160939  1
  H  H18  1  0.54871740  0.29960852  0.84160939  1
  H  H19  1  0.04871740  0.20039148  0.15839061  1
  H  H20  1  0.62560834  0.96749559  0.09073908  1
  H  H21  1  0.12560834  0.53250441  0.90926092  1
  H  H22  1  0.37439166  0.03250441  0.90926092  1
  H  H23  1  0.87439166  0.46749559  0.09073908  1
  H  H24  1  0.61298150  0.88376778  0.97933487  1
  H  H25  1  0.11298150  0.61623222  0.02066513  1
  H  H26  1  0.38701850  0.11623222  0.02066513  1
  H  H27  1  0.88701850  0.38376778  0.97933487  1
  H  H28  1  0.98145889  0.69938945  0.42212218  1
  H  H29  1  0.48145889  0.80061055  0.57787782  1
  H  H30  1  0.01854111  0.30061055  0.57787782  1
  H  H31  1  0.51854111  0.19938945  0.42212218  1
  H  H32  1  0.02803779  0.75767672  0.53599214  1
  H  H33  1  0.52803779  0.74232328  0.46400786  1
  H  H34  1  0.97196221  0.24232328  0.46400786  1
  H  H35  1  0.47196221  0.25767672  0.53599214  1
  H  H36  1  0.22343355  0.86861675  0.37424962  1
  H  H37  1  0.72343355  0.63138325  0.62575038  1
  H  H38  1  0.77656645  0.13138325  0.62575038  1
  H  H39  1  0.27656645  0.36861675  0.37424962  1
  H  H40  1  0.14239741  0.00886127  0.40893268  1
  H  H41  1  0.64239741  0.49113873  0.59106732  1
  H  H42  1  0.85760259  0.99113873  0.59106732  1
  H  H43  1  0.35760259  0.50886127  0.40893268  1
  H  H44  1  0.58113351  0.96251329  0.29689028  1
  H  H45  1  0.08113351  0.53748671  0.70310972  1
  H  H46  1  0.41886649  0.03748671  0.70310972  1
  H  H47  1  0.91886649  0.46251329  0.29689028  1
  H  H48  1  0.72496080  0.86357588  0.32972746  1
  H  H49  1  0.22496080  0.63642412  0.67027254  1
  H  H50  1  0.27503920  0.13642412  0.67027254  1
  H  H51  1  0.77503920  0.36357588  0.32972746  1
  H  H52  1  0.41391806  0.63910835  0.31488811  1
  H  H53  1  0.91391806  0.86089165  0.68511189  1
  H  H54  1  0.58608194  0.36089165  0.68511189  1
  H  H55  1  0.08608194  0.13910835  0.31488811  1
  H  H56  1  0.61422885  0.56835011  0.33967081  1
  H  H57  1  0.11422885  0.93164989  0.66032919  1
  H  H58  1  0.38577115  0.43164989  0.66032919  1
  H  H59  1  0.88577115  0.06835011  0.33967081  1
  S  S60  1  0.03087515  0.67507353  0.22706548  1
  S  S61  1  0.53087515  0.82492647  0.77293452  1
  S  S62  1  0.96912485  0.32492647  0.77293452  1
  S  S63  1  0.46912485  0.17507353  0.22706548  1
  O  O64  1  0.02763718  0.53510036  0.20367166  1
  O  O65  1  0.52763718  0.96489964  0.79632834  1
  O  O66  1  0.97236282  0.46489964  0.79632834  1
  O  O67  1  0.47236282  0.03510036  0.20367166  1
  O  O68  1  0.96630648  0.71165072  0.13740811  1
  O  O69  1  0.46630648  0.78834928  0.86259189  1
  O  O70  1  0.03369352  0.28834928  0.86259189  1
  O  O71  1  0.53369352  0.21165072  0.13740811  1
  O  O72  1  0.88828403  0.72818971  0.30956156  1
  O  O73  1  0.38828403  0.77181029  0.69043844  1
  O  O74  1  0.11171597  0.27181029  0.69043844  1
  O  O75  1  0.61171597  0.22818971  0.30956156  1
  O  O76  1  0.24301545  0.72221483  0.25481100  1
  O  O77  1  0.74301545  0.77778517  0.74518900  1
  O  O78  1  0.75698455  0.27778517  0.74518900  1
  O  O79  1  0.25698455  0.22221483  0.25481100  1
  O  O80  1  0.11217661  0.93348397  0.11610821  1
  O  O81  1  0.61217661  0.56651603  0.88389179  1
  O  O82  1  0.88782339  0.06651603  0.88389179  1
  O  O83  1  0.38782339  0.43348397  0.11610821  1
  O  O84  1  0.54373783  0.68060440  0.10148030  1
  O  O85  1  0.04373783  0.81939560  0.89851970  1
  O  O86  1  0.45626217  0.31939560  0.89851970  1
  O  O87  1  0.95626217  0.18060440  0.10148030  1
  O  O88  1  0.70463910  0.93420377  0.02978460  1
  O  O89  1  0.20463910  0.56579623  0.97021540  1
  O  O90  1  0.29536090  0.06579623  0.97021540  1
  O  O91  1  0.79536090  0.43420377  0.02978460  1
  O  O92  1  0.04228375  0.68073513  0.48030960  1
  O  O93  1  0.54228375  0.81926487  0.51969040  1
  O  O94  1  0.95771625  0.31926487  0.51969040  1
  O  O95  1  0.45771625  0.18073513  0.48030960  1
  O  O96  1  0.21756030  0.94274574  0.43083337  1
  O  O97  1  0.71756030  0.55725426  0.56916663  1
  O  O98  1  0.78243970  0.05725426  0.56916663  1
  O  O99  1  0.28243970  0.44274574  0.43083337  1
  O  O100  1  0.65695160  0.94581175  0.35232329  1
  O  O101  1  0.15695160  0.55418825  0.64767671  1
  O  O102  1  0.34304840  0.05418825  0.64767671  1
  O  O103  1  0.84304840  0.44581175  0.35232329  1
  O  O104  1  0.48727132  0.61082754  0.36606447  1
  O  O105  1  0.98727132  0.88917246  0.63393553  1
  O  O106  1  0.51272868  0.38917246  0.63393553  1
  O  O107  1  0.01272868  0.11082754  0.36606447  1
