# generated using pymatgen
data_MoH8(NO2)2
_symmetry_space_group_name_H-M   'P 1'
_cell_length_a   6.26146264
_cell_length_b   8.03743492
_cell_length_c   11.42244351
_cell_angle_alpha   90.00000000
_cell_angle_beta   97.68906797
_cell_angle_gamma   90.00000000
_symmetry_Int_Tables_number   1
_chemical_formula_structural   MoH8(NO2)2
_chemical_formula_sum   'Mo4 H32 N8 O16'
_cell_volume   569.67842106
_cell_formula_units_Z   4
loop_
 _symmetry_equiv_pos_site_id
 _symmetry_equiv_pos_as_xyz
  1  'x, y, z'
loop_
 _atom_site_type_symbol
 _atom_site_label
 _atom_site_symmetry_multiplicity
 _atom_site_fract_x
 _atom_site_fract_y
 _atom_site_fract_z
 _atom_site_occupancy
  Mo  Mo0  1  0.27692548  0.86547308  0.68337121  1
  Mo  Mo1  1  0.77692548  0.63452692  0.18337121  1
  Mo  Mo2  1  0.72307452  0.13452692  0.31662879  1
  Mo  Mo3  1  0.22307452  0.36547308  0.81662879  1
  H  H4  1  0.86177650  0.59675600  0.58234480  1
  H  H5  1  0.36177650  0.90324400  0.08234480  1
  H  H6  1  0.13822350  0.40324400  0.41765520  1
  H  H7  1  0.63822350  0.09675600  0.91765520  1
  H  H8  1  0.72228514  0.52689325  0.45589224  1
  H  H9  1  0.22228514  0.97310675  0.95589224  1
  H  H10  1  0.27771486  0.47310675  0.54410776  1
  H  H11  1  0.77771486  0.02689325  0.04410776  1
  H  H12  1  0.77986458  0.73346058  0.47037220  1
  H  H13  1  0.27986458  0.76653942  0.97037220  1
  H  H14  1  0.22013542  0.26653942  0.52962780  1
  H  H15  1  0.72013542  0.23346058  0.02962780  1
  H  H16  1  0.59653697  0.64990754  0.54888288  1
  H  H17  1  0.09653697  0.85009246  0.04888288  1
  H  H18  1  0.40346303  0.35009246  0.45111712  1
  H  H19  1  0.90346303  0.14990754  0.95111712  1
  H  H20  1  0.63164816  0.72673219  0.84302139  1
  H  H21  1  0.13164816  0.77326781  0.34302139  1
  H  H22  1  0.36835184  0.27326781  0.15697861  1
  H  H23  1  0.86835184  0.22673219  0.65697861  1
  H  H24  1  0.66128731  0.52224420  0.80649391  1
  H  H25  1  0.16128731  0.97775580  0.30649391  1
  H  H26  1  0.33871269  0.47775580  0.19350609  1
  H  H27  1  0.83871269  0.02224420  0.69350609  1
  H  H28  1  0.77143985  0.58821716  0.93964264  1
  H  H29  1  0.27143985  0.91178284  0.43964264  1
  H  H30  1  0.22856015  0.41178284  0.06035736  1
  H  H31  1  0.72856015  0.08821716  0.56035736  1
  H  H32  1  0.87538688  0.65863173  0.81820358  1
  H  H33  1  0.37538688  0.84136827  0.31820358  1
  H  H34  1  0.12461312  0.34136827  0.18179642  1
  H  H35  1  0.62461312  0.15863173  0.68179642  1
  N  N36  1  0.74194409  0.62677351  0.51466615  1
  N  N37  1  0.24194409  0.87322649  0.01466615  1
  N  N38  1  0.25805591  0.37322649  0.48533385  1
  N  N39  1  0.75805591  0.12677351  0.98533385  1
  N  N40  1  0.73664747  0.62348081  0.85181351  1
  N  N41  1  0.23664747  0.87651919  0.35181351  1
  N  N42  1  0.26335253  0.37651919  0.14818649  1
  N  N43  1  0.76335253  0.12348081  0.64818649  1
  O  O44  1  0.01576949  0.83705735  0.72932855  1
  O  O45  1  0.51576949  0.66294265  0.22932855  1
  O  O46  1  0.98423051  0.16294265  0.27067145  1
  O  O47  1  0.48423051  0.33705735  0.77067145  1
  O  O48  1  0.26806579  0.04102605  0.58591563  1
  O  O49  1  0.76806579  0.45897395  0.08591563  1
  O  O50  1  0.73193421  0.95897395  0.41408437  1
  O  O51  1  0.23193421  0.54102605  0.91408437  1
  O  O52  1  0.47919338  0.89891231  0.80938516  1
  O  O53  1  0.97919338  0.60108769  0.30938516  1
  O  O54  1  0.52080662  0.10108769  0.19061484  1
  O  O55  1  0.02080662  0.39891231  0.69061484  1
  O  O56  1  0.35147198  0.68668597  0.60135052  1
  O  O57  1  0.85147198  0.81331403  0.10135052  1
  O  O58  1  0.64852802  0.31331403  0.39864948  1
  O  O59  1  0.14852802  0.18668597  0.89864948  1
