# generated using pymatgen
data_Eu2CoSi3O10
_symmetry_space_group_name_H-M   'P 1'
_cell_length_a   6.65509119
_cell_length_b   6.81457918
_cell_length_c   17.25837211
_cell_angle_alpha   90.00000000
_cell_angle_beta   89.86914391
_cell_angle_gamma   90.00000000
_symmetry_Int_Tables_number   1
_chemical_formula_structural   Eu2CoSi3O10
_chemical_formula_sum   'Eu8 Co4 Si12 O40'
_cell_volume   782.69353842
_cell_formula_units_Z   4
loop_
 _symmetry_equiv_pos_site_id
 _symmetry_equiv_pos_as_xyz
  1  'x, y, z'
loop_
 _atom_site_type_symbol
 _atom_site_label
 _atom_site_symmetry_multiplicity
 _atom_site_fract_x
 _atom_site_fract_y
 _atom_site_fract_z
 _atom_site_occupancy
  Eu  Eu0  1  0.60336633  0.22709310  0.26028208  1
  Eu  Eu1  1  0.10336633  0.27290690  0.76028208  1
  Eu  Eu2  1  0.39663367  0.77290690  0.73971792  1
  Eu  Eu3  1  0.89663367  0.72709310  0.23971792  1
  Eu  Eu4  1  0.26851314  0.82078760  0.40964555  1
  Eu  Eu5  1  0.76851314  0.67921240  0.90964555  1
  Eu  Eu6  1  0.73148686  0.17921240  0.59035445  1
  Eu  Eu7  1  0.23148686  0.32078760  0.09035445  1
  Co  Co8  1  0.85025463  0.44592304  0.42282403  1
  Co  Co9  1  0.35025463  0.05407696  0.92282403  1
  Co  Co10  1  0.14974537  0.55407696  0.57717597  1
  Co  Co11  1  0.64974537  0.94592304  0.07717597  1
  Si  Si12  1  0.08346702  0.23213755  0.28864814  1
  Si  Si13  1  0.58346702  0.26786245  0.78864814  1
  Si  Si14  1  0.91653298  0.76786245  0.71135186  1
  Si  Si15  1  0.41653298  0.73213755  0.21135186  1
  Si  Si16  1  0.34137710  0.32295239  0.43093947  1
  Si  Si17  1  0.84137710  0.17704761  0.93093947  1
  Si  Si18  1  0.65862290  0.67704761  0.56906053  1
  Si  Si19  1  0.15862290  0.82295239  0.06906053  1
  Si  Si20  1  0.74607243  0.93083021  0.42201118  1
  Si  Si21  1  0.24607243  0.56916979  0.92201118  1
  Si  Si22  1  0.25392757  0.06916979  0.57798882  1
  Si  Si23  1  0.75392757  0.43083021  0.07798882  1
  O  O24  1  0.92110224  0.06427569  0.26794100  1
  O  O25  1  0.42110224  0.43572431  0.76794100  1
  O  O26  1  0.07889776  0.93572431  0.73205900  1
  O  O27  1  0.57889776  0.56427569  0.23205900  1
  O  O28  1  0.25614244  0.26174599  0.22325274  1
  O  O29  1  0.75614244  0.23825401  0.72325274  1
  O  O30  1  0.74385756  0.73825401  0.77674726  1
  O  O31  1  0.24385756  0.76174599  0.27674726  1
  O  O32  1  0.93898613  0.41893641  0.31175088  1
  O  O33  1  0.43898613  0.08106359  0.81175088  1
  O  O34  1  0.06101387  0.58106359  0.68824912  1
  O  O35  1  0.56101387  0.91893641  0.18824912  1
  O  O36  1  0.21527770  0.17760006  0.36934549  1
  O  O37  1  0.71527770  0.32239994  0.86934549  1
  O  O38  1  0.78472230  0.82239994  0.63065451  1
  O  O39  1  0.28472230  0.67760006  0.13065451  1
  O  O40  1  0.54270195  0.40999346  0.39129160  1
  O  O41  1  0.04270195  0.09000654  0.89129160  1
  O  O42  1  0.45729805  0.59000654  0.60870840  1
  O  O43  1  0.95729805  0.90999346  0.10870840  1
  O  O44  1  0.18520819  0.49397835  0.45967672  1
  O  O45  1  0.68520819  0.00602165  0.95967672  1
  O  O46  1  0.81479181  0.50602165  0.54032328  1
  O  O47  1  0.31479181  0.99397835  0.04032328  1
  O  O48  1  0.38876681  0.17733738  0.50535365  1
  O  O49  1  0.88876681  0.32266262  0.00535365  1
  O  O50  1  0.61123319  0.82266262  0.49464635  1
  O  O51  1  0.11123319  0.67733738  0.99464635  1
  O  O52  1  0.83647266  0.13476000  0.45805179  1
  O  O53  1  0.33647266  0.36524000  0.95805179  1
  O  O54  1  0.16352734  0.86524000  0.54194821  1
  O  O55  1  0.66352734  0.63476000  0.04194821  1
  O  O56  1  0.57182490  0.96476995  0.35763919  1
  O  O57  1  0.07182490  0.53523005  0.85763919  1
  O  O58  1  0.42817510  0.03523005  0.64236081  1
  O  O59  1  0.92817510  0.46476995  0.14236081  1
  O  O60  1  0.90813200  0.76638314  0.39222652  1
  O  O61  1  0.40813200  0.73361686  0.89222652  1
  O  O62  1  0.09186800  0.23361686  0.60777348  1
  O  O63  1  0.59186800  0.26638314  0.10777348  1
