# generated using pymatgen
data_Tm5(Ge5Os2)2
_symmetry_space_group_name_H-M   'P 1'
_cell_length_a   4.23489032
_cell_length_b   13.10213181
_cell_length_c   13.10213181
_cell_angle_alpha   90.00000000
_cell_angle_beta   90.00000000
_cell_angle_gamma   90.00000000
_symmetry_Int_Tables_number   1
_chemical_formula_structural   Tm5(Ge5Os2)2
_chemical_formula_sum   'Tm10 Ge20 Os8'
_cell_volume   726.98608018
_cell_formula_units_Z   2
loop_
 _symmetry_equiv_pos_site_id
 _symmetry_equiv_pos_as_xyz
  1  'x, y, z'
loop_
 _atom_site_type_symbol
 _atom_site_label
 _atom_site_symmetry_multiplicity
 _atom_site_fract_x
 _atom_site_fract_y
 _atom_site_fract_z
 _atom_site_occupancy
  Tm  Tm0  1  -0.00000000  0.50000000  0.50000000  1
  Tm  Tm1  1  -0.00000000  0.00000000  0.00000000  1
  Tm  Tm2  1  0.50000000  0.17135456  0.67135456  1
  Tm  Tm3  1  0.50000000  0.82864544  0.32864544  1
  Tm  Tm4  1  0.50000000  0.32864544  0.17135456  1
  Tm  Tm5  1  0.50000000  0.67135456  0.82864544  1
  Tm  Tm6  1  0.50000000  0.38355504  0.88355504  1
  Tm  Tm7  1  0.50000000  0.61644496  0.11644496  1
  Tm  Tm8  1  0.50000000  0.11644496  0.38355504  1
  Tm  Tm9  1  0.50000000  0.88355504  0.61644496  1
  Ge  Ge10  1  0.00000000  0.06692132  0.56692132  1
  Ge  Ge11  1  -0.00000000  0.93307868  0.43307868  1
  Ge  Ge12  1  -0.00000000  0.43307868  0.06692132  1
  Ge  Ge13  1  0.00000000  0.56692132  0.93307868  1
  Ge  Ge14  1  -0.00000000  0.69813604  0.66405158  1
  Ge  Ge15  1  0.00000000  0.30186396  0.33594842  1
  Ge  Ge16  1  0.00000000  0.80186396  0.16405158  1
  Ge  Ge17  1  -0.00000000  0.19813604  0.83594842  1
  Ge  Ge18  1  -0.00000000  0.66405158  0.30186396  1
  Ge  Ge19  1  0.00000000  0.33594842  0.69813604  1
  Ge  Ge20  1  -0.00000000  0.16405158  0.19813604  1
  Ge  Ge21  1  0.00000000  0.83594842  0.80186396  1
  Ge  Ge22  1  0.50000000  0.50825635  0.65546907  1
  Ge  Ge23  1  0.50000000  0.49174365  0.34453093  1
  Ge  Ge24  1  0.50000000  0.99174365  0.15546907  1
  Ge  Ge25  1  0.50000000  0.00825635  0.84453093  1
  Ge  Ge26  1  0.50000000  0.65546907  0.49174365  1
  Ge  Ge27  1  0.50000000  0.34453093  0.50825635  1
  Ge  Ge28  1  0.50000000  0.15546907  0.00825635  1
  Ge  Ge29  1  0.50000000  0.84453093  0.99174365  1
  Os  Os30  1  -0.00000000  0.51807453  0.74848134  1
  Os  Os31  1  0.00000000  0.48192547  0.25151866  1
  Os  Os32  1  0.00000000  0.98192547  0.24848134  1
  Os  Os33  1  -0.00000000  0.01807453  0.75151866  1
  Os  Os34  1  0.00000000  0.74848134  0.48192547  1
  Os  Os35  1  -0.00000000  0.25151866  0.51807453  1
  Os  Os36  1  0.00000000  0.24848134  0.01807453  1
  Os  Os37  1  -0.00000000  0.75151866  0.98192547  1
