# generated using pymatgen
data_KV6O11
_symmetry_space_group_name_H-M   'P 1'
_cell_length_a   5.92736633
_cell_length_b   5.92736633
_cell_length_c   13.38760474
_cell_angle_alpha   90.00000000
_cell_angle_beta   90.00000000
_cell_angle_gamma   120.74752745
_symmetry_Int_Tables_number   1
_chemical_formula_structural   KV6O11
_chemical_formula_sum   'K2 V12 O22'
_cell_volume   404.23708880
_cell_formula_units_Z   2
loop_
 _symmetry_equiv_pos_site_id
 _symmetry_equiv_pos_as_xyz
  1  'x, y, z'
loop_
 _atom_site_type_symbol
 _atom_site_label
 _atom_site_symmetry_multiplicity
 _atom_site_fract_x
 _atom_site_fract_y
 _atom_site_fract_z
 _atom_site_occupancy
  K  K0  1  0.33359875  0.66640125  0.24838096  1
  K  K1  1  0.66640125  0.33359875  0.74838096  1
  V  V2  1  0.49907157  0.99838536  0.50063874  1
  V  V3  1  0.49967052  0.50032948  0.50011567  1
  V  V4  1  0.00161464  0.50092843  0.50063874  1
  V  V5  1  0.50092843  0.00161464  0.00063874  1
  V  V6  1  0.50032948  0.49967052  0.00011567  1
  V  V7  1  0.99838536  0.49907157  0.00063874  1
  V  V8  1  0.99928584  0.00071416  0.35498524  1
  V  V9  1  0.00071416  0.99928584  0.85498524  1
  V  V10  1  0.99970799  0.00029201  0.14584319  1
  V  V11  1  0.00029201  0.99970799  0.64584319  1
  V  V12  1  0.32987029  0.67012971  0.75368001  1
  V  V13  1  0.67012971  0.32987029  0.25368001  1
  O  O14  1  0.16469318  0.34495331  0.42319073  1
  O  O15  1  0.17580747  0.82419253  0.42426673  1
  O  O16  1  0.65504669  0.83530682  0.42319073  1
  O  O17  1  0.83530682  0.65504669  0.92319073  1
  O  O18  1  0.82419253  0.17580747  0.92426673  1
  O  O19  1  0.34495331  0.16469318  0.92319073  1
  O  O20  1  0.16389656  0.34345973  0.07663661  1
  O  O21  1  0.17499161  0.82500839  0.07581903  1
  O  O22  1  0.65654027  0.83610344  0.07663661  1
  O  O23  1  0.83610344  0.65654027  0.57663661  1
  O  O24  1  0.82500839  0.17499161  0.57581903  1
  O  O25  1  0.34345973  0.16389656  0.57663661  1
  O  O26  1  0.15382991  0.30297251  0.75066787  1
  O  O27  1  0.15880173  0.84119827  0.75068364  1
  O  O28  1  0.69702749  0.84617009  0.75066787  1
  O  O29  1  0.84617009  0.69702749  0.25066787  1
  O  O30  1  0.84119827  0.15880173  0.25068364  1
  O  O31  1  0.30297251  0.15382991  0.25066787  1
  O  O32  1  0.32828637  0.67171363  0.91237124  1
  O  O33  1  0.67171363  0.32828637  0.41237124  1
  O  O34  1  0.32833646  0.67166354  0.58794640  1
  O  O35  1  0.67166354  0.32833646  0.08794640  1
