# generated using pymatgen
data_Cs2V5H5O16
_symmetry_space_group_name_H-M   'P 1'
_cell_length_a   10.28245560
_cell_length_b   11.80445537
_cell_length_c   14.42927783
_cell_angle_alpha   90.00000000
_cell_angle_beta   90.00000000
_cell_angle_gamma   107.86051529
_symmetry_Int_Tables_number   1
_chemical_formula_structural   Cs2V5H5O16
_chemical_formula_sum   'Cs8 V20 H20 O64'
_cell_volume   1667.00086847
_cell_formula_units_Z   4
loop_
 _symmetry_equiv_pos_site_id
 _symmetry_equiv_pos_as_xyz
  1  'x, y, z'
loop_
 _atom_site_type_symbol
 _atom_site_label
 _atom_site_symmetry_multiplicity
 _atom_site_fract_x
 _atom_site_fract_y
 _atom_site_fract_z
 _atom_site_occupancy
  Cs  Cs0  1  0.31059920  0.45333135  0.62914303  1
  Cs  Cs1  1  0.68940080  0.04666865  0.12914303  1
  Cs  Cs2  1  0.68940080  0.54666865  0.37085697  1
  Cs  Cs3  1  0.31059920  0.95333135  0.87085697  1
  Cs  Cs4  1  0.07206802  0.41063055  0.27139933  1
  Cs  Cs5  1  0.92793198  0.08936945  0.77139933  1
  Cs  Cs6  1  0.92793198  0.58936945  0.72860067  1
  Cs  Cs7  1  0.07206802  0.91063055  0.22860067  1
  V  V8  1  0.31371608  0.57411984  0.89914328  1
  V  V9  1  0.68628392  0.92588016  0.39914328  1
  V  V10  1  0.68628392  0.42588016  0.10085672  1
  V  V11  1  0.31371608  0.07411984  0.60085672  1
  V  V12  1  0.33464938  0.31978680  0.88881175  1
  V  V13  1  0.66535062  0.18021320  0.38881175  1
  V  V14  1  0.66535062  0.68021320  0.11118825  1
  V  V15  1  0.33464938  0.81978680  0.61118825  1
  V  V16  1  0.37556328  0.72197760  0.08706977  1
  V  V17  1  0.62443672  0.77802240  0.58706977  1
  V  V18  1  0.62443672  0.27802240  0.91293023  1
  V  V19  1  0.37556328  0.22197760  0.41293023  1
  V  V20  1  0.39241489  0.46181829  0.08536055  1
  V  V21  1  0.60758511  0.03818171  0.58536055  1
  V  V22  1  0.60758511  0.53818171  0.91463945  1
  V  V23  1  0.39241489  0.96181829  0.41463945  1
  V  V24  1  0.60053169  0.79652789  0.92940451  1
  V  V25  1  0.39946831  0.70347211  0.42940451  1
  V  V26  1  0.39946831  0.20347211  0.07059549  1
  V  V27  1  0.60053169  0.29652789  0.57059549  1
  H  H28  1  0.08733420  0.36407403  0.02087458  1
  H  H29  1  0.91266580  0.13592597  0.52087458  1
  H  H30  1  0.91266580  0.63592597  0.97912542  1
  H  H31  1  0.08733420  0.86407403  0.47912542  1
  H  H32  1  0.00543140  0.17455395  0.06753136  1
  H  H33  1  0.99456860  0.32544605  0.56753136  1
  H  H34  1  0.99456860  0.82544605  0.93246864  1
  H  H35  1  0.00543140  0.67455395  0.43246864  1
  H  H36  1  0.07396101  0.66287691  0.96675527  1
  H  H37  1  0.92603899  0.83712309  0.46675527  1
  H  H38  1  0.92603899  0.33712309  0.03324473  1
  H  H39  1  0.07396101  0.16287691  0.53324473  1
  H  H40  1  0.45452350  0.73149059  0.77610930  1
  H  H41  1  0.54547650  0.76850941  0.27610930  1
  H  H42  1  0.54547650  0.26850941  0.22389070  1
  H  H43  1  0.45452350  0.23149059  0.72389070  1
  H  H44  1  0.07015931  0.08107826  0.03090978  1
  H  H45  1  0.92984069  0.41892174  0.53090978  1
  H  H46  1  0.92984069  0.91892174  0.96909022  1
  H  H47  1  0.07015931  0.58107826  0.46909022  1
  O  O48  1  0.19753967  0.54265449  0.81769758  1
  O  O49  1  0.80246033  0.95734551  0.31769758  1
  O  O50  1  0.80246033  0.45734551  0.18230242  1
  O  O51  1  0.19753967  0.04265449  0.68230242  1
  O  O52  1  0.25322966  0.65732923  0.98369072  1
  O  O53  1  0.74677034  0.84267077  0.48369072  1
  O  O54  1  0.74677034  0.34267077  0.01630928  1
  O  O55  1  0.25322966  0.15732923  0.51630928  1
  O  O56  1  0.44172138  0.71994159  0.84513561  1
  O  O57  1  0.55827862  0.78005841  0.34513561  1
  O  O58  1  0.55827862  0.28005841  0.15486439  1
  O  O59  1  0.44172138  0.21994159  0.65486439  1
  O  O60  1  0.26825639  0.42853588  0.97227532  1
  O  O61  1  0.73174361  0.07146412  0.47227532  1
  O  O62  1  0.73174361  0.57146412  0.02772468  1
  O  O63  1  0.26825639  0.92853588  0.52772468  1
  O  O64  1  0.44196394  0.48490426  0.84626693  1
  O  O65  1  0.55803606  0.01509574  0.34626693  1
  O  O66  1  0.55803606  0.51509574  0.15373307  1
  O  O67  1  0.44196394  0.98490426  0.65373307  1
  O  O68  1  0.49451839  0.61012683  0.99916633  1
  O  O69  1  0.50548161  0.88987317  0.49916633  1
  O  O70  1  0.50548161  0.38987317  0.00083367  1
  O  O71  1  0.49451839  0.11012683  0.50083367  1
  O  O72  1  0.21410081  0.28519577  0.81014343  1
  O  O73  1  0.78589919  0.21480423  0.31014343  1
  O  O74  1  0.78589919  0.71480423  0.18985657  1
  O  O75  1  0.21410081  0.78519577  0.68985657  1
  O  O76  1  0.27845673  0.19851580  0.97437845  1
  O  O77  1  0.72154327  0.30148420  0.47437845  1
  O  O78  1  0.72154327  0.80148420  0.02562155  1
  O  O79  1  0.27845673  0.69851580  0.52562155  1
  O  O80  1  0.46669409  0.26019483  0.83890945  1
  O  O81  1  0.53330591  0.23980517  0.33890945  1
  O  O82  1  0.53330591  0.73980517  0.16109055  1
  O  O83  1  0.46669409  0.76019483  0.66109055  1
  O  O84  1  0.28691855  0.78999590  0.14568977  1
  O  O85  1  0.71308145  0.71000410  0.64568977  1
  O  O86  1  0.71308145  0.21000410  0.85431023  1
  O  O87  1  0.28691855  0.28999590  0.35431023  1
  O  O88  1  0.47991922  0.83827238  0.00628161  1
  O  O89  1  0.52008078  0.66172762  0.50628161  1
  O  O90  1  0.52008078  0.16172762  0.99371839  1
  O  O91  1  0.47991922  0.33827238  0.49371839  1
  O  O92  1  0.31083147  0.55694908  0.13402460  1
  O  O93  1  0.68916853  0.94305092  0.63402460  1
  O  O94  1  0.68916853  0.44305092  0.86597540  1
  O  O95  1  0.31083147  0.05694908  0.36597540  1
  O  O96  1  0.67874191  0.67747373  0.86817269  1
  O  O97  1  0.32125809  0.82252627  0.36817269  1
  O  O98  1  0.32125809  0.32252627  0.13182731  1
  O  O99  1  0.67874191  0.17747373  0.63182731  1
  O  O100  1  0.67202429  0.91863964  0.87216078  1
  O  O101  1  0.32797571  0.58136036  0.37216078  1
  O  O102  1  0.32797571  0.08136036  0.12783922  1
  O  O103  1  0.67202429  0.41863964  0.62783922  1
  O  O104  1  0.99195831  0.17736244  0.55974615  1
  O  O105  1  0.00804169  0.32263756  0.05974615  1
  O  O106  1  0.00804169  0.82263756  0.44025385  1
  O  O107  1  0.99195831  0.67736244  0.94025385  1
  O  O108  1  0.99594950  0.08799026  0.07061528  1
  O  O109  1  0.00405050  0.41200974  0.57061528  1
  O  O110  1  0.00405050  0.91200974  0.92938472  1
  O  O111  1  0.99594950  0.58799026  0.42938472  1
