# generated using pymatgen
data_Na2Cr2H4O9
_symmetry_space_group_name_H-M   'P 1'
_cell_length_a   6.21200968
_cell_length_b   10.93304411
_cell_length_c   13.10082016
_cell_angle_alpha   90.00000000
_cell_angle_beta   94.72369625
_cell_angle_gamma   90.00000000
_symmetry_Int_Tables_number   1
_chemical_formula_structural   Na2Cr2H4O9
_chemical_formula_sum   'Na8 Cr8 H16 O36'
_cell_volume   886.73546663
_cell_formula_units_Z   4
loop_
 _symmetry_equiv_pos_site_id
 _symmetry_equiv_pos_as_xyz
  1  'x, y, z'
loop_
 _atom_site_type_symbol
 _atom_site_label
 _atom_site_symmetry_multiplicity
 _atom_site_fract_x
 _atom_site_fract_y
 _atom_site_fract_z
 _atom_site_occupancy
  Na  Na0  1  0.67661777  0.19910531  0.22836780  1
  Na  Na1  1  0.32338223  0.69910531  0.77163220  1
  Na  Na2  1  0.11825081  0.23391725  0.46951278  1
  Na  Na3  1  0.88174919  0.73391725  0.53048722  1
  Na  Na4  1  0.65951176  0.68786607  0.01553214  1
  Na  Na5  1  0.34048824  0.18786607  0.98446786  1
  Na  Na6  1  0.95913891  0.20095890  0.75579476  1
  Na  Na7  1  0.04086109  0.70095890  0.24420524  1
  Cr  Cr8  1  0.83959332  0.38027810  0.98949889  1
  Cr  Cr9  1  0.16040668  0.88027810  0.01050111  1
  Cr  Cr10  1  0.14946065  0.38133492  0.19448610  1
  Cr  Cr11  1  0.85053935  0.88133492  0.80551390  1
  Cr  Cr12  1  0.44317221  0.38802850  0.66554013  1
  Cr  Cr13  1  0.55682779  0.88802850  0.33445987  1
  Cr  Cr14  1  0.64787545  0.43424664  0.45381273  1
  Cr  Cr15  1  0.35212455  0.93424664  0.54618727  1
  H  H16  1  0.88731052  0.03974493  0.56660329  1
  H  H17  1  0.11268948  0.53974493  0.43339671  1
  H  H18  1  0.71856340  0.14453451  0.57017529  1
  H  H19  1  0.28143660  0.64453451  0.42982471  1
  H  H20  1  0.78629472  0.07661757  0.03943870  1
  H  H21  1  0.21370528  0.57661757  0.96056130  1
  H  H22  1  0.59216158  0.99931523  0.07223619  1
  H  H23  1  0.40783842  0.49931523  0.92776381  1
  H  H24  1  0.98207441  0.02002175  0.33014177  1
  H  H25  1  0.01792559  0.52002175  0.66985823  1
  H  H26  1  0.14764788  0.10406985  0.28277741  1
  H  H27  1  0.85235212  0.60406985  0.71722259  1
  H  H28  1  0.69079739  0.52306870  0.20435299  1
  H  H29  1  0.30920261  0.02306870  0.79564701  1
  H  H30  1  0.58283156  0.64751558  0.22735360  1
  H  H31  1  0.41716844  0.14751558  0.77264640  1
  O  O32  1  0.88954216  0.35155909  0.12470322  1
  O  O33  1  0.11045784  0.85155909  0.87529678  1
  O  O34  1  0.58445936  0.35229705  0.95755837  1
  O  O35  1  0.41554064  0.85229705  0.04244163  1
  O  O36  1  0.99797881  0.29244648  0.92742272  1
  O  O37  1  0.00202119  0.79244648  0.07257728  1
  O  O38  1  0.89315480  0.52381703  0.96769980  1
  O  O39  1  0.10684520  0.02381703  0.03230020  1
  O  O40  1  0.32454977  0.28246833  0.15575423  1
  O  O41  1  0.67545023  0.78246833  0.84424577  1
  O  O42  1  0.11668787  0.36487251  0.31573669  1
  O  O43  1  0.88331213  0.86487251  0.68426331  1
  O  O44  1  0.21846022  0.52131181  0.17078319  1
  O  O45  1  0.78153978  0.02131181  0.82921681  1
  O  O46  1  0.43924499  0.37506741  0.52833738  1
  O  O47  1  0.56075501  0.87506741  0.47166262  1
  O  O48  1  0.60996491  0.28561934  0.71815929  1
  O  O49  1  0.39003509  0.78561934  0.28184071  1
  O  O50  1  0.51630916  0.52627713  0.70161540  1
  O  O51  1  0.48369084  0.02627713  0.29838460  1
  O  O52  1  0.19709991  0.35965860  0.69351521  1
  O  O53  1  0.80290009  0.85965860  0.30648479  1
  O  O54  1  0.88421406  0.40042996  0.51063546  1
  O  O55  1  0.11578594  0.90042996  0.48936454  1
  O  O56  1  0.62092492  0.37090464  0.34076899  1
  O  O57  1  0.37907508  0.87090464  0.65923101  1
  O  O58  1  0.62220294  0.58329351  0.44601050  1
  O  O59  1  0.37779706  0.08329351  0.55398950  1
  O  O60  1  0.87415005  0.12842180  0.57548619  1
  O  O61  1  0.12584995  0.62842180  0.42451381  1
  O  O62  1  0.64829351  0.08357962  0.07045863  1
  O  O63  1  0.35170649  0.58357962  0.92954137  1
  O  O64  1  0.01257981  0.10647131  0.31625472  1
  O  O65  1  0.98742019  0.60647131  0.68374528  1
  O  O66  1  0.69958358  0.61096057  0.19131713  1
  O  O67  1  0.30041642  0.11096057  0.80868287  1
