# generated using pymatgen
data_LiMg30BO31
_symmetry_space_group_name_H-M   'P 1'
_cell_length_a   8.54560381
_cell_length_b   8.46505762
_cell_length_c   8.46505762
_cell_angle_alpha   90.00000000
_cell_angle_beta   90.00000000
_cell_angle_gamma   90.00000000
_symmetry_Int_Tables_number   1
_chemical_formula_structural   LiMg30BO31
_chemical_formula_sum   'Li1 Mg30 B1 O31'
_cell_volume   612.35404569
_cell_formula_units_Z   1
loop_
 _symmetry_equiv_pos_site_id
 _symmetry_equiv_pos_as_xyz
  1  'x, y, z'
loop_
 _atom_site_type_symbol
 _atom_site_label
 _atom_site_symmetry_multiplicity
 _atom_site_fract_x
 _atom_site_fract_y
 _atom_site_fract_z
 _atom_site_occupancy
  Li  Li0  1  0.99140353  -0.00000000  0.00000000  1
  Mg  Mg1  1  0.00116973  -0.00000000  0.50000000  1
  Mg  Mg2  1  0.00116973  0.50000000  0.00000000  1
  Mg  Mg3  1  0.49998638  -0.00000000  0.00000000  1
  Mg  Mg4  1  0.49914827  -0.00000000  0.50000000  1
  Mg  Mg5  1  0.49914827  0.50000000  0.00000000  1
  Mg  Mg6  1  0.49851204  0.50000000  0.50000000  1
  Mg  Mg7  1  0.00005670  0.24965475  0.24965475  1
  Mg  Mg8  1  0.00005670  0.24965475  0.75034525  1
  Mg  Mg9  1  0.00005670  0.75034525  0.24965475  1
  Mg  Mg10  1  0.00005670  0.75034525  0.75034525  1
  Mg  Mg11  1  0.50048706  0.24929427  0.24929427  1
  Mg  Mg12  1  0.50048706  0.24929427  0.75070573  1
  Mg  Mg13  1  0.50048706  0.75070573  0.24929427  1
  Mg  Mg14  1  0.50048706  0.75070573  0.75070573  1
  Mg  Mg15  1  0.24717990  -0.00000000  0.24902311  1
  Mg  Mg16  1  0.24717990  -0.00000000  0.75097689  1
  Mg  Mg17  1  0.24778467  0.50000000  0.25871775  1
  Mg  Mg18  1  0.24778467  0.50000000  0.74128225  1
  Mg  Mg19  1  0.75322317  -0.00000000  0.24653662  1
  Mg  Mg20  1  0.75322317  -0.00000000  0.75346338  1
  Mg  Mg21  1  0.75083837  0.50000000  0.24496707  1
  Mg  Mg22  1  0.75083837  0.50000000  0.75503293  1
  Mg  Mg23  1  0.24717990  0.24902311  0.00000000  1
  Mg  Mg24  1  0.24778467  0.25871775  0.50000000  1
  Mg  Mg25  1  0.24717990  0.75097689  0.00000000  1
  Mg  Mg26  1  0.24778467  0.74128225  0.50000000  1
  Mg  Mg27  1  0.75322317  0.24653662  0.00000000  1
  Mg  Mg28  1  0.75083837  0.24496707  0.50000000  1
  Mg  Mg29  1  0.75322317  0.75346338  0.00000000  1
  Mg  Mg30  1  0.75083837  0.75503293  0.50000000  1
  B  B31  1  0.95215264  0.50000000  0.50000000  1
  O  O32  1  0.24624489  -0.00000000  0.50000000  1
  O  O33  1  0.24624489  0.50000000  0.00000000  1
  O  O34  1  0.26842229  0.50000000  0.50000000  1
  O  O35  1  0.74527636  -0.00000000  0.00000000  1
  O  O36  1  0.75537945  -0.00000000  0.50000000  1
  O  O37  1  0.75537945  0.50000000  0.00000000  1
  O  O38  1  0.78053199  0.50000000  0.50000000  1
  O  O39  1  0.24905255  0.25204766  0.25204766  1
  O  O40  1  0.24905255  0.25204766  0.74795234  1
  O  O41  1  0.24905255  0.74795234  0.25204766  1
  O  O42  1  0.24905255  0.74795234  0.74795234  1
  O  O43  1  0.75119614  0.25071064  0.25071064  1
  O  O44  1  0.75119614  0.25071064  0.74928936  1
  O  O45  1  0.75119614  0.74928936  0.25071064  1
  O  O46  1  0.75119614  0.74928936  0.74928936  1
  O  O47  1  0.99981051  -0.00000000  0.26167205  1
  O  O48  1  0.99981051  -0.00000000  0.73832795  1
  O  O49  1  0.99520376  0.50000000  0.28592014  1
  O  O50  1  0.99520376  0.50000000  0.71407986  1
  O  O51  1  0.50131056  -0.00000000  0.25315361  1
  O  O52  1  0.50131056  -0.00000000  0.74684639  1
  O  O53  1  0.50631412  0.50000000  0.25156556  1
  O  O54  1  0.50631412  0.50000000  0.74843444  1
  O  O55  1  0.99981051  0.26167205  0.00000000  1
  O  O56  1  0.99520376  0.28592014  0.50000000  1
  O  O57  1  0.99981051  0.73832795  0.00000000  1
  O  O58  1  0.99520376  0.71407986  0.50000000  1
  O  O59  1  0.50131056  0.25315361  0.00000000  1
  O  O60  1  0.50631412  0.25156556  0.50000000  1
  O  O61  1  0.50131056  0.74684639  0.00000000  1
  O  O62  1  0.50631412  0.74843444  0.50000000  1
