# generated using pymatgen
data_Li7Nd3Zr2O12
_symmetry_space_group_name_H-M   'P 1'
_cell_length_a   11.17787328
_cell_length_b   11.17787328
_cell_length_c   11.17787328
_cell_angle_alpha   108.56600813
_cell_angle_beta   108.56600813
_cell_angle_gamma   111.29722212
_symmetry_Int_Tables_number   1
_chemical_formula_structural   Li7Nd3Zr2O12
_chemical_formula_sum   'Li28 Nd12 Zr8 O48'
_cell_volume   1074.29490570
_cell_formula_units_Z   4
loop_
 _symmetry_equiv_pos_site_id
 _symmetry_equiv_pos_as_xyz
  1  'x, y, z'
loop_
 _atom_site_type_symbol
 _atom_site_label
 _atom_site_symmetry_multiplicity
 _atom_site_fract_x
 _atom_site_fract_y
 _atom_site_fract_z
 _atom_site_occupancy
  Li  Li0  1  0.12500000  0.87500000  0.75000000  1
  Li  Li1  1  0.62500000  0.37500000  0.75000000  1
  Li  Li2  1  0.37500000  0.62500000  0.25000000  1
  Li  Li3  1  0.87500000  0.12500000  0.25000000  1
  Li  Li4  1  0.69226935  0.44226935  0.38453871  1
  Li  Li5  1  0.55773065  0.94226935  0.75000000  1
  Li  Li6  1  0.94226935  0.19226935  0.88453871  1
  Li  Li7  1  0.80773065  0.69226935  0.25000000  1
  Li  Li8  1  0.30773065  0.55773065  0.61546129  1
  Li  Li9  1  0.44226935  0.05773065  0.25000000  1
  Li  Li10  1  0.05773065  0.80773065  0.11546129  1
  Li  Li11  1  0.19226935  0.30773065  0.75000000  1
  Li  Li12  1  0.71617620  0.22552843  0.83228304  1
  Li  Li13  1  0.89324539  0.72552843  0.50935223  1
  Li  Li14  1  0.72552843  0.21617620  0.33228304  1
  Li  Li15  1  0.38389317  0.71617620  0.49064777  1
  Li  Li16  1  0.28382380  0.77447157  0.16771696  1
  Li  Li17  1  0.10675461  0.27447157  0.49064777  1
  Li  Li18  1  0.27447157  0.78382380  0.66771696  1
  Li  Li19  1  0.61610683  0.28382380  0.50935223  1
  Li  Li20  1  0.21617620  0.88389317  0.99064777  1
  Li  Li21  1  0.39324539  0.38389317  0.66771696  1
  Li  Li22  1  0.22552843  0.39324539  0.00935223  1
  Li  Li23  1  0.88389317  0.89324539  0.16771696  1
  Li  Li24  1  0.78382380  0.11610683  0.00935223  1
  Li  Li25  1  0.60675461  0.61610683  0.33228304  1
  Li  Li26  1  0.77447157  0.60675461  0.99064777  1
  Li  Li27  1  0.11610683  0.10675461  0.83228304  1
  Nd  Nd28  1  0.87500000  0.62500000  0.75000000  1
  Nd  Nd29  1  0.37500000  0.12500000  0.75000000  1
  Nd  Nd30  1  0.12500000  0.37500000  0.25000000  1
  Nd  Nd31  1  0.62500000  0.87500000  0.25000000  1
  Nd  Nd32  1  0.25000000  0.62253209  0.87253209  1
  Nd  Nd33  1  0.25000000  0.12253209  0.37253209  1
  Nd  Nd34  1  0.12253209  0.75000000  0.37253209  1
  Nd  Nd35  1  0.87746791  0.25000000  0.62746791  1
  Nd  Nd36  1  0.75000000  0.37746791  0.12746791  1
  Nd  Nd37  1  0.75000000  0.87746791  0.62746791  1
  Nd  Nd38  1  0.62253209  0.75000000  0.87253209  1
  Nd  Nd39  1  0.37746791  0.25000000  0.12746791  1
  Zr  Zr40  1  -0.00000000  0.50000000  -0.00000000  1
  Zr  Zr41  1  -0.00000000  -0.00000000  0.50000000  1
  Zr  Zr42  1  -0.00000000  0.50000000  0.50000000  1
  Zr  Zr43  1  0.50000000  -0.00000000  0.50000000  1
  Zr  Zr44  1  0.50000000  -0.00000000  -0.00000000  1
  Zr  Zr45  1  0.50000000  0.50000000  0.50000000  1
  Zr  Zr46  1  0.50000000  0.50000000  -0.00000000  1
  Zr  Zr47  1  -0.00000000  -0.00000000  -0.00000000  1
  O  O48  1  0.09691359  0.41768624  0.62509017  1
  O  O49  1  0.29259608  0.91768624  0.32077266  1
  O  O50  1  0.91768624  0.59691359  0.12509017  1
  O  O51  1  0.97182342  0.09691359  0.67922734  1
  O  O52  1  0.90308641  0.58231376  0.37490983  1
  O  O53  1  0.70740392  0.08231376  0.67922734  1
  O  O54  1  0.08231376  0.40308641  0.87490983  1
  O  O55  1  0.02817658  0.90308641  0.32077266  1
  O  O56  1  0.59691359  0.47182342  0.17922734  1
  O  O57  1  0.79259608  0.97182342  0.87490983  1
  O  O58  1  0.41768624  0.79259608  0.82077266  1
  O  O59  1  0.47182342  0.29259608  0.37490983  1
  O  O60  1  0.40308641  0.52817658  0.82077266  1
  O  O61  1  0.20740392  0.02817658  0.12509017  1
  O  O62  1  0.58231376  0.20740392  0.17922734  1
  O  O63  1  0.52817658  0.70740392  0.62509017  1
  O  O64  1  0.81169193  0.40207572  0.52238869  1
  O  O65  1  0.37968703  0.90207572  0.59038379  1
  O  O66  1  0.90207572  0.31169193  0.02238869  1
  O  O67  1  0.78930324  0.81169193  0.40961621  1
  O  O68  1  0.18830807  0.59792428  0.47761131  1
  O  O69  1  0.62031297  0.09792428  0.40961621  1
  O  O70  1  0.09792428  0.68830807  0.97761131  1
  O  O71  1  0.21069676  0.18830807  0.59038379  1
  O  O72  1  0.31169193  0.28930324  0.90961621  1
  O  O73  1  0.87968703  0.78930324  0.97761131  1
  O  O74  1  0.40207572  0.87968703  0.09038379  1
  O  O75  1  0.28930324  0.37968703  0.47761131  1
  O  O76  1  0.68830807  0.71069676  0.09038379  1
  O  O77  1  0.12031297  0.21069676  0.02238869  1
  O  O78  1  0.59792428  0.12031297  0.90961621  1
  O  O79  1  0.71069676  0.62031297  0.52238869  1
  O  O80  1  0.09029606  0.68272688  0.70624264  1
  O  O81  1  0.47648425  0.18272688  0.59243082  1
  O  O82  1  0.18272688  0.59029606  0.20624264  1
  O  O83  1  0.88405343  0.09029606  0.40756918  1
  O  O84  1  0.90970394  0.31727312  0.29375736  1
  O  O85  1  0.52351575  0.81727312  0.40756918  1
  O  O86  1  0.81727312  0.40970394  0.79375736  1
  O  O87  1  0.11594657  0.90970394  0.59243082  1
  O  O88  1  0.59029606  0.38405343  0.90756918  1
  O  O89  1  0.97648425  0.88405343  0.79375736  1
  O  O90  1  0.68272688  0.97648425  0.09243082  1
  O  O91  1  0.38405343  0.47648425  0.29375736  1
  O  O92  1  0.40970394  0.61594657  0.09243082  1
  O  O93  1  0.02351575  0.11594657  0.20624264  1
  O  O94  1  0.31727312  0.02351575  0.90756918  1
  O  O95  1  0.61594657  0.52351575  0.70624264  1
