# generated using pymatgen
data_Li6Cu(B2O5)2
_symmetry_space_group_name_H-M   'P 1'
_cell_length_a   4.89816865
_cell_length_b   9.35363313
_cell_length_c   14.19130538
_cell_angle_alpha   104.72592331
_cell_angle_beta   97.07921430
_cell_angle_gamma   93.97960127
_symmetry_Int_Tables_number   1
_chemical_formula_structural   Li6Cu(B2O5)2
_chemical_formula_sum   'Li18 Cu3 B12 O30'
_cell_volume   620.58754871
_cell_formula_units_Z   3
loop_
 _symmetry_equiv_pos_site_id
 _symmetry_equiv_pos_as_xyz
  1  'x, y, z'
loop_
 _atom_site_type_symbol
 _atom_site_label
 _atom_site_symmetry_multiplicity
 _atom_site_fract_x
 _atom_site_fract_y
 _atom_site_fract_z
 _atom_site_occupancy
  Li  Li0  1  0.95840147  0.19398312  0.18391013  1
  Li  Li1  1  0.04159853  0.80601688  0.81608987  1
  Li  Li2  1  0.93425312  0.62339965  0.96925904  1
  Li  Li3  1  0.06574688  0.37660035  0.03074096  1
  Li  Li4  1  0.91319278  0.91662409  0.18617091  1
  Li  Li5  1  0.08680722  0.08337591  0.81382909  1
  Li  Li6  1  0.78703200  0.05642776  0.36715541  1
  Li  Li7  1  0.21296800  0.94357224  0.63284459  1
  Li  Li8  1  0.66363231  0.85748576  0.51198399  1
  Li  Li9  1  0.33636769  0.14251424  0.48801601  1
  Li  Li10  1  0.63403953  0.56672563  0.08762718  1
  Li  Li11  1  0.36596047  0.43327437  0.91237282  1
  Li  Li12  1  0.61524563  0.82561391  0.68630631  1
  Li  Li13  1  0.38475437  0.17438609  0.31369369  1
  Li  Li14  1  0.56354226  0.43353253  0.39716963  1
  Li  Li15  1  0.43645774  0.56646747  0.60283037  1
  Li  Li16  1  0.50512077  0.59724609  0.80397663  1
  Li  Li17  1  0.49487923  0.40275391  0.19602337  1
  Cu  Cu18  1  0.00000000  0.00000000  -0.00000000  1
  Cu  Cu19  1  0.69807955  0.68238520  0.33032444  1
  Cu  Cu20  1  0.30192045  0.31761480  0.66967556  1
  B  B21  1  0.91933635  0.54813450  0.66874780  1
  B  B22  1  0.08066365  0.45186550  0.33125220  1
  B  B23  1  0.82994094  0.31608081  0.51984255  1
  B  B24  1  0.17005906  0.68391919  0.48015745  1
  B  B25  1  0.79657159  0.34126673  0.81639941  1
  B  B26  1  0.20342841  0.65873327  0.18360059  1
  B  B27  1  0.72411368  0.10682979  0.66877803  1
  B  B28  1  0.27588632  0.89317021  0.33122197  1
  B  B29  1  0.58803672  0.22498030  0.00502524  1
  B  B30  1  0.41196328  0.77501970  0.99497476  1
  B  B31  1  0.53998914  0.00102958  0.85259502  1
  B  B32  1  0.46001086  0.99897042  0.14740498  1
  O  O33  1  0.96988283  0.41102947  0.89993872  1
  O  O34  1  0.03011717  0.58897053  0.10006128  1
  O  O35  1  0.93524467  0.74313068  0.45470735  1
  O  O36  1  0.06475533  0.25686932  0.54529265  1
  O  O37  1  0.88197988  0.21588883  0.75096300  1
  O  O38  1  0.11802012  0.78411117  0.24903700  1
  O  O39  1  0.83906962  0.19457739  0.04688669  1
  O  O40  1  0.16093038  0.80542261  0.95311331  1
  O  O41  1  0.83470922  0.97596126  0.64231153  1
  O  O42  1  0.16529078  0.02403874  0.35768847  1
  O  O43  1  0.81274115  0.47349353  0.30239721  1
  O  O44  1  0.18725885  0.52650647  0.69760279  1
  O  O45  1  0.80827605  0.96822842  0.86680692  1
  O  O46  1  0.19172395  0.03177158  0.13319308  1
  O  O47  1  0.77900210  0.65714759  0.71888804  1
  O  O48  1  0.22099790  0.34285241  0.28111196  1
  O  O49  1  0.76368307  0.45494090  0.57902274  1
  O  O50  1  0.23631693  0.54505910  0.42097726  1
  O  O51  1  0.64443254  0.25062233  0.43758901  1
  O  O52  1  0.35556746  0.74937767  0.56241099  1
  O  O53  1  0.64827251  0.07380426  0.22651119  1
  O  O54  1  0.35172749  0.92619574  0.77348881  1
  O  O55  1  0.55995915  0.87752793  0.08173019  1
  O  O56  1  0.44004085  0.12247207  0.91826981  1
  O  O57  1  0.53067552  0.87105771  0.37537199  1
  O  O58  1  0.46932448  0.12894229  0.62462801  1
  O  O59  1  0.52748323  0.64769183  0.95810100  1
  O  O60  1  0.47251677  0.35230817  0.04189900  1
  O  O61  1  0.53845594  0.38519105  0.79460195  1
  O  O62  1  0.46154406  0.61480895  0.20539805  1
