# generated using pymatgen
data_LaH6C2SNO9
_symmetry_space_group_name_H-M   'P 1'
_cell_length_a   6.73202029
_cell_length_b   9.08530010
_cell_length_c   14.41244918
_cell_angle_alpha   90.00000000
_cell_angle_beta   94.30073728
_cell_angle_gamma   90.00000000
_symmetry_Int_Tables_number   1
_chemical_formula_structural   LaH6C2SNO9
_chemical_formula_sum   'La4 H24 C8 S4 N4 O36'
_cell_volume   879.01818033
_cell_formula_units_Z   4
loop_
 _symmetry_equiv_pos_site_id
 _symmetry_equiv_pos_as_xyz
  1  'x, y, z'
loop_
 _atom_site_type_symbol
 _atom_site_label
 _atom_site_symmetry_multiplicity
 _atom_site_fract_x
 _atom_site_fract_y
 _atom_site_fract_z
 _atom_site_occupancy
  La  La0  1  0.25267573  0.23577721  0.59069202  1
  La  La1  1  0.75267573  0.26422279  0.09069202  1
  La  La2  1  0.74732427  0.76422279  0.40930798  1
  La  La3  1  0.24732427  0.73577721  0.90930798  1
  H  H4  1  0.41920827  0.18852095  0.33757160  1
  H  H5  1  0.91920827  0.31147905  0.83757160  1
  H  H6  1  0.58079173  0.81147905  0.66242840  1
  H  H7  1  0.08079173  0.68852095  0.16242840  1
  H  H8  1  0.24785903  0.05298160  0.34223439  1
  H  H9  1  0.74785903  0.44701840  0.84223439  1
  H  H10  1  0.75214097  0.94701840  0.65776561  1
  H  H11  1  0.25214097  0.55298160  0.15776561  1
  H  H12  1  0.28206711  0.13215287  0.24013458  1
  H  H13  1  0.78206711  0.36784713  0.74013458  1
  H  H14  1  0.71793289  0.86784713  0.75986542  1
  H  H15  1  0.21793289  0.63215287  0.25986542  1
  H  H16  1  0.14307365  0.46847423  0.42289768  1
  H  H17  1  0.64307365  0.03152577  0.92289768  1
  H  H18  1  0.85692635  0.53152577  0.57710232  1
  H  H19  1  0.35692635  0.96847423  0.07710232  1
  H  H20  1  0.37506215  0.46539303  0.42665818  1
  H  H21  1  0.87506215  0.03460697  0.92665818  1
  H  H22  1  0.62493785  0.53460697  0.57334182  1
  H  H23  1  0.12493785  0.96539303  0.07334182  1
  H  H24  1  0.16716336  0.22516457  0.32020899  1
  H  H25  1  0.66716336  0.27483543  0.82020899  1
  H  H26  1  0.83283664  0.77483543  0.67979101  1
  H  H27  1  0.33283664  0.72516457  0.17979101  1
  C  C28  1  0.13677843  0.53245857  0.71777519  1
  C  C29  1  0.63677843  0.96754143  0.21777519  1
  C  C30  1  0.86322157  0.46754143  0.28222481  1
  C  C31  1  0.36322157  0.03245857  0.78222481  1
  C  C32  1  0.36766318  0.52588577  0.72953671  1
  C  C33  1  0.86766318  0.97411423  0.22953671  1
  C  C34  1  0.63233682  0.47411423  0.27046329  1
  C  C35  1  0.13233682  0.02588577  0.77046329  1
  S  S36  1  0.73369296  0.16495712  0.47644482  1
  S  S37  1  0.23369296  0.33504288  0.97644482  1
  S  S38  1  0.26630704  0.83504288  0.52355518  1
  S  S39  1  0.76630704  0.66495712  0.02355518  1
  N  N40  1  0.27877760  0.15088060  0.31032380  1
  N  N41  1  0.77877760  0.34911940  0.81032380  1
  N  N42  1  0.72122240  0.84911940  0.68967620  1
  N  N43  1  0.22122240  0.65088060  0.18967620  1
  O  O44  1  0.93202727  0.23313573  0.50072960  1
  O  O45  1  0.43202727  0.26686427  0.00072960  1
  O  O46  1  0.06797273  0.76686427  0.49927040  1
  O  O47  1  0.56797273  0.73313573  0.99927040  1
  O  O48  1  0.58808080  0.22883218  0.53843712  1
  O  O49  1  0.08808080  0.27116782  0.03843712  1
  O  O50  1  0.41191920  0.77116782  0.46156288  1
  O  O51  1  0.91191920  0.72883218  0.96156288  1
  O  O52  1  0.45321959  0.44474734  0.67291830  1
  O  O53  1  0.95321959  0.05525266  0.17291830  1
  O  O54  1  0.54678041  0.55525266  0.32708170  1
  O  O55  1  0.04678041  0.94474734  0.82708170  1
  O  O56  1  0.26092716  0.41583737  0.45149109  1
  O  O57  1  0.76092716  0.08416263  0.95149109  1
  O  O58  1  0.73907284  0.58416263  0.54850891  1
  O  O59  1  0.23907284  0.91583737  0.04850891  1
  O  O60  1  0.05071975  0.44677819  0.65726263  1
  O  O61  1  0.55071975  0.05322181  0.15726263  1
  O  O62  1  0.94928025  0.55322181  0.34273737  1
  O  O63  1  0.44928025  0.94677819  0.84273737  1
  O  O64  1  0.45030345  0.12031793  0.73075976  1
  O  O65  1  0.95030345  0.37968207  0.23075976  1
  O  O66  1  0.54969655  0.87968207  0.26924024  1
  O  O67  1  0.04969655  0.62031793  0.76924024  1
  O  O68  1  0.25277282  0.99758482  0.50674787  1
  O  O69  1  0.75277282  0.50241518  0.00674787  1
  O  O70  1  0.74722718  0.00241518  0.49325213  1
  O  O71  1  0.24722718  0.49758482  0.99325213  1
  O  O72  1  0.04695926  0.10005816  0.70453467  1
  O  O73  1  0.54695926  0.39994184  0.20453467  1
  O  O74  1  0.95304074  0.89994184  0.29546533  1
  O  O75  1  0.45304074  0.60005816  0.79546533  1
  O  O76  1  0.67067473  0.19571589  0.37780526  1
  O  O77  1  0.17067473  0.30428411  0.87780526  1
  O  O78  1  0.32932527  0.80428411  0.62219474  1
  O  O79  1  0.82932527  0.69571589  0.12219474  1
