# generated using pymatgen
data_CaMnAl4SiP3(HO4)5
_symmetry_space_group_name_H-M   'P 1'
_cell_length_a   7.40265360
_cell_length_b   10.44900403
_cell_length_c   10.44900403
_cell_angle_alpha   67.50821767
_cell_angle_beta   70.48228978
_cell_angle_gamma   70.48228978
_symmetry_Int_Tables_number   1
_chemical_formula_structural   CaMnAl4SiP3(HO4)5
_chemical_formula_sum   'Ca2 Mn2 Al8 Si2 P6 H10 O40'
_cell_volume   683.81268388
_cell_formula_units_Z   2
loop_
 _symmetry_equiv_pos_site_id
 _symmetry_equiv_pos_as_xyz
  1  'x, y, z'
loop_
 _atom_site_type_symbol
 _atom_site_label
 _atom_site_symmetry_multiplicity
 _atom_site_fract_x
 _atom_site_fract_y
 _atom_site_fract_z
 _atom_site_occupancy
  Ca  Ca0  1  -0.00000000  0.25566782  0.74433218  1
  Ca  Ca1  1  -0.00000000  0.74433218  0.25566782  1
  Mn  Mn2  1  0.94901256  0.28683206  0.28683206  1
  Mn  Mn3  1  0.05098744  0.71316794  0.71316794  1
  Al  Al4  1  0.50224833  0.49975248  0.76539965  1
  Al  Al5  1  0.50224833  0.76539965  0.49975248  1
  Al  Al6  1  0.49775167  0.50024752  0.23460035  1
  Al  Al7  1  0.49775167  0.23460035  0.50024752  1
  Al  Al8  1  0.23173508  0.24814266  0.98981338  1
  Al  Al9  1  0.23173508  0.98981338  0.24814266  1
  Al  Al10  1  0.76826492  0.75185734  0.01018662  1
  Al  Al11  1  0.76826492  0.01018662  0.75185734  1
  Si  Si12  1  0.66552012  0.04951510  0.04951510  1
  Si  Si13  1  0.33447988  0.95048490  0.95048490  1
  P  P14  1  0.76568153  0.46616629  0.46616629  1
  P  P15  1  0.23431847  0.53383371  0.53383371  1
  P  P16  1  0.80513720  0.46264941  0.95563321  1
  P  P17  1  0.80513720  0.95563321  0.46264941  1
  P  P18  1  0.19486280  0.53735059  0.04436679  1
  P  P19  1  0.19486280  0.04436679  0.53735059  1
  H  H20  1  0.35448138  0.81601828  0.81601828  1
  H  H21  1  0.64551862  0.18398172  0.18398172  1
  H  H22  1  0.69114264  0.67872297  0.67872297  1
  H  H23  1  0.30885736  0.32127703  0.32127703  1
  H  H24  1  0.54454493  0.25760163  0.83129205  1
  H  H25  1  0.54454493  0.83129205  0.25760163  1
  H  H26  1  0.45545507  0.74239837  0.16870795  1
  H  H27  1  0.45545507  0.16870795  0.74239837  1
  H  H28  1  0.94773501  0.13582528  0.13582528  1
  H  H29  1  0.05226499  0.86417472  0.86417472  1
  O  O30  1  0.64666475  0.40603352  0.40603352  1
  O  O31  1  0.35333525  0.59396648  0.59396648  1
  O  O32  1  0.98268400  0.40450172  0.40450172  1
  O  O33  1  0.01731600  0.59549828  0.59549828  1
  O  O34  1  0.75294641  0.87668656  0.11057964  1
  O  O35  1  0.75294641  0.11057964  0.87668656  1
  O  O36  1  0.24705359  0.12331344  0.88942036  1
  O  O37  1  0.24705359  0.88942036  0.12331344  1
  O  O38  1  0.73774826  0.41578959  0.12150552  1
  O  O39  1  0.73774826  0.12150552  0.41578959  1
  O  O40  1  0.26225174  0.58421041  0.87849448  1
  O  O41  1  0.26225174  0.87849448  0.58421041  1
  O  O42  1  0.81285609  0.62257358  0.90094845  1
  O  O43  1  0.81285609  0.90094845  0.62257358  1
  O  O44  1  0.18714391  0.37742642  0.09905155  1
  O  O45  1  0.18714391  0.09905155  0.37742642  1
  O  O46  1  0.66991790  0.43874970  0.88728049  1
  O  O47  1  0.66991790  0.88728049  0.43874970  1
  O  O48  1  0.33008210  0.56125030  0.11271951  1
  O  O49  1  0.33008210  0.11271951  0.56125030  1
  O  O50  1  0.42191779  0.09568422  0.09568422  1
  O  O51  1  0.57808221  0.90431578  0.90431578  1
  O  O52  1  0.71589267  0.41339522  0.63145848  1
  O  O53  1  0.71589267  0.63145848  0.41339522  1
  O  O54  1  0.28410733  0.58660478  0.36854152  1
  O  O55  1  0.28410733  0.36854152  0.58660478  1
  O  O56  1  0.01224412  0.36898836  0.90855822  1
  O  O57  1  0.01224412  0.90855822  0.36898836  1
  O  O58  1  0.98775588  0.63101164  0.09144178  1
  O  O59  1  0.98775588  0.09144178  0.63101164  1
  O  O60  1  0.74555287  0.12636430  0.12636430  1
  O  O61  1  0.25444713  0.87363570  0.87363570  1
  O  O62  1  0.55984474  0.67814458  0.67814458  1
  O  O63  1  0.44015526  0.32185542  0.32185542  1
  O  O64  1  0.42165854  0.33204414  0.84568319  1
  O  O65  1  0.42165854  0.84568319  0.33204414  1
  O  O66  1  0.57834146  0.66795586  0.15431681  1
  O  O67  1  0.57834146  0.15431681  0.66795586  1
  O  O68  1  0.06154223  0.15357684  0.15357684  1
  O  O69  1  0.93845777  0.84642316  0.84642316  1
