# generated using pymatgen
data_Sr2Fe2P3(O6F)2
_symmetry_space_group_name_H-M   'P 1'
_cell_length_a   8.21457237
_cell_length_b   8.86562223
_cell_length_c   8.98248667
_cell_angle_alpha   77.66032866
_cell_angle_beta   64.24150957
_cell_angle_gamma   90.08521243
_symmetry_Int_Tables_number   1
_chemical_formula_structural   Sr2Fe2P3(O6F)2
_chemical_formula_sum   'Sr4 Fe4 P6 O24 F4'
_cell_volume   572.23714884
_cell_formula_units_Z   2
loop_
 _symmetry_equiv_pos_site_id
 _symmetry_equiv_pos_as_xyz
  1  'x, y, z'
loop_
 _atom_site_type_symbol
 _atom_site_label
 _atom_site_symmetry_multiplicity
 _atom_site_fract_x
 _atom_site_fract_y
 _atom_site_fract_z
 _atom_site_occupancy
  Sr  Sr0  1  0.39217367  0.70131100  0.41983344  1
  Sr  Sr1  1  0.60782633  0.29868900  0.58016656  1
  Sr  Sr2  1  0.19806727  0.19760842  0.42803055  1
  Sr  Sr3  1  0.80193273  0.80239158  0.57196945  1
  Fe  Fe4  1  0.67224665  0.42833111  0.16467949  1
  Fe  Fe5  1  0.32775335  0.57166889  0.83532051  1
  Fe  Fe6  1  0.83074344  0.07723681  0.83692202  1
  Fe  Fe7  1  0.16925656  0.92276319  0.16307798  1
  P  P8  1  0.99981438  0.43728688  0.75806523  1
  P  P9  1  0.00018562  0.56271312  0.24193477  1
  P  P10  1  0.23356946  0.94665522  0.75555401  1
  P  P11  1  0.76643054  0.05334478  0.24444599  1
  P  P12  1  0.55027627  0.74514144  0.99867217  1
  P  P13  1  0.44972373  0.25485856  0.00132783  1
  O  O14  1  0.92411357  0.54072522  0.64483485  1
  O  O15  1  0.07588643  0.45927478  0.35516515  1
  O  O16  1  0.29601363  0.78790944  0.71969875  1
  O  O17  1  0.70398637  0.21209056  0.28030125  1
  O  O18  1  0.05564619  0.96857754  0.73597373  1
  O  O19  1  0.94435381  0.03142246  0.26402627  1
  O  O20  1  0.37874268  0.07570962  0.61233393  1
  O  O21  1  0.62125732  0.92429038  0.38766607  1
  O  O22  1  0.63154106  0.64942153  0.11079513  1
  O  O23  1  0.36845894  0.35057847  0.88920487  1
  O  O24  1  0.37540065  0.79429790  0.12994796  1
  O  O25  1  0.62459935  0.20570210  0.87005204  1
  O  O26  1  0.01375551  0.27198790  0.72542085  1
  O  O27  1  0.98624449  0.72801210  0.27457915  1
  O  O28  1  0.51782726  0.65269457  0.88504327  1
  O  O29  1  0.48217274  0.34730543  0.11495673  1
  O  O30  1  0.20819037  0.96037829  0.93111910  1
  O  O31  1  0.79180963  0.03962171  0.06888090  1
  O  O32  1  0.68587859  0.88435698  0.86714934  1
  O  O33  1  0.31412141  0.11564302  0.13285066  1
  O  O34  1  0.19415556  0.50796498  0.70961299  1
  O  O35  1  0.80584444  0.49203502  0.29038701  1
  O  O36  1  0.87326926  0.43209639  0.94517779  1
  O  O37  1  0.12673074  0.56790361  0.05482221  1
  F  F38  1  0.84940668  0.11300400  0.58900215  1
  F  F39  1  0.15059332  0.88699600  0.41099785  1
  F  F40  1  0.44662895  0.41030264  0.40070141  1
  F  F41  1  0.55337105  0.58969736  0.59929859  1
