# generated using pymatgen
data_Cu2SnSe3
_symmetry_space_group_name_H-M   'P 1'
_cell_length_a   7.06876823
_cell_length_b   7.06876823
_cell_length_c   26.82925434
_cell_angle_alpha   92.44543878
_cell_angle_beta   92.44543878
_cell_angle_gamma   120.00724461
_symmetry_Int_Tables_number   1
_chemical_formula_structural   Cu2SnSe3
_chemical_formula_sum   'Cu16 Sn8 Se24'
_cell_volume   1156.66490586
_cell_formula_units_Z   8
loop_
 _symmetry_equiv_pos_site_id
 _symmetry_equiv_pos_as_xyz
  1  'x, y, z'
loop_
 _atom_site_type_symbol
 _atom_site_label
 _atom_site_symmetry_multiplicity
 _atom_site_fract_x
 _atom_site_fract_y
 _atom_site_fract_z
 _atom_site_occupancy
  Cu  Cu0  1  0.68261370  0.85492553  0.01453574  1
  Cu  Cu1  1  0.85492553  0.68261370  0.51453574  1
  Cu  Cu2  1  0.02518888  0.51708688  0.01465535  1
  Cu  Cu3  1  0.51708688  0.02518888  0.51465535  1
  Cu  Cu4  1  0.37361504  0.88343391  0.13953102  1
  Cu  Cu5  1  0.88343391  0.37361504  0.63953102  1
  Cu  Cu6  1  0.06243956  0.22539821  0.14004848  1
  Cu  Cu7  1  0.22539821  0.06243956  0.64004848  1
  Cu  Cu8  1  0.10014474  0.91864091  0.26454143  1
  Cu  Cu9  1  0.91864091  0.10014474  0.76454143  1
  Cu  Cu10  1  0.41965695  0.58355145  0.26467618  1
  Cu  Cu11  1  0.58355145  0.41965695  0.76467618  1
  Cu  Cu12  1  0.12660754  0.63512632  0.39023063  1
  Cu  Cu13  1  0.63512632  0.12660754  0.89023063  1
  Cu  Cu14  1  0.47248511  0.29267643  0.38962663  1
  Cu  Cu15  1  0.29267643  0.47248511  0.88962663  1
  Sn  Sn16  1  0.33043357  0.16635569  0.01923055  1
  Sn  Sn17  1  0.16635569  0.33043357  0.51923055  1
  Sn  Sn18  1  0.71701695  0.56959329  0.14367478  1
  Sn  Sn19  1  0.56959329  0.71701695  0.64367478  1
  Sn  Sn20  1  0.75857194  0.27390368  0.26924216  1
  Sn  Sn21  1  0.27390368  0.75857194  0.76924216  1
  Sn  Sn22  1  0.78527426  0.95181757  0.39373236  1
  Sn  Sn23  1  0.95181757  0.78527426  0.89373236  1
  Se  Se24  1  0.16442519  0.32911152  0.41864805  1
  Se  Se25  1  0.32911152  0.16442519  0.91864805  1
  Se  Se26  1  0.71062879  0.54370834  0.04315945  1
  Se  Se27  1  0.54370834  0.71062879  0.54315945  1
  Se  Se28  1  0.76943349  0.91261991  0.29315498  1
  Se  Se29  1  0.91261991  0.76943349  0.79315498  1
  Se  Se30  1  0.12856458  0.62403186  0.29991019  1
  Se  Se31  1  0.62403186  0.12856458  0.79991019  1
  Se  Se32  1  0.40929669  0.26680547  0.29913989  1
  Se  Se33  1  0.26680547  0.40929669  0.79913989  1
  Se  Se34  1  0.72676593  0.20848014  0.16867454  1
  Se  Se35  1  0.20848014  0.72676593  0.66867454  1
  Se  Se36  1  0.08328115  0.92288192  0.17428529  1
  Se  Se37  1  0.92288192  0.08328115  0.67428529  1
  Se  Se38  1  0.36068634  0.83583895  0.04924412  1
  Se  Se39  1  0.83583895  0.36068634  0.54924412  1
  Se  Se40  1  0.45048668  0.97270428  0.42449849  1
  Se  Se41  1  0.97270428  0.45048668  0.92449849  1
  Se  Se42  1  0.37162278  0.56953146  0.17434752  1
  Se  Se43  1  0.56953146  0.37162278  0.67434752  1
  Se  Se44  1  0.99874558  0.19340968  0.04957315  1
  Se  Se45  1  0.19340968  0.99874558  0.54957315  1
  Se  Se46  1  0.80691703  0.61786416  0.42426900  1
  Se  Se47  1  0.61786416  0.80691703  0.92426900  1
