# generated using pymatgen
data_Na2Ti2Si4O13
_symmetry_space_group_name_H-M   'P 1'
_cell_length_a   5.26238520
_cell_length_b   8.74995362
_cell_length_c   13.16932036
_cell_angle_alpha   109.40295418
_cell_angle_beta   99.16822130
_cell_angle_gamma   90.00000000
_symmetry_Int_Tables_number   1
_chemical_formula_structural   Na2Ti2Si4O13
_chemical_formula_sum   'Na4 Ti4 Si8 O26'
_cell_volume   563.73020621
_cell_formula_units_Z   2
loop_
 _symmetry_equiv_pos_site_id
 _symmetry_equiv_pos_as_xyz
  1  'x, y, z'
loop_
 _atom_site_type_symbol
 _atom_site_label
 _atom_site_symmetry_multiplicity
 _atom_site_fract_x
 _atom_site_fract_y
 _atom_site_fract_z
 _atom_site_occupancy
  Na  Na0  1  0.70000709  0.04900460  0.70168254  1
  Na  Na1  1  0.20000709  0.65267794  0.70168254  1
  Na  Na2  1  0.29999291  0.95099540  0.29831746  1
  Na  Na3  1  0.79999291  0.34732206  0.29831746  1
  Ti  Ti4  1  0.78841166  0.74178520  0.30003959  1
  Ti  Ti5  1  0.28841166  0.55825439  0.30003959  1
  Ti  Ti6  1  0.21158834  0.25821480  0.69996041  1
  Ti  Ti7  1  0.71158834  0.44174561  0.69996041  1
  Si  Si8  1  0.22559695  0.85938791  0.53373024  1
  Si  Si9  1  0.72559695  0.67434234  0.53373024  1
  Si  Si10  1  0.77440305  0.14061209  0.46626976  1
  Si  Si11  1  0.27440305  0.32565766  0.46626976  1
  Si  Si12  1  0.22108451  0.03787833  0.87175230  1
  Si  Si13  1  0.72108451  0.83387397  0.87175230  1
  Si  Si14  1  0.77891549  0.96212167  0.12824770  1
  Si  Si15  1  0.27891549  0.16612603  0.12824770  1
  O  O16  1  0.25000000  0.14833180  -0.00000000  1
  O  O17  1  0.75000000  0.85166820  -0.00000000  1
  O  O18  1  0.49930279  0.95810105  0.84592903  1
  O  O19  1  0.99930279  0.88782798  0.84592903  1
  O  O20  1  0.50069721  0.04189895  0.15407097  1
  O  O21  1  0.00069721  0.11217202  0.15407097  1
  O  O22  1  0.49241303  0.78847463  0.58429736  1
  O  O23  1  0.99241303  0.79582273  0.58429736  1
  O  O24  1  0.50758697  0.21152537  0.41570264  1
  O  O25  1  0.00758697  0.20417727  0.41570264  1
  O  O26  1  0.45627156  0.68298990  0.23376772  1
  O  O27  1  0.95627156  0.55077782  0.23376772  1
  O  O28  1  0.54372844  0.31701010  0.76623228  1
  O  O29  1  0.04372844  0.44922218  0.76623228  1
  O  O30  1  0.72923901  0.94591299  0.41422406  1
  O  O31  1  0.22923901  0.46831107  0.41422406  1
  O  O32  1  0.27076099  0.05408701  0.58577594  1
  O  O33  1  0.77076099  0.53168893  0.58577594  1
  O  O34  1  0.17057832  0.78273389  0.40062237  1
  O  O35  1  0.67057832  0.61788848  0.40062237  1
  O  O36  1  0.82942168  0.21726611  0.59937763  1
  O  O37  1  0.32942168  0.38211152  0.59937763  1
  O  O38  1  0.87225514  0.86244515  0.20893906  1
  O  O39  1  0.37225514  0.34649391  0.20893906  1
  O  O40  1  0.12774486  0.13755485  0.79106094  1
  O  O41  1  0.62774486  0.65350609  0.79106094  1
