# generated using pymatgen
data_RbLiMg30O31
_symmetry_space_group_name_H-M   'P 1'
_cell_length_a   8.60871549
_cell_length_b   8.64460117
_cell_length_c   8.64460117
_cell_angle_alpha   90.00000000
_cell_angle_beta   90.00000000
_cell_angle_gamma   90.00000000
_symmetry_Int_Tables_number   1
_chemical_formula_structural   RbLiMg30O31
_chemical_formula_sum   'Rb1 Li1 Mg30 O31'
_cell_volume   643.32181372
_cell_formula_units_Z   1
loop_
 _symmetry_equiv_pos_site_id
 _symmetry_equiv_pos_as_xyz
  1  'x, y, z'
loop_
 _atom_site_type_symbol
 _atom_site_label
 _atom_site_symmetry_multiplicity
 _atom_site_fract_x
 _atom_site_fract_y
 _atom_site_fract_z
 _atom_site_occupancy
  Rb  Rb0  1  0.99758436  0.50000000  0.50000000  1
  Li  Li1  1  0.97665360  0.00000000  0.00000000  1
  Mg  Mg2  1  0.99513238  0.00000000  0.50000000  1
  Mg  Mg3  1  0.99513238  0.50000000  0.00000000  1
  Mg  Mg4  1  0.52120528  0.00000000  0.00000000  1
  Mg  Mg5  1  0.50255802  0.00000000  0.50000000  1
  Mg  Mg6  1  0.50255802  0.50000000  0.00000000  1
  Mg  Mg7  1  0.49985475  0.50000000  0.50000000  1
  Mg  Mg8  1  0.00097152  0.24351763  0.24351763  1
  Mg  Mg9  1  0.00097152  0.24351763  0.75648237  1
  Mg  Mg10  1  0.00097152  0.75648237  0.24351763  1
  Mg  Mg11  1  0.00097152  0.75648237  0.75648237  1
  Mg  Mg12  1  0.49963640  0.24909422  0.24909422  1
  Mg  Mg13  1  0.49963640  0.24909422  0.75090578  1
  Mg  Mg14  1  0.49963640  0.75090578  0.24909422  1
  Mg  Mg15  1  0.49963640  0.75090578  0.75090578  1
  Mg  Mg16  1  0.24587063  0.00000000  0.27158579  1
  Mg  Mg17  1  0.24587063  0.00000000  0.72841421  1
  Mg  Mg18  1  0.25131733  0.50000000  0.25006608  1
  Mg  Mg19  1  0.25131733  0.50000000  0.74993392  1
  Mg  Mg20  1  0.75676107  0.00000000  0.24826025  1
  Mg  Mg21  1  0.75676107  0.00000000  0.75173975  1
  Mg  Mg22  1  0.74802771  0.50000000  0.24804614  1
  Mg  Mg23  1  0.74802771  0.50000000  0.75195386  1
  Mg  Mg24  1  0.24587063  0.27158579  0.00000000  1
  Mg  Mg25  1  0.25131733  0.25006608  0.50000000  1
  Mg  Mg26  1  0.24587063  0.72841421  0.00000000  1
  Mg  Mg27  1  0.25131733  0.74993392  0.50000000  1
  Mg  Mg28  1  0.75676107  0.24826025  0.00000000  1
  Mg  Mg29  1  0.74802771  0.24804614  0.50000000  1
  Mg  Mg30  1  0.75676107  0.75173975  0.00000000  1
  Mg  Mg31  1  0.74802771  0.75195386  0.50000000  1
  O  O32  1  0.25844278  0.00000000  0.50000000  1
  O  O33  1  0.25844278  0.50000000  0.00000000  1
  O  O34  1  0.27822268  0.50000000  0.50000000  1
  O  O35  1  0.74912068  0.00000000  0.00000000  1
  O  O36  1  0.74354329  0.00000000  0.50000000  1
  O  O37  1  0.74354329  0.50000000  0.00000000  1
  O  O38  1  0.72004834  0.50000000  0.50000000  1
  O  O39  1  0.25046059  0.24508814  0.24508814  1
  O  O40  1  0.25046059  0.24508814  0.75491186  1
  O  O41  1  0.25046059  0.75491186  0.24508814  1
  O  O42  1  0.25046059  0.75491186  0.75491186  1
  O  O43  1  0.74979234  0.24855147  0.24855147  1
  O  O44  1  0.74979234  0.24855147  0.75144853  1
  O  O45  1  0.74979234  0.75144853  0.24855147  1
  O  O46  1  0.74979234  0.75144853  0.75144853  1
  O  O47  1  0.00580093  0.00000000  0.24655039  1
  O  O48  1  0.00580093  0.00000000  0.75344961  1
  O  O49  1  0.00271604  0.50000000  0.22090402  1
  O  O50  1  0.00271604  0.50000000  0.77909598  1
  O  O51  1  0.49210136  0.00000000  0.24168586  1
  O  O52  1  0.49210136  0.00000000  0.75831414  1
  O  O53  1  0.49853342  0.50000000  0.24306859  1
  O  O54  1  0.49853342  0.50000000  0.75693141  1
  O  O55  1  0.00580093  0.24655039  0.00000000  1
  O  O56  1  0.00271604  0.22090402  0.50000000  1
  O  O57  1  0.00580093  0.75344961  0.00000000  1
  O  O58  1  0.00271604  0.77909598  0.50000000  1
  O  O59  1  0.49210136  0.24168586  0.00000000  1
  O  O60  1  0.49853342  0.24306859  0.50000000  1
  O  O61  1  0.49210136  0.75831414  0.00000000  1
  O  O62  1  0.49853342  0.75693141  0.50000000  1
