# generated using pymatgen
data_NaP3H24(N2O7)2
_symmetry_space_group_name_H-M   'P 1'
_cell_length_a   6.99857406
_cell_length_b   6.99857406
_cell_length_c   19.91810616
_cell_angle_alpha   94.12219295
_cell_angle_beta   96.86742770
_cell_angle_gamma   117.07208090
_symmetry_Int_Tables_number   1
_chemical_formula_structural   NaP3H24(N2O7)2
_chemical_formula_sum   'Na2 P6 H48 N8 O28'
_cell_volume   853.61884330
_cell_formula_units_Z   2
loop_
 _symmetry_equiv_pos_site_id
 _symmetry_equiv_pos_as_xyz
  1  'x, y, z'
loop_
 _atom_site_type_symbol
 _atom_site_label
 _atom_site_symmetry_multiplicity
 _atom_site_fract_x
 _atom_site_fract_y
 _atom_site_fract_z
 _atom_site_occupancy
  Na  Na0  1  0.50000000  -0.00000000  0.50000000  1
  Na  Na1  1  0.00000000  -0.00000000  0.00000000  1
  P  P2  1  0.32513539  0.07513539  0.25000000  1
  P  P3  1  0.67486461  0.92486461  0.75000000  1
  P  P4  1  0.50109172  0.28994910  0.13051714  1
  P  P5  1  0.65943196  0.37057459  0.36948286  1
  P  P6  1  0.49890828  0.71005090  0.86948286  1
  P  P7  1  0.34056804  0.62942541  0.63051714  1
  H  H8  1  0.84516890  0.64196238  0.90096224  1
  H  H9  1  0.24100014  0.94420666  0.59903776  1
  H  H10  1  0.15483110  0.35803762  0.09903776  1
  H  H11  1  0.75899986  0.05579334  0.40096224  1
  H  H12  1  0.07958976  0.65552183  0.91476836  1
  H  H13  1  0.24075347  0.16482140  0.58523164  1
  H  H14  1  0.92041024  0.34447817  0.08523164  1
  H  H15  1  0.75924653  0.83517860  0.41476836  1
  H  H16  1  0.16931851  0.31942401  0.89679549  1
  H  H17  1  0.92262852  0.27252301  0.60320451  1
  H  H18  1  0.83068149  0.68057599  0.10320451  1
  H  H19  1  0.07737148  0.72747699  0.39679549  1
  H  H20  1  0.71800528  0.17587558  0.63814498  1
  H  H21  1  0.03773060  0.07986030  0.86185502  1
  H  H22  1  0.28199472  0.82412442  0.36185502  1
  H  H23  1  0.96226940  0.92013970  0.13814498  1
  H  H24  1  0.08003914  0.58677891  0.79822808  1
  H  H25  1  0.28855083  0.28181106  0.70177192  1
  H  H26  1  0.91996086  0.41322109  0.20177192  1
  H  H27  1  0.71144917  0.71818894  0.29822808  1
  H  H28  1  0.85512706  0.41087306  0.74207659  1
  H  H29  1  0.16879647  0.11305046  0.75792341  1
  H  H30  1  0.14487294  0.58912694  0.25792341  1
  H  H31  1  0.83120353  0.88694954  0.24207659  1
  H  H32  1  0.05682306  0.62745587  0.71423285  1
  H  H33  1  0.41322303  0.34259021  0.78576715  1
  H  H34  1  0.94317694  0.37254413  0.28576715  1
  H  H35  1  0.58677697  0.65740979  0.21423285  1
  H  H36  1  0.90014562  0.67184923  0.76507569  1
  H  H37  1  0.40677354  0.13506993  0.73492431  1
  H  H38  1  0.09985438  0.32815077  0.23492431  1
  H  H39  1  0.59322646  0.86493007  0.26507569  1
  H  H40  1  0.27998596  0.46798461  0.50241213  1
  H  H41  1  0.46557248  0.77757383  0.99758787  1
  H  H42  1  0.72001404  0.53201539  0.49758787  1
  H  H43  1  0.53442752  0.22242617  0.00241213  1
  H  H44  1  0.66803592  0.67983072  0.55711891  1
  H  H45  1  0.62271182  0.11091702  0.94288109  1
  H  H46  1  0.33196408  0.32016928  0.44288109  1
  H  H47  1  0.37728818  0.88908298  0.05711891  1
  H  H48  1  0.74697750  0.38919531  0.96241416  1
  H  H49  1  0.92678114  0.78456334  0.53758584  1
  H  H50  1  0.25302250  0.61080469  0.03758584  1
  H  H51  1  0.07321886  0.21543666  0.46241416  1
  H  H52  1  0.83269818  0.56571258  0.57908704  1
  H  H53  1  0.48662554  0.25361114  0.92091296  1
  H  H54  1  0.16730182  0.43428742  0.42091296  1
  H  H55  1  0.51337446  0.74638886  0.07908704  1
  N  N56  1  0.97085331  0.57318118  0.75471283  1
  N  N57  1  0.31846836  0.21614048  0.74528717  1
  N  N58  1  0.02914669  0.42681882  0.24528717  1
  N  N59  1  0.68153164  0.78385952  0.25471283  1
  N  N60  1  0.78999332  0.64381389  0.54291845  1
  N  N61  1  0.60089544  0.24707488  0.95708155  1
  N  N62  1  0.21000668  0.35618611  0.45708155  1
  N  N63  1  0.39910456  0.75292512  0.04291845  1
  O  O64  1  0.55831904  0.71512797  0.69190799  1
  O  O65  1  0.52321997  0.86641104  0.80809201  1
  O  O66  1  0.44168096  0.28487203  0.30809201  1
  O  O67  1  0.47678003  0.13358896  0.19190799  1
  O  O68  1  0.89569898  0.94438746  0.77655358  1
  O  O69  1  0.66783387  0.11914540  0.72344642  1
  O  O70  1  0.10430102  0.05561254  0.22344642  1
  O  O71  1  0.33216613  0.88085460  0.27655358  1
  O  O72  1  0.43323016  0.68879555  0.56469886  1
  O  O73  1  0.62409669  0.86853129  0.93530114  1
  O  O74  1  0.56676984  0.31120445  0.43530114  1
  O  O75  1  0.37590331  0.13146871  0.06469886  1
  O  O76  1  0.22212641  0.38310088  0.63077415  1
  O  O77  1  0.25232673  0.59135226  0.86922585  1
  O  O78  1  0.77787359  0.61689912  0.36922585  1
  O  O79  1  0.74767327  0.40864774  0.13077415  1
  O  O80  1  0.59205421  0.55867083  0.85003625  1
  O  O81  1  0.20863458  0.74201796  0.64996375  1
  O  O82  1  0.40794579  0.44132917  0.14996375  1
  O  O83  1  0.79136542  0.25798204  0.35003625  1
  O  O84  1  0.96701436  0.66692883  0.93802977  1
  O  O85  1  0.22889906  0.02898460  0.56197023  1
  O  O86  1  0.03298564  0.33307117  0.06197023  1
  O  O87  1  0.77110094  0.97101540  0.43802977  1
  O  O88  1  0.76629218  0.23343458  0.59581944  1
  O  O89  1  0.13761515  0.17047275  0.90418056  1
  O  O90  1  0.23370782  0.76656542  0.40418056  1
  O  O91  1  0.86238485  0.82952725  0.09581944  1
