# generated using pymatgen
data_CsH24Ir(SO10)2
_symmetry_space_group_name_H-M   'P 1'
_cell_length_a   12.48032953
_cell_length_b   12.48032953
_cell_length_c   12.48032953
_cell_angle_alpha   90.00000000
_cell_angle_beta   90.00000000
_cell_angle_gamma   90.00000000
_symmetry_Int_Tables_number   1
_chemical_formula_structural   CsH24Ir(SO10)2
_chemical_formula_sum   'Cs4 H96 Ir4 S8 O80'
_cell_volume   1943.91896935
_cell_formula_units_Z   4
loop_
 _symmetry_equiv_pos_site_id
 _symmetry_equiv_pos_as_xyz
  1  'x, y, z'
loop_
 _atom_site_type_symbol
 _atom_site_label
 _atom_site_symmetry_multiplicity
 _atom_site_fract_x
 _atom_site_fract_y
 _atom_site_fract_z
 _atom_site_occupancy
  Cs  Cs0  1  0.00000000  0.00000000  0.50000000  1
  Cs  Cs1  1  0.00000000  0.50000000  -0.00000000  1
  Cs  Cs2  1  0.50000000  0.00000000  -0.00000000  1
  Cs  Cs3  1  0.50000000  0.50000000  0.50000000  1
  H  H4  1  0.21484375  0.61939423  0.17726538  1
  H  H5  1  0.78515625  0.11939423  0.32273462  1
  H  H6  1  0.28515625  0.38060577  0.67726538  1
  H  H7  1  0.71484375  0.88060577  0.82273462  1
  H  H8  1  0.17726538  0.21484375  0.61939423  1
  H  H9  1  0.32273462  0.78515625  0.11939423  1
  H  H10  1  0.67726538  0.28515625  0.38060577  1
  H  H11  1  0.82273462  0.71484375  0.88060577  1
  H  H12  1  0.61939423  0.17726538  0.21484375  1
  H  H13  1  0.11939423  0.32273462  0.78515625  1
  H  H14  1  0.38060577  0.67726538  0.28515625  1
  H  H15  1  0.88060577  0.82273462  0.71484375  1
  H  H16  1  0.78515625  0.38060577  0.82273462  1
  H  H17  1  0.21484375  0.88060577  0.67726538  1
  H  H18  1  0.71484375  0.61939423  0.32273462  1
  H  H19  1  0.28515625  0.11939423  0.17726538  1
  H  H20  1  0.82273462  0.78515625  0.38060577  1
  H  H21  1  0.67726538  0.21484375  0.88060577  1
  H  H22  1  0.32273462  0.71484375  0.61939423  1
  H  H23  1  0.17726538  0.28515625  0.11939423  1
  H  H24  1  0.38060577  0.82273462  0.78515625  1
  H  H25  1  0.88060577  0.67726538  0.21484375  1
  H  H26  1  0.61939423  0.32273462  0.71484375  1
  H  H27  1  0.11939423  0.17726538  0.28515625  1
  H  H28  1  0.21789820  0.49845152  0.20883366  1
  H  H29  1  0.78210180  0.99845152  0.29116634  1
  H  H30  1  0.28210180  0.50154848  0.70883366  1
  H  H31  1  0.71789820  0.00154848  0.79116634  1
  H  H32  1  0.20883366  0.21789820  0.49845152  1
  H  H33  1  0.29116634  0.78210180  0.99845152  1
  H  H34  1  0.70883366  0.28210180  0.50154848  1
  H  H35  1  0.79116634  0.71789820  0.00154848  1
  H  H36  1  0.49845152  0.20883366  0.21789820  1
  H  H37  1  0.99845152  0.29116634  0.78210180  1
  H  H38  1  0.50154848  0.70883366  0.28210180  1
  H  H39  1  0.00154848  0.79116634  0.71789820  1
  H  H40  1  0.78210180  0.50154848  0.79116634  1
  H  H41  1  0.21789820  0.00154848  0.70883366  1
  H  H42  1  0.71789820  0.49845152  0.29116634  1
  H  H43  1  0.28210180  0.99845152  0.20883366  1
  H  H44  1  0.79116634  0.78210180  0.50154848  1
  H  H45  1  0.70883366  0.21789820  0.00154848  1
  H  H46  1  0.29116634  0.71789820  0.49845152  1
  H  H47  1  0.20883366  0.28210180  0.99845152  1
  H  H48  1  0.50154848  0.79116634  0.78210180  1
  H  H49  1  0.00154848  0.70883366  0.21789820  1
  H  H50  1  0.49845152  0.29116634  0.71789820  1
  H  H51  1  0.99845152  0.20883366  0.28210180  1
  H  H52  1  0.57441507  0.69721384  0.03429527  1
  H  H53  1  0.42558493  0.19721384  0.46570473  1
  H  H54  1  0.92558493  0.30278616  0.53429527  1
  H  H55  1  0.07441507  0.80278616  0.96570473  1
  H  H56  1  0.03429527  0.57441507  0.69721384  1
  H  H57  1  0.46570473  0.42558493  0.19721384  1
  H  H58  1  0.53429527  0.92558493  0.30278616  1
  H  H59  1  0.96570473  0.07441507  0.80278616  1
  H  H60  1  0.69721384  0.03429527  0.57441507  1
  H  H61  1  0.19721384  0.46570473  0.42558493  1
  H  H62  1  0.30278616  0.53429527  0.92558493  1
  H  H63  1  0.80278616  0.96570473  0.07441507  1
  H  H64  1  0.42558493  0.30278616  0.96570473  1
  H  H65  1  0.57441507  0.80278616  0.53429527  1
  H  H66  1  0.07441507  0.69721384  0.46570473  1
  H  H67  1  0.92558493  0.19721384  0.03429527  1
  H  H68  1  0.96570473  0.42558493  0.30278616  1
  H  H69  1  0.53429527  0.57441507  0.80278616  1
  H  H70  1  0.46570473  0.07441507  0.69721384  1
  H  H71  1  0.03429527  0.92558493  0.19721384  1
  H  H72  1  0.30278616  0.96570473  0.42558493  1
  H  H73  1  0.80278616  0.53429527  0.57441507  1
  H  H74  1  0.69721384  0.46570473  0.07441507  1
  H  H75  1  0.19721384  0.03429527  0.92558493  1
  H  H76  1  0.44457938  0.71202740  0.01992814  1
  H  H77  1  0.55542062  0.21202740  0.48007186  1
  H  H78  1  0.05542062  0.28797260  0.51992814  1
  H  H79  1  0.94457938  0.78797260  0.98007186  1
  H  H80  1  0.01992814  0.44457938  0.71202740  1
  H  H81  1  0.48007186  0.55542062  0.21202740  1
  H  H82  1  0.51992814  0.05542062  0.28797260  1
  H  H83  1  0.98007186  0.94457938  0.78797260  1
  H  H84  1  0.71202740  0.01992814  0.44457938  1
  H  H85  1  0.21202740  0.48007186  0.55542062  1
  H  H86  1  0.28797260  0.51992814  0.05542062  1
  H  H87  1  0.78797260  0.98007186  0.94457938  1
  H  H88  1  0.55542062  0.28797260  0.98007186  1
  H  H89  1  0.44457938  0.78797260  0.51992814  1
  H  H90  1  0.94457938  0.71202740  0.48007186  1
  H  H91  1  0.05542062  0.21202740  0.01992814  1
  H  H92  1  0.98007186  0.55542062  0.28797260  1
  H  H93  1  0.51992814  0.44457938  0.78797260  1
  H  H94  1  0.48007186  0.94457938  0.71202740  1
  H  H95  1  0.01992814  0.05542062  0.21202740  1
  H  H96  1  0.28797260  0.98007186  0.55542062  1
  H  H97  1  0.78797260  0.51992814  0.44457938  1
  H  H98  1  0.71202740  0.48007186  0.94457938  1
  H  H99  1  0.21202740  0.01992814  0.05542062  1
  Ir  Ir100  1  0.50000000  0.50000000  -0.00000000  1
  Ir  Ir101  1  0.50000000  0.00000000  0.50000000  1
  Ir  Ir102  1  0.00000000  0.50000000  0.50000000  1
  Ir  Ir103  1  0.00000000  0.00000000  -0.00000000  1
  S  S104  1  0.18945825  0.81054175  0.31054175  1
  S  S105  1  0.81054175  0.31054175  0.18945825  1
  S  S106  1  0.31054175  0.18945825  0.81054175  1
  S  S107  1  0.68945825  0.68945825  0.68945825  1
  S  S108  1  0.81054175  0.18945825  0.68945825  1
  S  S109  1  0.18945825  0.68945825  0.81054175  1
  S  S110  1  0.68945825  0.81054175  0.18945825  1
  S  S111  1  0.31054175  0.31054175  0.31054175  1
  O  O112  1  0.25888376  0.74111624  0.24111624  1
  O  O113  1  0.74111624  0.24111624  0.25888376  1
  O  O114  1  0.24111624  0.25888376  0.74111624  1
  O  O115  1  0.75888376  0.75888376  0.75888376  1
  O  O116  1  0.74111624  0.25888376  0.75888376  1
  O  O117  1  0.25888376  0.75888376  0.74111624  1
  O  O118  1  0.75888376  0.74111624  0.25888376  1
  O  O119  1  0.24111624  0.24111624  0.24111624  1
  O  O120  1  0.08037555  0.81836309  0.26266452  1
  O  O121  1  0.91962445  0.31836309  0.23733548  1
  O  O122  1  0.41962445  0.18163691  0.76266452  1
  O  O123  1  0.58037555  0.68163691  0.73733548  1
  O  O124  1  0.26266452  0.08037555  0.81836309  1
  O  O125  1  0.23733548  0.91962445  0.31836309  1
  O  O126  1  0.76266452  0.41962445  0.18163691  1
  O  O127  1  0.73733548  0.58037555  0.68163691  1
  O  O128  1  0.81836309  0.26266452  0.08037555  1
  O  O129  1  0.31836309  0.23733548  0.91962445  1
  O  O130  1  0.18163691  0.76266452  0.41962445  1
  O  O131  1  0.68163691  0.73733548  0.58037555  1
  O  O132  1  0.91962445  0.18163691  0.73733548  1
  O  O133  1  0.08037555  0.68163691  0.76266452  1
  O  O134  1  0.58037555  0.81836309  0.23733548  1
  O  O135  1  0.41962445  0.31836309  0.26266452  1
  O  O136  1  0.73733548  0.91962445  0.18163691  1
  O  O137  1  0.76266452  0.08037555  0.68163691  1
  O  O138  1  0.23733548  0.58037555  0.81836309  1
  O  O139  1  0.26266452  0.41962445  0.31836309  1
  O  O140  1  0.18163691  0.73733548  0.91962445  1
  O  O141  1  0.68163691  0.76266452  0.08037555  1
  O  O142  1  0.81836309  0.23733548  0.58037555  1
  O  O143  1  0.31836309  0.26266452  0.41962445  1
  O  O144  1  0.20482181  0.54654196  0.14725596  1
  O  O145  1  0.79517819  0.04654196  0.35274404  1
  O  O146  1  0.29517819  0.45345804  0.64725596  1
  O  O147  1  0.70482181  0.95345804  0.85274404  1
  O  O148  1  0.14725596  0.20482181  0.54654196  1
  O  O149  1  0.35274404  0.79517819  0.04654196  1
  O  O150  1  0.64725596  0.29517819  0.45345804  1
  O  O151  1  0.85274404  0.70482181  0.95345804  1
  O  O152  1  0.54654196  0.14725596  0.20482181  1
  O  O153  1  0.04654196  0.35274404  0.79517819  1
  O  O154  1  0.45345804  0.64725596  0.29517819  1
  O  O155  1  0.95345804  0.85274404  0.70482181  1
  O  O156  1  0.79517819  0.45345804  0.85274404  1
  O  O157  1  0.20482181  0.95345804  0.64725596  1
  O  O158  1  0.70482181  0.54654196  0.35274404  1
  O  O159  1  0.29517819  0.04654196  0.14725596  1
  O  O160  1  0.85274404  0.79517819  0.45345804  1
  O  O161  1  0.64725596  0.20482181  0.95345804  1
  O  O162  1  0.35274404  0.70482181  0.54654196  1
  O  O163  1  0.14725596  0.29517819  0.04654196  1
  O  O164  1  0.45345804  0.85274404  0.79517819  1
  O  O165  1  0.95345804  0.64725596  0.20482181  1
  O  O166  1  0.54654196  0.35274404  0.70482181  1
  O  O167  1  0.04654196  0.14725596  0.29517819  1
  O  O168  1  0.50940351  0.66616884  0.99849728  1
  O  O169  1  0.49059649  0.16616884  0.50150272  1
  O  O170  1  0.99059649  0.33383116  0.49849728  1
  O  O171  1  0.00940351  0.83383116  0.00150272  1
  O  O172  1  0.99849728  0.50940351  0.66616884  1
  O  O173  1  0.50150272  0.49059649  0.16616884  1
  O  O174  1  0.49849728  0.99059649  0.33383116  1
  O  O175  1  0.00150272  0.00940351  0.83383116  1
  O  O176  1  0.66616884  0.99849728  0.50940351  1
  O  O177  1  0.16616884  0.50150272  0.49059649  1
  O  O178  1  0.33383116  0.49849728  0.99059649  1
  O  O179  1  0.83383116  0.00150272  0.00940351  1
  O  O180  1  0.49059649  0.33383116  0.00150272  1
  O  O181  1  0.50940351  0.83383116  0.49849728  1
  O  O182  1  0.00940351  0.66616884  0.50150272  1
  O  O183  1  0.99059649  0.16616884  0.99849728  1
  O  O184  1  0.00150272  0.49059649  0.33383116  1
  O  O185  1  0.49849728  0.50940351  0.83383116  1
  O  O186  1  0.50150272  0.00940351  0.66616884  1
  O  O187  1  0.99849728  0.99059649  0.16616884  1
  O  O188  1  0.33383116  0.00150272  0.49059649  1
  O  O189  1  0.83383116  0.49849728  0.50940351  1
  O  O190  1  0.66616884  0.50150272  0.00940351  1
  O  O191  1  0.16616884  0.99849728  0.99059649  1
