# generated using pymatgen
data_Tm10In20Ni9
_symmetry_space_group_name_H-M   'P 1'
_cell_length_a   9.11062459
_cell_length_b   13.33731912
_cell_length_c   13.33731912
_cell_angle_alpha   90.00000000
_cell_angle_beta   90.00000000
_cell_angle_gamma   90.00000000
_symmetry_Int_Tables_number   1
_chemical_formula_structural   Tm10In20Ni9
_chemical_formula_sum   'Tm20 In40 Ni18'
_cell_volume   1620.63508534
_cell_formula_units_Z   2
loop_
 _symmetry_equiv_pos_site_id
 _symmetry_equiv_pos_as_xyz
  1  'x, y, z'
loop_
 _atom_site_type_symbol
 _atom_site_label
 _atom_site_symmetry_multiplicity
 _atom_site_fract_x
 _atom_site_fract_y
 _atom_site_fract_z
 _atom_site_occupancy
  Tm  Tm0  1  0.36034885  0.75000000  0.75000000  1
  Tm  Tm1  1  0.63965115  0.25000000  0.25000000  1
  Tm  Tm2  1  0.83380634  0.75000000  0.75000000  1
  Tm  Tm3  1  0.16619366  0.25000000  0.25000000  1
  Tm  Tm4  1  0.76714694  0.02730303  0.75000000  1
  Tm  Tm5  1  0.76714694  0.47269697  0.75000000  1
  Tm  Tm6  1  0.76714694  0.75000000  0.02730303  1
  Tm  Tm7  1  0.76714694  0.75000000  0.47269697  1
  Tm  Tm8  1  0.23285306  0.97269697  0.25000000  1
  Tm  Tm9  1  0.23285306  0.52730303  0.25000000  1
  Tm  Tm10  1  0.23285306  0.25000000  0.97269697  1
  Tm  Tm11  1  0.23285306  0.25000000  0.52730303  1
  Tm  Tm12  1  0.26715852  0.95364007  0.95364007  1
  Tm  Tm13  1  0.26715852  0.54635993  0.95364007  1
  Tm  Tm14  1  0.26715852  0.95364007  0.54635993  1
  Tm  Tm15  1  0.26715852  0.54635993  0.54635993  1
  Tm  Tm16  1  0.73284148  0.04635993  0.04635993  1
  Tm  Tm17  1  0.73284148  0.45364007  0.04635993  1
  Tm  Tm18  1  0.73284148  0.04635993  0.45364007  1
  Tm  Tm19  1  0.73284148  0.45364007  0.45364007  1
  In  In20  1  0.00000000  0.40377631  0.59622369  1
  In  In21  1  0.00000000  0.09622369  0.59622369  1
  In  In22  1  0.00000000  0.40377631  0.90377631  1
  In  In23  1  0.00000000  0.09622369  0.90377631  1
  In  In24  1  0.00000000  0.59622369  0.40377631  1
  In  In25  1  0.00000000  0.90377631  0.40377631  1
  In  In26  1  0.00000000  0.59622369  0.09622369  1
  In  In27  1  0.00000000  0.90377631  0.09622369  1
  In  In28  1  0.50000000  0.88054316  0.11945684  1
  In  In29  1  0.50000000  0.61945684  0.11945684  1
  In  In30  1  0.50000000  0.88054316  0.38054316  1
  In  In31  1  0.50000000  0.61945684  0.38054316  1
  In  In32  1  0.50000000  0.11945684  0.88054316  1
  In  In33  1  0.50000000  0.38054316  0.88054316  1
  In  In34  1  0.50000000  0.11945684  0.61945684  1
  In  In35  1  0.50000000  0.38054316  0.61945684  1
  In  In36  1  0.09256956  0.58323900  0.75000000  1
  In  In37  1  0.09256956  0.91676100  0.75000000  1
  In  In38  1  0.09256956  0.75000000  0.58323900  1
  In  In39  1  0.09256956  0.75000000  0.91676100  1
  In  In40  1  0.90743044  0.41676100  0.25000000  1
  In  In41  1  0.90743044  0.08323900  0.25000000  1
  In  In42  1  0.90743044  0.25000000  0.41676100  1
  In  In43  1  0.90743044  0.25000000  0.08323900  1
  In  In44  1  0.58974691  0.88184776  0.88184776  1
  In  In45  1  0.58974691  0.61815224  0.88184776  1
  In  In46  1  0.58974691  0.88184776  0.61815224  1
  In  In47  1  0.58974691  0.61815224  0.61815224  1
  In  In48  1  0.41025309  0.11815224  0.11815224  1
  In  In49  1  0.41025309  0.38184776  0.11815224  1
  In  In50  1  0.41025309  0.11815224  0.38184776  1
  In  In51  1  0.41025309  0.38184776  0.38184776  1
  In  In52  1  0.23551474  0.36575607  0.75000000  1
  In  In53  1  0.23551474  0.13424393  0.75000000  1
  In  In54  1  0.23551474  0.75000000  0.36575607  1
  In  In55  1  0.23551474  0.75000000  0.13424393  1
  In  In56  1  0.76448526  0.63424393  0.25000000  1
  In  In57  1  0.76448526  0.86575607  0.25000000  1
  In  In58  1  0.76448526  0.25000000  0.63424393  1
  In  In59  1  0.76448526  0.25000000  0.86575607  1
  Ni  Ni60  1  0.00000000  0.25000000  0.75000000  1
  Ni  Ni61  1  0.00000000  0.75000000  0.25000000  1
  Ni  Ni62  1  0.40782560  0.52759086  0.75000000  1
  Ni  Ni63  1  0.40782560  0.97240914  0.75000000  1
  Ni  Ni64  1  0.40782560  0.75000000  0.52759086  1
  Ni  Ni65  1  0.40782560  0.75000000  0.97240914  1
  Ni  Ni66  1  0.59217440  0.47240914  0.25000000  1
  Ni  Ni67  1  0.59217440  0.02759086  0.25000000  1
  Ni  Ni68  1  0.59217440  0.25000000  0.47240914  1
  Ni  Ni69  1  0.59217440  0.25000000  0.02759086  1
  Ni  Ni70  1  0.10488070  0.09397816  0.09397816  1
  Ni  Ni71  1  0.10488070  0.40602184  0.09397816  1
  Ni  Ni72  1  0.10488070  0.09397816  0.40602184  1
  Ni  Ni73  1  0.10488070  0.40602184  0.40602184  1
  Ni  Ni74  1  0.89511930  0.90602184  0.90602184  1
  Ni  Ni75  1  0.89511930  0.59397816  0.90602184  1
  Ni  Ni76  1  0.89511930  0.90602184  0.59397816  1
  Ni  Ni77  1  0.89511930  0.59397816  0.59397816  1
