# generated using pymatgen
data_FeBP(HO3)2
_symmetry_space_group_name_H-M   'P 1'
_cell_length_a   7.69400525
_cell_length_b   7.69400525
_cell_length_c   12.76583319
_cell_angle_alpha   90.00000000
_cell_angle_beta   90.00000000
_cell_angle_gamma   119.99999861
_symmetry_Int_Tables_number   1
_chemical_formula_structural   FeBP(HO3)2
_chemical_formula_sum   'Fe6 B6 P6 H12 O36'
_cell_volume   654.46248862
_cell_formula_units_Z   6
loop_
 _symmetry_equiv_pos_site_id
 _symmetry_equiv_pos_as_xyz
  1  'x, y, z'
loop_
 _atom_site_type_symbol
 _atom_site_label
 _atom_site_symmetry_multiplicity
 _atom_site_fract_x
 _atom_site_fract_y
 _atom_site_fract_z
 _atom_site_occupancy
  Fe  Fe0  1  0.12966069  0.12939322  0.33313629  1
  Fe  Fe1  1  -0.00026748  0.87033931  0.66647029  1
  Fe  Fe2  1  0.87060678  0.00026748  -0.00019671  1
  Fe  Fe3  1  0.75023098  0.99970179  0.50002828  1
  Fe  Fe4  1  0.24947081  0.24976902  0.83336228  1
  Fe  Fe5  1  0.00029821  0.75052919  0.16669528  1
  B  B6  1  0.68381832  0.24537471  0.12692115  1
  B  B7  1  0.56155639  0.31618168  0.46025515  1
  B  B8  1  0.75462529  0.43844361  0.79358815  1
  B  B9  1  0.43870093  0.75444665  0.87311933  1
  B  B10  1  0.24555335  0.68425428  0.53978533  1
  B  B11  1  0.31574572  0.56129907  0.20645233  1
  P  P12  1  0.67672983  0.92627261  0.23696969  1
  P  P13  1  0.24954278  0.32327017  0.57030369  1
  P  P14  1  0.07372739  0.75045722  0.90363669  1
  P  P15  1  0.75058842  0.07356618  0.76315304  1
  P  P16  1  0.92643382  0.67702224  0.42981904  1
  P  P17  1  0.32297776  0.24941158  0.09648604  1
  H  H18  1  0.41938324  0.72362183  0.40884996  1
  H  H19  1  0.30423859  0.58061676  0.74218396  1
  H  H20  1  0.27637817  0.69576141  0.07551696  1
  H  H21  1  0.69570381  0.27637046  0.59115577  1
  H  H22  1  0.72362954  0.41933335  0.25782177  1
  H  H23  1  0.58066665  0.30429619  0.92448877  1
  H  H24  1  0.45062605  0.09100598  0.34916811  1
  H  H25  1  0.64037993  0.54937395  0.68250211  1
  H  H26  1  0.90899402  0.35962007  0.01583511  1
  H  H27  1  0.35990165  0.90890854  0.65062743  1
  H  H28  1  0.09109146  0.45099311  0.31729343  1
  H  H29  1  0.54900689  0.64009835  0.98396043  1
  O  O30  1  0.43004063  0.78512402  0.47794899  1
  O  O31  1  0.35508339  0.56995937  0.81128299  1
  O  O32  1  0.21487598  0.64491661  0.14461599  1
  O  O33  1  0.64494121  0.21491454  0.52202580  1
  O  O34  1  0.78508546  0.43002667  0.18869180  1
  O  O35  1  0.56997333  0.35505879  0.85535880  1
  O  O36  1  0.41408280  0.18110456  0.38381650  1
  O  O37  1  0.76702176  0.58591720  0.71715050  1
  O  O38  1  0.81889544  0.23297824  0.05048350  1
  O  O39  1  0.23355942  0.81918531  0.61616141  1
  O  O40  1  0.18081469  0.41437411  0.28282741  1
  O  O41  1  0.58562589  0.76644058  0.94949441  1
  O  O42  1  0.80018269  0.02207095  0.33693634  1
  O  O43  1  0.22188826  0.19981731  0.67027034  1
  O  O44  1  0.97792905  0.77811174  0.00360334  1
  O  O45  1  0.77828745  0.97830069  0.66307338  1
  O  O46  1  0.02169931  0.79998677  0.32973938  1
  O  O47  1  0.20001323  0.22171255  0.99640638  1
  O  O48  1  0.59597180  0.06348503  0.19371118  1
  O  O49  1  0.46751322  0.40402820  0.52704518  1
  O  O50  1  0.93651497  0.53248678  0.86037818  1
  O  O51  1  0.53236856  0.93652789  0.80624556  1
  O  O52  1  0.06347211  0.59584067  0.47291156  1
  O  O53  1  0.40415933  0.46763144  0.13957856  1
  O  O54  1  0.48657153  0.72573168  0.27028646  1
  O  O55  1  0.23916015  0.51342847  0.60362046  1
  O  O56  1  0.27426832  0.76083985  0.93695346  1
  O  O57  1  0.76078830  0.27425494  0.72976121  1
  O  O58  1  0.72574506  0.48653335  0.39642721  1
  O  O59  1  0.51346665  0.23921170  0.06309421  1
  O  O60  1  0.79793377  0.88792279  0.15471012  1
  O  O61  1  0.08998902  0.20206623  0.48804412  1
  O  O62  1  0.11207721  0.91001098  0.82137712  1
  O  O63  1  0.91033760  0.11275780  0.84556000  1
  O  O64  1  0.88724220  0.79757980  0.51222600  1
  O  O65  1  0.20242020  0.08966240  0.17889300  1
