# generated using pymatgen
data_Ni3P4O15
_symmetry_space_group_name_H-M   'P 1'
_cell_length_a   18.11613784
_cell_length_b   10.47360526
_cell_length_c   6.44770296
_cell_angle_alpha   90.00000000
_cell_angle_beta   90.00000000
_cell_angle_gamma   90.00000000
_symmetry_Int_Tables_number   1
_chemical_formula_structural   Ni3P4O15
_chemical_formula_sum   'Ni12 P16 O60'
_cell_volume   1223.39539059
_cell_formula_units_Z   4
loop_
 _symmetry_equiv_pos_site_id
 _symmetry_equiv_pos_as_xyz
  1  'x, y, z'
loop_
 _atom_site_type_symbol
 _atom_site_label
 _atom_site_symmetry_multiplicity
 _atom_site_fract_x
 _atom_site_fract_y
 _atom_site_fract_z
 _atom_site_occupancy
  Ni  Ni0  1  0.83054794  0.00522380  0.00924707  1
  Ni  Ni1  1  0.13329193  0.50389096  0.49044289  1
  Ni  Ni2  1  0.86670807  0.49610904  0.99044289  1
  Ni  Ni3  1  0.75845907  0.74357579  0.73192962  1
  Ni  Ni4  1  0.63329193  0.99610904  0.49044289  1
  Ni  Ni5  1  0.74154093  0.24357579  0.23192962  1
  Ni  Ni6  1  0.24154093  0.25642421  0.23192962  1
  Ni  Ni7  1  0.66945206  0.50522380  0.50924707  1
  Ni  Ni8  1  0.16945206  0.99477620  0.50924707  1
  Ni  Ni9  1  0.25845907  0.75642421  0.73192962  1
  Ni  Ni10  1  0.33054794  0.49477620  0.00924707  1
  Ni  Ni11  1  0.36670807  0.00389096  0.99044289  1
  P  P12  1  0.31888219  0.01710407  0.49373375  1
  P  P13  1  0.05078043  0.77203808  0.55558452  1
  P  P14  1  0.78715870  0.00232049  0.50558265  1
  P  P15  1  0.21284130  0.99767951  0.00558265  1
  P  P16  1  0.55078043  0.72796192  0.55558452  1
  P  P17  1  0.18111781  0.51710407  0.99373375  1
  P  P18  1  0.44921957  0.27203808  0.05558452  1
  P  P19  1  0.94921957  0.22796192  0.05558452  1
  P  P20  1  0.28715870  0.49767951  0.50558265  1
  P  P21  1  0.81888219  0.48289593  0.49373375  1
  P  P22  1  0.68111781  0.98289593  0.99373375  1
  P  P23  1  0.07292987  0.22826141  0.36297112  1
  P  P24  1  0.42707013  0.72826141  0.86297112  1
  P  P25  1  0.57292987  0.27173859  0.36297112  1
  P  P26  1  0.92707013  0.77173859  0.86297112  1
  P  P27  1  0.71284130  0.50232049  0.00558265  1
  O  O28  1  0.58645173  0.38560758  0.50635136  1
  O  O29  1  0.23484762  0.39962886  0.02342433  1
  O  O30  1  0.99283627  0.19702822  0.26528131  1
  O  O31  1  0.36897216  0.73473858  0.69075323  1
  O  O32  1  0.26718489  0.11364883  0.03733007  1
  O  O33  1  0.86667672  0.45716974  0.68345578  1
  O  O34  1  0.26515238  0.89962886  0.52342433  1
  O  O35  1  0.13332328  0.54283026  0.18345578  1
  O  O36  1  0.25793953  0.12393051  0.46016165  1
  O  O37  1  0.41354827  0.61439242  0.00635136  1
  O  O38  1  0.36667672  0.04283026  0.68345578  1
  O  O39  1  0.76515238  0.60037114  0.52342433  1
  O  O40  1  0.50716373  0.69702822  0.76528131  1
  O  O41  1  0.49283627  0.30297178  0.26528131  1
  O  O42  1  0.86960282  0.50032705  0.30746152  1
  O  O43  1  0.04862097  0.62687676  0.52282247  1
  O  O44  1  0.33452152  0.46636850  0.69534803  1
  O  O45  1  0.63102784  0.26526142  0.19075323  1
  O  O46  1  0.73484762  0.10037114  0.02342433  1
  O  O47  1  0.87160407  0.17654583  0.09070827  1
  O  O48  1  0.91354827  0.88560758  0.00635136  1
  O  O49  1  0.72976953  0.11092886  0.45610970  1
  O  O50  1  0.33819655  0.52420281  0.32202147  1
  O  O51  1  0.00716373  0.80297178  0.76528131  1
  O  O52  1  0.22976953  0.38907114  0.45610970  1
  O  O53  1  0.08645173  0.11439242  0.50635136  1
  O  O54  1  0.95137903  0.37312324  0.02282247  1
  O  O55  1  0.63332328  0.95716974  0.18345578  1
  O  O56  1  0.12839593  0.82345417  0.59070827  1
  O  O57  1  0.50911761  0.67248451  0.36926392  1
  O  O58  1  0.73281511  0.88635117  0.53733007  1
  O  O59  1  0.23281511  0.61364883  0.53733007  1
  O  O60  1  0.77023047  0.61092886  0.95610970  1
  O  O61  1  0.45137903  0.12687676  0.02282247  1
  O  O62  1  0.49088239  0.32751549  0.86926392  1
  O  O63  1  0.93529296  0.64565973  0.97802527  1
  O  O64  1  0.83819655  0.97579719  0.32202147  1
  O  O65  1  0.99088239  0.17248451  0.86926392  1
  O  O66  1  0.16547848  0.96636850  0.19534803  1
  O  O67  1  0.63039718  0.00032705  0.80746152  1
  O  O68  1  0.13102784  0.23473858  0.19075323  1
  O  O69  1  0.66180345  0.47579719  0.82202147  1
  O  O70  1  0.83452152  0.03363150  0.69534803  1
  O  O71  1  0.27023047  0.88907114  0.95610970  1
  O  O72  1  0.43529296  0.85434027  0.97802527  1
  O  O73  1  0.13039718  0.49967295  0.80746152  1
  O  O74  1  0.66547848  0.53363150  0.19534803  1
  O  O75  1  0.74206047  0.87606949  0.96016165  1
  O  O76  1  0.36960282  0.99967295  0.30746152  1
  O  O77  1  0.62839593  0.67654583  0.59070827  1
  O  O78  1  0.37160407  0.32345417  0.09070827  1
  O  O79  1  0.54862097  0.87312324  0.52282247  1
  O  O80  1  0.06470704  0.35434027  0.47802527  1
  O  O81  1  0.56470704  0.14565973  0.47802527  1
  O  O82  1  0.76718489  0.38635117  0.03733007  1
  O  O83  1  0.86897216  0.76526142  0.69075323  1
  O  O84  1  0.00911761  0.82751549  0.36926392  1
  O  O85  1  0.24206047  0.62393051  0.96016165  1
  O  O86  1  0.16180345  0.02420281  0.82202147  1
  O  O87  1  0.75793953  0.37606949  0.46016165  1
