# generated using pymatgen
data_TiAs2Pb2O9
_symmetry_space_group_name_H-M   'P 1'
_cell_length_a   7.01202889
_cell_length_b   7.42088877
_cell_length_c   16.75750999
_cell_angle_alpha   90.00000000
_cell_angle_beta   90.00000000
_cell_angle_gamma   114.62549450
_symmetry_Int_Tables_number   1
_chemical_formula_structural   TiAs2Pb2O9
_chemical_formula_sum   'Ti4 As8 Pb8 O36'
_cell_volume   792.67881941
_cell_formula_units_Z   4
loop_
 _symmetry_equiv_pos_site_id
 _symmetry_equiv_pos_as_xyz
  1  'x, y, z'
loop_
 _atom_site_type_symbol
 _atom_site_label
 _atom_site_symmetry_multiplicity
 _atom_site_fract_x
 _atom_site_fract_y
 _atom_site_fract_z
 _atom_site_occupancy
  Ti  Ti0  1  0.24352904  0.21982266  0.75525384  1
  Ti  Ti1  1  0.75647096  0.28017734  0.25525384  1
  Ti  Ti2  1  0.75647096  0.78017734  0.24474616  1
  Ti  Ti3  1  0.24352904  0.71982266  0.74474616  1
  As  As4  1  0.74457584  0.98115361  0.83822260  1
  As  As5  1  0.25542416  0.51884639  0.33822260  1
  As  As6  1  0.25542416  0.01884639  0.16177740  1
  As  As7  1  0.74457584  0.48115361  0.66177740  1
  As  As8  1  0.76083693  0.51170691  0.07808467  1
  As  As9  1  0.23916307  0.98829309  0.57808467  1
  As  As10  1  0.23916307  0.48829309  0.92191533  1
  As  As11  1  0.76083693  0.01170691  0.42191533  1
  Pb  Pb12  1  0.73697437  0.45392227  0.87956017  1
  Pb  Pb13  1  0.26302563  0.04607773  0.37956017  1
  Pb  Pb14  1  0.26302563  0.54607773  0.12043983  1
  Pb  Pb15  1  0.73697437  0.95392227  0.62043983  1
  Pb  Pb16  1  0.22915909  0.96236052  0.94548371  1
  Pb  Pb17  1  0.77084091  0.53763948  0.44548371  1
  Pb  Pb18  1  0.77084091  0.03763948  0.05451629  1
  Pb  Pb19  1  0.22915909  0.46236052  0.55451629  1
  O  O20  1  0.94353788  0.15898111  0.78106558  1
  O  O21  1  0.05646212  0.34101889  0.28106558  1
  O  O22  1  0.05646212  0.84101889  0.21893442  1
  O  O23  1  0.94353788  0.65898111  0.71893442  1
  O  O24  1  0.84664708  0.85735245  0.89968312  1
  O  O25  1  0.15335292  0.64264755  0.39968312  1
  O  O26  1  0.15335292  0.14264755  0.10031688  1
  O  O27  1  0.84664708  0.35735245  0.60031688  1
  O  O28  1  0.56223753  0.82740914  0.77014835  1
  O  O29  1  0.43776247  0.67259086  0.27014835  1
  O  O30  1  0.43776247  0.17259086  0.22985165  1
  O  O31  1  0.56223753  0.32740914  0.72985165  1
  O  O32  1  0.62205001  0.09320231  0.89684841  1
  O  O33  1  0.37794999  0.40679769  0.39684841  1
  O  O34  1  0.37794999  0.90679769  0.10315159  1
  O  O35  1  0.62205001  0.59320231  0.60315159  1
  O  O36  1  0.65168874  0.63851241  0.13710563  1
  O  O37  1  0.34831126  0.86148759  0.63710563  1
  O  O38  1  0.34831126  0.36148759  0.86289437  1
  O  O39  1  0.65168874  0.13851241  0.36289437  1
  O  O40  1  0.58606315  0.34867169  0.01350650  1
  O  O41  1  0.41393685  0.15132831  0.51350650  1
  O  O42  1  0.41393685  0.65132831  0.98649350  1
  O  O43  1  0.58606315  0.84867169  0.48649350  1
  O  O44  1  0.83306262  0.35890871  0.14038677  1
  O  O45  1  0.16693738  0.14109129  0.64038677  1
  O  O46  1  0.16693738  0.64109129  0.85961323  1
  O  O47  1  0.83306262  0.85890871  0.35961323  1
  O  O48  1  0.97966569  0.67877093  0.03321673  1
  O  O49  1  0.02033431  0.82122907  0.53321673  1
  O  O50  1  0.02033431  0.32122907  0.96678327  1
  O  O51  1  0.97966569  0.17877093  0.46678327  1
  O  O52  1  0.24121564  0.99501227  0.78824430  1
  O  O53  1  0.75878436  0.50498773  0.28824430  1
  O  O54  1  0.75878436  0.00498773  0.21175570  1
  O  O55  1  0.24121564  0.49501227  0.71175570  1
