# generated using pymatgen
data_Ca2MgV10(H8O11)4
_symmetry_space_group_name_H-M   'P 1'
_cell_length_a   9.99677111
_cell_length_b   10.88593268
_cell_length_c   11.23812653
_cell_angle_alpha   115.68473138
_cell_angle_beta   116.40864567
_cell_angle_gamma   89.99999990
_symmetry_Int_Tables_number   1
_chemical_formula_structural   Ca2MgV10(H8O11)4
_chemical_formula_sum   'Ca2 Mg1 V10 H32 O44'
_cell_volume   958.55986879
_cell_formula_units_Z   1
loop_
 _symmetry_equiv_pos_site_id
 _symmetry_equiv_pos_as_xyz
  1  'x, y, z'
loop_
 _atom_site_type_symbol
 _atom_site_label
 _atom_site_symmetry_multiplicity
 _atom_site_fract_x
 _atom_site_fract_y
 _atom_site_fract_z
 _atom_site_occupancy
  Ca  Ca0  1  0.72965622  0.08014310  0.45931244  1
  Ca  Ca1  1  0.27034378  0.91985690  0.54068756  1
  Mg  Mg2  1  0.50000000  0.50000000  -0.00000000  1
  V  V3  1  0.83431156  1.00000000  1.00000000  1
  V  V4  1  0.16568844  0.00000000  0.00000000  1
  V  V5  1  0.95457844  0.20194224  0.90915689  1
  V  V6  1  0.04542156  0.79805776  0.09084311  1
  V  V7  1  0.84439849  0.87576097  0.68879698  1
  V  V8  1  0.15560151  0.12423903  0.31120302  1
  V  V9  1  0.95349378  0.32434661  0.22145881  1
  V  V10  1  0.26796503  0.32434661  0.22145881  1
  V  V11  1  0.04650622  0.67565339  0.77854119  1
  V  V12  1  0.73203497  0.67565339  0.77854119  1
  H  H13  1  0.71226802  0.52921960  0.26811640  1
  H  H14  1  0.55584838  0.52921960  0.26811640  1
  H  H15  1  0.28773198  0.47078040  0.73188360  1
  H  H16  1  0.44415162  0.47078040  0.73188360  1
  H  H17  1  0.62410131  0.77143237  0.09504224  1
  H  H18  1  0.47094093  0.77143237  0.09504224  1
  H  H19  1  0.37589869  0.22856763  0.90495776  1
  H  H20  1  0.52905907  0.22856763  0.90495776  1
  H  H21  1  0.98634960  0.25182327  0.47641742  1
  H  H22  1  0.49006782  0.25182327  0.47641742  1
  H  H23  1  0.01365040  0.74817673  0.52358258  1
  H  H24  1  0.50993218  0.74817673  0.52358258  1
  H  H25  1  0.96369081  0.34541401  0.61461316  1
  H  H26  1  0.65092235  0.34541401  0.61461316  1
  H  H27  1  0.03630919  0.65458599  0.38538684  1
  H  H28  1  0.34907765  0.65458599  0.38538684  1
  H  H29  1  0.76182166  0.56878863  0.99097884  1
  H  H30  1  0.22915718  0.56878863  0.99097884  1
  H  H31  1  0.23817834  0.43121137  0.00902116  1
  H  H32  1  0.77084282  0.43121137  0.00902116  1
  H  H33  1  0.87991307  0.84886512  0.34229574  1
  H  H34  1  0.46238267  0.84886512  0.34229574  1
  H  H35  1  0.12008693  0.15113488  0.65770426  1
  H  H36  1  0.53761733  0.15113488  0.65770426  1
  H  H37  1  0.87847581  0.93539671  0.25909273  1
  H  H38  1  0.38061692  0.93539671  0.25909273  1
  H  H39  1  0.12152419  0.06460329  0.74090727  1
  H  H40  1  0.61938308  0.06460329  0.74090727  1
  H  H41  1  0.67717852  0.13400243  0.19738394  1
  H  H42  1  0.52020542  0.13400243  0.19738394  1
  H  H43  1  0.32282148  0.86599757  0.80261606  1
  H  H44  1  0.47979458  0.86599757  0.80261606  1
  O  O45  1  0.77421286  0.91373196  0.54842571  1
  O  O46  1  0.22578714  0.08626804  0.45157429  1
  O  O47  1  0.95300681  0.86363487  0.90601363  1
  O  O48  1  0.04699319  0.13636513  0.09398637  1
  O  O49  1  0.95926401  0.96653765  0.16808463  1
  O  O50  1  0.20882062  0.96653765  0.16808463  1
  O  O51  1  0.04073599  0.03346235  0.83191537  1
  O  O52  1  0.79117938  0.03346235  0.83191537  1
  O  O53  1  0.78207559  0.14428370  0.10020332  1
  O  O54  1  0.31812773  0.14428370  0.10020332  1
  O  O55  1  0.21792441  0.85571630  0.89979668  1
  O  O56  1  0.68187227  0.85571630  0.89979668  1
  O  O57  1  0.87769103  0.21944849  0.75538206  1
  O  O58  1  0.12230897  0.78055151  0.24461794  1
  O  O59  1  0.87847139  0.31377044  0.02864288  1
  O  O60  1  0.15017149  0.31377044  0.02864288  1
  O  O61  1  0.12152861  0.68622956  0.97135712  1
  O  O62  1  0.84982851  0.68622956  0.97135712  1
  O  O63  1  0.95792236  0.75041029  0.64327167  1
  O  O64  1  0.68534931  0.75041029  0.64327167  1
  O  O65  1  0.04207764  0.24958971  0.35672833  1
  O  O66  1  0.31465069  0.24958971  0.35672833  1
  O  O67  1  0.14458488  0.42409010  0.28916976  1
  O  O68  1  0.85541512  0.57590990  0.71083024  1
  O  O69  1  0.87521502  0.44268549  0.29954169  1
  O  O70  1  0.42432666  0.44268549  0.29954169  1
  O  O71  1  0.12478498  0.55731451  0.70045831  1
  O  O72  1  0.57567334  0.55731451  0.70045831  1
  O  O73  1  0.61738977  0.56244867  0.23477953  1
  O  O74  1  0.38261023  0.43755133  0.76522047  1
  O  O75  1  0.51963676  0.71280585  0.03927353  1
  O  O76  1  0.48036324  0.28719415  0.96072647  1
  O  O77  1  0.95539056  0.24717830  0.54812619  1
  O  O78  1  0.59273563  0.24717830  0.54812619  1
  O  O79  1  0.04460944  0.75282170  0.45187381  1
  O  O80  1  0.40726437  0.75282170  0.45187381  1
  O  O81  1  0.70670408  0.50000000  1.00000000  1
  O  O82  1  0.29329592  0.50000000  0.00000000  1
  O  O83  1  0.82597996  0.91203400  0.30706753  1
  O  O84  1  0.48108757  0.91203400  0.30706753  1
  O  O85  1  0.17402004  0.08796600  0.69293247  1
  O  O86  1  0.51891243  0.08796600  0.69293247  1
  O  O87  1  0.62332584  0.11857683  0.24665168  1
  O  O88  1  0.37667416  0.88142317  0.75334832  1
