# generated using pymatgen
data_NaH15O8
_symmetry_space_group_name_H-M   'P 1'
_cell_length_a   7.08030271
_cell_length_b   7.47029477
_cell_length_c   16.98948439
_cell_angle_alpha   90.00000000
_cell_angle_beta   90.00000000
_cell_angle_gamma   92.38191010
_symmetry_Int_Tables_number   1
_chemical_formula_structural   NaH15O8
_chemical_formula_sum   'Na4 H60 O32'
_cell_volume   897.83053520
_cell_formula_units_Z   4
loop_
 _symmetry_equiv_pos_site_id
 _symmetry_equiv_pos_as_xyz
  1  'x, y, z'
loop_
 _atom_site_type_symbol
 _atom_site_label
 _atom_site_symmetry_multiplicity
 _atom_site_fract_x
 _atom_site_fract_y
 _atom_site_fract_z
 _atom_site_occupancy
  Na  Na0  1  0.02135871  0.53901540  0.25704004  1
  Na  Na1  1  0.47864129  0.46098460  0.75704004  1
  Na  Na2  1  0.97864129  0.46098460  0.74295996  1
  Na  Na3  1  0.52135871  0.53901540  0.24295996  1
  H  H4  1  0.55835356  0.18522221  0.47192838  1
  H  H5  1  0.94164644  0.81477779  0.97192838  1
  H  H6  1  0.44164644  0.81477779  0.52807162  1
  H  H7  1  0.05835356  0.18522221  0.02807162  1
  H  H8  1  0.78697532  0.85247981  0.22341099  1
  H  H9  1  0.71302468  0.14752019  0.72341099  1
  H  H10  1  0.21302468  0.14752019  0.77658901  1
  H  H11  1  0.28697532  0.85247981  0.27658901  1
  H  H12  1  0.76956037  0.80320690  0.31410636  1
  H  H13  1  0.73043963  0.19679310  0.81410636  1
  H  H14  1  0.23043963  0.19679310  0.68589364  1
  H  H15  1  0.26956037  0.80320690  0.18589364  1
  H  H16  1  0.72035900  0.27084859  0.31889987  1
  H  H17  1  0.77964100  0.72915141  0.81889987  1
  H  H18  1  0.27964100  0.72915141  0.68110013  1
  H  H19  1  0.22035900  0.27084859  0.18110013  1
  H  H20  1  0.76877603  0.22707522  0.23029962  1
  H  H21  1  0.73122397  0.77292478  0.73029962  1
  H  H22  1  0.23122397  0.77292478  0.76970038  1
  H  H23  1  0.26877603  0.22707522  0.26970038  1
  H  H24  1  0.04158267  0.40482846  0.09736742  1
  H  H25  1  0.45841733  0.59517154  0.59736742  1
  H  H26  1  0.95841733  0.59517154  0.90263258  1
  H  H27  1  0.54158267  0.40482846  0.40263258  1
  H  H28  1  0.06969217  0.62004574  0.09290018  1
  H  H29  1  0.43030783  0.37995426  0.59290018  1
  H  H30  1  0.93030783  0.37995426  0.90709982  1
  H  H31  1  0.56969217  0.62004574  0.40709982  1
  H  H32  1  0.07429582  0.63687754  0.43229926  1
  H  H33  1  0.42570418  0.36312246  0.93229926  1
  H  H34  1  0.92570418  0.36312246  0.56770074  1
  H  H35  1  0.57429582  0.63687754  0.06770074  1
  H  H36  1  0.24797263  0.54373584  0.39426598  1
  H  H37  1  0.25202737  0.45626416  0.89426598  1
  H  H38  1  0.75202737  0.45626416  0.60573402  1
  H  H39  1  0.74797263  0.54373584  0.10573402  1
  H  H40  1  0.02163578  0.34074603  0.43808012  1
  H  H41  1  0.47836422  0.65925397  0.93808012  1
  H  H42  1  0.97836422  0.65925397  0.56191988  1
  H  H43  1  0.52163578  0.34074603  0.06191988  1
  H  H44  1  0.84634602  0.20553104  0.44991908  1
  H  H45  1  0.65365398  0.79446896  0.94991908  1
  H  H46  1  0.15365398  0.79446896  0.55008092  1
  H  H47  1  0.34634602  0.20553104  0.05008092  1
  H  H48  1  0.32915436  0.03002773  0.58088434  1
  H  H49  1  0.17084564  0.96997227  0.08088434  1
  H  H50  1  0.67084564  0.96997227  0.41911566  1
  H  H51  1  0.82915436  0.03002773  0.91911566  1
  H  H52  1  0.18106586  0.16401058  0.54512063  1
  H  H53  1  0.31893414  0.83598942  0.04512063  1
  H  H54  1  0.81893414  0.83598942  0.45487937  1
  H  H55  1  0.68106586  0.16401058  0.95487937  1
  H  H56  1  0.18613355  0.08477601  0.38098175  1
  H  H57  1  0.31386645  0.91522399  0.88098175  1
  H  H58  1  0.81386645  0.91522399  0.61901825  1
  H  H59  1  0.68613355  0.08477601  0.11901825  1
  H  H60  1  0.40953848  0.10406011  0.37409820  1
  H  H61  1  0.09046152  0.89593989  0.87409820  1
  H  H62  1  0.59046152  0.89593989  0.62590180  1
  H  H63  1  0.90953848  0.10406011  0.12590180  1
  O  O64  1  0.61103861  0.17650937  0.41916055  1
  O  O65  1  0.88896139  0.82349063  0.91916055  1
  O  O66  1  0.38896139  0.82349063  0.58083945  1
  O  O67  1  0.11103861  0.17650937  0.08083945  1
  O  O68  1  0.78338463  0.75196735  0.26079985  1
  O  O69  1  0.71661537  0.24803265  0.76079985  1
  O  O70  1  0.21661537  0.24803265  0.73920015  1
  O  O71  1  0.28338463  0.75196735  0.23920015  1
  O  O72  1  0.75984455  0.32641087  0.26897534  1
  O  O73  1  0.74015545  0.67358913  0.76897534  1
  O  O74  1  0.24015545  0.67358913  0.73102466  1
  O  O75  1  0.25984455  0.32641087  0.23102466  1
  O  O76  1  0.98778012  0.52078516  0.11353486  1
  O  O77  1  0.51221988  0.47921484  0.61353486  1
  O  O78  1  0.01221988  0.47921484  0.88646514  1
  O  O79  1  0.48778012  0.52078516  0.38646514  1
  O  O80  1  0.10681597  0.54563031  0.39329935  1
  O  O81  1  0.39318403  0.45436969  0.89329935  1
  O  O82  1  0.89318403  0.45436969  0.60670065  1
  O  O83  1  0.60681597  0.54563031  0.10670065  1
  O  O84  1  0.98032313  0.23110928  0.46791043  1
  O  O85  1  0.51967687  0.76889072  0.96791043  1
  O  O86  1  0.01967687  0.76889072  0.53208957  1
  O  O87  1  0.48032313  0.23110928  0.03208957  1
  O  O88  1  0.28922047  0.16023378  0.58129751  1
  O  O89  1  0.21077953  0.83976622  0.08129751  1
  O  O90  1  0.71077953  0.83976622  0.41870249  1
  O  O91  1  0.78922047  0.16023378  0.91870249  1
  O  O92  1  0.29008555  0.06613262  0.34426500  1
  O  O93  1  0.20991445  0.93386738  0.84426500  1
  O  O94  1  0.70991445  0.93386738  0.65573500  1
  O  O95  1  0.79008555  0.06613262  0.15573500  1
