# generated using pymatgen
data_Y15C19
_symmetry_space_group_name_H-M   'P 1'
_cell_length_a   8.19389393
_cell_length_b   8.19389393
_cell_length_c   15.54364250
_cell_angle_alpha   90.00000000
_cell_angle_beta   90.00000000
_cell_angle_gamma   90.00000000
_symmetry_Int_Tables_number   1
_chemical_formula_structural   Y15C19
_chemical_formula_sum   'Y30 C38'
_cell_volume   1043.59856790
_cell_formula_units_Z   2
loop_
 _symmetry_equiv_pos_site_id
 _symmetry_equiv_pos_as_xyz
  1  'x, y, z'
loop_
 _atom_site_type_symbol
 _atom_site_label
 _atom_site_symmetry_multiplicity
 _atom_site_fract_x
 _atom_site_fract_y
 _atom_site_fract_z
 _atom_site_occupancy
  Y  Y0  1  0.70336328  0.90707550  0.49942616  1
  Y  Y1  1  0.20336328  0.59292450  0.00057384  1
  Y  Y2  1  0.29663672  0.09292450  0.49942616  1
  Y  Y3  1  0.79663672  0.40707550  0.00057384  1
  Y  Y4  1  0.90707550  0.29663672  0.50057384  1
  Y  Y5  1  0.59292450  0.79663672  0.99942616  1
  Y  Y6  1  0.09292450  0.70336328  0.50057384  1
  Y  Y7  1  0.40707550  0.20336328  0.99942616  1
  Y  Y8  1  0.78460740  0.59786496  0.65046399  1
  Y  Y9  1  0.28460740  0.90213504  0.84953601  1
  Y  Y10  1  0.21539260  0.40213504  0.65046399  1
  Y  Y11  1  0.71539260  0.09786496  0.84953601  1
  Y  Y12  1  0.59786496  0.21539260  0.34953601  1
  Y  Y13  1  0.90213504  0.71539260  0.15046399  1
  Y  Y14  1  0.40213504  0.78460740  0.34953601  1
  Y  Y15  1  0.09786496  0.28460740  0.15046399  1
  Y  Y16  1  0.59798044  0.21534678  0.64987565  1
  Y  Y17  1  0.09798044  0.28465322  0.85012435  1
  Y  Y18  1  0.40201956  0.78465322  0.64987565  1
  Y  Y19  1  0.90201956  0.71534678  0.85012435  1
  Y  Y20  1  0.21534678  0.40201956  0.35012435  1
  Y  Y21  1  0.28465322  0.90201956  0.14987565  1
  Y  Y22  1  0.78465322  0.59798044  0.35012435  1
  Y  Y23  1  0.71534678  0.09798044  0.14987565  1
  Y  Y24  1  0.00000000  -0.00000000  0.33057638  1
  Y  Y25  1  0.50000000  0.50000000  0.16942362  1
  Y  Y26  1  0.00000000  -0.00000000  0.66942362  1
  Y  Y27  1  0.50000000  0.50000000  0.83057638  1
  Y  Y28  1  0.50000000  0.50000000  0.50000000  1
  Y  Y29  1  0.00000000  -0.00000000  -0.00000000  1
  C  C30  1  0.60489061  0.19715626  0.49964694  1
  C  C31  1  0.10489061  0.30284374  0.00035306  1
  C  C32  1  0.39510939  0.80284374  0.49964694  1
  C  C33  1  0.89510939  0.69715626  0.00035306  1
  C  C34  1  0.19715626  0.39510939  0.50035306  1
  C  C35  1  0.30284374  0.89510939  0.99964694  1
  C  C36  1  0.80284374  0.60489061  0.50035306  1
  C  C37  1  0.69715626  0.10489061  0.99964694  1
  C  C38  1  0.69628700  0.90315748  0.66958211  1
  C  C39  1  0.19628700  0.59684252  0.83041789  1
  C  C40  1  0.30371300  0.09684252  0.66958211  1
  C  C41  1  0.80371300  0.40315748  0.83041789  1
  C  C42  1  0.90315748  0.30371300  0.33041789  1
  C  C43  1  0.59684252  0.80371300  0.16958211  1
  C  C44  1  0.09684252  0.69628700  0.33041789  1
  C  C45  1  0.40315748  0.19628700  0.16958211  1
  C  C46  1  0.65161433  0.84879465  0.74793681  1
  C  C47  1  0.15161433  0.65120535  0.75206319  1
  C  C48  1  0.34838567  0.15120535  0.74793681  1
  C  C49  1  0.84838567  0.34879465  0.75206319  1
  C  C50  1  0.84879465  0.34838567  0.25206319  1
  C  C51  1  0.65120535  0.84838567  0.24793681  1
  C  C52  1  0.15120535  0.65161433  0.25206319  1
  C  C53  1  0.34879465  0.15161433  0.24793681  1
  C  C54  1  0.90436598  0.30136324  0.67471832  1
  C  C55  1  0.40436598  0.19863676  0.82528168  1
  C  C56  1  0.09563402  0.69863676  0.67471832  1
  C  C57  1  0.59563402  0.80136324  0.82528168  1
  C  C58  1  0.30136324  0.09563402  0.32528168  1
  C  C59  1  0.19863676  0.59563402  0.17471832  1
  C  C60  1  0.69863676  0.90436598  0.32528168  1
  C  C61  1  0.80136324  0.40436598  0.17471832  1
  C  C62  1  0.50000000  0.50000000  0.66285799  1
  C  C63  1  0.00000000  -0.00000000  0.83714201  1
  C  C64  1  0.50000000  0.50000000  0.33714201  1
  C  C65  1  0.00000000  -0.00000000  0.16285799  1
  C  C66  1  0.50000000  0.50000000  -0.00000000  1
  C  C67  1  0.00000000  -0.00000000  0.50000000  1
