# generated using pymatgen
data_Pr4(SiS4)3
_symmetry_space_group_name_H-M   'P 1'
_cell_length_a   8.03696335
_cell_length_b   11.48170510
_cell_length_c   11.48170531
_cell_angle_alpha   114.72970186
_cell_angle_beta   103.49300643
_cell_angle_gamma   103.49300669
_symmetry_Int_Tables_number   1
_chemical_formula_structural   Pr4(SiS4)3
_chemical_formula_sum   'Pr8 Si6 S24'
_cell_volume   867.60867140
_cell_formula_units_Z   2
loop_
 _symmetry_equiv_pos_site_id
 _symmetry_equiv_pos_as_xyz
  1  'x, y, z'
loop_
 _atom_site_type_symbol
 _atom_site_label
 _atom_site_symmetry_multiplicity
 _atom_site_fract_x
 _atom_site_fract_y
 _atom_site_fract_z
 _atom_site_occupancy
  Pr  Pr0  1  0.50226163  0.00000000  0.00000000  1
  Pr  Pr1  1  0.00226163  0.00000000  0.00000000  1
  Pr  Pr2  1  0.06828484  0.54022794  0.77484022  1
  Pr  Pr3  1  0.29344462  0.22515978  0.76538772  1
  Pr  Pr4  1  0.52805690  0.23461228  0.45977206  1
  Pr  Pr5  1  0.56828484  0.77484022  0.54022794  1
  Pr  Pr6  1  0.02805690  0.45977206  0.23461228  1
  Pr  Pr7  1  0.79344462  0.76538772  0.22515978  1
  Si  Si8  1  0.36050930  0.82745845  0.21304216  1
  Si  Si9  1  0.14746714  0.78695784  0.61441629  1
  Si  Si10  1  0.53305085  0.38558371  0.17254155  1
  Si  Si11  1  0.86050930  0.21304216  0.82745845  1
  Si  Si12  1  0.03305085  0.17254155  0.38558371  1
  Si  Si13  1  0.64746714  0.61441629  0.78695784  1
  S  S14  1  0.10679371  0.39169391  0.92591746  1
  S  S15  1  0.18087625  0.07408254  0.46577646  1
  S  S16  1  0.71509979  0.53422354  0.60830609  1
  S  S17  1  0.60679371  0.92591746  0.39169391  1
  S  S18  1  0.21509979  0.60830609  0.53422354  1
  S  S19  1  0.68087625  0.46577646  0.07408254  1
  S  S20  1  0.31276982  0.99442468  0.18581510  1
  S  S21  1  0.12695473  0.81418490  0.80860958  1
  S  S22  1  0.31834515  0.19139042  0.00557532  1
  S  S23  1  0.81276982  0.18581510  0.99442468  1
  S  S24  1  0.81834515  0.00557532  0.19139042  1
  S  S25  1  0.62695473  0.80860958  0.81418490  1
  S  S26  1  0.41331840  0.71488279  0.03466672  1
  S  S27  1  0.37865168  0.96533328  0.68021607  1
  S  S28  1  0.69843561  0.31978393  0.28511721  1
  S  S29  1  0.91331840  0.03466672  0.71488279  1
  S  S30  1  0.19843561  0.28511721  0.31978393  1
  S  S31  1  0.87865168  0.68021607  0.96533328  1
  S  S32  1  0.65363721  0.26699760  0.73123443  1
  S  S33  1  0.92240277  0.26876557  0.53576316  1
  S  S34  1  0.38663961  0.46423684  0.73300240  1
  S  S35  1  0.15363721  0.73123443  0.26699760  1
  S  S36  1  0.88663961  0.73300240  0.46423684  1
  S  S37  1  0.42240277  0.53576316  0.26876557  1
