# generated using pymatgen
data_La2WO6
_symmetry_space_group_name_H-M   'P 1'
_cell_length_a   5.59681145
_cell_length_b   8.93008130
_cell_length_c   16.78080337
_cell_angle_alpha   90.00000000
_cell_angle_beta   90.00000000
_cell_angle_gamma   90.00000000
_symmetry_Int_Tables_number   1
_chemical_formula_structural   La2WO6
_chemical_formula_sum   'La12 W6 O36'
_cell_volume   838.70423812
_cell_formula_units_Z   6
loop_
 _symmetry_equiv_pos_site_id
 _symmetry_equiv_pos_as_xyz
  1  'x, y, z'
loop_
 _atom_site_type_symbol
 _atom_site_label
 _atom_site_symmetry_multiplicity
 _atom_site_fract_x
 _atom_site_fract_y
 _atom_site_fract_z
 _atom_site_occupancy
  La  La0  1  0.82176375  0.20955693  0.50000000  1
  La  La1  1  0.32176375  0.79044307  0.00000000  1
  La  La2  1  0.91193038  0.50490323  0.66007490  1
  La  La3  1  0.91193038  0.50490323  0.33992510  1
  La  La4  1  0.41193038  0.49509677  0.83992510  1
  La  La5  1  0.41193038  0.49509677  0.16007490  1
  La  La6  1  0.44326808  0.84226851  0.68119962  1
  La  La7  1  0.44326808  0.84226851  0.31880038  1
  La  La8  1  0.94326808  0.15773149  0.81880038  1
  La  La9  1  0.94326808  0.15773149  0.18119962  1
  La  La10  1  0.41151725  0.54120426  0.50000000  1
  La  La11  1  0.91151725  0.45879574  -0.00000000  1
  W  W12  1  0.92723289  0.74726668  0.50000000  1
  W  W13  1  0.42723289  0.25273332  0.00000000  1
  W  W14  1  0.89390266  0.76798780  0.83179419  1
  W  W15  1  0.89390266  0.76798780  0.16820581  1
  W  W16  1  0.39390266  0.23201220  0.66820581  1
  W  W17  1  0.39390266  0.23201220  0.33179419  1
  O  O18  1  0.67811073  0.71293675  0.58049849  1
  O  O19  1  0.67811073  0.71293675  0.41950151  1
  O  O20  1  0.17811073  0.28706325  0.91950151  1
  O  O21  1  0.17811073  0.28706325  0.08049849  1
  O  O22  1  0.16593903  0.71248985  0.58425812  1
  O  O23  1  0.16593903  0.71248985  0.41574188  1
  O  O24  1  0.66593903  0.28751015  0.91574188  1
  O  O25  1  0.66593903  0.28751015  0.08425812  1
  O  O26  1  0.14367984  0.70104873  0.75813760  1
  O  O27  1  0.14367984  0.70104873  0.24186240  1
  O  O28  1  0.64367984  0.29895127  0.74186240  1
  O  O29  1  0.64367984  0.29895127  0.25813760  1
  O  O30  1  0.12749299  0.26966292  0.59897017  1
  O  O31  1  0.12749299  0.26966292  0.40102983  1
  O  O32  1  0.62749299  0.73033708  0.90102983  1
  O  O33  1  0.62749299  0.73033708  0.09897017  1
  O  O34  1  0.67839745  0.63802594  0.75508334  1
  O  O35  1  0.67839745  0.63802594  0.24491666  1
  O  O36  1  0.17839745  0.36197406  0.74491666  1
  O  O37  1  0.17839745  0.36197406  0.25508334  1
  O  O38  1  0.05485460  0.91831378  0.89006622  1
  O  O39  1  0.05485460  0.91831378  0.10993378  1
  O  O40  1  0.55485460  0.08168622  0.60993378  1
  O  O41  1  0.55485460  0.08168622  0.39006622  1
  O  O42  1  0.94542388  0.95088739  0.50000000  1
  O  O43  1  0.44542388  0.04911261  0.00000000  1
  O  O44  1  0.94193622  0.50842574  0.50000000  1
  O  O45  1  0.44193622  0.49157426  0.00000000  1
  O  O46  1  0.76375653  0.92940902  0.76964534  1
  O  O47  1  0.76375653  0.92940902  0.23035466  1
  O  O48  1  0.26375653  0.07059098  0.73035466  1
  O  O49  1  0.26375653  0.07059098  0.26964534  1
  O  O50  1  0.07398072  0.62323426  0.90446889  1
  O  O51  1  0.07398072  0.62323426  0.09553111  1
  O  O52  1  0.57398072  0.37676574  0.59553111  1
  O  O53  1  0.57398072  0.37676574  0.40446889  1
