# generated using pymatgen
data_KHfMg30O31
_symmetry_space_group_name_H-M   'P 1'
_cell_length_a   8.65355041
_cell_length_b   8.65476217
_cell_length_c   8.63220671
_cell_angle_alpha   90.00000000
_cell_angle_beta   90.00000000
_cell_angle_gamma   90.00000000
_symmetry_Int_Tables_number   1
_chemical_formula_structural   KHfMg30O31
_chemical_formula_sum   'K1 Hf1 Mg30 O31'
_cell_volume   646.50412112
_cell_formula_units_Z   1
loop_
 _symmetry_equiv_pos_site_id
 _symmetry_equiv_pos_as_xyz
  1  'x, y, z'
loop_
 _atom_site_type_symbol
 _atom_site_label
 _atom_site_symmetry_multiplicity
 _atom_site_fract_x
 _atom_site_fract_y
 _atom_site_fract_z
 _atom_site_occupancy
  K  K0  1  0.99985871  -0.00000000  0.00000000  1
  Hf  Hf1  1  0.99945577  0.50000000  0.50000000  1
  Mg  Mg2  1  0.99721318  -0.00000000  0.50000000  1
  Mg  Mg3  1  0.99990746  0.50000000  -0.00000000  1
  Mg  Mg4  1  0.50038155  -0.00000000  -0.00000000  1
  Mg  Mg5  1  0.50140477  -0.00000000  0.50000000  1
  Mg  Mg6  1  0.50006737  0.50000000  0.00000000  1
  Mg  Mg7  1  0.50064513  0.50000000  0.50000000  1
  Mg  Mg8  1  0.00013217  0.24391505  0.24557737  1
  Mg  Mg9  1  0.00013217  0.24391505  0.75442263  1
  Mg  Mg10  1  0.00013217  0.75608495  0.24557737  1
  Mg  Mg11  1  0.00013217  0.75608495  0.75442263  1
  Mg  Mg12  1  0.49994504  0.24823013  0.24890631  1
  Mg  Mg13  1  0.49994504  0.24823013  0.75109369  1
  Mg  Mg14  1  0.49994504  0.75176987  0.24890631  1
  Mg  Mg15  1  0.49994504  0.75176987  0.75109369  1
  Mg  Mg16  1  0.25259828  -0.00000000  0.24823838  1
  Mg  Mg17  1  0.25259828  -0.00000000  0.75176162  1
  Mg  Mg18  1  0.25642554  0.50000000  0.24342442  1
  Mg  Mg19  1  0.25642554  0.50000000  0.75657558  1
  Mg  Mg20  1  0.74772506  -0.00000000  0.24975503  1
  Mg  Mg21  1  0.74772506  -0.00000000  0.75024497  1
  Mg  Mg22  1  0.74351512  0.50000000  0.24393278  1
  Mg  Mg23  1  0.74351512  0.50000000  0.75606722  1
  Mg  Mg24  1  0.25214349  0.25053482  -0.00000000  1
  Mg  Mg25  1  0.25483709  0.24621730  0.50000000  1
  Mg  Mg26  1  0.25214349  0.74946518  -0.00000000  1
  Mg  Mg27  1  0.25483709  0.75378270  0.50000000  1
  Mg  Mg28  1  0.74781861  0.24995359  -0.00000000  1
  Mg  Mg29  1  0.74587641  0.24508141  0.50000000  1
  Mg  Mg30  1  0.74781861  0.75004641  -0.00000000  1
  Mg  Mg31  1  0.74587641  0.75491859  0.50000000  1
  O  O32  1  0.27355082  -0.00000000  0.00000000  1
  O  O33  1  0.25288948  0.50000000  -0.00000000  1
  O  O34  1  0.25056193  0.50000000  0.50000000  1
  O  O35  1  0.72653529  -0.00000000  0.00000000  1
  O  O36  1  0.74612828  -0.00000000  0.50000000  1
  O  O37  1  0.74710452  0.50000000  -0.00000000  1
  O  O38  1  0.74919833  0.50000000  0.50000000  1
  O  O39  1  0.24855749  0.25210437  0.24941392  1
  O  O40  1  0.24855749  0.25210437  0.75058608  1
  O  O41  1  0.24855749  0.74789563  0.24941392  1
  O  O42  1  0.24855749  0.74789563  0.75058608  1
  O  O43  1  0.75154669  0.25087613  0.25060350  1
  O  O44  1  0.75154669  0.25087613  0.74939650  1
  O  O45  1  0.75154669  0.74912387  0.25060350  1
  O  O46  1  0.75154669  0.74912387  0.74939650  1
  O  O47  1  0.00015470  -0.00000000  0.27383657  1
  O  O48  1  0.00015470  -0.00000000  0.72616343  1
  O  O49  1  0.00008735  0.50000000  0.25806269  1
  O  O50  1  0.00008735  0.50000000  0.74193731  1
  O  O51  1  0.50093362  -0.00000000  0.25389675  1
  O  O52  1  0.50093362  -0.00000000  0.74610325  1
  O  O53  1  0.49995360  0.50000000  0.25171743  1
  O  O54  1  0.49995360  0.50000000  0.74828257  1
  O  O55  1  0.99996031  0.27450321  0.00000000  1
  O  O56  1  0.99880349  0.25277614  0.50000000  1
  O  O57  1  0.99996031  0.72549679  0.00000000  1
  O  O58  1  0.99880349  0.74722386  0.50000000  1
  O  O59  1  0.49999458  0.25508549  -0.00000000  1
  O  O60  1  0.50135867  0.25300418  0.50000000  1
  O  O61  1  0.49999458  0.74491451  -0.00000000  1
  O  O62  1  0.50135867  0.74699582  0.50000000  1
