# generated using pymatgen
data_K3(TcCl4)2
_symmetry_space_group_name_H-M   'P 1'
_cell_length_a   8.17946226
_cell_length_b   13.20548612
_cell_length_c   13.20548613
_cell_angle_alpha   120.00000257
_cell_angle_beta   90.00000000
_cell_angle_gamma   90.00000000
_symmetry_Int_Tables_number   1
_chemical_formula_structural   K3(TcCl4)2
_chemical_formula_sum   'K9 Tc6 Cl24'
_cell_volume   1235.27644387
_cell_formula_units_Z   3
loop_
 _symmetry_equiv_pos_site_id
 _symmetry_equiv_pos_as_xyz
  1  'x, y, z'
loop_
 _atom_site_type_symbol
 _atom_site_label
 _atom_site_symmetry_multiplicity
 _atom_site_fract_x
 _atom_site_fract_y
 _atom_site_fract_z
 _atom_site_occupancy
  K  K0  1  0.08989261  0.66437995  0.48779503  1
  K  K1  1  0.42322661  0.51220497  0.17658492  1
  K  K2  1  0.75655961  0.82341508  0.33562005  1
  K  K3  1  0.57679185  0.33561741  0.82342525  1
  K  K4  1  0.91012585  0.17657475  0.51219216  1
  K  K5  1  0.24345885  0.48780784  0.66438259  1
  K  K6  1  0.66667223  0.29943137  0.29942018  1
  K  K7  1  0.00000623  0.70057982  0.00001119  1
  K  K8  1  0.33333923  0.99998881  0.70056863  1
  Tc  Tc9  1  0.60334208  0.63959435  0.55632766  1
  Tc  Tc10  1  0.93667608  0.44367234  0.08326668  1
  Tc  Tc11  1  0.27000908  0.91673332  0.36040565  1
  Tc  Tc12  1  0.06324185  0.36044553  0.91682171  1
  Tc  Tc13  1  0.39657585  0.08317829  0.44362382  1
  Tc  Tc14  1  0.72990885  0.55637618  0.63955447  1
  Cl  Cl15  1  0.38428973  0.74543356  0.68609538  1
  Cl  Cl16  1  0.71762373  0.31390462  0.05933818  1
  Cl  Cl17  1  0.05095673  0.94066182  0.25456644  1
  Cl  Cl18  1  0.28231829  0.25459224  0.94063501  1
  Cl  Cl19  1  0.61565229  0.05936499  0.31395722  1
  Cl  Cl20  1  0.94898529  0.68604278  0.74540776  1
  Cl  Cl21  1  0.39786632  0.49991583  0.43741438  1
  Cl  Cl22  1  0.73120032  0.56258562  0.06250145  1
  Cl  Cl23  1  0.06453332  0.93749855  0.50008417  1
  Cl  Cl24  1  0.26874748  0.50001697  0.93746587  1
  Cl  Cl25  1  0.60208148  0.06253413  0.56255110  1
  Cl  Cl26  1  0.93541448  0.43744890  0.49998303  1
  Cl  Cl27  1  0.74297171  0.81657403  0.62225508  1
  Cl  Cl28  1  0.07630571  0.37774492  0.19431894  1
  Cl  Cl29  1  0.40963871  0.80568106  0.18342597  1
  Cl  Cl30  1  0.92374577  0.18345770  0.80569372  1
  Cl  Cl31  1  0.25707977  0.19430628  0.37776399  1
  Cl  Cl32  1  0.59041277  0.62223601  0.81654230  1
  Cl  Cl33  1  0.74048184  0.57548734  0.37352050  1
  Cl  Cl34  1  0.07381584  0.62647950  0.20196683  1
  Cl  Cl35  1  0.40714884  0.79803317  0.42451266  1
  Cl  Cl36  1  0.92626723  0.42448074  0.79804081  1
  Cl  Cl37  1  0.25960123  0.20195919  0.62643993  1
  Cl  Cl38  1  0.59293423  0.37356007  0.57551926  1
