# generated using pymatgen
data_NdFeSb3
_symmetry_space_group_name_H-M   'P 1'
_cell_length_a   6.14734418
_cell_length_b   12.13396881
_cell_length_c   12.72572865
_cell_angle_alpha   90.00000000
_cell_angle_beta   90.00000000
_cell_angle_gamma   90.00000000
_symmetry_Int_Tables_number   1
_chemical_formula_structural   NdFeSb3
_chemical_formula_sum   'Nd8 Fe8 Sb24'
_cell_volume   949.23351161
_cell_formula_units_Z   8
loop_
 _symmetry_equiv_pos_site_id
 _symmetry_equiv_pos_as_xyz
  1  'x, y, z'
loop_
 _atom_site_type_symbol
 _atom_site_label
 _atom_site_symmetry_multiplicity
 _atom_site_fract_x
 _atom_site_fract_y
 _atom_site_fract_z
 _atom_site_occupancy
  Nd  Nd0  1  0.25000000  0.50000000  0.70144103  1
  Nd  Nd1  1  0.75000000  0.00000000  0.29855897  1
  Nd  Nd2  1  0.75000000  0.50000000  0.29855897  1
  Nd  Nd3  1  0.25000000  0.00000000  0.70144103  1
  Nd  Nd4  1  0.22471423  0.25000000  0.30494421  1
  Nd  Nd5  1  0.77528577  0.75000000  0.69505579  1
  Nd  Nd6  1  0.27528577  0.75000000  0.30494421  1
  Nd  Nd7  1  0.72471423  0.25000000  0.69505579  1
  Fe  Fe8  1  0.46147956  0.36142504  0.10036329  1
  Fe  Fe9  1  0.53852044  0.86142504  0.89963671  1
  Fe  Fe10  1  0.03852044  0.63857496  0.10036329  1
  Fe  Fe11  1  0.96147956  0.13857496  0.89963671  1
  Fe  Fe12  1  0.53852044  0.63857496  0.89963671  1
  Fe  Fe13  1  0.46147956  0.13857496  0.10036329  1
  Fe  Fe14  1  0.96147956  0.36142504  0.89963671  1
  Fe  Fe15  1  0.03852044  0.86142504  0.10036329  1
  Sb  Sb16  1  0.25000000  0.50000000  0.97209323  1
  Sb  Sb17  1  0.75000000  0.00000000  0.02790677  1
  Sb  Sb18  1  0.75000000  0.50000000  0.02790677  1
  Sb  Sb19  1  0.25000000  0.00000000  0.97209323  1
  Sb  Sb20  1  0.23133868  0.25000000  0.78362280  1
  Sb  Sb21  1  0.76866132  0.75000000  0.21637720  1
  Sb  Sb22  1  0.26866132  0.75000000  0.78362280  1
  Sb  Sb23  1  0.73133868  0.25000000  0.21637720  1
  Sb  Sb24  1  0.98714473  0.37642173  0.50264797  1
  Sb  Sb25  1  0.01285527  0.87642173  0.49735203  1
  Sb  Sb26  1  0.51285527  0.62357827  0.50264797  1
  Sb  Sb27  1  0.48714473  0.12357827  0.49735203  1
  Sb  Sb28  1  0.01285527  0.62357827  0.49735203  1
  Sb  Sb29  1  0.98714473  0.12357827  0.50264797  1
  Sb  Sb30  1  0.48714473  0.37642173  0.49735203  1
  Sb  Sb31  1  0.51285527  0.87642173  0.50264797  1
  Sb  Sb32  1  0.25000000  0.50000000  0.21930091  1
  Sb  Sb33  1  0.75000000  0.00000000  0.78069909  1
  Sb  Sb34  1  0.75000000  0.50000000  0.78069909  1
  Sb  Sb35  1  0.25000000  0.00000000  0.21930091  1
  Sb  Sb36  1  0.61028336  0.25000000  0.94243719  1
  Sb  Sb37  1  0.38971664  0.75000000  0.05756281  1
  Sb  Sb38  1  0.88971664  0.75000000  0.94243719  1
  Sb  Sb39  1  0.11028336  0.25000000  0.05756281  1
