# generated using pymatgen
data_Ba3CCl4O3
_symmetry_space_group_name_H-M   'P 1'
_cell_length_a   8.51362399
_cell_length_b   9.65519912
_cell_length_c   12.58736321
_cell_angle_alpha   90.00000000
_cell_angle_beta   90.00000000
_cell_angle_gamma   90.00000000
_symmetry_Int_Tables_number   1
_chemical_formula_structural   Ba3CCl4O3
_chemical_formula_sum   'Ba12 C4 Cl16 O12'
_cell_volume   1034.69050576
_cell_formula_units_Z   4
loop_
 _symmetry_equiv_pos_site_id
 _symmetry_equiv_pos_as_xyz
  1  'x, y, z'
loop_
 _atom_site_type_symbol
 _atom_site_label
 _atom_site_symmetry_multiplicity
 _atom_site_fract_x
 _atom_site_fract_y
 _atom_site_fract_z
 _atom_site_occupancy
  Ba  Ba0  1  0.45538075  0.75000000  0.53380704  1
  Ba  Ba1  1  0.95538075  0.75000000  0.96619296  1
  Ba  Ba2  1  0.54461925  0.25000000  0.46619296  1
  Ba  Ba3  1  0.04461925  0.25000000  0.03380704  1
  Ba  Ba4  1  0.55200295  0.99134972  0.17994271  1
  Ba  Ba5  1  0.05200295  0.50865028  0.32005729  1
  Ba  Ba6  1  0.44799705  0.49134972  0.82005729  1
  Ba  Ba7  1  0.94799705  0.00865028  0.67994271  1
  Ba  Ba8  1  0.44799705  0.00865028  0.82005729  1
  Ba  Ba9  1  0.94799705  0.49134972  0.67994271  1
  Ba  Ba10  1  0.55200295  0.50865028  0.17994271  1
  Ba  Ba11  1  0.05200295  0.99134972  0.32005729  1
  C  C12  1  0.22125913  0.75000000  0.78733149  1
  C  C13  1  0.72125913  0.75000000  0.71266851  1
  C  C14  1  0.77874087  0.25000000  0.21266851  1
  C  C15  1  0.27874087  0.25000000  0.28733149  1
  Cl  Cl16  1  0.54611440  0.75000000  0.98619926  1
  Cl  Cl17  1  0.04611440  0.75000000  0.51380074  1
  Cl  Cl18  1  0.45388560  0.25000000  0.01380074  1
  Cl  Cl19  1  0.95388560  0.25000000  0.48619926  1
  Cl  Cl20  1  0.33944512  0.75000000  0.29502549  1
  Cl  Cl21  1  0.83944512  0.75000000  0.20497451  1
  Cl  Cl22  1  0.66055488  0.25000000  0.70497451  1
  Cl  Cl23  1  0.16055488  0.25000000  0.79502549  1
  Cl  Cl24  1  0.69772089  0.54081843  0.42276781  1
  Cl  Cl25  1  0.19772089  0.95918157  0.07723219  1
  Cl  Cl26  1  0.30227911  0.04081843  0.57723219  1
  Cl  Cl27  1  0.80227911  0.45918157  0.92276781  1
  Cl  Cl28  1  0.30227911  0.45918157  0.57723219  1
  Cl  Cl29  1  0.80227911  0.04081843  0.92276781  1
  Cl  Cl30  1  0.69772089  0.95918157  0.42276781  1
  Cl  Cl31  1  0.19772089  0.54081843  0.07723219  1
  O  O32  1  0.15639081  0.63244157  0.81263598  1
  O  O33  1  0.65639081  0.86755843  0.68736402  1
  O  O34  1  0.84360919  0.13244157  0.18736402  1
  O  O35  1  0.34360919  0.36755843  0.31263598  1
  O  O36  1  0.84360919  0.36755843  0.18736402  1
  O  O37  1  0.34360919  0.13244157  0.31263598  1
  O  O38  1  0.15639081  0.86755843  0.81263598  1
  O  O39  1  0.65639081  0.63244157  0.68736402  1
  O  O40  1  0.35803455  0.75000000  0.74173834  1
  O  O41  1  0.85803455  0.75000000  0.75826166  1
  O  O42  1  0.64196545  0.25000000  0.25826166  1
  O  O43  1  0.14196545  0.25000000  0.24173834  1
