# generated using pymatgen
data_In2BiSe4I
_symmetry_space_group_name_H-M   'P 1'
_cell_length_a   4.19146681
_cell_length_b   14.18215173
_cell_length_c   17.31511962
_cell_angle_alpha   90.00000000
_cell_angle_beta   90.00000000
_cell_angle_gamma   90.00000000
_symmetry_Int_Tables_number   1
_chemical_formula_structural   In2BiSe4I
_chemical_formula_sum   'In8 Bi4 Se16 I4'
_cell_volume   1029.28028705
_cell_formula_units_Z   4
loop_
 _symmetry_equiv_pos_site_id
 _symmetry_equiv_pos_as_xyz
  1  'x, y, z'
loop_
 _atom_site_type_symbol
 _atom_site_label
 _atom_site_symmetry_multiplicity
 _atom_site_fract_x
 _atom_site_fract_y
 _atom_site_fract_z
 _atom_site_occupancy
  In  In0  1  0.75000000  0.25879711  0.00297621  1
  In  In1  1  0.75000000  0.75879711  0.49702379  1
  In  In2  1  0.25000000  0.74120289  0.99702379  1
  In  In3  1  0.25000000  0.24120289  0.50297621  1
  In  In4  1  0.75000000  0.10913493  0.63806575  1
  In  In5  1  0.75000000  0.60913493  0.86193425  1
  In  In6  1  0.25000000  0.89086507  0.36193425  1
  In  In7  1  0.25000000  0.39086507  0.13806575  1
  Bi  Bi8  1  0.75000000  0.95993833  0.10557164  1
  Bi  Bi9  1  0.75000000  0.45993833  0.39442836  1
  Bi  Bi10  1  0.25000000  0.04006167  0.89442836  1
  Bi  Bi11  1  0.25000000  0.54006167  0.60557164  1
  Se  Se12  1  0.75000000  0.39509814  0.54321208  1
  Se  Se13  1  0.75000000  0.89509814  0.95678792  1
  Se  Se14  1  0.25000000  0.60490186  0.45678792  1
  Se  Se15  1  0.25000000  0.10490186  0.04321208  1
  Se  Se16  1  0.75000000  0.27967873  0.16264713  1
  Se  Se17  1  0.75000000  0.77967873  0.33735287  1
  Se  Se18  1  0.25000000  0.72032127  0.83735287  1
  Se  Se19  1  0.25000000  0.22032127  0.66264713  1
  Se  Se20  1  0.75000000  0.17513075  0.86387785  1
  Se  Se21  1  0.75000000  0.67513075  0.63612215  1
  Se  Se22  1  0.25000000  0.82486925  0.13612215  1
  Se  Se23  1  0.25000000  0.32486925  0.36387785  1
  Se  Se24  1  0.75000000  0.61713519  0.01433872  1
  Se  Se25  1  0.75000000  0.11713519  0.48566128  1
  Se  Se26  1  0.25000000  0.38286481  0.98566128  1
  Se  Se27  1  0.25000000  0.88286481  0.51433872  1
  I  I28  1  0.75000000  0.44465832  0.77686849  1
  I  I29  1  0.75000000  0.94465832  0.72313151  1
  I  I30  1  0.25000000  0.55534168  0.22313151  1
  I  I31  1  0.25000000  0.05534168  0.27686849  1
