# generated using pymatgen
data_RbLiMg30O31
_symmetry_space_group_name_H-M   'P 1'
_cell_length_a   8.64197220
_cell_length_b   8.59537160
_cell_length_c   8.67973002
_cell_angle_alpha   90.00000000
_cell_angle_beta   90.00000000
_cell_angle_gamma   90.00000000
_symmetry_Int_Tables_number   1
_chemical_formula_structural   RbLiMg30O31
_chemical_formula_sum   'Rb1 Li1 Mg30 O31'
_cell_volume   644.73869940
_cell_formula_units_Z   1
loop_
 _symmetry_equiv_pos_site_id
 _symmetry_equiv_pos_as_xyz
  1  'x, y, z'
loop_
 _atom_site_type_symbol
 _atom_site_label
 _atom_site_symmetry_multiplicity
 _atom_site_fract_x
 _atom_site_fract_y
 _atom_site_fract_z
 _atom_site_occupancy
  Rb  Rb0  1  0.99138009  0.50000000  0.50000000  1
  Li  Li1  1  0.99466793  0.00000000  0.00000000  1
  Mg  Mg2  1  0.97779495  0.00000000  0.50000000  1
  Mg  Mg3  1  0.99851378  0.50000000  0.00000000  1
  Mg  Mg4  1  0.50133461  0.00000000  0.00000000  1
  Mg  Mg5  1  0.51951251  0.00000000  0.50000000  1
  Mg  Mg6  1  0.50109988  0.50000000  0.00000000  1
  Mg  Mg7  1  0.49733017  0.50000000  0.50000000  1
  Mg  Mg8  1  0.00256636  0.24417114  0.24282903  1
  Mg  Mg9  1  0.00256636  0.24417114  0.75717097  1
  Mg  Mg10  1  0.00256636  0.75582886  0.24282903  1
  Mg  Mg11  1  0.00256636  0.75582886  0.75717097  1
  Mg  Mg12  1  0.49853200  0.24867582  0.24820786  1
  Mg  Mg13  1  0.49853200  0.24867582  0.75179214  1
  Mg  Mg14  1  0.49853200  0.75132418  0.24820786  1
  Mg  Mg15  1  0.49853200  0.75132418  0.75179214  1
  Mg  Mg16  1  0.24262781  0.00000000  0.22527031  1
  Mg  Mg17  1  0.24262781  0.00000000  0.77472969  1
  Mg  Mg18  1  0.25072268  0.50000000  0.24183124  1
  Mg  Mg19  1  0.25072268  0.50000000  0.75816876  1
  Mg  Mg20  1  0.75572130  0.00000000  0.24282579  1
  Mg  Mg21  1  0.75572130  0.00000000  0.75717421  1
  Mg  Mg22  1  0.74731614  0.50000000  0.24457389  1
  Mg  Mg23  1  0.74731614  0.50000000  0.75542611  1
  Mg  Mg24  1  0.24741943  0.25056072  0.00000000  1
  Mg  Mg25  1  0.25191708  0.26979968  0.50000000  1
  Mg  Mg26  1  0.24741943  0.74943928  0.00000000  1
  Mg  Mg27  1  0.25191708  0.73020032  0.50000000  1
  Mg  Mg28  1  0.75428518  0.24798159  0.00000000  1
  Mg  Mg29  1  0.74241282  0.25111726  0.50000000  1
  Mg  Mg30  1  0.75428518  0.75201841  0.00000000  1
  Mg  Mg31  1  0.74241282  0.74888274  0.50000000  1
  O  O32  1  0.26087169  0.00000000  0.00000000  1
  O  O33  1  0.25784691  0.50000000  0.00000000  1
  O  O34  1  0.27617603  0.50000000  0.50000000  1
  O  O35  1  0.74014637  0.00000000  0.00000000  1
  O  O36  1  0.74756661  0.00000000  0.50000000  1
  O  O37  1  0.74383277  0.50000000  0.00000000  1
  O  O38  1  0.71617209  0.50000000  0.50000000  1
  O  O39  1  0.25163336  0.24559330  0.25230285  1
  O  O40  1  0.25163336  0.24559330  0.74769715  1
  O  O41  1  0.25163336  0.75440670  0.25230285  1
  O  O42  1  0.25163336  0.75440670  0.74769715  1
  O  O43  1  0.75067275  0.24915697  0.25431571  1
  O  O44  1  0.75067275  0.24915697  0.74568429  1
  O  O45  1  0.75067275  0.75084303  0.25431571  1
  O  O46  1  0.75067275  0.75084303  0.74568429  1
  O  O47  1  0.00253802  0.00000000  0.25300415  1
  O  O48  1  0.00253802  0.00000000  0.74699585  1
  O  O49  1  0.00331909  0.50000000  0.22209443  1
  O  O50  1  0.00331909  0.50000000  0.77790557  1
  O  O51  1  0.49302929  0.00000000  0.25668747  1
  O  O52  1  0.49302929  0.00000000  0.74331253  1
  O  O53  1  0.49816457  0.50000000  0.24603736  1
  O  O54  1  0.49816457  0.50000000  0.75396264  1
  O  O55  1  0.00099436  0.24898834  0.00000000  1
  O  O56  1  0.02335031  0.21674620  0.50000000  1
  O  O57  1  0.00099436  0.75101166  0.00000000  1
  O  O58  1  0.02335031  0.78325380  0.50000000  1
  O  O59  1  0.50059671  0.24820550  0.00000000  1
  O  O60  1  0.49165308  0.23779482  0.50000000  1
  O  O61  1  0.50059671  0.75179450  0.00000000  1
  O  O62  1  0.49165308  0.76220518  0.50000000  1
