# generated using pymatgen
data_Sr3WO6
_symmetry_space_group_name_H-M   'P 1'
_cell_length_a   10.21732375
_cell_length_b   10.32535718
_cell_length_c   10.30841719
_cell_angle_alpha   80.94001860
_cell_angle_beta   60.29188937
_cell_angle_gamma   71.47341592
_symmetry_Int_Tables_number   1
_chemical_formula_structural   Sr3WO6
_chemical_formula_sum   'Sr18 W6 O36'
_cell_volume   895.62012697
_cell_formula_units_Z   6
loop_
 _symmetry_equiv_pos_site_id
 _symmetry_equiv_pos_as_xyz
  1  'x, y, z'
loop_
 _atom_site_type_symbol
 _atom_site_label
 _atom_site_symmetry_multiplicity
 _atom_site_fract_x
 _atom_site_fract_y
 _atom_site_fract_z
 _atom_site_occupancy
  Sr  Sr0  1  0.24042337  0.78737547  0.94617236  1
  Sr  Sr1  1  0.68659573  0.28737547  0.05382764  1
  Sr  Sr2  1  0.40155791  0.21357967  0.65699306  1
  Sr  Sr3  1  0.55855098  0.71357967  0.34300694  1
  Sr  Sr4  1  0.97813056  0.75812875  0.63767279  1
  Sr  Sr5  1  0.11580335  0.25812875  0.36232721  1
  Sr  Sr6  1  0.00563768  0.37246441  0.70806056  1
  Sr  Sr7  1  0.21369824  0.87246441  0.29193944  1
  Sr  Sr8  1  0.64679762  0.65115060  0.96549576  1
  Sr  Sr9  1  0.11229337  0.15115060  0.03450424  1
  Sr  Sr10  1  0.36658767  0.38678655  0.98077003  1
  Sr  Sr11  1  0.84735770  0.88678655  0.01922997  1
  Sr  Sr12  1  0.29542409  0.57164655  0.68187832  1
  Sr  Sr13  1  0.47730240  0.07164655  0.31812168  1
  Sr  Sr14  1  0.71724594  0.35497365  0.35151405  1
  Sr  Sr15  1  0.56875999  0.85497365  0.64848595  1
  Sr  Sr16  1  0.96322089  0.62976628  0.31595139  1
  Sr  Sr17  1  0.77917229  0.12976628  0.68404861  1
  W  W18  1  0.00321445  0.49563529  0.00795690  1
  W  W19  1  0.51117135  0.99563529  0.99204310  1
  W  W20  1  0.16467346  0.00614280  0.66914858  1
  W  W21  1  0.33382204  0.50614280  0.33085142  1
  W  W22  1  0.83177814  0.99988929  0.33642549  1
  W  W23  1  0.66820363  0.49988929  0.66357451  1
  O  O24  1  0.89200005  0.36349991  0.03982919  1
  O  O25  1  0.43182924  0.86349991  0.96017081  1
  O  O26  1  0.15337357  0.59057099  0.97386314  1
  O  O27  1  0.62723671  0.09057099  0.02613686  1
  O  O28  1  0.19152498  0.36305090  0.85555866  1
  O  O29  1  0.54708365  0.86305090  0.14444134  1
  O  O30  1  0.83469903  0.63835560  0.13123547  1
  O  O31  1  0.46593450  0.13835560  0.86876453  1
  O  O32  1  0.04853984  0.39799507  0.17097911  1
  O  O33  1  0.71951896  0.89799507  0.82902089  1
  O  O34  1  0.97004052  0.58103344  0.83706328  1
  O  O35  1  0.30710381  0.08103344  0.16293672  1
  O  O36  1  0.96593928  0.12866606  0.81003530  1
  O  O37  1  0.27597458  0.62866606  0.18996470  1
  O  O38  1  0.00331809  0.94111931  0.13206166  1
  O  O39  1  0.63537975  0.44111931  0.86793834  1
  O  O40  1  0.71006614  0.14544474  0.25992897  1
  O  O41  1  0.46999512  0.64544474  0.74007103  1
  O  O42  1  0.07134963  0.99246942  0.54802170  1
  O  O43  1  0.11937133  0.49246942  0.45197830  1
  O  O44  1  0.94102792  0.84728036  0.41747237  1
  O  O45  1  0.85850028  0.34728036  0.58252763  1
  O  O46  1  0.93969532  0.12780748  0.33106281  1
  O  O47  1  0.77075813  0.62780748  0.66893719  1
  O  O48  1  0.66853932  0.05769101  0.53937156  1
  O  O49  1  0.70791088  0.55769101  0.46062844  1
  O  O50  1  0.10930090  0.84032215  0.77699151  1
  O  O51  1  0.38629241  0.34032215  0.22300849  1
  O  O52  1  0.26498072  0.01545459  0.78917245  1
  O  O53  1  0.55415317  0.51545459  0.21082755  1
  O  O54  1  0.22402750  0.17338523  0.55431284  1
  O  O55  1  0.27834034  0.67338523  0.44568716  1
  O  O56  1  0.72161756  0.87911256  0.32801662  1
  O  O57  1  0.54963418  0.37911256  0.67198338  1
  O  O58  1  0.37676260  0.90421188  0.52371452  1
  O  O59  1  0.40047712  0.40421188  0.47628548  1
