# generated using pymatgen
data_Pr11Cd45
_symmetry_space_group_name_H-M   'P 1'
_cell_length_a   15.65775084
_cell_length_b   15.65775084
_cell_length_c   15.65775084
_cell_angle_alpha   60.00000000
_cell_angle_beta   60.00000000
_cell_angle_gamma   60.00000000
_symmetry_Int_Tables_number   1
_chemical_formula_structural   Pr11Cd45
_chemical_formula_sum   'Pr22 Cd90'
_cell_volume   2714.39555984
_cell_formula_units_Z   2
loop_
 _symmetry_equiv_pos_site_id
 _symmetry_equiv_pos_as_xyz
  1  'x, y, z'
loop_
 _atom_site_type_symbol
 _atom_site_label
 _atom_site_symmetry_multiplicity
 _atom_site_fract_x
 _atom_site_fract_y
 _atom_site_fract_z
 _atom_site_occupancy
  Pr  Pr0  1  -0.00000000  -0.00000000  -0.00000000  1
  Pr  Pr1  1  0.35923173  0.66718626  0.98679100  1
  Pr  Pr2  1  0.35923173  0.98679100  0.98679100  1
  Pr  Pr3  1  0.35923173  0.98679100  0.66718626  1
  Pr  Pr4  1  0.66718626  0.35923173  0.98679100  1
  Pr  Pr5  1  0.98679100  0.35923173  0.66718626  1
  Pr  Pr6  1  0.98679100  0.35923173  0.98679100  1
  Pr  Pr7  1  0.98679100  0.98679100  0.35923173  1
  Pr  Pr8  1  0.98679100  0.66718626  0.35923173  1
  Pr  Pr9  1  0.66718626  0.98679100  0.35923173  1
  Pr  Pr10  1  0.98679100  0.98679100  0.66718626  1
  Pr  Pr11  1  0.66718626  0.98679100  0.98679100  1
  Pr  Pr12  1  0.98679100  0.66718626  0.98679100  1
  Pr  Pr13  1  0.75000000  0.75000000  0.75000000  1
  Pr  Pr14  1  0.21939312  0.59353563  0.59353563  1
  Pr  Pr15  1  0.59353563  0.21939312  0.59353563  1
  Pr  Pr16  1  0.59353563  0.59353563  0.21939312  1
  Pr  Pr17  1  0.59353563  0.59353563  0.59353563  1
  Pr  Pr18  1  0.99015681  0.33661440  0.33661440  1
  Pr  Pr19  1  0.33661440  0.99015681  0.33661440  1
  Pr  Pr20  1  0.33661440  0.33661440  0.99015681  1
  Pr  Pr21  1  0.33661440  0.33661440  0.33661440  1
  Cd  Cd22  1  0.25094527  0.91635158  0.91635158  1
  Cd  Cd23  1  0.91635158  0.25094527  0.91635158  1
  Cd  Cd24  1  0.91635158  0.91635158  0.25094527  1
  Cd  Cd25  1  0.91635158  0.91635158  0.91635158  1
  Cd  Cd26  1  0.73812281  0.08729240  0.08729240  1
  Cd  Cd27  1  0.08729240  0.73812281  0.08729240  1
  Cd  Cd28  1  0.08729240  0.08729240  0.73812281  1
  Cd  Cd29  1  0.08729240  0.08729240  0.08729240  1
  Cd  Cd30  1  0.15475329  0.84524671  0.84524671  1
  Cd  Cd31  1  0.15475329  0.84524671  0.15475329  1
  Cd  Cd32  1  0.15475329  0.15475329  0.84524671  1
  Cd  Cd33  1  0.84524671  0.15475329  0.15475329  1
  Cd  Cd34  1  0.84524671  0.15475329  0.84524671  1
  Cd  Cd35  1  0.84524671  0.84524671  0.15475329  1
  Cd  Cd36  1  0.98229872  0.79930850  0.60919639  1
  Cd  Cd37  1  0.98229872  0.60919639  0.60919639  1
  Cd  Cd38  1  0.98229872  0.60919639  0.79930850  1
  Cd  Cd39  1  0.79930850  0.98229872  0.60919639  1
  Cd  Cd40  1  0.60919639  0.98229872  0.79930850  1
  Cd  Cd41  1  0.60919639  0.98229872  0.60919639  1
  Cd  Cd42  1  0.60919639  0.60919639  0.98229872  1
  Cd  Cd43  1  0.60919639  0.79930850  0.98229872  1
  Cd  Cd44  1  0.79930850  0.60919639  0.98229872  1
  Cd  Cd45  1  0.60919639  0.60919639  0.79930850  1
  Cd  Cd46  1  0.79930850  0.60919639  0.60919639  1
  Cd  Cd47  1  0.60919639  0.79930850  0.60919639  1
  Cd  Cd48  1  0.49002894  0.83665702  0.83665702  1
  Cd  Cd49  1  0.83665702  0.49002894  0.83665702  1
  Cd  Cd50  1  0.83665702  0.83665702  0.49002894  1
  Cd  Cd51  1  0.83665702  0.83665702  0.83665702  1
  Cd  Cd52  1  0.13989763  0.38582888  0.73713675  1
  Cd  Cd53  1  0.13989763  0.73713675  0.73713675  1
  Cd  Cd54  1  0.13989763  0.73713675  0.38582888  1
  Cd  Cd55  1  0.38582888  0.13989763  0.73713675  1
  Cd  Cd56  1  0.73713675  0.13989763  0.38582888  1
  Cd  Cd57  1  0.73713675  0.13989763  0.73713675  1
  Cd  Cd58  1  0.73713675  0.73713675  0.13989763  1
  Cd  Cd59  1  0.73713675  0.38582888  0.13989763  1
  Cd  Cd60  1  0.38582888  0.73713675  0.13989763  1
  Cd  Cd61  1  0.73713675  0.73713675  0.38582888  1
  Cd  Cd62  1  0.38582888  0.73713675  0.73713675  1
  Cd  Cd63  1  0.73713675  0.38582888  0.73713675  1
  Cd  Cd64  1  0.50000000  0.50000000  0.50000000  1
  Cd  Cd65  1  0.73229598  0.54985440  0.35892481  1
  Cd  Cd66  1  0.73229598  0.35892481  0.35892481  1
  Cd  Cd67  1  0.73229598  0.35892481  0.54985440  1
  Cd  Cd68  1  0.54985440  0.73229598  0.35892481  1
  Cd  Cd69  1  0.35892481  0.73229598  0.54985440  1
  Cd  Cd70  1  0.35892481  0.73229598  0.35892481  1
  Cd  Cd71  1  0.35892481  0.35892481  0.73229598  1
  Cd  Cd72  1  0.35892481  0.54985440  0.73229598  1
  Cd  Cd73  1  0.54985440  0.35892481  0.73229598  1
  Cd  Cd74  1  0.35892481  0.35892481  0.54985440  1
  Cd  Cd75  1  0.54985440  0.35892481  0.35892481  1
  Cd  Cd76  1  0.35892481  0.54985440  0.35892481  1
  Cd  Cd77  1  0.85841268  0.16661630  0.48748551  1
  Cd  Cd78  1  0.85841268  0.48748551  0.48748551  1
  Cd  Cd79  1  0.85841268  0.48748551  0.16661630  1
  Cd  Cd80  1  0.16661630  0.85841268  0.48748551  1
  Cd  Cd81  1  0.48748551  0.85841268  0.16661630  1
  Cd  Cd82  1  0.48748551  0.85841268  0.48748551  1
  Cd  Cd83  1  0.48748551  0.48748551  0.85841268  1
  Cd  Cd84  1  0.48748551  0.16661630  0.85841268  1
  Cd  Cd85  1  0.16661630  0.48748551  0.85841268  1
  Cd  Cd86  1  0.48748551  0.48748551  0.16661630  1
  Cd  Cd87  1  0.16661630  0.48748551  0.48748551  1
  Cd  Cd88  1  0.48748551  0.16661630  0.48748551  1
  Cd  Cd89  1  0.25000000  0.25000000  0.25000000  1
  Cd  Cd90  1  0.48988854  0.17003715  0.17003715  1
  Cd  Cd91  1  0.17003715  0.48988854  0.17003715  1
  Cd  Cd92  1  0.17003715  0.17003715  0.48988854  1
  Cd  Cd93  1  0.17003715  0.17003715  0.17003715  1
  Cd  Cd94  1  0.41271645  0.08728355  0.08728355  1
  Cd  Cd95  1  0.41271645  0.08728355  0.41271645  1
  Cd  Cd96  1  0.41271645  0.41271645  0.08728355  1
  Cd  Cd97  1  0.08728355  0.41271645  0.41271645  1
  Cd  Cd98  1  0.08728355  0.41271645  0.08728355  1
  Cd  Cd99  1  0.08728355  0.08728355  0.41271645  1
  Cd  Cd100  1  0.59678368  0.93032926  0.23644353  1
  Cd  Cd101  1  0.59678368  0.23644353  0.23644353  1
  Cd  Cd102  1  0.59678368  0.23644353  0.93032926  1
  Cd  Cd103  1  0.93032926  0.59678368  0.23644353  1
  Cd  Cd104  1  0.23644353  0.59678368  0.93032926  1
  Cd  Cd105  1  0.23644353  0.59678368  0.23644353  1
  Cd  Cd106  1  0.23644353  0.23644353  0.59678368  1
  Cd  Cd107  1  0.23644353  0.93032926  0.59678368  1
  Cd  Cd108  1  0.93032926  0.23644353  0.59678368  1
  Cd  Cd109  1  0.23644353  0.23644353  0.93032926  1
  Cd  Cd110  1  0.93032926  0.23644353  0.23644353  1
  Cd  Cd111  1  0.23644353  0.93032926  0.23644353  1
