# generated using pymatgen
data_Sm2Ni17
_symmetry_space_group_name_H-M   'P 1'
_cell_length_a   8.04198123
_cell_length_b   8.30998971
_cell_length_c   8.30998971
_cell_angle_alpha   120.03067042
_cell_angle_beta   90.00000000
_cell_angle_gamma   90.00000000
_symmetry_Int_Tables_number   1
_chemical_formula_structural   Sm2Ni17
_chemical_formula_sum   'Sm4 Ni34'
_cell_volume   480.79545626
_cell_formula_units_Z   2
loop_
 _symmetry_equiv_pos_site_id
 _symmetry_equiv_pos_as_xyz
  1  'x, y, z'
loop_
 _atom_site_type_symbol
 _atom_site_label
 _atom_site_symmetry_multiplicity
 _atom_site_fract_x
 _atom_site_fract_y
 _atom_site_fract_z
 _atom_site_occupancy
  Sm  Sm0  1  0.75000000  0.99996279  0.00003721  1
  Sm  Sm1  1  0.25000000  0.00003721  0.99996279  1
  Sm  Sm2  1  0.25000000  0.66667077  0.33332923  1
  Sm  Sm3  1  0.75000000  0.33332923  0.66667077  1
  Ni  Ni4  1  0.60410510  0.66668301  0.33331699  1
  Ni  Ni5  1  0.39589490  0.33331699  0.66668301  1
  Ni  Ni6  1  0.10410510  0.33331699  0.66668301  1
  Ni  Ni7  1  0.89589490  0.66668301  0.33331699  1
  Ni  Ni8  1  0.50000000  0.50000000  0.00000000  1
  Ni  Ni9  1  0.50000000  0.50000000  0.50000000  1
  Ni  Ni10  1  0.50000000  0.00000000  0.50000000  1
  Ni  Ni11  1  0.00000000  0.50000000  -0.00000000  1
  Ni  Ni12  1  0.00000000  0.50000000  0.50000000  1
  Ni  Ni13  1  0.00000000  0.00000000  0.50000000  1
  Ni  Ni14  1  0.75000000  0.67146562  0.04136752  1
  Ni  Ni15  1  0.75000000  0.36977364  0.32848502  1
  Ni  Ni16  1  0.75000000  0.95874196  0.63020976  1
  Ni  Ni17  1  0.75000000  0.36979024  0.04125804  1
  Ni  Ni18  1  0.75000000  0.95863248  0.32853438  1
  Ni  Ni19  1  0.75000000  0.67151498  0.63022636  1
  Ni  Ni20  1  0.25000000  0.32853438  0.95863248  1
  Ni  Ni21  1  0.25000000  0.63022636  0.67151498  1
  Ni  Ni22  1  0.25000000  0.04125804  0.36979024  1
  Ni  Ni23  1  0.25000000  0.63020976  0.95874196  1
  Ni  Ni24  1  0.25000000  0.04136752  0.67146562  1
  Ni  Ni25  1  0.25000000  0.32848502  0.36977364  1
  Ni  Ni26  1  0.48335225  0.83386807  0.66768879  1
  Ni  Ni27  1  0.48320117  0.83392806  0.16607194  1
  Ni  Ni28  1  0.48335225  0.33231121  0.16613193  1
  Ni  Ni29  1  0.51664775  0.16613193  0.33231121  1
  Ni  Ni30  1  0.51679883  0.16607194  0.83392806  1
  Ni  Ni31  1  0.51664775  0.66768879  0.83386807  1
  Ni  Ni32  1  0.98335225  0.16613193  0.33231121  1
  Ni  Ni33  1  0.98320117  0.16607194  0.83392806  1
  Ni  Ni34  1  0.98335225  0.66768879  0.83386807  1
  Ni  Ni35  1  0.01664775  0.83386807  0.66768879  1
  Ni  Ni36  1  0.01679883  0.83392806  0.16607194  1
  Ni  Ni37  1  0.01664775  0.33231121  0.16613193  1
