# generated using pymatgen
data_Er5(Ge5Ir2)2
_symmetry_space_group_name_H-M   'P 1'
_cell_length_a   4.32721594
_cell_length_b   13.01243738
_cell_length_c   13.01243738
_cell_angle_alpha   90.00000000
_cell_angle_beta   90.00000000
_cell_angle_gamma   90.00000000
_symmetry_Int_Tables_number   1
_chemical_formula_structural   Er5(Ge5Ir2)2
_chemical_formula_sum   'Er10 Ge20 Ir8'
_cell_volume   732.69946318
_cell_formula_units_Z   2
loop_
 _symmetry_equiv_pos_site_id
 _symmetry_equiv_pos_as_xyz
  1  'x, y, z'
loop_
 _atom_site_type_symbol
 _atom_site_label
 _atom_site_symmetry_multiplicity
 _atom_site_fract_x
 _atom_site_fract_y
 _atom_site_fract_z
 _atom_site_occupancy
  Er  Er0  1  -0.00000000  0.50000000  0.50000000  1
  Er  Er1  1  -0.00000000  -0.00000000  0.00000000  1
  Er  Er2  1  0.50000000  0.17396261  0.67396261  1
  Er  Er3  1  0.50000000  0.82603739  0.32603739  1
  Er  Er4  1  0.50000000  0.32603739  0.17396261  1
  Er  Er5  1  0.50000000  0.67396261  0.82603739  1
  Er  Er6  1  0.50000000  0.38429475  0.88429475  1
  Er  Er7  1  0.50000000  0.61570525  0.11570525  1
  Er  Er8  1  0.50000000  0.11570525  0.38429475  1
  Er  Er9  1  0.50000000  0.88429475  0.61570525  1
  Ge  Ge10  1  0.00000000  0.06631666  0.56631666  1
  Ge  Ge11  1  -0.00000000  0.93368334  0.43368334  1
  Ge  Ge12  1  0.00000000  0.43368334  0.06631666  1
  Ge  Ge13  1  -0.00000000  0.56631666  0.93368334  1
  Ge  Ge14  1  0.00000000  0.70008509  0.66323215  1
  Ge  Ge15  1  -0.00000000  0.29991491  0.33676785  1
  Ge  Ge16  1  0.00000000  0.79991491  0.16323215  1
  Ge  Ge17  1  -0.00000000  0.20008509  0.83676785  1
  Ge  Ge18  1  0.00000000  0.66323215  0.29991491  1
  Ge  Ge19  1  -0.00000000  0.33676785  0.70008509  1
  Ge  Ge20  1  -0.00000000  0.16323215  0.20008509  1
  Ge  Ge21  1  0.00000000  0.83676785  0.79991491  1
  Ge  Ge22  1  0.50000000  0.50901166  0.65591344  1
  Ge  Ge23  1  0.50000000  0.49098834  0.34408656  1
  Ge  Ge24  1  0.50000000  0.99098834  0.15591344  1
  Ge  Ge25  1  0.50000000  0.00901166  0.84408656  1
  Ge  Ge26  1  0.50000000  0.65591344  0.49098834  1
  Ge  Ge27  1  0.50000000  0.34408656  0.50901166  1
  Ge  Ge28  1  0.50000000  0.15591344  0.00901166  1
  Ge  Ge29  1  0.50000000  0.84408656  0.99098834  1
  Ir  Ir30  1  -0.00000000  0.52094606  0.74655027  1
  Ir  Ir31  1  0.00000000  0.47905394  0.25344973  1
  Ir  Ir32  1  -0.00000000  0.97905394  0.24655027  1
  Ir  Ir33  1  0.00000000  0.02094606  0.75344973  1
  Ir  Ir34  1  0.00000000  0.74655027  0.47905394  1
  Ir  Ir35  1  -0.00000000  0.25344973  0.52094606  1
  Ir  Ir36  1  -0.00000000  0.24655027  0.02094606  1
  Ir  Ir37  1  0.00000000  0.75344973  0.97905394  1
