# generated using pymatgen
data_CaP2H8(CO3)2
_symmetry_space_group_name_H-M   'P 1'
_cell_length_a   5.67689849
_cell_length_b   7.34334637
_cell_length_c   10.70576926
_cell_angle_alpha   107.74406153
_cell_angle_beta   105.37483656
_cell_angle_gamma   90.00000000
_symmetry_Int_Tables_number   1
_chemical_formula_structural   CaP2H8(CO3)2
_chemical_formula_sum   'Ca2 P4 H16 C4 O12'
_cell_volume   408.26271719
_cell_formula_units_Z   2
loop_
 _symmetry_equiv_pos_site_id
 _symmetry_equiv_pos_as_xyz
  1  'x, y, z'
loop_
 _atom_site_type_symbol
 _atom_site_label
 _atom_site_symmetry_multiplicity
 _atom_site_fract_x
 _atom_site_fract_y
 _atom_site_fract_z
 _atom_site_occupancy
  Ca  Ca0  1  0.86813767  0.25000000  0.00000000  1
  Ca  Ca1  1  0.13186233  0.75000000  0.00000000  1
  P  P2  1  0.22313867  0.05283589  0.79740639  1
  P  P3  1  0.42573228  0.44716411  0.20259361  1
  P  P4  1  0.77686133  0.94716411  0.20259361  1
  P  P5  1  0.57426772  0.55283589  0.79740639  1
  H  H6  1  0.19551643  0.36489272  0.80143618  1
  H  H7  1  0.39408025  0.13510728  0.19856382  1
  H  H8  1  0.80448357  0.63510728  0.19856382  1
  H  H9  1  0.60591975  0.86489272  0.80143618  1
  H  H10  1  0.89816957  0.86900515  0.60589089  1
  H  H11  1  0.29227868  0.63099485  0.39410911  1
  H  H12  1  0.10183043  0.13099485  0.39410911  1
  H  H13  1  0.70772132  0.36900515  0.60589089  1
  H  H14  1  0.14435681  0.72802160  0.64683637  1
  H  H15  1  0.49752044  0.77197840  0.35316363  1
  H  H16  1  0.85564319  0.27197840  0.35316363  1
  H  H17  1  0.50247956  0.22802160  0.64683637  1
  H  H18  1  0.17092116  0.89381880  0.55721756  1
  H  H19  1  0.61370360  0.60618120  0.44278244  1
  H  H20  1  0.82907884  0.10618120  0.44278244  1
  H  H21  1  0.38629640  0.39381880  0.55721756  1
  C  C22  1  0.09822667  0.86842799  0.63613004  1
  C  C23  1  0.46209663  0.63157201  0.36386996  1
  C  C24  1  0.90177333  0.13157201  0.36386996  1
  C  C25  1  0.53790337  0.36842799  0.63613004  1
  O  O26  1  0.09707881  0.23614837  0.76968906  1
  O  O27  1  0.32738975  0.26385163  0.23031094  1
  O  O28  1  0.90292119  0.76385163  0.23031094  1
  O  O29  1  0.67261025  0.73614837  0.76968906  1
  O  O30  1  0.12874156  0.01203271  0.90834390  1
  O  O31  1  0.22039765  0.48796729  0.09165610  1
  O  O32  1  0.87125844  0.98796729  0.09165610  1
  O  O33  1  0.77960235  0.51203271  0.90834390  1
  O  O34  1  0.50359626  0.07744122  0.83043774  1
  O  O35  1  0.67315852  0.42255878  0.16956226  1
  O  O36  1  0.49640374  0.92255878  0.16956226  1
  O  O37  1  0.32684148  0.57744122  0.83043774  1
