# generated using pymatgen
data_FeMoHSeO7
_symmetry_space_group_name_H-M   'P 1'
_cell_length_a   5.57016359
_cell_length_b   10.45882296
_cell_length_c   10.66194839
_cell_angle_alpha   81.37719739
_cell_angle_beta   74.85771737
_cell_angle_gamma   74.55637284
_symmetry_Int_Tables_number   1
_chemical_formula_structural   FeMoHSeO7
_chemical_formula_sum   'Fe4 Mo4 H4 Se4 O28'
_cell_volume   575.76227872
_cell_formula_units_Z   4
loop_
 _symmetry_equiv_pos_site_id
 _symmetry_equiv_pos_as_xyz
  1  'x, y, z'
loop_
 _atom_site_type_symbol
 _atom_site_label
 _atom_site_symmetry_multiplicity
 _atom_site_fract_x
 _atom_site_fract_y
 _atom_site_fract_z
 _atom_site_occupancy
  Fe  Fe0  1  0.61579666  0.58935428  0.87767111  1
  Fe  Fe1  1  0.08282205  0.91064572  0.62232889  1
  Fe  Fe2  1  0.38420334  0.41064572  0.12232889  1
  Fe  Fe3  1  0.91717795  0.08935428  0.37767111  1
  Mo  Mo4  1  0.04155056  0.29887416  0.90946367  1
  Mo  Mo5  1  0.24988839  0.20112584  0.59053633  1
  Mo  Mo6  1  0.95844944  0.70112584  0.09053633  1
  Mo  Mo7  1  0.75011161  0.79887416  0.40946367  1
  H  H8  1  0.76492604  0.17047398  0.76827273  1
  H  H9  1  0.70367274  0.32952602  0.73172727  1
  H  H10  1  0.23507396  0.82952602  0.23172727  1
  H  H11  1  0.29632726  0.67047398  0.26827273  1
  Se  Se12  1  0.22810556  0.57271819  0.67615122  1
  Se  Se13  1  0.47697497  0.92728181  0.82384878  1
  Se  Se14  1  0.77189444  0.42728181  0.32384878  1
  Se  Se15  1  0.52302503  0.07271819  0.17615122  1
  O  O16  1  0.83824850  0.25000000  0.75000000  1
  O  O17  1  0.16175150  0.75000000  0.25000000  1
  O  O18  1  0.00410675  0.14501375  0.98520208  1
  O  O19  1  0.13432258  0.35498625  0.51479792  1
  O  O20  1  0.99589325  0.85498625  0.01479792  1
  O  O21  1  0.86567742  0.64501375  0.48520208  1
  O  O22  1  0.30153246  0.25000000  0.75000000  1
  O  O23  1  0.69846754  0.75000000  0.25000000  1
  O  O24  1  0.23326896  0.34323411  0.99699345  1
  O  O25  1  0.57349653  0.15676589  0.50300655  1
  O  O26  1  0.76673104  0.65676589  0.00300655  1
  O  O27  1  0.42650347  0.84323411  0.49699345  1
  O  O28  1  0.70292697  0.40124014  0.97487231  1
  O  O29  1  0.07903943  0.09875986  0.52512769  1
  O  O30  1  0.29707303  0.59875986  0.02512769  1
  O  O31  1  0.92096057  0.90124014  0.47487231  1
  O  O32  1  0.98440058  0.50315879  0.78416096  1
  O  O33  1  0.27172033  0.99684121  0.71583904  1
  O  O34  1  0.01559942  0.49684121  0.21583904  1
  O  O35  1  0.72827967  0.00315879  0.28416096  1
  O  O36  1  0.47772425  0.51397090  0.75386241  1
  O  O37  1  0.74555756  0.98602910  0.74613759  1
  O  O38  1  0.52227575  0.48602910  0.24613759  1
  O  O39  1  0.25444244  0.01397090  0.25386241  1
  O  O40  1  0.10310027  0.73377383  0.71492332  1
  O  O41  1  0.55179741  0.76622617  0.78507668  1
  O  O42  1  0.89689973  0.26622617  0.28507668  1
  O  O43  1  0.44820259  0.23377383  0.21492332  1
