# generated using pymatgen
data_Fe3P4(H3O5)4
_symmetry_space_group_name_H-M   'P 1'
_cell_length_a   5.20792221
_cell_length_b   8.84504115
_cell_length_c   17.07658717
_cell_angle_alpha   90.00000000
_cell_angle_beta   90.00000000
_cell_angle_gamma   91.20483967
_symmetry_Int_Tables_number   1
_chemical_formula_structural   Fe3P4(H3O5)4
_chemical_formula_sum   'Fe6 P8 H24 O40'
_cell_volume   786.44688582
_cell_formula_units_Z   2
loop_
 _symmetry_equiv_pos_site_id
 _symmetry_equiv_pos_as_xyz
  1  'x, y, z'
loop_
 _atom_site_type_symbol
 _atom_site_label
 _atom_site_symmetry_multiplicity
 _atom_site_fract_x
 _atom_site_fract_y
 _atom_site_fract_z
 _atom_site_occupancy
  Fe  Fe0  1  0.00000000  0.00000000  -0.00000000  1
  Fe  Fe1  1  0.50000000  0.50000000  0.50000000  1
  Fe  Fe2  1  0.75113291  0.87207804  0.29686162  1
  Fe  Fe3  1  0.25113291  0.37207804  0.20313838  1
  Fe  Fe4  1  0.24886709  0.12792196  0.70313838  1
  Fe  Fe5  1  0.74886709  0.62792196  0.79686162  1
  P  P6  1  0.24502944  0.99594674  0.19461361  1
  P  P7  1  0.74502944  0.49594674  0.30538639  1
  P  P8  1  0.75497056  0.00405326  0.80538639  1
  P  P9  1  0.25497056  0.50405326  0.69461361  1
  P  P10  1  0.26110826  0.80738745  0.41874711  1
  P  P11  1  0.76110826  0.30738745  0.08125289  1
  P  P12  1  0.73889174  0.19261255  0.58125289  1
  P  P13  1  0.23889174  0.69261255  0.91874711  1
  H  H14  1  0.84174438  0.83957914  0.11775218  1
  H  H15  1  0.34174438  0.33957914  0.38224782  1
  H  H16  1  0.15825562  0.16042086  0.88224782  1
  H  H17  1  0.65825562  0.66042086  0.61775218  1
  H  H18  1  0.62435754  0.80417532  0.05496099  1
  H  H19  1  0.12435754  0.30417532  0.44503901  1
  H  H20  1  0.37564246  0.19582468  0.94503901  1
  H  H21  1  0.87564246  0.69582468  0.55496099  1
  H  H22  1  0.56130384  0.14155196  0.29635478  1
  H  H23  1  0.06130384  0.64155196  0.20364522  1
  H  H24  1  0.43869616  0.85844804  0.70364522  1
  H  H25  1  0.93869616  0.35844804  0.79635478  1
  H  H26  1  0.86005303  0.17620875  0.29946189  1
  H  H27  1  0.36005303  0.67620875  0.20053811  1
  H  H28  1  0.13994697  0.82379125  0.70053811  1
  H  H29  1  0.63994697  0.32379125  0.79946189  1
  H  H30  1  0.45445386  0.07166167  0.08618181  1
  H  H31  1  0.95445386  0.57166167  0.41381819  1
  H  H32  1  0.54554614  0.92833833  0.91381819  1
  H  H33  1  0.04554614  0.42833833  0.58618181  1
  H  H34  1  0.23155101  0.00681256  0.49601844  1
  H  H35  1  0.73155101  0.50681256  0.00398156  1
  H  H36  1  0.76844899  0.99318744  0.50398156  1
  H  H37  1  0.26844899  0.49318744  0.99601844  1
  O  O38  1  0.97713543  0.92174860  0.20052920  1
  O  O39  1  0.47713543  0.42174860  0.29947080  1
  O  O40  1  0.02286457  0.07825140  0.79947080  1
  O  O41  1  0.52286457  0.57825140  0.70052920  1
  O  O42  1  0.26586939  0.14899437  0.23769683  1
  O  O43  1  0.76586939  0.64899437  0.26230317  1
  O  O44  1  0.73413061  0.85100563  0.76230317  1
  O  O45  1  0.23413061  0.35100563  0.73769683  1
  O  O46  1  0.27955281  0.02447685  0.10163171  1
  O  O47  1  0.77955281  0.52447685  0.39836829  1
  O  O48  1  0.72044719  0.97552315  0.89836829  1
  O  O49  1  0.22044719  0.47552315  0.60163171  1
  O  O50  1  0.45737930  0.88926762  0.22063379  1
  O  O51  1  0.95737930  0.38926762  0.27936621  1
  O  O52  1  0.54262070  0.11073238  0.77936621  1
  O  O53  1  0.04262070  0.61073238  0.72063379  1
  O  O54  1  0.53514693  0.84168549  0.39093260  1
  O  O55  1  0.03514693  0.34168549  0.10906740  1
  O  O56  1  0.46485307  0.15831451  0.60906740  1
  O  O57  1  0.96485307  0.65831451  0.89093260  1
  O  O58  1  0.06297396  0.85422844  0.35823781  1
  O  O59  1  0.56297396  0.35422844  0.14176219  1
  O  O60  1  0.93702604  0.14577156  0.64176219  1
  O  O61  1  0.43702604  0.64577156  0.85823781  1
  O  O62  1  0.22153732  0.64041001  0.44453363  1
  O  O63  1  0.72153732  0.14041001  0.05546637  1
  O  O64  1  0.77846268  0.35958999  0.55546637  1
  O  O65  1  0.27846268  0.85958999  0.94453363  1
  O  O66  1  0.21044739  0.89688841  0.49858973  1
  O  O67  1  0.71044739  0.39688841  0.00141027  1
  O  O68  1  0.78955261  0.10311159  0.50141027  1
  O  O69  1  0.28955261  0.60311159  0.99858973  1
  O  O70  1  0.80960393  0.81539738  0.06143785  1
  O  O71  1  0.30960393  0.31539738  0.43856215  1
  O  O72  1  0.19039607  0.18460262  0.93856215  1
  O  O73  1  0.69039607  0.68460262  0.56143785  1
  O  O74  1  0.72559126  0.10427760  0.31759407  1
  O  O75  1  0.22559126  0.60427760  0.18240593  1
  O  O76  1  0.27440874  0.89572240  0.68240593  1
  O  O77  1  0.77440874  0.39572240  0.81759407  1
