# generated using pymatgen
data_Ag3SbO4
_symmetry_space_group_name_H-M   'P 1'
_cell_length_a   7.28277212
_cell_length_b   7.28277212
_cell_length_c   8.81146711
_cell_angle_alpha   90.00000000
_cell_angle_beta   90.00000000
_cell_angle_gamma   90.00000000
_symmetry_Int_Tables_number   1
_chemical_formula_structural   Ag3SbO4
_chemical_formula_sum   'Ag12 Sb4 O16'
_cell_volume   467.34937522
_cell_formula_units_Z   4
loop_
 _symmetry_equiv_pos_site_id
 _symmetry_equiv_pos_as_xyz
  1  'x, y, z'
loop_
 _atom_site_type_symbol
 _atom_site_label
 _atom_site_symmetry_multiplicity
 _atom_site_fract_x
 _atom_site_fract_y
 _atom_site_fract_z
 _atom_site_occupancy
  Ag  Ag0  1  0.73698326  0.00000000  0.75000000  1
  Ag  Ag1  1  0.26301674  0.00000000  0.25000000  1
  Ag  Ag2  1  0.00000000  0.26301674  0.50000000  1
  Ag  Ag3  1  0.00000000  0.73698326  -0.00000000  1
  Ag  Ag4  1  0.18026876  0.00000000  0.75000000  1
  Ag  Ag5  1  0.81973124  0.00000000  0.25000000  1
  Ag  Ag6  1  0.00000000  0.81973124  0.50000000  1
  Ag  Ag7  1  0.00000000  0.18026876  -0.00000000  1
  Ag  Ag8  1  0.79953901  0.50000000  0.75000000  1
  Ag  Ag9  1  0.20046099  0.50000000  0.25000000  1
  Ag  Ag10  1  0.50000000  0.20046099  0.50000000  1
  Ag  Ag11  1  0.50000000  0.79953901  -0.00000000  1
  Sb  Sb12  1  0.27961366  0.50000000  0.75000000  1
  Sb  Sb13  1  0.72038634  0.50000000  0.25000000  1
  Sb  Sb14  1  0.50000000  0.72038634  0.50000000  1
  Sb  Sb15  1  0.50000000  0.27961366  -0.00000000  1
  O  O16  1  0.48408387  0.69504626  0.73083811  1
  O  O17  1  0.51591613  0.30495374  0.23083811  1
  O  O18  1  0.69504626  0.51591613  0.48083811  1
  O  O19  1  0.30495374  0.48408387  0.98083811  1
  O  O20  1  0.48408387  0.30495374  0.76916189  1
  O  O21  1  0.51591613  0.69504626  0.26916189  1
  O  O22  1  0.30495374  0.51591613  0.51916189  1
  O  O23  1  0.69504626  0.48408387  0.01916189  1
  O  O24  1  0.08612098  0.30523104  0.73448273  1
  O  O25  1  0.91387902  0.69476896  0.23448273  1
  O  O26  1  0.30523104  0.91387902  0.48448273  1
  O  O27  1  0.69476896  0.08612098  0.98448273  1
  O  O28  1  0.08612098  0.69476896  0.76551727  1
  O  O29  1  0.91387902  0.30523104  0.26551727  1
  O  O30  1  0.69476896  0.91387902  0.51551727  1
  O  O31  1  0.30523104  0.08612098  0.01551727  1
