# generated using pymatgen
data_ZrMnH10O5F6
_symmetry_space_group_name_H-M   'P 1'
_cell_length_a   7.63976818
_cell_length_b   8.77552671
_cell_length_c   8.97780491
_cell_angle_alpha   59.97782964
_cell_angle_beta   64.81889637
_cell_angle_gamma   64.19635982
_symmetry_Int_Tables_number   1
_chemical_formula_structural   ZrMnH10O5F6
_chemical_formula_sum   'Zr2 Mn2 H20 O10 F12'
_cell_volume   452.22033810
_cell_formula_units_Z   2
loop_
 _symmetry_equiv_pos_site_id
 _symmetry_equiv_pos_as_xyz
  1  'x, y, z'
loop_
 _atom_site_type_symbol
 _atom_site_label
 _atom_site_symmetry_multiplicity
 _atom_site_fract_x
 _atom_site_fract_y
 _atom_site_fract_z
 _atom_site_occupancy
  Zr  Zr0  1  0.74555426  0.50000000  0.50000000  1
  Zr  Zr1  1  0.24496354  0.50000000  0.50000000  1
  Mn  Mn2  1  0.76532207  0.18419230  0.27483272  1
  Mn  Mn3  1  0.22434709  0.81580770  0.72516728  1
  H  H4  1  0.17264349  0.62247908  0.09592612  1
  H  H5  1  0.89104869  0.37752092  0.90407388  1
  H  H6  1  0.26043186  0.47052021  0.01165481  1
  H  H7  1  0.74260688  0.52947979  0.98834519  1
  H  H8  1  0.18744811  0.17248477  0.43924166  1
  H  H9  1  0.79917454  0.82751523  0.56075834  1
  H  H10  1  0.80046444  0.88171202  0.88532461  1
  H  H11  1  0.56750106  0.11828798  0.11467539  1
  H  H12  1  0.70905338  0.91820260  0.22017689  1
  H  H13  1  0.84743286  0.08179740  0.77982311  1
  H  H14  1  0.13760566  0.91384762  0.22414838  1
  H  H15  1  0.27560167  0.08615238  0.77585162  1
  H  H16  1  0.58075228  0.71138690  0.13023992  1
  H  H17  1  0.42237911  0.28861310  0.86976008  1
  H  H18  1  0.80682364  0.96450045  0.62250691  1
  H  H19  1  0.39383100  0.03549955  0.37749309  1
  H  H20  1  0.50725636  0.81362321  0.95410747  1
  H  H21  1  0.27498705  0.18637679  0.04589253  1
  H  H22  1  0.48765928  0.96974599  0.69044486  1
  H  H23  1  0.14785013  0.03025401  0.30955514  1
  O  O24  1  0.89518846  0.95317386  0.78524122  1
  O  O25  1  0.63360354  0.04682614  0.21475878  1
  O  O26  1  0.35613576  0.95845550  0.78225888  1
  O  O27  1  0.09685014  0.04154450  0.21774112  1
  O  O28  1  0.73913846  0.95630428  0.55419278  1
  O  O29  1  0.24963553  0.04369572  0.44580722  1
  O  O30  1  0.20444826  0.60406933  0.98738399  1
  O  O31  1  0.79590158  0.39593067  0.01261601  1
  O  O32  1  0.62905271  0.75071635  0.99856876  1
  O  O33  1  0.37833782  0.24928365  0.00143124  1
  F  F34  1  0.79597697  0.29229608  0.73688855  1
  F  F35  1  0.82516161  0.70770392  0.26311145  1
  F  F36  1  0.15550566  0.29997950  0.74425245  1
  F  F37  1  0.19973761  0.70002050  0.25574755  1
  F  F38  1  0.50398413  0.62327922  0.35697359  1
  F  F39  1  0.48423695  0.37672078  0.64302641  1
  F  F40  1  0.08563011  0.38796447  0.43261446  1
  F  F41  1  0.90620905  0.61203553  0.56738554  1
  F  F42  1  0.45992502  0.31727089  0.38404113  1
  F  F43  1  0.16123703  0.68272911  0.61595887  1
  F  F44  1  0.82926363  0.31676497  0.38397295  1
  F  F45  1  0.53000155  0.68323503  0.61602705  1
