# generated using pymatgen
data_K2CuP4(HO2)8
_symmetry_space_group_name_H-M   'P 1'
_cell_length_a   9.99588692
_cell_length_b   10.95172431
_cell_length_c   13.56842739
_cell_angle_alpha   90.00000000
_cell_angle_beta   90.00000000
_cell_angle_gamma   90.00000000
_symmetry_Int_Tables_number   1
_chemical_formula_structural   K2CuP4(HO2)8
_chemical_formula_sum   'K8 Cu4 P16 H32 O64'
_cell_volume   1485.36556683
_cell_formula_units_Z   4
loop_
 _symmetry_equiv_pos_site_id
 _symmetry_equiv_pos_as_xyz
  1  'x, y, z'
loop_
 _atom_site_type_symbol
 _atom_site_label
 _atom_site_symmetry_multiplicity
 _atom_site_fract_x
 _atom_site_fract_y
 _atom_site_fract_z
 _atom_site_occupancy
  K  K0  1  0.05241150  0.75000000  0.60366296  1
  K  K1  1  0.55241150  0.75000000  0.89633704  1
  K  K2  1  0.94758850  0.25000000  0.39633704  1
  K  K3  1  0.44758850  0.25000000  0.10366296  1
  K  K4  1  0.75539042  0.25000000  0.87344640  1
  K  K5  1  0.25539042  0.25000000  0.62655360  1
  K  K6  1  0.24460958  0.75000000  0.12655360  1
  K  K7  1  0.74460958  0.75000000  0.37344640  1
  Cu  Cu8  1  0.16904799  0.75000000  0.85872146  1
  Cu  Cu9  1  0.66904799  0.75000000  0.64127854  1
  Cu  Cu10  1  0.83095201  0.25000000  0.14127854  1
  Cu  Cu11  1  0.33095201  0.25000000  0.35872146  1
  P  P12  1  0.05950309  0.48709054  0.77681125  1
  P  P13  1  0.55950309  0.01290946  0.72318875  1
  P  P14  1  0.94049691  0.98709054  0.22318875  1
  P  P15  1  0.44049691  0.51290946  0.27681125  1
  P  P16  1  0.94049691  0.51290946  0.22318875  1
  P  P17  1  0.44049691  0.98709054  0.27681125  1
  P  P18  1  0.05950309  0.01290946  0.77681125  1
  P  P19  1  0.55950309  0.48709054  0.72318875  1
  P  P20  1  0.25080227  0.48811164  0.93827905  1
  P  P21  1  0.75080227  0.01188836  0.56172095  1
  P  P22  1  0.74919773  0.98811164  0.06172095  1
  P  P23  1  0.24919773  0.51188836  0.43827905  1
  P  P24  1  0.74919773  0.51188836  0.06172095  1
  P  P25  1  0.24919773  0.98811164  0.43827905  1
  P  P26  1  0.25080227  0.01188836  0.93827905  1
  P  P27  1  0.75080227  0.48811164  0.56172095  1
  H  H28  1  0.96042084  0.67849903  0.99055841  1
  H  H29  1  0.46042084  0.82150097  0.50944159  1
  H  H30  1  0.03957916  0.17849903  0.00944159  1
  H  H31  1  0.53957916  0.32150097  0.49055841  1
  H  H32  1  0.03957916  0.32150097  0.00944159  1
  H  H33  1  0.53957916  0.17849903  0.49055841  1
  H  H34  1  0.96042084  0.82150097  0.99055841  1
  H  H35  1  0.46042084  0.67849903  0.50944159  1
  H  H36  1  0.35986157  0.68081222  0.69782980  1
  H  H37  1  0.85986157  0.81918778  0.80217020  1
  H  H38  1  0.64013843  0.18081222  0.30217020  1
  H  H39  1  0.14013843  0.31918778  0.19782980  1
  H  H40  1  0.64013843  0.31918778  0.30217020  1
  H  H41  1  0.14013843  0.18081222  0.19782980  1
  H  H42  1  0.35986157  0.81918778  0.69782980  1
  H  H43  1  0.85986157  0.68081222  0.80217020  1
  H  H44  1  0.45623945  0.42534100  0.89531907  1
  H  H45  1  0.95623945  0.07465900  0.60468093  1
  H  H46  1  0.54376055  0.92534100  0.10468093  1
  H  H47  1  0.04376055  0.57465900  0.39531907  1
  H  H48  1  0.54376055  0.57465900  0.10468093  1
  H  H49  1  0.04376055  0.92534100  0.39531907  1
  H  H50  1  0.45623945  0.07465900  0.89531907  1
  H  H51  1  0.95623945  0.42534100  0.60468093  1
  H  H52  1  0.90198002  0.47861672  0.89345075  1
  H  H53  1  0.40198002  0.02138328  0.60654925  1
  H  H54  1  0.09801998  0.97861672  0.10654925  1
  H  H55  1  0.59801998  0.52138328  0.39345075  1
  H  H56  1  0.09801998  0.52138328  0.10654925  1
  H  H57  1  0.59801998  0.97861672  0.39345075  1
  H  H58  1  0.90198002  0.02138328  0.89345075  1
  H  H59  1  0.40198002  0.47861672  0.60654925  1
  O  O60  1  0.18945259  0.43579834  0.83485975  1
  O  O61  1  0.68945259  0.06420166  0.66514025  1
  O  O62  1  0.81054741  0.93579834  0.16514025  1
  O  O63  1  0.31054741  0.56420166  0.33485975  1
  O  O64  1  0.81054741  0.56420166  0.16514025  1
  O  O65  1  0.31054741  0.93579834  0.33485975  1
  O  O66  1  0.18945259  0.06420166  0.83485975  1
  O  O67  1  0.68945259  0.43579834  0.66514025  1
  O  O68  1  0.38244514  0.41192215  0.94926224  1
  O  O69  1  0.88244514  0.08807785  0.55073776  1
  O  O70  1  0.61755486  0.91192215  0.05073776  1
  O  O71  1  0.11755486  0.58807785  0.44926224  1
  O  O72  1  0.61755486  0.58807785  0.05073776  1
  O  O73  1  0.11755486  0.91192215  0.44926224  1
  O  O74  1  0.38244514  0.08807785  0.94926224  1
  O  O75  1  0.88244514  0.41192215  0.55073776  1
  O  O76  1  0.05841072  0.62601766  0.78547951  1
  O  O77  1  0.55841072  0.87398234  0.71452049  1
  O  O78  1  0.94158928  0.12601766  0.21452049  1
  O  O79  1  0.44158928  0.37398234  0.28547951  1
  O  O80  1  0.94158928  0.37398234  0.21452049  1
  O  O81  1  0.44158928  0.12601766  0.28547951  1
  O  O82  1  0.05841072  0.87398234  0.78547951  1
  O  O83  1  0.55841072  0.62601766  0.71452049  1
  O  O84  1  0.28407098  0.62369427  0.92465183  1
  O  O85  1  0.78407098  0.87630573  0.57534817  1
  O  O86  1  0.71592902  0.12369427  0.07534817  1
  O  O87  1  0.21592902  0.37630573  0.42465183  1
  O  O88  1  0.71592902  0.37630573  0.07534817  1
  O  O89  1  0.21592902  0.12369427  0.42465183  1
  O  O90  1  0.28407098  0.87630573  0.92465183  1
  O  O91  1  0.78407098  0.62369427  0.57534817  1
  O  O92  1  0.06833113  0.43459110  0.67414506  1
  O  O93  1  0.56833113  0.06540890  0.82585494  1
  O  O94  1  0.93166887  0.93459110  0.32585494  1
  O  O95  1  0.43166887  0.56540890  0.17414506  1
  O  O96  1  0.93166887  0.56540890  0.32585494  1
  O  O97  1  0.43166887  0.93459110  0.17414506  1
  O  O98  1  0.06833113  0.06540890  0.67414506  1
  O  O99  1  0.56833113  0.43459110  0.82585494  1
  O  O100  1  0.02045607  0.75000000  0.99328274  1
  O  O101  1  0.52045607  0.75000000  0.50671726  1
  O  O102  1  0.97954393  0.25000000  0.00671726  1
  O  O103  1  0.47954393  0.25000000  0.49328274  1
  O  O104  1  0.93239708  0.43374981  0.82985080  1
  O  O105  1  0.43239708  0.06625019  0.67014920  1
  O  O106  1  0.06760292  0.93374981  0.17014920  1
  O  O107  1  0.56760292  0.56625019  0.32985080  1
  O  O108  1  0.06760292  0.56625019  0.17014920  1
  O  O109  1  0.56760292  0.93374981  0.32985080  1
  O  O110  1  0.93239708  0.06625019  0.82985080  1
  O  O111  1  0.43239708  0.43374981  0.67014920  1
  O  O112  1  0.15426982  0.45530494  0.01958900  1
  O  O113  1  0.65426982  0.04469506  0.48041100  1
  O  O114  1  0.84573018  0.95530494  0.98041100  1
  O  O115  1  0.34573018  0.54469506  0.51958900  1
  O  O116  1  0.84573018  0.54469506  0.98041100  1
  O  O117  1  0.34573018  0.95530494  0.51958900  1
  O  O118  1  0.15426982  0.04469506  0.01958900  1
  O  O119  1  0.65426982  0.45530494  0.48041100  1
  O  O120  1  0.29805412  0.75000000  0.70187008  1
  O  O121  1  0.79805412  0.75000000  0.79812992  1
  O  O122  1  0.70194588  0.25000000  0.29812992  1
  O  O123  1  0.20194588  0.25000000  0.20187008  1
