# generated using pymatgen
data_CoH8Se2(ClO4)2
_symmetry_space_group_name_H-M   'P 1'
_cell_length_a   5.17426897
_cell_length_b   6.56039276
_cell_length_c   14.97059746
_cell_angle_alpha   90.00000000
_cell_angle_beta   90.00000000
_cell_angle_gamma   93.15144135
_symmetry_Int_Tables_number   1
_chemical_formula_structural   CoH8Se2(ClO4)2
_chemical_formula_sum   'Co2 H16 Se4 Cl4 O16'
_cell_volume   507.41195976
_cell_formula_units_Z   2
loop_
 _symmetry_equiv_pos_site_id
 _symmetry_equiv_pos_as_xyz
  1  'x, y, z'
loop_
 _atom_site_type_symbol
 _atom_site_label
 _atom_site_symmetry_multiplicity
 _atom_site_fract_x
 _atom_site_fract_y
 _atom_site_fract_z
 _atom_site_occupancy
  Co  Co0  1  -0.00000000  0.50000000  -0.00000000  1
  Co  Co1  1  -0.00000000  -0.00000000  0.50000000  1
  H  H2  1  0.08341220  0.21392859  0.69661072  1
  H  H3  1  0.91658780  0.28607141  0.19661072  1
  H  H4  1  0.91658780  0.78607141  0.30338928  1
  H  H5  1  0.08341220  0.71392859  0.80338928  1
  H  H6  1  0.70727759  0.33365690  0.76958603  1
  H  H7  1  0.29272241  0.16634310  0.26958603  1
  H  H8  1  0.29272241  0.66634310  0.23041397  1
  H  H9  1  0.70727759  0.83365690  0.73041397  1
  H  H10  1  0.42306233  0.33960682  0.07849976  1
  H  H11  1  0.57693767  0.16039318  0.57849976  1
  H  H12  1  0.57693767  0.66039318  0.92150024  1
  H  H13  1  0.42306233  0.83960682  0.42150024  1
  H  H14  1  0.22709786  0.15230963  0.05634270  1
  H  H15  1  0.77290214  0.34769037  0.55634270  1
  H  H16  1  0.77290214  0.84769037  0.94365730  1
  H  H17  1  0.22709786  0.65230963  0.44365730  1
  Se  Se18  1  0.29290644  0.29229608  0.83100831  1
  Se  Se19  1  0.70709356  0.20770392  0.33100831  1
  Se  Se20  1  0.70709356  0.70770392  0.16899169  1
  Se  Se21  1  0.29290644  0.79229608  0.66899169  1
  Cl  Cl22  1  0.76253857  0.19643144  0.94182236  1
  Cl  Cl23  1  0.23746143  0.30356856  0.44182236  1
  Cl  Cl24  1  0.23746143  0.80356856  0.05817764  1
  Cl  Cl25  1  0.76253857  0.69643144  0.55817764  1
  O  O26  1  0.04640898  0.31317154  0.74482117  1
  O  O27  1  0.95359102  0.18682846  0.24482117  1
  O  O28  1  0.95359102  0.68682846  0.25517883  1
  O  O29  1  0.04640898  0.81317154  0.75517883  1
  O  O30  1  0.23735884  0.51454743  0.88389109  1
  O  O31  1  0.76264116  0.98545257  0.38389109  1
  O  O32  1  0.76264116  0.48545257  0.11610891  1
  O  O33  1  0.23735884  0.01454743  0.61610891  1
  O  O34  1  0.53463560  0.38590766  0.75488844  1
  O  O35  1  0.46536440  0.11409234  0.25488844  1
  O  O36  1  0.46536440  0.61409234  0.24511156  1
  O  O37  1  0.53463560  0.88590766  0.74511156  1
  O  O38  1  0.23952575  0.30071472  0.06765026  1
  O  O39  1  0.76047425  0.19928528  0.56765026  1
  O  O40  1  0.76047425  0.69928528  0.93234974  1
  O  O41  1  0.23952575  0.80071472  0.43234974  1
