# generated using pymatgen
data_Yb2Mn2Co15
_symmetry_space_group_name_H-M   'P 1'
_cell_length_a   8.15025993
_cell_length_b   8.27734015
_cell_length_c   8.27734015
_cell_angle_alpha   119.91886769
_cell_angle_beta   90.00000000
_cell_angle_gamma   90.00000000
_symmetry_Int_Tables_number   1
_chemical_formula_structural   Yb2Mn2Co15
_chemical_formula_sum   'Yb4 Mn4 Co30'
_cell_volume   483.99198627
_cell_formula_units_Z   2
loop_
 _symmetry_equiv_pos_site_id
 _symmetry_equiv_pos_as_xyz
  1  'x, y, z'
loop_
 _atom_site_type_symbol
 _atom_site_label
 _atom_site_symmetry_multiplicity
 _atom_site_fract_x
 _atom_site_fract_y
 _atom_site_fract_z
 _atom_site_occupancy
  Yb  Yb0  1  0.75000000  0.00011336  0.99988664  1
  Yb  Yb1  1  0.25000000  0.99988664  0.00011336  1
  Yb  Yb2  1  0.25000000  0.66671886  0.33328114  1
  Yb  Yb3  1  0.75000000  0.33328114  0.66671886  1
  Mn  Mn4  1  0.59386560  0.66671714  0.33328286  1
  Mn  Mn5  1  0.40613440  0.33328286  0.66671714  1
  Mn  Mn6  1  0.09386560  0.33328286  0.66671714  1
  Mn  Mn7  1  0.90613440  0.66671714  0.33328286  1
  Co  Co8  1  0.50000000  0.50000000  -0.00000000  1
  Co  Co9  1  0.50000000  0.50000000  0.50000000  1
  Co  Co10  1  0.50000000  -0.00000000  0.50000000  1
  Co  Co11  1  -0.00000000  0.50000000  -0.00000000  1
  Co  Co12  1  -0.00000000  0.50000000  0.50000000  1
  Co  Co13  1  -0.00000000  -0.00000000  0.50000000  1
  Co  Co14  1  0.75000000  0.67210724  0.04590867  1
  Co  Co15  1  0.75000000  0.37363842  0.32786610  1
  Co  Co16  1  0.75000000  0.95397345  0.62606026  1
  Co  Co17  1  0.75000000  0.37393974  0.04602655  1
  Co  Co18  1  0.75000000  0.95409133  0.32789276  1
  Co  Co19  1  0.75000000  0.67213390  0.62636158  1
  Co  Co20  1  0.25000000  0.32789276  0.95409133  1
  Co  Co21  1  0.25000000  0.62636158  0.67213390  1
  Co  Co22  1  0.25000000  0.04602655  0.37393974  1
  Co  Co23  1  0.25000000  0.62606026  0.95397345  1
  Co  Co24  1  0.25000000  0.04590867  0.67210724  1
  Co  Co25  1  0.25000000  0.32786610  0.37363842  1
  Co  Co26  1  0.47786024  0.83684776  0.67389538  1
  Co  Co27  1  0.47772201  0.83679596  0.16320404  1
  Co  Co28  1  0.47786024  0.32610462  0.16315224  1
  Co  Co29  1  0.52213976  0.16315224  0.32610462  1
  Co  Co30  1  0.52227799  0.16320404  0.83679596  1
  Co  Co31  1  0.52213976  0.67389538  0.83684776  1
  Co  Co32  1  0.97786024  0.16315224  0.32610462  1
  Co  Co33  1  0.97772201  0.16320404  0.83679596  1
  Co  Co34  1  0.97786024  0.67389538  0.83684776  1
  Co  Co35  1  0.02213976  0.83684776  0.67389538  1
  Co  Co36  1  0.02227799  0.83679596  0.16320404  1
  Co  Co37  1  0.02213976  0.32610462  0.16315224  1
