# generated using pymatgen
data_TmSbMo2O9
_symmetry_space_group_name_H-M   'P 1'
_cell_length_a   9.63172766
_cell_length_b   9.63172766
_cell_length_c   10.76252251
_cell_angle_alpha   112.02702311
_cell_angle_beta   112.02702311
_cell_angle_gamma   95.13330612
_symmetry_Int_Tables_number   1
_chemical_formula_structural   TmSbMo2O9
_chemical_formula_sum   'Tm4 Sb4 Mo8 O36'
_cell_volume   826.66373373
_cell_formula_units_Z   4
loop_
 _symmetry_equiv_pos_site_id
 _symmetry_equiv_pos_as_xyz
  1  'x, y, z'
loop_
 _atom_site_type_symbol
 _atom_site_label
 _atom_site_symmetry_multiplicity
 _atom_site_fract_x
 _atom_site_fract_y
 _atom_site_fract_z
 _atom_site_occupancy
  Tm  Tm0  1  0.67087347  0.32912653  0.25000000  1
  Tm  Tm1  1  0.32912653  0.67087347  0.75000000  1
  Tm  Tm2  1  0.12641863  0.87358137  0.25000000  1
  Tm  Tm3  1  0.87358137  0.12641863  0.75000000  1
  Sb  Sb4  1  0.65302720  0.61692352  0.03410183  1
  Sb  Sb5  1  0.38307648  0.34697280  0.46589817  1
  Sb  Sb6  1  0.34697280  0.38307648  0.96589817  1
  Sb  Sb7  1  0.61692352  0.65302720  0.53410183  1
  Mo  Mo8  1  0.04564202  0.25929516  0.52578967  1
  Mo  Mo9  1  0.74070484  0.95435798  0.97421033  1
  Mo  Mo10  1  0.95435798  0.74070484  0.47421033  1
  Mo  Mo11  1  0.25929516  0.04564202  0.02578967  1
  Mo  Mo12  1  0.05834185  0.43355753  0.19329457  1
  Mo  Mo13  1  0.56644247  0.94165815  0.30670543  1
  Mo  Mo14  1  0.94165815  0.56644247  0.80670543  1
  Mo  Mo15  1  0.43355753  0.05834185  0.69329457  1
  O  O16  1  0.06802193  0.09400931  0.39785883  1
  O  O17  1  0.90599069  0.93197807  0.10214117  1
  O  O18  1  0.93197807  0.90599069  0.60214117  1
  O  O19  1  0.09400931  0.06802193  0.89785883  1
  O  O20  1  0.86751599  0.29747083  0.42974628  1
  O  O21  1  0.70252917  0.13248401  0.07025372  1
  O  O22  1  0.13248401  0.70252917  0.57025372  1
  O  O23  1  0.29747083  0.86751599  0.92974628  1
  O  O24  1  0.04102817  0.22007127  0.67535023  1
  O  O25  1  0.77992873  0.95897183  0.82464977  1
  O  O26  1  0.95897183  0.77992873  0.32464977  1
  O  O27  1  0.22007127  0.04102817  0.17535023  1
  O  O28  1  0.77781538  0.59332401  0.41968326  1
  O  O29  1  0.40667599  0.22218462  0.08031674  1
  O  O30  1  0.22218462  0.40667599  0.58031674  1
  O  O31  1  0.59332401  0.77781538  0.91968326  1
  O  O32  1  0.97728118  0.30514898  0.99940950  1
  O  O33  1  0.69485102  0.02271882  0.50059050  1
  O  O34  1  0.02271882  0.69485102  0.00059050  1
  O  O35  1  0.30514898  0.97728118  0.49940950  1
  O  O36  1  0.14850097  0.62213976  0.23025996  1
  O  O37  1  0.37786024  0.85149903  0.26974004  1
  O  O38  1  0.85149903  0.37786024  0.76974004  1
  O  O39  1  0.62213976  0.14850097  0.73025996  1
  O  O40  1  0.90631725  0.44464972  0.25042579  1
  O  O41  1  0.55535028  0.09368275  0.24957421  1
  O  O42  1  0.09368275  0.55535028  0.74957421  1
  O  O43  1  0.44464972  0.90631725  0.75042579  1
  O  O44  1  0.20864703  0.36050415  0.29724068  1
  O  O45  1  0.63949585  0.79135297  0.20275932  1
  O  O46  1  0.79135297  0.63949585  0.70275932  1
  O  O47  1  0.36050415  0.20864703  0.79724068  1
  O  O48  1  0.57750586  0.45785449  0.10156901  1
  O  O49  1  0.54214551  0.42249414  0.39843099  1
  O  O50  1  0.42249414  0.54214551  0.89843099  1
  O  O51  1  0.45785449  0.57750586  0.60156901  1
