# generated using pymatgen
data_ZrMn2H12(O3F4)2
_symmetry_space_group_name_H-M   'P 1'
_cell_length_a   7.03194541
_cell_length_b   7.03194541
_cell_length_c   12.65807035
_cell_angle_alpha   97.79940555
_cell_angle_beta   104.55117417
_cell_angle_gamma   107.66547041
_symmetry_Int_Tables_number   1
_chemical_formula_structural   ZrMn2H12(O3F4)2
_chemical_formula_sum   'Zr2 Mn4 H24 O12 F16'
_cell_volume   561.82331528
_cell_formula_units_Z   2
loop_
 _symmetry_equiv_pos_site_id
 _symmetry_equiv_pos_as_xyz
  1  'x, y, z'
loop_
 _atom_site_type_symbol
 _atom_site_label
 _atom_site_symmetry_multiplicity
 _atom_site_fract_x
 _atom_site_fract_y
 _atom_site_fract_z
 _atom_site_occupancy
  Zr  Zr0  1  0.48523978  0.73523978  0.25000000  1
  Zr  Zr1  1  0.51476022  0.26476022  0.75000000  1
  Mn  Mn2  1  0.92905199  0.57351860  0.21225340  1
  Mn  Mn3  1  0.36126521  0.21679859  0.28774660  1
  Mn  Mn4  1  0.07094801  0.42648140  0.78774660  1
  Mn  Mn5  1  0.63873479  0.78320141  0.71225340  1
  H  H6  1  0.78977045  0.85425099  0.53419886  1
  H  H7  1  0.32005213  0.75557159  0.96580114  1
  H  H8  1  0.21022955  0.14574901  0.46580114  1
  H  H9  1  0.67994787  0.24442841  0.03419886  1
  H  H10  1  0.30320202  0.30020106  0.94432054  1
  H  H11  1  0.35588053  0.85888148  0.55567946  1
  H  H12  1  0.69679798  0.69979894  0.05567946  1
  H  H13  1  0.64411947  0.14111852  0.44432054  1
  H  H14  1  0.98210609  0.96464909  0.64552073  1
  H  H15  1  0.31912836  0.83658536  0.85447927  1
  H  H16  1  0.01789391  0.03535091  0.35447927  1
  H  H17  1  0.68087164  0.16341464  0.14552073  1
  H  H18  1  0.82359494  0.61024395  0.98563205  1
  H  H19  1  0.62461190  0.33796289  0.51436795  1
  H  H20  1  0.17640506  0.38975605  0.01436795  1
  H  H21  1  0.37538810  0.66203711  0.48563205  1
  H  H22  1  0.00534551  0.83492368  0.87749959  1
  H  H23  1  0.95742409  0.62784593  0.62250041  1
  H  H24  1  -0.00534551  0.16507632  0.12250041  1
  H  H25  1  0.04257591  0.37215407  0.37749959  1
  H  H26  1  0.98075681  0.05124547  0.88828910  1
  H  H27  1  0.16295637  0.59246771  0.61171090  1
  H  H28  1  0.01924319  0.94875453  0.11171090  1
  H  H29  1  0.83704363  0.40753229  0.38828910  1
  O  O30  1  0.13807374  0.16565267  0.39218964  1
  O  O31  1  0.77346303  0.24588409  0.10781036  1
  O  O32  1  0.86192626  0.83434733  0.60781036  1
  O  O33  1  0.22653697  0.75411591  0.89218964  1
  O  O34  1  0.95921164  0.46237932  0.36167459  1
  O  O35  1  0.10070472  0.09753705  0.13832541  1
  O  O36  1  0.04078836  0.53762068  0.63832541  1
  O  O37  1  0.89929528  0.90246295  0.86167459  1
  O  O38  1  0.83668691  0.68767709  0.06032358  1
  O  O39  1  0.62735350  0.27636332  0.43967642  1
  O  O40  1  0.16331309  0.31232291  0.93967642  1
  O  O41  1  0.37264650  0.72363668  0.56032358  1
  F  F42  1  0.18094160  0.52344222  0.14284525  1
  F  F43  1  0.38059697  0.53809635  0.35715475  1
  F  F44  1  0.81905840  0.47655778  0.85715475  1
  F  F45  1  0.61940303  0.46190365  0.64284525  1
  F  F46  1  0.24396255  0.83578461  0.28521006  1
  F  F47  1  0.55057455  0.45875249  0.21478994  1
  F  F48  1  0.75603745  0.16421539  0.71478994  1
  F  F49  1  0.44942545  0.54124751  0.78521006  1
  F  F50  1  0.81697510  0.81950828  0.27310741  1
  F  F51  1  0.54640088  0.04386769  0.22689259  1
  F  F52  1  0.18302490  0.18049172  0.72689259  1
  F  F53  1  0.45359912  0.95613231  0.77310741  1
  F  F54  1  0.64532271  0.90826419  0.41863742  1
  F  F55  1  0.48962677  0.72668529  0.08136258  1
  F  F56  1  0.35467729  0.09173581  0.58136258  1
  F  F57  1  0.51037323  0.27331471  0.91863742  1
