# generated using pymatgen
data_Y2(Ni5B3)3
_symmetry_space_group_name_H-M   'P 1'
_cell_length_a   9.82121440
_cell_length_b   9.82121440
_cell_length_c   11.24512593
_cell_angle_alpha   90.00000000
_cell_angle_beta   90.00000000
_cell_angle_gamma   107.89995135
_symmetry_Int_Tables_number   1
_chemical_formula_structural   Y2(Ni5B3)3
_chemical_formula_sum   'Y8 Ni60 B36'
_cell_volume   1032.15924250
_cell_formula_units_Z   4
loop_
 _symmetry_equiv_pos_site_id
 _symmetry_equiv_pos_as_xyz
  1  'x, y, z'
loop_
 _atom_site_type_symbol
 _atom_site_label
 _atom_site_symmetry_multiplicity
 _atom_site_fract_x
 _atom_site_fract_y
 _atom_site_fract_z
 _atom_site_occupancy
  Y  Y0  1  0.25946432  0.25946432  0.95866433  1
  Y  Y1  1  0.74053568  0.74053568  0.04133567  1
  Y  Y2  1  0.24053568  0.24053568  0.45866433  1
  Y  Y3  1  0.75946432  0.75946432  0.54133567  1
  Y  Y4  1  0.19172381  0.69172381  0.75000000  1
  Y  Y5  1  0.30827619  0.80827619  0.25000000  1
  Y  Y6  1  0.80827619  0.30827619  0.25000000  1
  Y  Y7  1  0.69172381  0.19172381  0.75000000  1
  Ni  Ni8  1  0.50000000  0.50000000  0.00000000  1
  Ni  Ni9  1  -0.00000000  -0.00000000  0.50000000  1
  Ni  Ni10  1  0.50000000  0.50000000  0.50000000  1
  Ni  Ni11  1  -0.00000000  -0.00000000  0.00000000  1
  Ni  Ni12  1  0.23344572  0.23344572  0.71190144  1
  Ni  Ni13  1  0.76655428  0.76655428  0.28809856  1
  Ni  Ni14  1  0.26655428  0.26655428  0.21190144  1
  Ni  Ni15  1  0.73344572  0.73344572  0.78809856  1
  Ni  Ni16  1  0.93182496  0.43182496  0.75000000  1
  Ni  Ni17  1  0.56817504  0.06817504  0.25000000  1
  Ni  Ni18  1  0.06817504  0.56817504  0.25000000  1
  Ni  Ni19  1  0.43182496  0.93182496  0.75000000  1
  Ni  Ni20  1  0.99020157  0.18331065  0.83964295  1
  Ni  Ni21  1  0.81668935  0.00979843  0.16035705  1
  Ni  Ni22  1  0.31668935  0.50979843  0.33964295  1
  Ni  Ni23  1  0.49020157  0.68331065  0.66035705  1
  Ni  Ni24  1  0.00979843  0.81668935  0.16035705  1
  Ni  Ni25  1  0.18331065  0.99020157  0.83964295  1
  Ni  Ni26  1  0.68331065  0.49020157  0.66035705  1
  Ni  Ni27  1  0.50979843  0.31668935  0.33964295  1
  Ni  Ni28  1  0.25661285  0.47163563  0.59745814  1
  Ni  Ni29  1  0.52836437  0.74338715  0.40254186  1
  Ni  Ni30  1  0.02836437  0.24338715  0.09745814  1
  Ni  Ni31  1  0.75661285  0.97163563  0.90254186  1
  Ni  Ni32  1  0.74338715  0.52836437  0.40254186  1
  Ni  Ni33  1  0.47163563  0.25661285  0.59745814  1
  Ni  Ni34  1  0.97163563  0.75661285  0.90254186  1
  Ni  Ni35  1  0.24338715  0.02836437  0.09745814  1
  Ni  Ni36  1  0.99464936  0.22689485  0.61823577  1
  Ni  Ni37  1  0.77310515  0.00535064  0.38176423  1
  Ni  Ni38  1  0.27310515  0.50535064  0.11823577  1
  Ni  Ni39  1  0.49464936  0.72689485  0.88176423  1
  Ni  Ni40  1  0.00535064  0.77310515  0.38176423  1
  Ni  Ni41  1  0.22689485  0.99464936  0.61823577  1
  Ni  Ni42  1  0.72689485  0.49464936  0.88176423  1
  Ni  Ni43  1  0.50535064  0.27310515  0.11823577  1
  Ni  Ni44  1  0.10629162  0.44680408  0.91502400  1
  Ni  Ni45  1  0.55319592  0.89370838  0.08497600  1
  Ni  Ni46  1  0.05319592  0.39370838  0.41502400  1
  Ni  Ni47  1  0.60629162  0.94680408  0.58497600  1
  Ni  Ni48  1  0.89370838  0.55319592  0.08497600  1
  Ni  Ni49  1  0.44680408  0.10629162  0.91502400  1
  Ni  Ni50  1  0.94680408  0.60629162  0.58497600  1
  Ni  Ni51  1  0.39370838  0.05319592  0.41502400  1
  Ni  Ni52  1  0.33110201  0.48899933  0.80629368  1
  Ni  Ni53  1  0.51100067  0.66889799  0.19370632  1
  Ni  Ni54  1  0.01100067  0.16889799  0.30629368  1
  Ni  Ni55  1  0.83110201  0.98899933  0.69370632  1
  Ni  Ni56  1  0.66889799  0.51100067  0.19370632  1
  Ni  Ni57  1  0.48899933  0.33110201  0.80629368  1
  Ni  Ni58  1  0.98899933  0.83110201  0.69370632  1
  Ni  Ni59  1  0.16889799  0.01100067  0.30629368  1
  Ni  Ni60  1  0.83777940  0.36350654  0.52962263  1
  Ni  Ni61  1  0.63649346  0.16222060  0.47037737  1
  Ni  Ni62  1  0.13649346  0.66222060  0.02962263  1
  Ni  Ni63  1  0.33777940  0.86350654  0.97037737  1
  Ni  Ni64  1  0.16222060  0.63649346  0.47037737  1
  Ni  Ni65  1  0.36350654  0.83777940  0.52962263  1
  Ni  Ni66  1  0.86350654  0.33777940  0.97037737  1
  Ni  Ni67  1  0.66222060  0.13649346  0.02962263  1
  B  B68  1  0.36458499  0.63541501  0.50000000  1
  B  B69  1  0.86458499  0.13541501  0.00000000  1
  B  B70  1  0.63541501  0.36458499  0.50000000  1
  B  B71  1  0.13541501  0.86458499  0.00000000  1
  B  B72  1  0.45211576  0.45211576  0.67187274  1
  B  B73  1  0.54788424  0.54788424  0.32812726  1
  B  B74  1  0.04788424  0.04788424  0.17187274  1
  B  B75  1  0.95211576  0.95211576  0.82812726  1
  B  B76  1  0.05629248  0.05629248  0.69977532  1
  B  B77  1  0.94370752  0.94370752  0.30022468  1
  B  B78  1  0.44370752  0.44370752  0.19977532  1
  B  B79  1  0.55629248  0.55629248  0.80022468  1
  B  B80  1  0.11971397  0.37781711  0.74447507  1
  B  B81  1  0.62218289  0.88028603  0.25552493  1
  B  B82  1  0.12218289  0.38028603  0.24447507  1
  B  B83  1  0.61971397  0.87781711  0.75552493  1
  B  B84  1  0.88028603  0.62218289  0.25552493  1
  B  B85  1  0.37781711  0.11971397  0.74447507  1
  B  B86  1  0.87781711  0.61971397  0.75552493  1
  B  B87  1  0.38028603  0.12218289  0.24447507  1
  B  B88  1  0.29799768  0.59241854  0.95006884  1
  B  B89  1  0.40758146  0.70200232  0.04993116  1
  B  B90  1  0.90758146  0.20200232  0.45006884  1
  B  B91  1  0.79799768  0.09241854  0.54993116  1
  B  B92  1  0.70200232  0.40758146  0.04993116  1
  B  B93  1  0.59241854  0.29799768  0.95006884  1
  B  B94  1  0.09241854  0.79799768  0.54993116  1
  B  B95  1  0.20200232  0.90758146  0.45006884  1
  B  B96  1  0.04904639  0.44932527  0.59974972  1
  B  B97  1  0.55067473  0.95095361  0.40025028  1
  B  B98  1  0.05067473  0.45095361  0.09974972  1
  B  B99  1  0.54904639  0.94932527  0.90025028  1
  B  B100  1  0.95095361  0.55067473  0.40025028  1
  B  B101  1  0.44932527  0.04904639  0.59974972  1
  B  B102  1  0.94932527  0.54904639  0.90025028  1
  B  B103  1  0.45095361  0.05067473  0.09974972  1
