# generated using pymatgen
data_Sr3WO6
_symmetry_space_group_name_H-M   'P 1'
_cell_length_a   10.24290736
_cell_length_b   10.27158715
_cell_length_c   10.31398836
_cell_angle_alpha   80.60083148
_cell_angle_beta   71.31001724
_cell_angle_gamma   60.53559278
_symmetry_Int_Tables_number   1
_chemical_formula_structural   Sr3WO6
_chemical_formula_sum   'Sr18 W6 O36'
_cell_volume   894.94944633
_cell_formula_units_Z   6
loop_
 _symmetry_equiv_pos_site_id
 _symmetry_equiv_pos_as_xyz
  1  'x, y, z'
loop_
 _atom_site_type_symbol
 _atom_site_label
 _atom_site_symmetry_multiplicity
 _atom_site_fract_x
 _atom_site_fract_y
 _atom_site_fract_z
 _atom_site_occupancy
  Sr  Sr0  1  0.47283435  0.64481600  0.76510247  1
  Sr  Sr1  1  0.59455443  0.37350502  0.25920937  1
  Sr  Sr2  1  0.05497945  0.35454073  0.71887965  1
  Sr  Sr3  1  0.88877536  0.65992736  0.21688379  1
  Sr  Sr4  1  0.74669246  0.94973814  0.77850937  1
  Sr  Sr5  1  0.17249528  0.05191671  0.30352892  1
  Sr  Sr6  1  0.06827873  0.65983386  0.86862978  1
  Sr  Sr7  1  0.97053914  0.31796609  0.08493373  1
  Sr  Sr8  1  0.70221515  0.30172853  0.88137398  1
  Sr  Sr9  1  0.26491705  0.69325615  0.13492835  1
  Sr  Sr10  1  0.19778031  0.36335516  0.35363878  1
  Sr  Sr11  1  0.78750064  0.68635620  0.57391559  1
  Sr  Sr12  1  0.34117943  0.01827714  0.90860649  1
  Sr  Sr13  1  0.58173882  0.02586102  0.15527519  1
  Sr  Sr14  1  0.45899151  0.31967346  0.63775695  1
  Sr  Sr15  1  0.50443642  0.71188663  0.37969406  1
  Sr  Sr16  1  0.15372859  0.97291770  0.65446233  1
  Sr  Sr17  1  0.85748552  0.98525437  0.36697337  1
  W  W18  1  0.00282066  0.99781836  0.99736548  1
  W  W19  1  0.65971716  0.67375765  0.00843295  1
  W  W20  1  0.32940208  0.33504194  0.00278566  1
  W  W21  1  0.15830928  0.66796284  0.50847027  1
  W  W22  1  0.82264173  0.33520310  0.51285729  1
  W  W23  1  0.49894399  0.01042140  0.50139130  1
  O  O24  1  0.93485903  0.96638177  0.85678502  1
  O  O25  1  0.11400468  0.01641218  0.10955376  1
  O  O26  1  0.37733395  0.03064338  0.38240010  1
  O  O27  1  0.66029320  0.97261748  0.58362893  1
  O  O28  1  0.80167318  0.16292075  0.08821243  1
  O  O29  1  0.21740533  0.83874192  0.89922703  1
  O  O30  1  0.53951663  0.17103602  0.39774882  1
  O  O31  1  0.47613982  0.83321065  0.58830885  1
  O  O32  1  0.33323639  0.12879405  0.64874996  1
  O  O33  1  0.68191273  0.85940758  0.36011554  1
  O  O34  1  0.04425210  0.15319492  0.87540946  1
  O  O35  1  0.96344694  0.85838714  0.12574114  1
  O  O36  1  0.75815312  0.20115056  0.63948132  1
  O  O37  1  0.10052917  0.87997825  0.46398480  1
  O  O38  1  0.50696066  0.13961235  0.92811109  1
  O  O39  1  0.46662062  0.82904900  0.12818969  1
  O  O40  1  0.22707940  0.23178241  0.14075358  1
  O  O41  1  0.60364338  0.78048871  0.84280433  1
  O  O42  1  0.87606485  0.22716884  0.34694240  1
  O  O43  1  0.26121203  0.67701696  0.63423572  1
  O  O44  1  0.21085350  0.33863751  0.88545359  1
  O  O45  1  0.76681746  0.78991814  0.01079399  1
  O  O46  1  0.77046273  0.45263756  0.67716031  1
  O  O47  1  0.04016639  0.67529915  0.38620221  1
  O  O48  1  0.61007975  0.45721585  0.49743813  1
  O  O49  1  0.34506262  0.60566659  0.34946083  1
  O  O50  1  0.89225920  0.47893863  0.40402922  1
  O  O51  1  0.22062894  0.45485945  0.54773836  1
  O  O52  1  0.16188318  0.52836217  0.08089839  1
  O  O53  1  0.86417022  0.51948572  0.91403201  1
  O  O54  1  0.42503996  0.43270999  0.85644837  1
  O  O55  1  0.71264069  0.56072730  0.17948584  1
  O  O56  1  0.97049700  0.71234889  0.66305258  1
  O  O57  1  0.55491797  0.55849600  0.00368424  1
  O  O58  1  0.43853059  0.32464431  0.13145299  1
  O  O59  1  0.04239507  0.21764224  0.52337986  1
