# generated using pymatgen
data_Ti2P3H7NO13
_symmetry_space_group_name_H-M   'P 1'
_cell_length_a   10.02908252
_cell_length_b   10.02908252
_cell_length_c   10.02908252
_cell_angle_alpha   90.00000000
_cell_angle_beta   90.00000000
_cell_angle_gamma   90.00000000
_symmetry_Int_Tables_number   1
_chemical_formula_structural   Ti2P3H7NO13
_chemical_formula_sum   'Ti8 P12 H28 N4 O52'
_cell_volume   1008.75015439
_cell_formula_units_Z   4
loop_
 _symmetry_equiv_pos_site_id
 _symmetry_equiv_pos_as_xyz
  1  'x, y, z'
loop_
 _atom_site_type_symbol
 _atom_site_label
 _atom_site_symmetry_multiplicity
 _atom_site_fract_x
 _atom_site_fract_y
 _atom_site_fract_z
 _atom_site_occupancy
  Ti  Ti0  1  0.41057153  0.91057153  0.58942847  1
  Ti  Ti1  1  0.91057153  0.58942847  0.41057153  1
  Ti  Ti2  1  0.58942847  0.41057153  0.91057153  1
  Ti  Ti3  1  0.08942847  0.08942847  0.08942847  1
  Ti  Ti4  1  0.14177486  0.64177486  0.85822514  1
  Ti  Ti5  1  0.64177486  0.85822514  0.14177486  1
  Ti  Ti6  1  0.85822514  0.14177486  0.64177486  1
  Ti  Ti7  1  0.35822514  0.35822514  0.35822514  1
  P  P8  1  0.12351899  0.95958098  0.77126525  1
  P  P9  1  0.22873475  0.62351899  0.54041902  1
  P  P10  1  0.45958098  0.72873475  0.87648101  1
  P  P11  1  0.62351899  0.54041902  0.22873475  1
  P  P12  1  0.72873475  0.87648101  0.45958098  1
  P  P13  1  0.95958098  0.77126525  0.12351899  1
  P  P14  1  0.87648101  0.45958098  0.72873475  1
  P  P15  1  0.77126525  0.12351899  0.95958098  1
  P  P16  1  0.54041902  0.22873475  0.62351899  1
  P  P17  1  0.37648101  0.04041902  0.27126525  1
  P  P18  1  0.27126525  0.37648101  0.04041902  1
  P  P19  1  0.04041902  0.27126525  0.37648101  1
  H  H20  1  0.32634012  0.04156801  0.92582946  1
  H  H21  1  0.07417054  0.82634012  0.45843199  1
  H  H22  1  0.54156801  0.57417054  0.67365988  1
  H  H23  1  0.82634012  0.45843199  0.07417054  1
  H  H24  1  0.57417054  0.67365988  0.54156801  1
  H  H25  1  0.04156801  0.92582946  0.32634012  1
  H  H26  1  0.67365988  0.54156801  0.57417054  1
  H  H27  1  0.92582946  0.32634012  0.04156801  1
  H  H28  1  0.45843199  0.07417054  0.82634012  1
  H  H29  1  0.17365988  0.95843199  0.42582946  1
  H  H30  1  0.42582946  0.17365988  0.95843199  1
  H  H31  1  0.95843199  0.42582946  0.17365988  1
  H  H32  1  0.48306250  0.01693750  0.98306250  1
  H  H33  1  0.01693750  0.98306250  0.48306250  1
  H  H34  1  0.51693750  0.51693750  0.51693750  1
  H  H35  1  0.98306250  0.48306250  0.01693750  1
  H  H36  1  0.90627903  0.80220854  0.78053780  1
  H  H37  1  0.21946220  0.40627903  0.69779146  1
  H  H38  1  0.30220854  0.71946220  0.09372097  1
  H  H39  1  0.40627903  0.69779146  0.21946220  1
  H  H40  1  0.71946220  0.09372097  0.30220854  1
  H  H41  1  0.80220854  0.78053780  0.90627903  1
  H  H42  1  0.09372097  0.30220854  0.71946220  1
  H  H43  1  0.78053780  0.90627903  0.80220854  1
  H  H44  1  0.69779146  0.21946220  0.40627903  1
  H  H45  1  0.59372097  0.19779146  0.28053780  1
  H  H46  1  0.28053780  0.59372097  0.19779146  1
  H  H47  1  0.19779146  0.28053780  0.59372097  1
  N  N48  1  0.42413785  0.07586215  0.92413785  1
  N  N49  1  0.07586215  0.92413785  0.42413785  1
  N  N50  1  0.57586215  0.57586215  0.57586215  1
  N  N51  1  0.92413785  0.42413785  0.07586215  1
  O  O52  1  0.25366557  0.97135294  0.69090728  1
  O  O53  1  0.30909272  0.75366557  0.52864706  1
  O  O54  1  0.47135294  0.80909272  0.74633443  1
  O  O55  1  0.75366557  0.52864706  0.30909272  1
  O  O56  1  0.80909272  0.74633443  0.47135294  1
  O  O57  1  0.97135294  0.69090728  0.25366557  1
  O  O58  1  0.74633443  0.47135294  0.80909272  1
  O  O59  1  0.69090728  0.25366557  0.97135294  1
  O  O60  1  0.52864706  0.30909272  0.75366557  1
  O  O61  1  0.24633443  0.02864706  0.19090728  1
  O  O62  1  0.19090728  0.24633443  0.02864706  1
  O  O63  1  0.02864706  0.19090728  0.24633443  1
  O  O64  1  0.07057198  0.81256257  0.76806848  1
  O  O65  1  0.23193152  0.57057198  0.68743743  1
  O  O66  1  0.31256257  0.73193152  0.92942802  1
  O  O67  1  0.57057198  0.68743743  0.23193152  1
  O  O68  1  0.73193152  0.92942802  0.31256257  1
  O  O69  1  0.81256257  0.76806848  0.07057198  1
  O  O70  1  0.92942802  0.31256257  0.73193152  1
  O  O71  1  0.76806848  0.07057198  0.81256257  1
  O  O72  1  0.68743743  0.23193152  0.57057198  1
  O  O73  1  0.42942802  0.18743743  0.26806848  1
  O  O74  1  0.26806848  0.42942802  0.18743743  1
  O  O75  1  0.18743743  0.26806848  0.42942802  1
  O  O76  1  0.14862584  0.00314536  0.91703461  1
  O  O77  1  0.08296539  0.64862584  0.49685464  1
  O  O78  1  0.50314536  0.58296539  0.85137416  1
  O  O79  1  0.64862584  0.49685464  0.08296539  1
  O  O80  1  0.58296539  0.85137416  0.50314536  1
  O  O81  1  0.00314536  0.91703461  0.14862584  1
  O  O82  1  0.85137416  0.50314536  0.58296539  1
  O  O83  1  0.91703461  0.14862584  0.00314536  1
  O  O84  1  0.49685464  0.08296539  0.64862584  1
  O  O85  1  0.35137416  0.99685464  0.41703461  1
  O  O86  1  0.41703461  0.35137416  0.99685464  1
  O  O87  1  0.99685464  0.41703461  0.35137416  1
  O  O88  1  0.01876063  0.04879300  0.70365673  1
  O  O89  1  0.29634327  0.51876063  0.45120700  1
  O  O90  1  0.54879300  0.79634327  0.98123937  1
  O  O91  1  0.51876063  0.45120700  0.29634327  1
  O  O92  1  0.79634327  0.98123937  0.54879300  1
  O  O93  1  0.04879300  0.70365673  0.01876063  1
  O  O94  1  0.98123937  0.54879300  0.79634327  1
  O  O95  1  0.70365673  0.01876063  0.04879300  1
  O  O96  1  0.45120700  0.29634327  0.51876063  1
  O  O97  1  0.48123937  0.95120700  0.20365673  1
  O  O98  1  0.20365673  0.48123937  0.95120700  1
  O  O99  1  0.95120700  0.20365673  0.48123937  1
  O  O100  1  0.80755719  0.80755719  0.80755719  1
  O  O101  1  0.19244281  0.30755719  0.69244281  1
  O  O102  1  0.30755719  0.69244281  0.19244281  1
  O  O103  1  0.69244281  0.19244281  0.30755719  1
