# generated using pymatgen
data_BaMg30TiO32
_symmetry_space_group_name_H-M   'P 1'
_cell_length_a   8.68600910
_cell_length_b   8.66796777
_cell_length_c   8.66796777
_cell_angle_alpha   90.00000000
_cell_angle_beta   90.00000000
_cell_angle_gamma   90.00000000
_symmetry_Int_Tables_number   1
_chemical_formula_structural   BaMg30TiO32
_chemical_formula_sum   'Ba1 Mg30 Ti1 O32'
_cell_volume   652.61170018
_cell_formula_units_Z   1
loop_
 _symmetry_equiv_pos_site_id
 _symmetry_equiv_pos_as_xyz
  1  'x, y, z'
loop_
 _atom_site_type_symbol
 _atom_site_label
 _atom_site_symmetry_multiplicity
 _atom_site_fract_x
 _atom_site_fract_y
 _atom_site_fract_z
 _atom_site_occupancy
  Ba  Ba0  1  -0.00000000  0.50000000  0.50000000  1
  Mg  Mg1  1  -0.00000000  -0.00000000  0.50000000  1
  Mg  Mg2  1  -0.00000000  0.50000000  -0.00000000  1
  Mg  Mg3  1  0.50000000  -0.00000000  -0.00000000  1
  Mg  Mg4  1  0.50000000  -0.00000000  0.50000000  1
  Mg  Mg5  1  0.50000000  0.50000000  -0.00000000  1
  Mg  Mg6  1  0.50000000  0.50000000  0.50000000  1
  Mg  Mg7  1  -0.00000000  0.24467352  0.24467352  1
  Mg  Mg8  1  -0.00000000  0.24467352  0.75532648  1
  Mg  Mg9  1  -0.00000000  0.75532648  0.24467352  1
  Mg  Mg10  1  -0.00000000  0.75532648  0.75532648  1
  Mg  Mg11  1  0.50000000  0.24924564  0.24924564  1
  Mg  Mg12  1  0.50000000  0.24924564  0.75075436  1
  Mg  Mg13  1  0.50000000  0.75075436  0.24924564  1
  Mg  Mg14  1  0.50000000  0.75075436  0.75075436  1
  Mg  Mg15  1  0.25237216  -0.00000000  0.24934244  1
  Mg  Mg16  1  0.25237216  -0.00000000  0.75065756  1
  Mg  Mg17  1  0.25812815  0.50000000  0.24245543  1
  Mg  Mg18  1  0.25812815  0.50000000  0.75754457  1
  Mg  Mg19  1  0.74762784  -0.00000000  0.24934244  1
  Mg  Mg20  1  0.74762784  -0.00000000  0.75065756  1
  Mg  Mg21  1  0.74187185  0.50000000  0.24245543  1
  Mg  Mg22  1  0.74187185  0.50000000  0.75754457  1
  Mg  Mg23  1  0.25237216  0.24934244  -0.00000000  1
  Mg  Mg24  1  0.25812815  0.24245543  0.50000000  1
  Mg  Mg25  1  0.25237216  0.75065756  -0.00000000  1
  Mg  Mg26  1  0.25812815  0.75754457  0.50000000  1
  Mg  Mg27  1  0.74762784  0.24934244  -0.00000000  1
  Mg  Mg28  1  0.74187185  0.24245543  0.50000000  1
  Mg  Mg29  1  0.74762784  0.75065756  -0.00000000  1
  Mg  Mg30  1  0.74187185  0.75754457  0.50000000  1
  Ti  Ti31  1  -0.00000000  -0.00000000  -0.00000000  1
  O  O32  1  0.25836462  -0.00000000  -0.00000000  1
  O  O33  1  0.25581011  -0.00000000  0.50000000  1
  O  O34  1  0.25581011  0.50000000  -0.00000000  1
  O  O35  1  0.27901371  0.50000000  0.50000000  1
  O  O36  1  0.74163538  -0.00000000  -0.00000000  1
  O  O37  1  0.74418989  -0.00000000  0.50000000  1
  O  O38  1  0.74418989  0.50000000  -0.00000000  1
  O  O39  1  0.72098629  0.50000000  0.50000000  1
  O  O40  1  0.24919181  0.25020692  0.25020692  1
  O  O41  1  0.24919181  0.25020692  0.74979308  1
  O  O42  1  0.24919181  0.74979308  0.25020692  1
  O  O43  1  0.24919181  0.74979308  0.74979308  1
  O  O44  1  0.75080819  0.25020692  0.25020692  1
  O  O45  1  0.75080819  0.25020692  0.74979308  1
  O  O46  1  0.75080819  0.74979308  0.25020692  1
  O  O47  1  0.75080819  0.74979308  0.74979308  1
  O  O48  1  -0.00000000  -0.00000000  0.24654133  1
  O  O49  1  -0.00000000  -0.00000000  0.75345867  1
  O  O50  1  -0.00000000  0.50000000  0.22089969  1
  O  O51  1  -0.00000000  0.50000000  0.77910031  1
  O  O52  1  0.50000000  -0.00000000  0.24929113  1
  O  O53  1  0.50000000  -0.00000000  0.75070887  1
  O  O54  1  0.50000000  0.50000000  0.24440683  1
  O  O55  1  0.50000000  0.50000000  0.75559317  1
  O  O56  1  -0.00000000  0.24654133  -0.00000000  1
  O  O57  1  -0.00000000  0.22089969  0.50000000  1
  O  O58  1  -0.00000000  0.75345867  -0.00000000  1
  O  O59  1  -0.00000000  0.77910031  0.50000000  1
  O  O60  1  0.50000000  0.24929113  -0.00000000  1
  O  O61  1  0.50000000  0.24440683  0.50000000  1
  O  O62  1  0.50000000  0.75070887  -0.00000000  1
  O  O63  1  0.50000000  0.75559317  0.50000000  1
