# generated using pymatgen
data_EuCrHO5
_symmetry_space_group_name_H-M   'P 1'
_cell_length_a   8.53034924
_cell_length_b   8.57491593
_cell_length_c   11.69423277
_cell_angle_alpha   90.00000000
_cell_angle_beta   90.00000000
_cell_angle_gamma   94.15074270
_symmetry_Int_Tables_number   1
_chemical_formula_structural   EuCrHO5
_chemical_formula_sum   'Eu8 Cr8 H8 O40'
_cell_volume   853.15471835
_cell_formula_units_Z   8
loop_
 _symmetry_equiv_pos_site_id
 _symmetry_equiv_pos_as_xyz
  1  'x, y, z'
loop_
 _atom_site_type_symbol
 _atom_site_label
 _atom_site_symmetry_multiplicity
 _atom_site_fract_x
 _atom_site_fract_y
 _atom_site_fract_z
 _atom_site_occupancy
  Eu  Eu0  1  0.62821350  0.84510400  0.05759982  1
  Eu  Eu1  1  0.12821350  0.34510400  0.44240018  1
  Eu  Eu2  1  0.37178650  0.15489600  0.94240018  1
  Eu  Eu3  1  0.87178650  0.65489600  0.55759982  1
  Eu  Eu4  1  0.92123370  0.18295167  0.92499194  1
  Eu  Eu5  1  0.42123370  0.68295167  0.57500806  1
  Eu  Eu6  1  0.07876630  0.81704833  0.07500806  1
  Eu  Eu7  1  0.57876630  0.31704833  0.42499194  1
  Cr  Cr8  1  0.86036286  0.46254666  0.18848180  1
  Cr  Cr9  1  0.36036286  0.96254666  0.31151820  1
  Cr  Cr10  1  0.13963714  0.53745334  0.81151820  1
  Cr  Cr11  1  0.63963714  0.03745334  0.68848180  1
  Cr  Cr12  1  0.86559510  0.00378920  0.32354631  1
  Cr  Cr13  1  0.36559510  0.50378920  0.17645369  1
  Cr  Cr14  1  0.13440490  0.99621080  0.67645369  1
  Cr  Cr15  1  0.63440490  0.49621080  0.82354631  1
  H  H16  1  0.66246797  0.19283851  0.07805938  1
  H  H17  1  0.16246797  0.69283851  0.42194062  1
  H  H18  1  0.33753203  0.80716149  0.92194062  1
  H  H19  1  0.83753203  0.30716149  0.57805938  1
  H  H20  1  0.86682502  0.84932637  0.87347955  1
  H  H21  1  0.36682502  0.34932637  0.62652045  1
  H  H22  1  0.13317498  0.15067363  0.12652045  1
  H  H23  1  0.63317498  0.65067363  0.37347955  1
  O  O24  1  0.97956431  0.48805268  0.30005351  1
  O  O25  1  0.47956431  0.98805268  0.19994649  1
  O  O26  1  0.02043569  0.51194732  0.69994649  1
  O  O27  1  0.52043569  0.01194732  0.80005351  1
  O  O28  1  0.64873410  0.12748579  0.00913940  1
  O  O29  1  0.14873410  0.62748579  0.49086060  1
  O  O30  1  0.35126590  0.87251421  0.99086060  1
  O  O31  1  0.85126590  0.37251421  0.50913940  1
  O  O32  1  0.68726859  0.38941174  0.23841936  1
  O  O33  1  0.18726859  0.88941174  0.26158064  1
  O  O34  1  0.31273141  0.61058826  0.76158064  1
  O  O35  1  0.81273141  0.11058826  0.73841936  1
  O  O36  1  0.89972718  0.85604796  0.41024308  1
  O  O37  1  0.39972718  0.35604796  0.08975692  1
  O  O38  1  0.10027282  0.14395204  0.58975692  1
  O  O39  1  0.60027282  0.64395204  0.91024308  1
  O  O40  1  0.01043134  0.14469825  0.32747438  1
  O  O41  1  0.51043134  0.64469825  0.17252562  1
  O  O42  1  0.98956866  0.85530175  0.67252562  1
  O  O43  1  0.48956866  0.35530175  0.82747438  1
  O  O44  1  0.84335962  0.93897425  0.18725642  1
  O  O45  1  0.34335962  0.43897425  0.31274358  1
  O  O46  1  0.15664038  0.06102575  0.81274358  1
  O  O47  1  0.65664038  0.56102575  0.68725642  1
  O  O48  1  0.70503320  0.08214779  0.36657041  1
  O  O49  1  0.20503320  0.58214779  0.13342959  1
  O  O50  1  0.29496680  0.91785221  0.63342959  1
  O  O51  1  0.79496680  0.41785221  0.86657041  1
  O  O52  1  0.84488857  0.63414279  0.12099111  1
  O  O53  1  0.34488857  0.13414279  0.37900889  1
  O  O54  1  0.15511143  0.36585721  0.87900889  1
  O  O55  1  0.65511143  0.86585721  0.62099111  1
  O  O56  1  0.86908502  0.90319891  0.94742337  1
  O  O57  1  0.36908502  0.40319891  0.55257663  1
  O  O58  1  0.13091498  0.09680109  0.05257663  1
  O  O59  1  0.63091498  0.59680109  0.44742337  1
  O  O60  1  0.92607486  0.33359652  0.09738287  1
  O  O61  1  0.42607486  0.83359652  0.40261713  1
  O  O62  1  0.07392514  0.66640348  0.90261713  1
  O  O63  1  0.57392514  0.16640348  0.59738287  1
