# generated using pymatgen
data_Y2CoSi2
_symmetry_space_group_name_H-M   'P 1'
_cell_length_a   4.13894347
_cell_length_b   5.62552636
_cell_length_c   9.00556344
_cell_angle_alpha   82.83958402
_cell_angle_beta   76.71475018
_cell_angle_gamma   68.41558859
_symmetry_Int_Tables_number   1
_chemical_formula_structural   Y2CoSi2
_chemical_formula_sum   'Y4 Co2 Si4'
_cell_volume   189.57495530
_cell_formula_units_Z   2
loop_
 _symmetry_equiv_pos_site_id
 _symmetry_equiv_pos_as_xyz
  1  'x, y, z'
loop_
 _atom_site_type_symbol
 _atom_site_label
 _atom_site_symmetry_multiplicity
 _atom_site_fract_x
 _atom_site_fract_y
 _atom_site_fract_z
 _atom_site_occupancy
  Y  Y0  1  0.99864864  0.67361292  0.32908980  1
  Y  Y1  1  0.00135136  0.32638708  0.67091020  1
  Y  Y2  1  0.81325285  0.26626029  0.10723400  1
  Y  Y3  1  0.18674715  0.73373971  0.89276600  1
  Co  Co4  1  0.72683826  0.92203388  0.62428960  1
  Co  Co5  1  0.27316174  0.07796612  0.37571040  1
  Si  Si6  1  0.65141166  0.26341264  0.43376403  1
  Si  Si7  1  0.34858834  0.73658736  0.56623597  1
  Si  Si8  1  0.50663430  0.86173897  0.12499244  1
  Si  Si9  1  0.49336570  0.13826103  0.87500756  1
