# generated using pymatgen
data_U2(Al3Rh)3
_symmetry_space_group_name_H-M   'P 1'
_cell_length_a   7.60554205
_cell_length_b   7.60554205
_cell_length_c   9.40623487
_cell_angle_alpha   90.00000000
_cell_angle_beta   90.00000000
_cell_angle_gamma   119.45965027
_symmetry_Int_Tables_number   1
_chemical_formula_structural   U2(Al3Rh)3
_chemical_formula_sum   'U4 Al18 Rh6'
_cell_volume   473.74630433
_cell_formula_units_Z   2
loop_
 _symmetry_equiv_pos_site_id
 _symmetry_equiv_pos_as_xyz
  1  'x, y, z'
loop_
 _atom_site_type_symbol
 _atom_site_label
 _atom_site_symmetry_multiplicity
 _atom_site_fract_x
 _atom_site_fract_y
 _atom_site_fract_z
 _atom_site_occupancy
  U  U0  1  0.66916717  0.99510386  0.25000000  1
  U  U1  1  0.33083283  0.00489614  0.75000000  1
  U  U2  1  0.99510386  0.66916717  0.25000000  1
  U  U3  1  0.00489614  0.33083283  0.75000000  1
  Al  Al4  1  0.12704829  0.12704829  0.25000000  1
  Al  Al5  1  0.87295171  0.87295171  0.75000000  1
  Al  Al6  1  0.33469470  0.00214420  0.07437577  1
  Al  Al7  1  0.66530530  0.99785580  0.92562423  1
  Al  Al8  1  0.66530530  0.99785580  0.57437577  1
  Al  Al9  1  0.00214420  0.33469470  0.42562423  1
  Al  Al10  1  0.33469470  0.00214420  0.42562423  1
  Al  Al11  1  0.99785580  0.66530530  0.57437577  1
  Al  Al12  1  0.99785580  0.66530530  0.92562423  1
  Al  Al13  1  0.00214420  0.33469470  0.07437577  1
  Al  Al14  1  0.33445326  0.33445326  0.55577272  1
  Al  Al15  1  0.66554674  0.66554674  0.44422728  1
  Al  Al16  1  0.66554674  0.66554674  0.05577272  1
  Al  Al17  1  0.33445326  0.33445326  0.94422728  1
  Al  Al18  1  0.54723054  0.33934633  0.25000000  1
  Al  Al19  1  0.45276946  0.66065367  0.75000000  1
  Al  Al20  1  0.33934633  0.54723054  0.25000000  1
  Al  Al21  1  0.66065367  0.45276946  0.75000000  1
  Rh  Rh22  1  0.32739202  0.67260798  -0.00000000  1
  Rh  Rh23  1  0.67260798  0.32739202  -0.00000000  1
  Rh  Rh24  1  0.67260798  0.32739202  0.50000000  1
  Rh  Rh25  1  0.32739202  0.67260798  0.50000000  1
  Rh  Rh26  1  0.00000000  -0.00000000  -0.00000000  1
  Rh  Rh27  1  0.00000000  -0.00000000  0.50000000  1
