# generated using pymatgen
data_RbAg3S2
_symmetry_space_group_name_H-M   'P 1'
_cell_length_a   4.34411671
_cell_length_b   8.39688461
_cell_length_c   8.97511864
_cell_angle_alpha   113.84774749
_cell_angle_beta   90.00000000
_cell_angle_gamma   104.99141512
_symmetry_Int_Tables_number   1
_chemical_formula_structural   RbAg3S2
_chemical_formula_sum   'Rb2 Ag6 S4'
_cell_volume   287.20954438
_cell_formula_units_Z   2
loop_
 _symmetry_equiv_pos_site_id
 _symmetry_equiv_pos_as_xyz
  1  'x, y, z'
loop_
 _atom_site_type_symbol
 _atom_site_label
 _atom_site_symmetry_multiplicity
 _atom_site_fract_x
 _atom_site_fract_y
 _atom_site_fract_z
 _atom_site_occupancy
  Rb  Rb0  1  0.13453582  0.26907165  0.04451303  1
  Rb  Rb1  1  0.86546418  0.73092835  0.95548697  1
  Ag  Ag2  1  0.59838604  0.19677208  0.65362773  1
  Ag  Ag3  1  0.40161396  0.80322792  0.34637227  1
  Ag  Ag4  1  0.68737515  0.37475029  0.41679942  1
  Ag  Ag5  1  0.31262485  0.62524971  0.58320058  1
  Ag  Ag6  1  0.05728868  0.11457737  0.39978545  1
  Ag  Ag7  1  0.94271132  0.88542263  0.60021455  1
  S  S8  1  0.19683305  0.39366610  0.69697472  1
  S  S9  1  0.80316695  0.60633390  0.30302528  1
  S  S10  1  0.51745131  0.03490262  0.22528668  1
  S  S11  1  0.48254869  0.96509738  0.77471332  1
