# generated using pymatgen
data_TaBRu
_symmetry_space_group_name_H-M   'P 1'
_cell_length_a   3.21835886
_cell_length_b   6.35570566
_cell_length_c   10.86995181
_cell_angle_alpha   90.00000000
_cell_angle_beta   90.00000000
_cell_angle_gamma   90.00000000
_symmetry_Int_Tables_number   1
_chemical_formula_structural   TaBRu
_chemical_formula_sum   'Ta6 B6 Ru6'
_cell_volume   222.34422971
_cell_formula_units_Z   6
loop_
 _symmetry_equiv_pos_site_id
 _symmetry_equiv_pos_as_xyz
  1  'x, y, z'
loop_
 _atom_site_type_symbol
 _atom_site_label
 _atom_site_symmetry_multiplicity
 _atom_site_fract_x
 _atom_site_fract_y
 _atom_site_fract_z
 _atom_site_occupancy
  Ta  Ta0  1  0.00000000  0.22286686  0.95629065  1
  Ta  Ta1  1  -0.00000000  0.77713314  0.04370935  1
  Ta  Ta2  1  0.00000000  0.22286686  0.54370935  1
  Ta  Ta3  1  -0.00000000  0.77713314  0.45629065  1
  Ta  Ta4  1  0.00000000  0.14485102  0.25000000  1
  Ta  Ta5  1  0.00000000  0.85514898  0.75000000  1
  B  B6  1  0.50000000  0.04898719  0.08485644  1
  B  B7  1  0.50000000  0.95101281  0.91514356  1
  B  B8  1  0.50000000  0.04898719  0.41514356  1
  B  B9  1  0.50000000  0.95101281  0.58485644  1
  B  B10  1  0.00000000  0.55143960  0.25000000  1
  B  B11  1  0.00000000  0.44856040  0.75000000  1
  Ru  Ru12  1  0.50000000  0.42582076  0.12490221  1
  Ru  Ru13  1  0.50000000  0.57417924  0.87509779  1
  Ru  Ru14  1  0.50000000  0.42582076  0.37509779  1
  Ru  Ru15  1  0.50000000  0.57417924  0.62490221  1
  Ru  Ru16  1  0.50000000  0.79845306  0.25000000  1
  Ru  Ru17  1  0.50000000  0.20154694  0.75000000  1
