# generated using pymatgen
data_Mn2PO5
_symmetry_space_group_name_H-M   'P 1'
_cell_length_a   9.65373146
_cell_length_b   12.33581491
_cell_length_c   13.28550535
_cell_angle_alpha   90.00000000
_cell_angle_beta   90.00000000
_cell_angle_gamma   107.39954623
_symmetry_Int_Tables_number   1
_chemical_formula_structural   Mn2PO5
_chemical_formula_sum   'Mn32 P16 O80'
_cell_volume   1509.73242087
_cell_formula_units_Z   16
loop_
 _symmetry_equiv_pos_site_id
 _symmetry_equiv_pos_as_xyz
  1  'x, y, z'
loop_
 _atom_site_type_symbol
 _atom_site_label
 _atom_site_symmetry_multiplicity
 _atom_site_fract_x
 _atom_site_fract_y
 _atom_site_fract_z
 _atom_site_occupancy
  Mn  Mn0  1  0.19565979  0.69902256  0.01194465  1
  Mn  Mn1  1  0.80434021  0.80097744  0.51194465  1
  Mn  Mn2  1  0.80434021  0.30097744  0.98805535  1
  Mn  Mn3  1  0.19565979  0.19902256  0.48805535  1
  Mn  Mn4  1  0.21654072  0.69596089  0.49437694  1
  Mn  Mn5  1  0.78345928  0.80403911  0.99437694  1
  Mn  Mn6  1  0.78345928  0.30403911  0.50562306  1
  Mn  Mn7  1  0.21654072  0.19596089  0.00562306  1
  Mn  Mn8  1  0.71352341  0.19666739  0.24195703  1
  Mn  Mn9  1  0.28647659  0.30333261  0.74195703  1
  Mn  Mn10  1  0.28647659  0.80333261  0.75804297  1
  Mn  Mn11  1  0.71352341  0.69666739  0.25804297  1
  Mn  Mn12  1  0.69897236  0.19484012  0.75820892  1
  Mn  Mn13  1  0.30102764  0.30515988  0.25820892  1
  Mn  Mn14  1  0.30102764  0.80515988  0.24179108  1
  Mn  Mn15  1  0.69897236  0.69484012  0.74179108  1
  Mn  Mn16  1  0.47192081  0.60467056  0.42822896  1
  Mn  Mn17  1  0.52807919  0.89532944  0.92822896  1
  Mn  Mn18  1  0.52807919  0.39532944  0.57177104  1
  Mn  Mn19  1  0.47192081  0.10467056  0.07177104  1
  Mn  Mn20  1  0.45455911  0.59891785  0.92882640  1
  Mn  Mn21  1  0.54544089  0.90108215  0.42882640  1
  Mn  Mn22  1  0.54544089  0.40108215  0.07117360  1
  Mn  Mn23  1  0.45455911  0.09891785  0.57117360  1
  Mn  Mn24  1  0.97367563  0.11690406  0.17758358  1
  Mn  Mn25  1  0.02632437  0.38309594  0.67758358  1
  Mn  Mn26  1  0.02632437  0.88309594  0.82241642  1
  Mn  Mn27  1  0.97367563  0.61690406  0.32241642  1
  Mn  Mn28  1  0.95916458  0.08653022  0.67948528  1
  Mn  Mn29  1  0.04083542  0.41346978  0.17948528  1
  Mn  Mn30  1  0.04083542  0.91346978  0.32051472  1
  Mn  Mn31  1  0.95916458  0.58653022  0.82051472  1
  P  P32  1  0.62916419  0.92504586  0.17492599  1
  P  P33  1  0.37083581  0.57495414  0.67492599  1
  P  P34  1  0.37083581  0.07495414  0.82507401  1
  P  P35  1  0.62916419  0.42504586  0.32507401  1
  P  P36  1  0.61336562  0.92311399  0.67065434  1
  P  P37  1  0.38663438  0.57688601  0.17065434  1
  P  P38  1  0.38663438  0.07688601  0.32934566  1
  P  P39  1  0.61336562  0.42311399  0.82934566  1
  P  P40  1  0.11524133  0.42687066  0.41881904  1
  P  P41  1  0.88475867  0.07312934  0.91881904  1
  P  P42  1  0.88475867  0.57312934  0.58118096  1
  P  P43  1  0.11524133  0.92687066  0.08118096  1
  P  P44  1  0.12216191  0.42279602  0.92548305  1
  P  P45  1  0.87783809  0.07720398  0.42548305  1
  P  P46  1  0.87783809  0.57720398  0.07451695  1
  P  P47  1  0.12216191  0.92279602  0.57451695  1
  O  O48  1  0.47068791  0.54813026  0.08089888  1
  O  O49  1  0.52931209  0.95186974  0.58089888  1
  O  O50  1  0.52931209  0.45186974  0.91910112  1
  O  O51  1  0.47068791  0.04813026  0.41910112  1
  O  O52  1  0.47267130  0.54885185  0.59170490  1
  O  O53  1  0.52732870  0.95114815  0.09170490  1
  O  O54  1  0.52732870  0.45114815  0.40829510  1
  O  O55  1  0.47267130  0.04885185  0.90829510  1
  O  O56  1  0.98707224  0.07099086  0.34087684  1
  O  O57  1  0.01292776  0.42900914  0.84087684  1
  O  O58  1  0.01292776  0.92900914  0.65912316  1
  O  O59  1  0.98707224  0.57099086  0.15912316  1
  O  O60  1  0.96978008  0.03223976  0.83361707  1
  O  O61  1  0.03021992  0.46776024  0.33361707  1
  O  O62  1  0.03021992  0.96776024  0.16638293  1
  O  O63  1  0.96978008  0.53223976  0.66638293  1
  O  O64  1  0.24638626  0.52612069  0.45440445  1
  O  O65  1  0.75361374  0.97387931  0.95440445  1
  O  O66  1  0.75361374  0.47387931  0.54559555  1
  O  O67  1  0.24638626  0.02612069  0.04559555  1
  O  O68  1  0.22715233  0.54399743  0.94379572  1
  O  O69  1  0.77284767  0.95600257  0.44379572  1
  O  O70  1  0.77284767  0.45600257  0.05620428  1
  O  O71  1  0.22715233  0.04399743  0.55620428  1
  O  O72  1  0.75324976  0.03357826  0.20258803  1
  O  O73  1  0.24675024  0.46642174  0.70258803  1
  O  O74  1  0.24675024  0.96642174  0.79741197  1
  O  O75  1  0.75324976  0.53357826  0.29741197  1
  O  O76  1  0.73096591  0.03300186  0.70481358  1
  O  O77  1  0.26903409  0.46699814  0.20481358  1
  O  O78  1  0.26903409  0.96699814  0.29518642  1
  O  O79  1  0.73096591  0.53300186  0.79518642  1
  O  O80  1  0.69720295  0.83104663  0.14318780  1
  O  O81  1  0.30279705  0.66895337  0.64318780  1
  O  O82  1  0.30279705  0.16895337  0.85681220  1
  O  O83  1  0.69720295  0.33104663  0.35681220  1
  O  O84  1  0.68180577  0.82897829  0.64136645  1
  O  O85  1  0.31819423  0.67102171  0.14136645  1
  O  O86  1  0.31819423  0.17102171  0.35863355  1
  O  O87  1  0.68180577  0.32897829  0.85863355  1
  O  O88  1  0.16871028  0.32718944  0.38188653  1
  O  O89  1  0.83128972  0.17281056  0.88188653  1
  O  O90  1  0.83128972  0.67281056  0.61811347  1
  O  O91  1  0.16871028  0.82718944  0.11811347  1
  O  O92  1  0.20815100  0.33866529  0.90001085  1
  O  O93  1  0.79184900  0.16133471  0.40001085  1
  O  O94  1  0.79184900  0.66133471  0.09998915  1
  O  O95  1  0.20815100  0.83866529  0.59998915  1
  O  O96  1  0.53052826  0.88193874  0.26849260  1
  O  O97  1  0.46947174  0.61806126  0.76849260  1
  O  O98  1  0.46947174  0.11806126  0.73150740  1
  O  O99  1  0.53052826  0.38193874  0.23150740  1
  O  O100  1  0.50552584  0.87946749  0.75917390  1
  O  O101  1  0.49447416  0.62053251  0.25917390  1
  O  O102  1  0.49447416  0.12053251  0.24082610  1
  O  O103  1  0.50552584  0.37946749  0.74082610  1
  O  O104  1  0.02967905  0.38106976  0.02202900  1
  O  O105  1  0.97032095  0.11893024  0.52202900  1
  O  O106  1  0.97032095  0.61893024  0.97797100  1
  O  O107  1  0.02967905  0.88106976  0.47797100  1
  O  O108  1  0.00739573  0.38218885  0.50682120  1
  O  O109  1  0.99260427  0.11781115  0.00682120  1
  O  O110  1  0.99260427  0.61781115  0.49317880  1
  O  O111  1  0.00739573  0.88218885  0.99317880  1
  O  O112  1  0.66682719  0.70562037  0.40562325  1
  O  O113  1  0.33317281  0.79437963  0.90562325  1
  O  O114  1  0.33317281  0.29437963  0.59437675  1
  O  O115  1  0.66682719  0.20562037  0.09437675  1
  O  O116  1  0.58414635  0.75846988  0.95256317  1
  O  O117  1  0.41585365  0.74153012  0.45256317  1
  O  O118  1  0.41585365  0.24153012  0.04743683  1
  O  O119  1  0.58414635  0.25846988  0.54743683  1
  O  O120  1  0.16709158  0.21421974  0.14947870  1
  O  O121  1  0.83290842  0.28578026  0.64947870  1
  O  O122  1  0.83290842  0.78578026  0.85052130  1
  O  O123  1  0.16709158  0.71421974  0.35052130  1
  O  O124  1  0.08657615  0.24847205  0.70492476  1
  O  O125  1  0.91342385  0.25152795  0.20492476  1
  O  O126  1  0.91342385  0.75152795  0.29507524  1
  O  O127  1  0.08657615  0.74847205  0.79507524  1
