# generated using pymatgen
data_TcBr3
_symmetry_space_group_name_H-M   'P 1'
_cell_length_a   6.12265216
_cell_length_b   7.23790264
_cell_length_c   7.23790264
_cell_angle_alpha   120.12520398
_cell_angle_beta   90.00000000
_cell_angle_gamma   90.00000000
_symmetry_Int_Tables_number   1
_chemical_formula_structural   TcBr3
_chemical_formula_sum   'Tc2 Br6'
_cell_volume   277.42550570
_cell_formula_units_Z   2
loop_
 _symmetry_equiv_pos_site_id
 _symmetry_equiv_pos_as_xyz
  1  'x, y, z'
loop_
 _atom_site_type_symbol
 _atom_site_label
 _atom_site_symmetry_multiplicity
 _atom_site_fract_x
 _atom_site_fract_y
 _atom_site_fract_z
 _atom_site_occupancy
  Tc  Tc0  1  0.50000000  0.50000000  -0.00000000  1
  Tc  Tc1  1  0.00000000  0.50000000  -0.00000000  1
  Br  Br2  1  0.25000000  0.21893361  0.71893361  1
  Br  Br3  1  0.75000000  0.78106639  0.28106639  1
  Br  Br4  1  0.25000000  0.50024139  0.28084204  1
  Br  Br5  1  0.25000000  0.78084204  0.00024139  1
  Br  Br6  1  0.75000000  0.49975861  0.71915796  1
  Br  Br7  1  0.75000000  0.21915796  0.99975861  1
