# generated using pymatgen
data_In2Sb4Pb4Se13
_symmetry_space_group_name_H-M   'P 1'
_cell_length_a   4.12952947
_cell_length_b   22.47335670
_cell_length_c   27.93144678
_cell_angle_alpha   90.00000000
_cell_angle_beta   90.00000000
_cell_angle_gamma   90.00000000
_symmetry_Int_Tables_number   1
_chemical_formula_structural   In2Sb4Pb4Se13
_chemical_formula_sum   'In8 Sb16 Pb16 Se52'
_cell_volume   2592.16084623
_cell_formula_units_Z   4
loop_
 _symmetry_equiv_pos_site_id
 _symmetry_equiv_pos_as_xyz
  1  'x, y, z'
loop_
 _atom_site_type_symbol
 _atom_site_label
 _atom_site_symmetry_multiplicity
 _atom_site_fract_x
 _atom_site_fract_y
 _atom_site_fract_z
 _atom_site_occupancy
  In  In0  1  0.00000000  -0.00000000  0.50000000  1
  In  In1  1  0.00000000  0.50000000  -0.00000000  1
  In  In2  1  -0.00000000  0.50000000  0.50000000  1
  In  In3  1  -0.00000000  -0.00000000  0.00000000  1
  In  In4  1  0.00000000  0.22903025  0.34330527  1
  In  In5  1  -0.00000000  0.77096975  0.65669473  1
  In  In6  1  0.00000000  0.72903025  0.15669473  1
  In  In7  1  -0.00000000  0.27096975  0.84330527  1
  Sb  Sb8  1  0.50000000  0.38936826  0.41517440  1
  Sb  Sb9  1  0.50000000  0.61063174  0.58482560  1
  Sb  Sb10  1  0.50000000  0.88936826  0.08482560  1
  Sb  Sb11  1  0.50000000  0.11063174  0.91517440  1
  Sb  Sb12  1  0.50000000  0.15382916  0.48010338  1
  Sb  Sb13  1  0.50000000  0.84617084  0.51989662  1
  Sb  Sb14  1  0.50000000  0.65382916  0.01989662  1
  Sb  Sb15  1  0.50000000  0.34617084  0.98010338  1
  Sb  Sb16  1  0.00000000  0.14367517  0.60850835  1
  Sb  Sb17  1  0.00000000  0.85632483  0.39149165  1
  Sb  Sb18  1  0.00000000  0.64367517  0.89149165  1
  Sb  Sb19  1  0.00000000  0.35632483  0.10850835  1
  Sb  Sb20  1  0.00000000  0.52170216  0.34381081  1
  Sb  Sb21  1  0.00000000  0.47829784  0.65618919  1
  Sb  Sb22  1  0.00000000  0.02170216  0.15618919  1
  Sb  Sb23  1  0.00000000  0.97829784  0.84381081  1
  Pb  Pb24  1  0.50000000  0.12343136  0.75051458  1
  Pb  Pb25  1  0.50000000  0.87656864  0.24948542  1
  Pb  Pb26  1  0.50000000  0.62343136  0.74948542  1
  Pb  Pb27  1  0.50000000  0.37656864  0.25051458  1
  Pb  Pb28  1  0.50000000  0.68047860  0.42618855  1
  Pb  Pb29  1  0.50000000  0.31952140  0.57381145  1
  Pb  Pb30  1  0.50000000  0.18047860  0.07381145  1
  Pb  Pb31  1  0.50000000  0.81952140  0.92618855  1
  Pb  Pb32  1  0.50000000  0.66897377  0.27079541  1
  Pb  Pb33  1  0.50000000  0.33102623  0.72920459  1
  Pb  Pb34  1  0.50000000  0.16897377  0.22920459  1
  Pb  Pb35  1  0.50000000  0.83102623  0.77079541  1
  Pb  Pb36  1  0.50000000  0.96782425  0.65066605  1
  Pb  Pb37  1  0.50000000  0.03217575  0.34933395  1
  Pb  Pb38  1  0.50000000  0.46782425  0.84933395  1
  Pb  Pb39  1  0.50000000  0.53217575  0.15066605  1
  Se  Se40  1  0.50000000  0.52509186  0.27887005  1
  Se  Se41  1  0.50000000  0.47490814  0.72112995  1
  Se  Se42  1  0.50000000  0.02509186  0.22112995  1
  Se  Se43  1  0.50000000  0.97490814  0.77887005  1
  Se  Se44  1  0.50000000  0.24959693  0.40040766  1
  Se  Se45  1  0.50000000  0.75040307  0.59959234  1
  Se  Se46  1  0.50000000  0.74959693  0.09959234  1
  Se  Se47  1  0.50000000  0.25040307  0.90040766  1
  Se  Se48  1  0.00000000  0.06173242  0.68409361  1
  Se  Se49  1  0.00000000  0.93826758  0.31590639  1
  Se  Se50  1  -0.00000000  0.56173242  0.81590639  1
  Se  Se51  1  -0.00000000  0.43826758  0.18409361  1
  Se  Se52  1  -0.00000000  0.38161794  0.48907318  1
  Se  Se53  1  0.00000000  0.61838206  0.51092682  1
  Se  Se54  1  -0.00000000  0.88161794  0.01092682  1
  Se  Se55  1  0.00000000  0.11838206  0.98907318  1
  Se  Se56  1  0.00000000  0.08208535  0.43073497  1
  Se  Se57  1  0.00000000  0.91791465  0.56926503  1
  Se  Se58  1  0.00000000  0.58208535  0.06926503  1
  Se  Se59  1  0.00000000  0.41791465  0.93073497  1
  Se  Se60  1  0.50000000  0.06442017  0.55008054  1
  Se  Se61  1  0.50000000  0.93557983  0.44991946  1
  Se  Se62  1  0.50000000  0.56442017  0.94991946  1
  Se  Se63  1  0.50000000  0.43557983  0.05008054  1
  Se  Se64  1  0.00000000  0.64890130  0.35546162  1
  Se  Se65  1  -0.00000000  0.35109870  0.64453838  1
  Se  Se66  1  0.00000000  0.14890130  0.14453838  1
  Se  Se67  1  -0.00000000  0.85109870  0.85546162  1
  Se  Se68  1  -0.00000000  0.87902910  0.69569882  1
  Se  Se69  1  0.00000000  0.12097090  0.30430118  1
  Se  Se70  1  0.00000000  0.37902910  0.80430118  1
  Se  Se71  1  -0.00000000  0.62097090  0.19569882  1
  Se  Se72  1  0.50000000  0.51124854  0.42905979  1
  Se  Se73  1  0.50000000  0.48875146  0.57094021  1
  Se  Se74  1  0.50000000  0.01124854  0.07094021  1
  Se  Se75  1  0.50000000  0.98875146  0.92905979  1
  Se  Se76  1  -0.00000000  0.22212755  0.52431442  1
  Se  Se77  1  0.00000000  0.77787245  0.47568558  1
  Se  Se78  1  0.00000000  0.72212755  0.97568558  1
  Se  Se79  1  -0.00000000  0.27787245  0.02431442  1
  Se  Se80  1  0.00000000  0.39527749  0.34285553  1
  Se  Se81  1  0.00000000  0.60472251  0.65714447  1
  Se  Se82  1  0.00000000  0.89527749  0.15714447  1
  Se  Se83  1  0.00000000  0.10472251  0.84285553  1
  Se  Se84  1  0.50000000  0.20941286  0.64631856  1
  Se  Se85  1  0.50000000  0.79058714  0.35368144  1
  Se  Se86  1  0.50000000  0.70941286  0.85368144  1
  Se  Se87  1  0.50000000  0.29058714  0.14631856  1
  Se  Se88  1  -0.00000000  0.22664283  0.75672190  1
  Se  Se89  1  0.00000000  0.77335717  0.24327810  1
  Se  Se90  1  -0.00000000  0.72664283  0.74327810  1
  Se  Se91  1  0.00000000  0.27335717  0.25672190  1
