# generated using pymatgen
data_Tm3(Co2Sn)4
_symmetry_space_group_name_H-M   'P 1'
_cell_length_a   7.51817436
_cell_length_b   8.77476275
_cell_length_c   8.77476275
_cell_angle_alpha   120.00000653
_cell_angle_beta   90.00000000
_cell_angle_gamma   90.00000000
_symmetry_Int_Tables_number   1
_chemical_formula_structural   Tm3(Co2Sn)4
_chemical_formula_sum   'Tm6 Co16 Sn8'
_cell_volume   501.31853535
_cell_formula_units_Z   2
loop_
 _symmetry_equiv_pos_site_id
 _symmetry_equiv_pos_as_xyz
  1  'x, y, z'
loop_
 _atom_site_type_symbol
 _atom_site_label
 _atom_site_symmetry_multiplicity
 _atom_site_fract_x
 _atom_site_fract_y
 _atom_site_fract_z
 _atom_site_occupancy
  Tm  Tm0  1  0.78509258  0.47531112  0.95062225  1
  Tm  Tm1  1  0.78509258  0.47531112  0.52468888  1
  Tm  Tm2  1  0.28509258  0.52468888  0.04937775  1
  Tm  Tm3  1  0.78509258  0.04937775  0.52468888  1
  Tm  Tm4  1  0.28509258  0.52468888  0.47531112  1
  Tm  Tm5  1  0.28509258  0.95062225  0.47531112  1
  Co  Co6  1  0.62956271  0.66666700  0.33333300  1
  Co  Co7  1  0.12956271  0.33333300  0.66666700  1
  Co  Co8  1  0.75475106  0.09988287  0.19976573  1
  Co  Co9  1  0.75475106  0.09988287  0.90011713  1
  Co  Co10  1  0.25475106  0.90011713  0.80023427  1
  Co  Co11  1  0.75475106  0.80023427  0.90011713  1
  Co  Co12  1  0.25475106  0.90011713  0.09988287  1
  Co  Co13  1  0.25475106  0.19976573  0.09988287  1
  Co  Co14  1  0.94069100  0.83893209  0.67786418  1
  Co  Co15  1  0.94069100  0.83893209  0.16106791  1
  Co  Co16  1  0.44069100  0.16106791  0.32213582  1
  Co  Co17  1  0.94069100  0.32213582  0.16106791  1
  Co  Co18  1  0.44069100  0.16106791  0.83893209  1
  Co  Co19  1  0.44069100  0.67786418  0.83893209  1
  Co  Co20  1  0.99704151  -0.00000000  -0.00000000  1
  Co  Co21  1  0.49704151  -0.00000000  -0.00000000  1
  Sn  Sn22  1  0.97967304  0.66666700  0.33333300  1
  Sn  Sn23  1  0.47967304  0.33333300  0.66666700  1
  Sn  Sn24  1  0.57240627  0.82873177  0.65746354  1
  Sn  Sn25  1  0.57240627  0.82873177  0.17126823  1
  Sn  Sn26  1  0.07240627  0.17126823  0.34253646  1
  Sn  Sn27  1  0.57240627  0.34253646  0.17126823  1
  Sn  Sn28  1  0.07240627  0.17126823  0.82873177  1
  Sn  Sn29  1  0.07240627  0.65746354  0.82873177  1
