# generated using pymatgen
data_Y2NiGe6
_symmetry_space_group_name_H-M   'P 1'
_cell_length_a   4.02503474
_cell_length_b   4.06897597
_cell_length_c   10.88954567
_cell_angle_alpha   90.00000000
_cell_angle_beta   100.65016686
_cell_angle_gamma   90.00000000
_symmetry_Int_Tables_number   1
_chemical_formula_structural   Y2NiGe6
_chemical_formula_sum   'Y2 Ni1 Ge6'
_cell_volume   175.27425788
_cell_formula_units_Z   1
loop_
 _symmetry_equiv_pos_site_id
 _symmetry_equiv_pos_as_xyz
  1  'x, y, z'
loop_
 _atom_site_type_symbol
 _atom_site_label
 _atom_site_symmetry_multiplicity
 _atom_site_fract_x
 _atom_site_fract_y
 _atom_site_fract_z
 _atom_site_occupancy
  Y  Y0  1  0.77694436  0.50000000  0.55388872  1
  Y  Y1  1  0.11413721  0.50000000  0.22827441  1
  Ni  Ni2  1  0.55543868  -0.00000000  0.11087737  1
  Ge  Ge3  1  0.49873571  0.50000000  0.99747141  1
  Ge  Ge4  1  0.38211310  0.50000000  0.76422620  1
  Ge  Ge5  1  0.99849201  -0.00000000  0.99698401  1
  Ge  Ge6  1  0.88123604  0.00000000  0.76247207  1
  Ge  Ge7  1  0.66285551  -0.00000000  0.32571101  1
  Ge  Ge8  1  0.23704740  0.00000000  0.47409479  1
