# generated using pymatgen
data_Ba3InS4Cl
_symmetry_space_group_name_H-M   'P 1'
_cell_length_a   8.47717939
_cell_length_b   8.47717939
_cell_length_c   9.43751086
_cell_angle_alpha   116.68734168
_cell_angle_beta   116.68734168
_cell_angle_gamma   90.00000000
_symmetry_Int_Tables_number   1
_chemical_formula_structural   Ba3InS4Cl
_chemical_formula_sum   'Ba6 In2 S8 Cl2'
_cell_volume   523.83485475
_cell_formula_units_Z   2
loop_
 _symmetry_equiv_pos_site_id
 _symmetry_equiv_pos_as_xyz
  1  'x, y, z'
loop_
 _atom_site_type_symbol
 _atom_site_label
 _atom_site_symmetry_multiplicity
 _atom_site_fract_x
 _atom_site_fract_y
 _atom_site_fract_z
 _atom_site_occupancy
  Ba  Ba0  1  0.34494199  0.15505801  0.00000000  1
  Ba  Ba1  1  0.65505801  0.84494199  -0.00000000  1
  Ba  Ba2  1  0.15505801  0.65505801  0.00000000  1
  Ba  Ba3  1  0.84494199  0.34494199  1.00000000  1
  Ba  Ba4  1  0.75000000  0.75000000  0.50000000  1
  Ba  Ba5  1  0.25000000  0.25000000  0.50000000  1
  In  In6  1  0.25000000  0.75000000  0.50000000  1
  In  In7  1  0.75000000  0.25000000  0.50000000  1
  S  S8  1  0.98490794  0.79932266  0.28423060  1
  S  S9  1  0.29932266  0.48490794  0.28423060  1
  S  S10  1  0.79932266  0.29932266  0.28423060  1
  S  S11  1  0.48490794  0.98490794  0.28423060  1
  S  S12  1  0.01509206  0.20067734  0.71576940  1
  S  S13  1  0.70067734  0.51509206  0.71576940  1
  S  S14  1  0.20067734  0.70067734  0.71576940  1
  S  S15  1  0.51509206  0.01509206  0.71576940  1
  Cl  Cl16  1  0.50000000  0.50000000  -0.00000000  1
  Cl  Cl17  1  -0.00000000  0.00000000  -0.00000000  1
