# generated using pymatgen
data_Ta6Nb3Te2S3
_symmetry_space_group_name_H-M   'P 1'
_cell_length_a   3.43973288
_cell_length_b   12.35887938
_cell_length_c   13.65327146
_cell_angle_alpha   112.60699040
_cell_angle_beta   90.00000000
_cell_angle_gamma   90.00000000
_symmetry_Int_Tables_number   1
_chemical_formula_structural   Ta6Nb3Te2S3
_chemical_formula_sum   'Ta12 Nb6 Te4 S6'
_cell_volume   535.82019607
_cell_formula_units_Z   2
loop_
 _symmetry_equiv_pos_site_id
 _symmetry_equiv_pos_as_xyz
  1  'x, y, z'
loop_
 _atom_site_type_symbol
 _atom_site_label
 _atom_site_symmetry_multiplicity
 _atom_site_fract_x
 _atom_site_fract_y
 _atom_site_fract_z
 _atom_site_occupancy
  Ta  Ta0  1  0.75000000  0.66735378  0.28113304  1
  Ta  Ta1  1  0.25000000  0.33264622  0.71886696  1
  Ta  Ta2  1  0.75000000  0.24909196  0.18849763  1
  Ta  Ta3  1  0.25000000  0.75090804  0.81150237  1
  Ta  Ta4  1  0.75000000  0.47998230  0.40846202  1
  Ta  Ta5  1  0.25000000  0.52001770  0.59153798  1
  Ta  Ta6  1  0.75000000  0.54643303  0.76597799  1
  Ta  Ta7  1  0.25000000  0.45356697  0.23402201  1
  Ta  Ta8  1  0.75000000  0.71801256  0.63601260  1
  Ta  Ta9  1  0.25000000  0.28198744  0.36398740  1
  Ta  Ta10  1  0.75000000  0.32264493  0.54727070  1
  Ta  Ta11  1  0.25000000  0.67735507  0.45272930  1
  Nb  Nb12  1  0.75000000  0.09374395  0.58898784  1
  Nb  Nb13  1  0.25000000  0.90625605  0.41101216  1
  Nb  Nb14  1  0.75000000  0.44371004  0.06124335  1
  Nb  Nb15  1  0.25000000  0.55628996  0.93875665  1
  Nb  Nb16  1  0.75000000  0.07925719  0.34509110  1
  Nb  Nb17  1  0.25000000  0.92074281  0.65490890  1
  Te  Te18  1  0.75000000  0.94730055  0.83697509  1
  Te  Te19  1  0.25000000  0.05269945  0.16302491  1
  Te  Te20  1  0.75000000  0.75717275  0.98333807  1
  Te  Te21  1  0.25000000  0.24282725  0.01666193  1
  S  S22  1  0.75000000  0.83943272  0.51260905  1
  S  S23  1  0.25000000  0.16056728  0.48739095  1
  S  S24  1  0.75000000  0.39293440  0.86369257  1
  S  S25  1  0.25000000  0.60706560  0.13630743  1
  S  S26  1  0.75000000  0.86105221  0.26543909  1
  S  S27  1  0.25000000  0.13894779  0.73456091  1
