# generated using pymatgen
data_TbF4
_symmetry_space_group_name_H-M   'P 1'
_cell_length_a   8.38092856
_cell_length_b   8.38092856
_cell_length_c   8.01586881
_cell_angle_alpha   66.57009535
_cell_angle_beta   66.57009535
_cell_angle_gamma   85.04866710
_symmetry_Int_Tables_number   1
_chemical_formula_structural   TbF4
_chemical_formula_sum   'Tb6 F24'
_cell_volume   472.28773475
_cell_formula_units_Z   6
loop_
 _symmetry_equiv_pos_site_id
 _symmetry_equiv_pos_as_xyz
  1  'x, y, z'
loop_
 _atom_site_type_symbol
 _atom_site_label
 _atom_site_symmetry_multiplicity
 _atom_site_fract_x
 _atom_site_fract_y
 _atom_site_fract_z
 _atom_site_occupancy
  Tb  Tb0  1  0.36287254  0.22677111  0.85867342  1
  Tb  Tb1  1  0.63712746  0.77322889  0.14132658  1
  Tb  Tb2  1  0.77322889  0.63712746  0.64132658  1
  Tb  Tb3  1  0.22677111  0.36287254  0.35867342  1
  Tb  Tb4  1  0.19872762  0.80127238  0.75000000  1
  Tb  Tb5  1  0.80127238  0.19872762  0.25000000  1
  F  F6  1  0.65623435  0.73945802  0.87399274  1
  F  F7  1  0.34376565  0.26054198  0.12600726  1
  F  F8  1  0.26054198  0.34376565  0.62600726  1
  F  F9  1  0.73945802  0.65623435  0.37399274  1
  F  F10  1  0.17465541  0.07221097  0.55982135  1
  F  F11  1  0.82534459  0.92778903  0.44017865  1
  F  F12  1  0.92778903  0.82534459  0.94017865  1
  F  F13  1  0.07221097  0.17465541  0.05982135  1
  F  F14  1  0.60012679  0.39987321  0.75000000  1
  F  F15  1  0.39987321  0.60012679  0.25000000  1
  F  F16  1  0.50000000  -0.00000000  -0.00000000  1
  F  F17  1  0.00000000  0.50000000  0.50000000  1
  F  F18  1  0.49811719  0.76689286  0.66777907  1
  F  F19  1  0.50188281  0.23310714  0.33222093  1
  F  F20  1  0.23310714  0.50188281  0.83222093  1
  F  F21  1  0.76689286  0.49811719  0.16777907  1
  F  F22  1  0.58696179  0.20054802  0.54906004  1
  F  F23  1  0.41303821  0.79945198  0.45093996  1
  F  F24  1  0.79945198  0.41303821  0.95093996  1
  F  F25  1  0.20054802  0.58696179  0.04906004  1
  F  F26  1  0.27741242  0.97228189  0.86473706  1
  F  F27  1  0.72258758  0.02771811  0.13526294  1
  F  F28  1  0.02771811  0.72258758  0.63526294  1
  F  F29  1  0.97228189  0.27741242  0.36473706  1
