# generated using pymatgen
data_Ti5AgSn3
_symmetry_space_group_name_H-M   'P 1'
_cell_length_a   5.63827964
_cell_length_b   8.30486490
_cell_length_c   8.30486490
_cell_angle_alpha   120.00000273
_cell_angle_beta   90.00000000
_cell_angle_gamma   90.00000000
_symmetry_Int_Tables_number   1
_chemical_formula_structural   Ti5AgSn3
_chemical_formula_sum   'Ti10 Ag2 Sn6'
_cell_volume   336.77696247
_cell_formula_units_Z   2
loop_
 _symmetry_equiv_pos_site_id
 _symmetry_equiv_pos_as_xyz
  1  'x, y, z'
loop_
 _atom_site_type_symbol
 _atom_site_label
 _atom_site_symmetry_multiplicity
 _atom_site_fract_x
 _atom_site_fract_y
 _atom_site_fract_z
 _atom_site_occupancy
  Ti  Ti0  1  0.75000000  0.70940814  0.70940814  1
  Ti  Ti1  1  0.25000000  0.29059186  0.29059186  1
  Ti  Ti2  1  0.75000000  0.00000000  0.29059186  1
  Ti  Ti3  1  0.25000000  1.00000000  0.70940814  1
  Ti  Ti4  1  0.75000000  0.29059186  0.00000000  1
  Ti  Ti5  1  0.25000000  0.70940814  1.00000000  1
  Ti  Ti6  1  -0.00000000  0.66666700  0.33333300  1
  Ti  Ti7  1  0.00000000  0.33333300  0.66666700  1
  Ti  Ti8  1  0.50000000  0.33333300  0.66666700  1
  Ti  Ti9  1  0.50000000  0.66666700  0.33333300  1
  Ag  Ag10  1  -0.00000000  0.00000000  -0.00000000  1
  Ag  Ag11  1  0.50000000  0.00000000  -0.00000000  1
  Sn  Sn12  1  0.75000000  0.37417014  0.37417014  1
  Sn  Sn13  1  0.25000000  0.62582986  0.62582986  1
  Sn  Sn14  1  0.75000000  1.00000000  0.62582986  1
  Sn  Sn15  1  0.25000000  0.00000000  0.37417014  1
  Sn  Sn16  1  0.75000000  0.62582986  1.00000000  1
  Sn  Sn17  1  0.25000000  0.37417014  0.00000000  1
