# generated using pymatgen
data_Tb12Al7Si
_symmetry_space_group_name_H-M   'P 1'
_cell_length_a   11.29285361
_cell_length_b   11.29285361
_cell_length_c   11.29285361
_cell_angle_alpha   94.41479983
_cell_angle_beta   117.48469880
_cell_angle_gamma   117.48469880
_symmetry_Int_Tables_number   1
_chemical_formula_structural   Tb12Al7Si
_chemical_formula_sum   'Tb24 Al14 Si2'
_cell_volume   1053.67994639
_cell_formula_units_Z   2
loop_
 _symmetry_equiv_pos_site_id
 _symmetry_equiv_pos_as_xyz
  1  'x, y, z'
loop_
 _atom_site_type_symbol
 _atom_site_label
 _atom_site_symmetry_multiplicity
 _atom_site_fract_x
 _atom_site_fract_y
 _atom_site_fract_z
 _atom_site_occupancy
  Tb  Tb0  1  0.50000000  0.85203394  0.35203394  1
  Tb  Tb1  1  0.50000000  0.14796606  0.64796606  1
  Tb  Tb2  1  0.50000000  0.35203394  0.85203394  1
  Tb  Tb3  1  0.50000000  0.64796606  0.14796606  1
  Tb  Tb4  1  0.73574934  0.79916412  0.66381733  1
  Tb  Tb5  1  0.26425066  0.20083588  0.33618267  1
  Tb  Tb6  1  0.26425066  0.92806799  0.06341479  1
  Tb  Tb7  1  0.13534679  0.06341479  0.79916412  1
  Tb  Tb8  1  0.86465321  0.70083588  0.43658521  1
  Tb  Tb9  1  0.73574934  0.07193201  0.93658521  1
  Tb  Tb10  1  0.86465321  0.93658521  0.20083588  1
  Tb  Tb11  1  0.13534679  0.29916412  0.56341479  1
  Tb  Tb12  1  0.86465321  0.66381733  0.92806799  1
  Tb  Tb13  1  0.13534679  0.57193201  0.83618267  1
  Tb  Tb14  1  0.13534679  0.33618267  0.07193201  1
  Tb  Tb15  1  0.86465321  0.42806799  0.16381733  1
  Tb  Tb16  1  0.73574934  0.43658521  0.57193201  1
  Tb  Tb17  1  0.26425066  0.56341479  0.42806799  1
  Tb  Tb18  1  0.26425066  0.83618267  0.70083588  1
  Tb  Tb19  1  0.73574934  0.16381733  0.29916412  1
  Tb  Tb20  1  0.15983197  0.82991598  0.32991598  1
  Tb  Tb21  1  0.84016803  0.17008402  0.67008402  1
  Tb  Tb22  1  0.50000000  0.67008402  0.82991598  1
  Tb  Tb23  1  0.50000000  0.32991598  0.17008402  1
  Al  Al24  1  0.26468373  0.38234186  0.88234186  1
  Al  Al25  1  0.73531627  0.61765814  0.11765814  1
  Al  Al26  1  0.50000000  0.11765814  0.38234186  1
  Al  Al27  1  0.50000000  0.88234186  0.61765814  1
  Al  Al28  1  -0.00000000  0.00000000  0.00000000  1
  Al  Al29  1  -0.00000000  0.50000000  0.50000000  1
  Al  Al30  1  0.14300320  0.61765856  0.11765856  1
  Al  Al31  1  0.85699680  0.38234144  0.88234144  1
  Al  Al32  1  0.85699680  0.97465536  0.47465536  1
  Al  Al33  1  0.50000000  0.47465536  0.61765856  1
  Al  Al34  1  0.50000000  0.88234144  0.02534464  1
  Al  Al35  1  0.14300320  0.02534464  0.52534464  1
  Al  Al36  1  0.50000000  0.52534464  0.38234144  1
  Al  Al37  1  0.50000000  0.11765856  0.97465536  1
  Si  Si38  1  -0.00000000  0.75000000  0.75000000  1
  Si  Si39  1  -0.00000000  0.25000000  0.25000000  1
