# generated using pymatgen
data_CaCr2O4
_symmetry_space_group_name_H-M   'P 1'
_cell_length_a   6.20686344
_cell_length_b   6.20613215
_cell_length_c   18.91966497
_cell_angle_alpha   60.54789884
_cell_angle_beta   60.59304877
_cell_angle_gamma   59.97877328
_symmetry_Int_Tables_number   1
_chemical_formula_structural   CaCr2O4
_chemical_formula_sum   'Ca6 Cr12 O24'
_cell_volume   519.65138777
_cell_formula_units_Z   6
loop_
 _symmetry_equiv_pos_site_id
 _symmetry_equiv_pos_as_xyz
  1  'x, y, z'
loop_
 _atom_site_type_symbol
 _atom_site_label
 _atom_site_symmetry_multiplicity
 _atom_site_fract_x
 _atom_site_fract_y
 _atom_site_fract_z
 _atom_site_occupancy
  Ca  Ca0  1  0.12245358  0.12277802  0.04406441  1
  Ca  Ca1  1  0.12160624  0.12172595  0.37827080  1
  Ca  Ca2  1  0.49434901  0.49464488  0.33878322  1
  Ca  Ca3  1  0.12298833  0.12333478  0.71013778  1
  Ca  Ca4  1  0.50208920  0.50216248  0.99785286  1
  Ca  Ca5  1  0.87946838  0.87938879  0.62055524  1
  Cr  Cr6  1  0.49771077  0.49731109  0.16609709  1
  Cr  Cr7  1  0.49761554  0.00698471  0.16607819  1
  Cr  Cr8  1  0.49596458  0.49624891  0.50363563  1
  Cr  Cr9  1  0.00708444  0.49720564  0.16622479  1
  Cr  Cr10  1  0.49596027  0.99683948  0.50363409  1
  Cr  Cr11  1  0.50235449  0.50241410  0.66429425  1
  Cr  Cr12  1  0.88429767  0.88331834  0.28296368  1
  Cr  Cr13  1  0.50064913  0.50065788  0.82853376  1
  Cr  Cr14  1  0.99668649  0.49608417  0.50369534  1
  Cr  Cr15  1  0.50067464  0.01304889  0.82852425  1
  Cr  Cr16  1  0.01309304  0.50068860  0.82850677  1
  Cr  Cr17  1  0.88545224  0.88524524  0.94797959  1
  O  O18  1  0.25270367  0.25288800  0.09848687  1
  O  O19  1  0.26776472  0.26733061  0.23269991  1
  O  O20  1  0.25252301  0.69905967  0.09860945  1
  O  O21  1  0.69912042  0.25246316  0.09864746  1
  O  O22  1  0.24192363  0.24263765  0.43865781  1
  O  O23  1  0.26755254  0.75899921  0.23845813  1
  O  O24  1  0.26306055  0.26305060  0.57030518  1
  O  O25  1  0.75913388  0.26630306  0.23916335  1
  O  O26  1  0.74107112  0.74057532  0.09248305  1
  O  O27  1  0.24163341  0.69940540  0.43876388  1
  O  O28  1  0.69927349  0.24205116  0.43877106  1
  O  O29  1  0.75790896  0.75748103  0.23938774  1
  O  O30  1  0.27129726  0.27142694  0.75468336  1
  O  O31  1  0.30661870  0.72673278  0.58005608  1
  O  O32  1  0.72673987  0.30668750  0.58005219  1
  O  O33  1  0.27126431  0.27108566  0.89556684  1
  O  O34  1  0.74023668  0.74218402  0.42477967  1
  O  O35  1  0.27106862  0.69324561  0.75474634  1
  O  O36  1  0.69308989  0.27111384  0.75480916  1
  O  O37  1  0.72649960  0.72642581  0.58009733  1
  O  O38  1  0.26458539  0.76670876  0.90066633  1
  O  O39  1  0.76679702  0.26447471  0.90072132  1
  O  O40  1  0.73100554  0.73119385  0.76878255  1
  O  O41  1  0.76662765  0.76639570  0.90077418  1
