# generated using pymatgen
data_TlCuAs2PbS5
_symmetry_space_group_name_H-M   'P 1'
_cell_length_a   8.02616009
_cell_length_b   8.18110141
_cell_length_c   9.12350808
_cell_angle_alpha   65.64073841
_cell_angle_beta   73.65406439
_cell_angle_gamma   64.13632803
_symmetry_Int_Tables_number   1
_chemical_formula_structural   TlCuAs2PbS5
_chemical_formula_sum   'Tl2 Cu2 As4 Pb2 S10'
_cell_volume   487.29946740
_cell_formula_units_Z   2
loop_
 _symmetry_equiv_pos_site_id
 _symmetry_equiv_pos_as_xyz
  1  'x, y, z'
loop_
 _atom_site_type_symbol
 _atom_site_label
 _atom_site_symmetry_multiplicity
 _atom_site_fract_x
 _atom_site_fract_y
 _atom_site_fract_z
 _atom_site_occupancy
  Tl  Tl0  1  0.80535630  0.15321413  0.62564868  1
  Tl  Tl1  1  0.19464370  0.84678587  0.37435132  1
  Cu  Cu2  1  0.38150352  0.25001190  0.40623590  1
  Cu  Cu3  1  0.61849648  0.74998810  0.59376410  1
  As  As4  1  0.59541039  0.04027638  0.14143821  1
  As  As5  1  0.40458961  0.95972362  0.85856179  1
  As  As6  1  0.95307869  0.62280826  0.31308521  1
  As  As7  1  0.04692131  0.37719174  0.68691479  1
  Pb  Pb8  1  0.74515304  0.45882247  0.09408578  1
  Pb  Pb9  1  0.25484696  0.54117753  0.90591422  1
  S  S10  1  0.86693637  0.81039066  0.05512463  1
  S  S11  1  0.13306363  0.18960934  0.94487537  1
  S  S12  1  0.68246554  0.08626946  0.33222707  1
  S  S13  1  0.31753446  0.91373054  0.66777293  1
  S  S14  1  0.37003414  0.70504100  0.08033503  1
  S  S15  1  0.62996586  0.29495900  0.91966497  1
  S  S16  1  0.67817000  0.58079149  0.42665105  1
  S  S17  1  0.32183000  0.41920851  0.57334895  1
  S  S18  1  0.85450271  0.65479893  0.74063529  1
  S  S19  1  0.14549729  0.34520107  0.25936471  1
