# generated using pymatgen
data_Tb(GaCo)6
_symmetry_space_group_name_H-M   'P 1'
_cell_length_a   5.05143417
_cell_length_b   6.48124123
_cell_length_c   6.48124123
_cell_angle_alpha   83.33637409
_cell_angle_beta   67.06437949
_cell_angle_gamma   67.06437949
_symmetry_Int_Tables_number   1
_chemical_formula_structural   Tb(GaCo)6
_chemical_formula_sum   'Tb1 Ga6 Co6'
_cell_volume   179.80804820
_cell_formula_units_Z   1
loop_
 _symmetry_equiv_pos_site_id
 _symmetry_equiv_pos_as_xyz
  1  'x, y, z'
loop_
 _atom_site_type_symbol
 _atom_site_label
 _atom_site_symmetry_multiplicity
 _atom_site_fract_x
 _atom_site_fract_y
 _atom_site_fract_z
 _atom_site_occupancy
  Tb  Tb0  1  -0.00000000  -0.00000000  0.00000000  1
  Ga  Ga1  1  0.50000000  0.18989792  0.81010208  1
  Ga  Ga2  1  0.50000000  0.81010208  0.18989792  1
  Ga  Ga3  1  0.34062069  0.65937931  0.65937931  1
  Ga  Ga4  1  0.65937931  0.34062069  0.34062069  1
  Ga  Ga5  1  0.00000000  0.34537230  0.65462770  1
  Ga  Ga6  1  0.00000000  0.65462770  0.34537230  1
  Co  Co7  1  0.50000000  -0.00000000  0.50000000  1
  Co  Co8  1  0.50000000  0.50000000  0.00000000  1
  Co  Co9  1  -0.00000000  0.50000000  0.00000000  1
  Co  Co10  1  -0.00000000  -0.00000000  0.50000000  1
  Co  Co11  1  0.26195802  0.23804198  0.23804198  1
  Co  Co12  1  0.73804198  0.76195802  0.76195802  1
