# generated using pymatgen
data_TlCu4Se3
_symmetry_space_group_name_H-M   'P 1'
_cell_length_a   3.94481616
_cell_length_b   12.54316725
_cell_length_c   12.92743290
_cell_angle_alpha   90.00000000
_cell_angle_beta   90.00000000
_cell_angle_gamma   90.00000000
_symmetry_Int_Tables_number   1
_chemical_formula_structural   TlCu4Se3
_chemical_formula_sum   'Tl4 Cu16 Se12'
_cell_volume   639.65569967
_cell_formula_units_Z   4
loop_
 _symmetry_equiv_pos_site_id
 _symmetry_equiv_pos_as_xyz
  1  'x, y, z'
loop_
 _atom_site_type_symbol
 _atom_site_label
 _atom_site_symmetry_multiplicity
 _atom_site_fract_x
 _atom_site_fract_y
 _atom_site_fract_z
 _atom_site_occupancy
  Tl  Tl0  1  -0.00000000  0.39454865  0.37211075  1
  Tl  Tl1  1  0.00000000  0.60545135  0.62788925  1
  Tl  Tl2  1  0.50000000  0.10545135  0.87211075  1
  Tl  Tl3  1  0.50000000  0.89454865  0.12788925  1
  Cu  Cu4  1  0.00000000  0.09659406  0.46000604  1
  Cu  Cu5  1  0.00000000  0.90340594  0.53999396  1
  Cu  Cu6  1  0.50000000  0.40340594  0.96000604  1
  Cu  Cu7  1  0.50000000  0.59659406  0.03999396  1
  Cu  Cu8  1  -0.00000000  0.08578467  0.26950479  1
  Cu  Cu9  1  0.00000000  0.91421533  0.73049521  1
  Cu  Cu10  1  0.50000000  0.41421533  0.76950479  1
  Cu  Cu11  1  0.50000000  0.58578467  0.23049521  1
  Cu  Cu12  1  -0.00000000  0.31548193  0.07944255  1
  Cu  Cu13  1  0.00000000  0.68451807  0.92055745  1
  Cu  Cu14  1  0.50000000  0.18451807  0.57944255  1
  Cu  Cu15  1  0.50000000  0.81548193  0.42055745  1
  Cu  Cu16  1  0.00000000  0.30496155  0.67388920  1
  Cu  Cu17  1  -0.00000000  0.69503845  0.32611080  1
  Cu  Cu18  1  0.50000000  0.19503845  0.17388920  1
  Cu  Cu19  1  0.50000000  0.80496155  0.82611080  1
  Se  Se20  1  -0.00000000  0.11989258  0.08929415  1
  Se  Se21  1  -0.00000000  0.88010742  0.91070585  1
  Se  Se22  1  0.50000000  0.38010742  0.58929415  1
  Se  Se23  1  0.50000000  0.61989258  0.41070585  1
  Se  Se24  1  0.00000000  0.67907190  0.13214496  1
  Se  Se25  1  -0.00000000  0.32092810  0.86785504  1
  Se  Se26  1  0.50000000  0.82092810  0.63214496  1
  Se  Se27  1  0.50000000  0.17907190  0.36785504  1
  Se  Se28  1  -0.00000000  0.09273206  0.64372932  1
  Se  Se29  1  -0.00000000  0.90726794  0.35627068  1
  Se  Se30  1  0.50000000  0.40726794  0.14372932  1
  Se  Se31  1  0.50000000  0.59273206  0.85627068  1
