# generated using pymatgen
data_Sr2TlI5
_symmetry_space_group_name_H-M   'P 1'
_cell_length_a   9.13950366
_cell_length_b   10.05264903
_cell_length_c   14.36877385
_cell_angle_alpha   89.96022085
_cell_angle_beta   90.00000000
_cell_angle_gamma   90.00000000
_symmetry_Int_Tables_number   1
_chemical_formula_structural   Sr2TlI5
_chemical_formula_sum   'Sr8 Tl4 I20'
_cell_volume   1320.14834688
_cell_formula_units_Z   4
loop_
 _symmetry_equiv_pos_site_id
 _symmetry_equiv_pos_as_xyz
  1  'x, y, z'
loop_
 _atom_site_type_symbol
 _atom_site_label
 _atom_site_symmetry_multiplicity
 _atom_site_fract_x
 _atom_site_fract_y
 _atom_site_fract_z
 _atom_site_occupancy
  Sr  Sr0  1  0.97737036  0.99788690  0.68089668  1
  Sr  Sr1  1  0.02262964  0.00211310  0.31910332  1
  Sr  Sr2  1  0.47737036  0.00211310  0.81910332  1
  Sr  Sr3  1  0.52262964  0.99788690  0.18089668  1
  Sr  Sr4  1  0.92008252  0.75109430  0.99255386  1
  Sr  Sr5  1  0.07991748  0.24890570  0.00744614  1
  Sr  Sr6  1  0.42008252  0.24890570  0.50744614  1
  Sr  Sr7  1  0.57991748  0.75109430  0.49255386  1
  Tl  Tl8  1  0.98668523  0.51146464  0.68013044  1
  Tl  Tl9  1  0.01331477  0.48853536  0.31986956  1
  Tl  Tl10  1  0.48668523  0.48853536  0.81986956  1
  Tl  Tl11  1  0.51331477  0.51146464  0.18013044  1
  I  I12  1  0.83499957  0.46023636  0.90979484  1
  I  I13  1  0.16500043  0.53976364  0.09020516  1
  I  I14  1  0.33499957  0.53976364  0.59020516  1
  I  I15  1  0.66500043  0.46023636  0.40979484  1
  I  I16  1  0.16279137  0.77663547  0.81549587  1
  I  I17  1  0.83720863  0.22336453  0.18450413  1
  I  I18  1  0.66279137  0.22336453  0.68450413  1
  I  I19  1  0.33720863  0.77663547  0.31549587  1
  I  I20  1  0.69412493  0.76857131  0.71819512  1
  I  I21  1  0.30587507  0.23142869  0.28180488  1
  I  I22  1  0.19412493  0.23142869  0.78180488  1
  I  I23  1  0.80587507  0.76857131  0.21819512  1
  I  I24  1  0.54122536  0.77933225  0.99749013  1
  I  I25  1  0.45877464  0.22066775  0.00250987  1
  I  I26  1  0.04122536  0.22066775  0.50250987  1
  I  I27  1  0.95877464  0.77933225  0.49749013  1
  I  I28  1  0.33713594  0.95496395  0.59540157  1
  I  I29  1  0.66286406  0.04503605  0.40459843  1
  I  I30  1  0.83713594  0.04503605  0.90459843  1
  I  I31  1  0.16286406  0.95496395  0.09540157  1
