# generated using pymatgen
data_Sr2SmBeO5
_symmetry_space_group_name_H-M   'P 1'
_cell_length_a   6.58135512
_cell_length_b   7.40979117
_cell_length_c   9.67549600
_cell_angle_alpha   90.00000000
_cell_angle_beta   90.00000000
_cell_angle_gamma   90.00000000
_symmetry_Int_Tables_number   1
_chemical_formula_structural   Sr2SmBeO5
_chemical_formula_sum   'Sr8 Sm4 Be4 O20'
_cell_volume   471.83975692
_cell_formula_units_Z   4
loop_
 _symmetry_equiv_pos_site_id
 _symmetry_equiv_pos_as_xyz
  1  'x, y, z'
loop_
 _atom_site_type_symbol
 _atom_site_label
 _atom_site_symmetry_multiplicity
 _atom_site_fract_x
 _atom_site_fract_y
 _atom_site_fract_z
 _atom_site_occupancy
  Sr  Sr0  1  0.91268577  0.97524110  0.67311202  1
  Sr  Sr1  1  0.08731423  0.02475890  0.32688798  1
  Sr  Sr2  1  0.41268577  0.02475890  0.82688798  1
  Sr  Sr3  1  0.08731423  0.47524110  0.32688798  1
  Sr  Sr4  1  0.58731423  0.97524110  0.17311202  1
  Sr  Sr5  1  0.91268577  0.52475890  0.67311202  1
  Sr  Sr6  1  0.58731423  0.52475890  0.17311202  1
  Sr  Sr7  1  0.41268577  0.47524110  0.82688798  1
  Sm  Sm8  1  0.40824777  0.75000000  0.52840436  1
  Sm  Sm9  1  0.59175223  0.25000000  0.47159564  1
  Sm  Sm10  1  0.90824777  0.25000000  0.97159564  1
  Sm  Sm11  1  0.09175223  0.75000000  0.02840436  1
  Be  Be12  1  0.68847656  0.75000000  0.89743412  1
  Be  Be13  1  0.31152344  0.25000000  0.10256588  1
  Be  Be14  1  0.18847656  0.25000000  0.60256588  1
  Be  Be15  1  0.81152344  0.75000000  0.39743412  1
  O  O16  1  0.17252428  0.75000000  0.78475515  1
  O  O17  1  0.82747572  0.25000000  0.21524485  1
  O  O18  1  0.67252428  0.25000000  0.71524485  1
  O  O19  1  0.32747572  0.75000000  0.28475515  1
  O  O20  1  0.81284966  0.93634267  0.93598030  1
  O  O21  1  0.18715034  0.06365733  0.06401970  1
  O  O22  1  0.31284966  0.06365733  0.56401970  1
  O  O23  1  0.18715034  0.43634267  0.06401970  1
  O  O24  1  0.68715034  0.93634267  0.43598030  1
  O  O25  1  0.81284966  0.56365733  0.93598030  1
  O  O26  1  0.68715034  0.56365733  0.43598030  1
  O  O27  1  0.31284966  0.43634267  0.56401970  1
  O  O28  1  0.46805571  0.75000000  0.98692266  1
  O  O29  1  0.53194429  0.25000000  0.01307734  1
  O  O30  1  0.96805571  0.25000000  0.51307734  1
  O  O31  1  0.03194429  0.75000000  0.48692266  1
  O  O32  1  0.62498127  0.75000000  0.72942229  1
  O  O33  1  0.37501873  0.25000000  0.27057771  1
  O  O34  1  0.12498127  0.25000000  0.77057771  1
  O  O35  1  0.87501873  0.75000000  0.22942229  1
