# generated using pymatgen
data_Sm3(SiRu)2
_symmetry_space_group_name_H-M   'P 1'
_cell_length_a   5.68078337
_cell_length_b   7.80200398
_cell_length_c   13.40440136
_cell_angle_alpha   90.00000000
_cell_angle_beta   90.00000000
_cell_angle_gamma   90.00000000
_symmetry_Int_Tables_number   1
_chemical_formula_structural   Sm3(SiRu)2
_chemical_formula_sum   'Sm12 Si8 Ru8'
_cell_volume   594.10310065
_cell_formula_units_Z   4
loop_
 _symmetry_equiv_pos_site_id
 _symmetry_equiv_pos_as_xyz
  1  'x, y, z'
loop_
 _atom_site_type_symbol
 _atom_site_label
 _atom_site_symmetry_multiplicity
 _atom_site_fract_x
 _atom_site_fract_y
 _atom_site_fract_z
 _atom_site_occupancy
  Sm  Sm0  1  0.63681703  0.25105603  0.25000000  1
  Sm  Sm1  1  0.36318297  0.74894397  0.75000000  1
  Sm  Sm2  1  0.36318297  0.75105603  0.25000000  1
  Sm  Sm3  1  0.63681703  0.24894397  0.75000000  1
  Sm  Sm4  1  0.14727580  0.39655298  0.10018258  1
  Sm  Sm5  1  0.85272420  0.60344702  0.89981742  1
  Sm  Sm6  1  0.85272420  0.60344702  0.60018258  1
  Sm  Sm7  1  0.85272420  0.89655298  0.39981742  1
  Sm  Sm8  1  0.14727580  0.39655298  0.39981742  1
  Sm  Sm9  1  0.14727580  0.10344702  0.60018258  1
  Sm  Sm10  1  0.14727580  0.10344702  0.89981742  1
  Sm  Sm11  1  0.85272420  0.89655298  0.10018258  1
  Si  Si12  1  0.14764709  0.10122217  0.25000000  1
  Si  Si13  1  0.85235291  0.89877783  0.75000000  1
  Si  Si14  1  0.85235291  0.60122217  0.25000000  1
  Si  Si15  1  0.14764709  0.39877783  0.75000000  1
  Si  Si16  1  0.60475628  0.25000000  0.00000000  1
  Si  Si17  1  0.39524372  0.75000000  0.00000000  1
  Si  Si18  1  0.39524372  0.75000000  0.50000000  1
  Si  Si19  1  0.60475628  0.25000000  0.50000000  1
  Ru  Ru20  1  0.35344704  0.03028463  0.08997873  1
  Ru  Ru21  1  0.64655296  0.96971537  0.91002127  1
  Ru  Ru22  1  0.64655296  0.96971537  0.58997873  1
  Ru  Ru23  1  0.64655296  0.53028463  0.41002127  1
  Ru  Ru24  1  0.35344704  0.03028463  0.41002127  1
  Ru  Ru25  1  0.35344704  0.46971537  0.58997873  1
  Ru  Ru26  1  0.35344704  0.46971537  0.91002127  1
  Ru  Ru27  1  0.64655296  0.53028463  0.08997873  1
