# generated using pymatgen
data_RbAl(SeO4)2
_symmetry_space_group_name_H-M   'P 1'
_cell_length_a   5.09350541
_cell_length_b   5.09350541
_cell_length_c   8.91443456
_cell_angle_alpha   90.00000000
_cell_angle_beta   90.00000000
_cell_angle_gamma   119.99999779
_symmetry_Int_Tables_number   1
_chemical_formula_structural   RbAl(SeO4)2
_chemical_formula_sum   'Rb1 Al1 Se2 O8'
_cell_volume   200.28940947
_cell_formula_units_Z   1
loop_
 _symmetry_equiv_pos_site_id
 _symmetry_equiv_pos_as_xyz
  1  'x, y, z'
loop_
 _atom_site_type_symbol
 _atom_site_label
 _atom_site_symmetry_multiplicity
 _atom_site_fract_x
 _atom_site_fract_y
 _atom_site_fract_z
 _atom_site_occupancy
  Rb  Rb0  1  0.00000000  0.00000000  0.50000000  1
  Al  Al1  1  0.00000000  0.00000000  -0.00000000  1
  Se  Se2  1  0.66666700  0.33333300  0.80210517  1
  Se  Se3  1  0.33333300  0.66666700  0.19789483  1
  O  O4  1  0.92505033  0.24459976  0.86082469  1
  O  O5  1  0.31954943  0.07494967  0.86082469  1
  O  O6  1  0.68045057  0.75540024  0.13917531  1
  O  O7  1  0.75540024  0.68045057  0.86082469  1
  O  O8  1  0.24459976  0.92505033  0.13917531  1
  O  O9  1  0.07494967  0.31954943  0.13917531  1
  O  O10  1  0.66666700  0.33333300  0.61747659  1
  O  O11  1  0.33333300  0.66666700  0.38252341  1
