# generated using pymatgen
data_Ti(WO4)2
_symmetry_space_group_name_H-M   'P 1'
_cell_length_a   5.04710203
_cell_length_b   5.82508142
_cell_length_c   9.33503331
_cell_angle_alpha   90.00000000
_cell_angle_beta   91.12231519
_cell_angle_gamma   90.00000000
_symmetry_Int_Tables_number   1
_chemical_formula_structural   Ti(WO4)2
_chemical_formula_sum   'Ti2 W4 O16'
_cell_volume   274.39527805
_cell_formula_units_Z   2
loop_
 _symmetry_equiv_pos_site_id
 _symmetry_equiv_pos_as_xyz
  1  'x, y, z'
loop_
 _atom_site_type_symbol
 _atom_site_label
 _atom_site_symmetry_multiplicity
 _atom_site_fract_x
 _atom_site_fract_y
 _atom_site_fract_z
 _atom_site_occupancy
  Ti  Ti0  1  0.75000000  0.37179123  0.25000000  1
  Ti  Ti1  1  0.25000000  0.62820777  0.75000000  1
  W  W2  1  0.23813886  0.16219434  0.50227705  1
  W  W3  1  0.26186014  0.16219434  0.99772395  1
  W  W4  1  0.76186114  0.83780566  0.49772295  1
  W  W5  1  0.73813986  0.83780566  0.00227605  1
  O  O6  1  0.42702940  0.33838290  0.13877820  1
  O  O7  1  0.07296960  0.33838290  0.36122080  1
  O  O8  1  0.57297060  0.66161610  0.86122180  1
  O  O9  1  0.92702940  0.66161610  0.63877920  1
  O  O10  1  0.42354235  0.88548998  0.60692231  1
  O  O11  1  0.07645765  0.88548998  0.89307769  1
  O  O12  1  0.57645765  0.11451002  0.39307769  1
  O  O13  1  0.92354235  0.11451002  0.10692231  1
  O  O14  1  0.86477351  0.60184685  0.12116830  1
  O  O15  1  0.63522649  0.60184685  0.37883170  1
  O  O16  1  0.13522649  0.39815415  0.87883170  1
  O  O17  1  0.36477351  0.39815415  0.62116830  1
  O  O18  1  0.43733958  0.89155131  0.11069707  1
  O  O19  1  0.56266042  0.10844969  0.88930293  1
  O  O20  1  0.06266142  0.89155131  0.38930393  1
  O  O21  1  0.93733858  0.10844969  0.61069607  1
