# generated using pymatgen
data_Rb3PrCl6
_symmetry_space_group_name_H-M   'P 1'
_cell_length_a   8.15619180
_cell_length_b   13.23991375
_cell_length_c   13.92524641
_cell_angle_alpha   98.97699274
_cell_angle_beta   107.02903512
_cell_angle_gamma   90.00000000
_symmetry_Int_Tables_number   1
_chemical_formula_structural   Rb3PrCl6
_chemical_formula_sum   'Rb12 Pr4 Cl24'
_cell_volume   1418.54462082
_cell_formula_units_Z   4
loop_
 _symmetry_equiv_pos_site_id
 _symmetry_equiv_pos_as_xyz
  1  'x, y, z'
loop_
 _atom_site_type_symbol
 _atom_site_label
 _atom_site_symmetry_multiplicity
 _atom_site_fract_x
 _atom_site_fract_y
 _atom_site_fract_z
 _atom_site_occupancy
  Rb  Rb0  1  0.69845610  0.06631238  0.90064893  1
  Rb  Rb1  1  0.30154390  0.93368762  0.09935107  1
  Rb  Rb2  1  0.79780716  0.43368762  0.09935107  1
  Rb  Rb3  1  0.20219284  0.56631238  0.90064893  1
  Rb  Rb4  1  0.53504391  0.35651134  0.69215005  1
  Rb  Rb5  1  0.46495609  0.64348866  0.30784995  1
  Rb  Rb6  1  0.84289385  0.14348866  0.30784995  1
  Rb  Rb7  1  0.15710615  0.85651134  0.69215005  1
  Rb  Rb8  1  0.34907712  0.30022497  0.32399390  1
  Rb  Rb9  1  0.65092288  0.69977503  0.67600610  1
  Rb  Rb10  1  0.02508322  0.19977503  0.67600610  1
  Rb  Rb11  1  0.97491678  0.80022497  0.32399390  1
  Pr  Pr12  1  0.21675872  0.25000000  -0.00000000  1
  Pr  Pr13  1  0.78324128  0.75000000  -0.00000000  1
  Pr  Pr14  1  0.50000000  -0.00000000  0.50000000  1
  Pr  Pr15  1  -0.00000000  0.50000000  0.50000000  1
  Cl  Cl16  1  0.37615357  0.08155082  0.66045657  1
  Cl  Cl17  1  0.62384643  0.91844918  0.33954343  1
  Cl  Cl18  1  0.71569700  0.41844918  0.33954343  1
  Cl  Cl19  1  0.28430300  0.58155082  0.66045657  1
  Cl  Cl20  1  0.50779591  0.17361880  0.12178367  1
  Cl  Cl21  1  0.49220409  0.82638120  0.87821633  1
  Cl  Cl22  1  0.38601223  0.32638120  0.87821633  1
  Cl  Cl23  1  0.61398777  0.67361880  0.12178367  1
  Cl  Cl24  1  0.20879003  0.03307692  0.34873228  1
  Cl  Cl25  1  0.79120997  0.96692308  0.65126772  1
  Cl  Cl26  1  0.86005776  0.46692308  0.65126772  1
  Cl  Cl27  1  0.13994224  0.53307692  0.34873228  1
  Cl  Cl28  1  0.09920245  0.70046358  0.12286473  1
  Cl  Cl29  1  0.90079755  0.29953642  0.87713527  1
  Cl  Cl30  1  0.97633772  0.79953642  0.87713527  1
  Cl  Cl31  1  0.02366228  0.20046358  0.12286473  1
  Cl  Cl32  1  0.28408865  0.43994127  0.11745377  1
  Cl  Cl33  1  0.71591135  0.56005873  0.88254623  1
  Cl  Cl34  1  0.16663488  0.06005873  0.88254623  1
  Cl  Cl35  1  0.83336512  0.93994127  0.11745377  1
  Cl  Cl36  1  0.64483383  0.19075391  0.49877781  1
  Cl  Cl37  1  0.35516617  0.80924609  0.50122219  1
  Cl  Cl38  1  0.14605602  0.30924609  0.50122219  1
  Cl  Cl39  1  0.85394398  0.69075391  0.49877781  1
