# generated using pymatgen
data_NaLaSiO4
_symmetry_space_group_name_H-M   'P 1'
_cell_length_a   5.50415515
_cell_length_b   7.14629368
_cell_length_c   9.61051729
_cell_angle_alpha   90.00000000
_cell_angle_beta   90.00000000
_cell_angle_gamma   90.00000000
_symmetry_Int_Tables_number   1
_chemical_formula_structural   NaLaSiO4
_chemical_formula_sum   'Na4 La4 Si4 O16'
_cell_volume   378.02305829
_cell_formula_units_Z   4
loop_
 _symmetry_equiv_pos_site_id
 _symmetry_equiv_pos_as_xyz
  1  'x, y, z'
loop_
 _atom_site_type_symbol
 _atom_site_label
 _atom_site_symmetry_multiplicity
 _atom_site_fract_x
 _atom_site_fract_y
 _atom_site_fract_z
 _atom_site_occupancy
  Na  Na0  1  0.75000000  0.83129888  0.57994034  1
  Na  Na1  1  0.25000000  0.16870112  0.42005966  1
  Na  Na2  1  0.25000000  0.66870112  0.07994034  1
  Na  Na3  1  0.75000000  0.33129888  0.92005966  1
  La  La4  1  0.75000000  0.50894667  0.30655430  1
  La  La5  1  0.25000000  0.49105333  0.69344570  1
  La  La6  1  0.25000000  0.99105333  0.80655430  1
  La  La7  1  0.75000000  0.00894667  0.19344570  1
  Si  Si8  1  0.75000000  0.76575952  0.91904857  1
  Si  Si9  1  0.25000000  0.23424048  0.08095143  1
  Si  Si10  1  0.25000000  0.73424048  0.41904857  1
  Si  Si11  1  0.75000000  0.26575952  0.58095143  1
  O  O12  1  0.99627434  0.69499875  0.83905572  1
  O  O13  1  0.00372566  0.30500125  0.16094428  1
  O  O14  1  0.00372566  0.80500125  0.33905572  1
  O  O15  1  0.49627434  0.30500125  0.16094428  1
  O  O16  1  0.99627434  0.19499875  0.66094428  1
  O  O17  1  0.50372566  0.69499875  0.83905572  1
  O  O18  1  0.50372566  0.19499875  0.66094428  1
  O  O19  1  0.49627434  0.80500125  0.33905572  1
  O  O20  1  0.75000000  0.99721225  0.92373936  1
  O  O21  1  0.25000000  0.00278775  0.07626064  1
  O  O22  1  0.25000000  0.50278775  0.42373936  1
  O  O23  1  0.75000000  0.49721225  0.57626064  1
  O  O24  1  0.75000000  0.18943380  0.41846805  1
  O  O25  1  0.25000000  0.81056620  0.58153195  1
  O  O26  1  0.25000000  0.31056620  0.91846805  1
  O  O27  1  0.75000000  0.68943380  0.08153195  1
