# generated using pymatgen
data_MgGaH5
_symmetry_space_group_name_H-M   'P 1'
_cell_length_a   6.61402621
_cell_length_b   6.99485191
_cell_length_c   7.90368222
_cell_angle_alpha   90.00000000
_cell_angle_beta   89.63842093
_cell_angle_gamma   90.00000000
_symmetry_Int_Tables_number   1
_chemical_formula_structural   MgGaH5
_chemical_formula_sum   'Mg4 Ga4 H20'
_cell_volume   365.64973108
_cell_formula_units_Z   4
loop_
 _symmetry_equiv_pos_site_id
 _symmetry_equiv_pos_as_xyz
  1  'x, y, z'
loop_
 _atom_site_type_symbol
 _atom_site_label
 _atom_site_symmetry_multiplicity
 _atom_site_fract_x
 _atom_site_fract_y
 _atom_site_fract_z
 _atom_site_occupancy
  Mg  Mg0  1  0.24665488  0.13115868  0.25715946  1
  Mg  Mg1  1  0.75334512  0.86884132  0.74284054  1
  Mg  Mg2  1  0.25334512  0.63115868  0.24284054  1
  Mg  Mg3  1  0.74665488  0.36884132  0.75715946  1
  Ga  Ga4  1  0.75278902  0.12434489  0.38235070  1
  Ga  Ga5  1  0.24721098  0.87565511  0.61764930  1
  Ga  Ga6  1  0.74721098  0.62434489  0.11764930  1
  Ga  Ga7  1  0.25278902  0.37565511  0.88235070  1
  H  H8  1  0.73264419  0.43083258  0.00762948  1
  H  H9  1  0.26735581  0.56916742  0.99237052  1
  H  H10  1  0.76735581  0.93083258  0.49237052  1
  H  H11  1  0.23264419  0.06916742  0.50762948  1
  H  H12  1  0.94045270  0.13307183  0.25430914  1
  H  H13  1  0.05954730  0.86692817  0.74569086  1
  H  H14  1  0.55954730  0.63307183  0.24569086  1
  H  H15  1  0.44045270  0.36692817  0.75430914  1
  H  H16  1  0.94661479  0.61790876  0.22900333  1
  H  H17  1  0.05338521  0.38209124  0.77099667  1
  H  H18  1  0.55338521  0.11790876  0.27099667  1
  H  H19  1  0.44661479  0.88209124  0.72900333  1
  H  H20  1  0.25243073  0.38321684  0.31341654  1
  H  H21  1  0.74756927  0.61678316  0.68658346  1
  H  H22  1  0.24756927  0.88321684  0.18658346  1
  H  H23  1  0.75243073  0.11678316  0.81341654  1
  H  H24  1  0.25250620  0.19069812  0.00297890  1
  H  H25  1  0.74749380  0.80930188  0.99702110  1
  H  H26  1  0.24749380  0.69069812  0.49702110  1
  H  H27  1  0.75250620  0.30930188  0.50297890  1
