# generated using pymatgen
data_KEr(MoO4)2
_symmetry_space_group_name_H-M   'P 1'
_cell_length_a   7.46983971
_cell_length_b   7.46983971
_cell_length_c   7.72612523
_cell_angle_alpha   61.67989148
_cell_angle_beta   61.67989148
_cell_angle_gamma   87.78341913
_symmetry_Int_Tables_number   1
_chemical_formula_structural   KEr(MoO4)2
_chemical_formula_sum   'K2 Er2 Mo4 O16'
_cell_volume   324.27885243
_cell_formula_units_Z   2
loop_
 _symmetry_equiv_pos_site_id
 _symmetry_equiv_pos_as_xyz
  1  'x, y, z'
loop_
 _atom_site_type_symbol
 _atom_site_label
 _atom_site_symmetry_multiplicity
 _atom_site_fract_x
 _atom_site_fract_y
 _atom_site_fract_z
 _atom_site_occupancy
  K  K0  1  0.80053274  0.19946726  0.75000000  1
  K  K1  1  0.19946726  0.80053274  0.25000000  1
  Er  Er2  1  0.22881558  0.77118442  0.75000000  1
  Er  Er3  1  0.77118442  0.22881558  0.25000000  1
  Mo  Mo4  1  0.30421302  0.30141351  0.73893279  1
  Mo  Mo5  1  0.69578698  0.69858649  0.26106721  1
  Mo  Mo6  1  0.69858649  0.69578698  0.76106721  1
  Mo  Mo7  1  0.30141351  0.30421302  0.23893279  1
  O  O8  1  0.38741631  0.22830317  0.94089946  1
  O  O9  1  0.61258369  0.77169683  0.05910054  1
  O  O10  1  0.77169683  0.61258369  0.55910054  1
  O  O11  1  0.22830317  0.38741631  0.44089946  1
  O  O12  1  0.61866116  0.93459902  0.62063202  1
  O  O13  1  0.38133884  0.06540098  0.37936798  1
  O  O14  1  0.06540098  0.38133884  0.87936798  1
  O  O15  1  0.93459902  0.61866116  0.12063202  1
  O  O16  1  0.41306059  0.63282780  0.53188252  1
  O  O17  1  0.58693941  0.36717220  0.46811748  1
  O  O18  1  0.36717220  0.58693941  0.96811748  1
  O  O19  1  0.63282780  0.41306059  0.03188252  1
  O  O20  1  0.20677959  0.04431986  0.80834445  1
  O  O21  1  0.79322041  0.95568014  0.19165555  1
  O  O22  1  0.95568014  0.79322041  0.69165555  1
  O  O23  1  0.04431986  0.20677959  0.30834445  1
