# generated using pymatgen
data_MnAg2SnS4
_symmetry_space_group_name_H-M   'P 1'
_cell_length_a   6.78674204
_cell_length_b   7.19842730
_cell_length_c   8.00196307
_cell_angle_alpha   90.00000000
_cell_angle_beta   90.00000000
_cell_angle_gamma   90.00000000
_symmetry_Int_Tables_number   1
_chemical_formula_structural   MnAg2SnS4
_chemical_formula_sum   'Mn2 Ag4 Sn2 S8'
_cell_volume   390.92685700
_cell_formula_units_Z   2
loop_
 _symmetry_equiv_pos_site_id
 _symmetry_equiv_pos_as_xyz
  1  'x, y, z'
loop_
 _atom_site_type_symbol
 _atom_site_label
 _atom_site_symmetry_multiplicity
 _atom_site_fract_x
 _atom_site_fract_y
 _atom_site_fract_z
 _atom_site_occupancy
  Mn  Mn0  1  0.50519722  0.34582779  0.00000000  1
  Mn  Mn1  1  0.00519722  0.65417221  0.50000000  1
  Ag  Ag2  1  0.51735118  0.82752942  0.75177834  1
  Ag  Ag3  1  0.01735118  0.17247058  0.74822166  1
  Ag  Ag4  1  0.01735118  0.17247058  0.25177834  1
  Ag  Ag5  1  0.51735118  0.82752942  0.24822166  1
  Sn  Sn6  1  0.00115359  0.66104060  0.00000000  1
  Sn  Sn7  1  0.50115359  0.33895940  0.50000000  1
  S  S8  1  0.85987510  0.34858537  0.00000000  1
  S  S9  1  0.35987510  0.65141463  0.50000000  1
  S  S10  1  0.89432877  0.82866418  0.74641502  1
  S  S11  1  0.39432877  0.17133582  0.75358498  1
  S  S12  1  0.39432877  0.17133582  0.24641502  1
  S  S13  1  0.89432877  0.82866418  0.25358498  1
  S  S14  1  0.36291420  0.65119069  -0.00000000  1
  S  S15  1  0.86291420  0.34880931  0.50000000  1
