# generated using pymatgen
data_Nd6AlFe13
_symmetry_space_group_name_H-M   'P 1'
_cell_length_a   8.01726492
_cell_length_b   8.01726492
_cell_length_c   12.87400538
_cell_angle_alpha   108.14206258
_cell_angle_beta   108.14206258
_cell_angle_gamma   90.00000000
_symmetry_Int_Tables_number   1
_chemical_formula_structural   Nd6AlFe13
_chemical_formula_sum   'Nd12 Al2 Fe26'
_cell_volume   742.94820195
_cell_formula_units_Z   2
loop_
 _symmetry_equiv_pos_site_id
 _symmetry_equiv_pos_as_xyz
  1  'x, y, z'
loop_
 _atom_site_type_symbol
 _atom_site_label
 _atom_site_symmetry_multiplicity
 _atom_site_fract_x
 _atom_site_fract_y
 _atom_site_fract_z
 _atom_site_occupancy
  Nd  Nd0  1  0.10666675  0.10666675  0.21333350  1
  Nd  Nd1  1  0.89333325  0.89333325  0.78666650  1
  Nd  Nd2  1  0.39333325  0.39333325  0.78666650  1
  Nd  Nd3  1  0.60666675  0.60666675  0.21333350  1
  Nd  Nd4  1  0.35096810  0.85096810  0.37383690  1
  Nd  Nd5  1  0.64903190  0.14903190  0.62616310  1
  Nd  Nd6  1  0.02286880  0.52286880  0.37383690  1
  Nd  Nd7  1  0.52286880  0.35096810  0.37383690  1
  Nd  Nd8  1  0.14903190  0.97713120  0.62616310  1
  Nd  Nd9  1  0.97713120  0.47713120  0.62616310  1
  Nd  Nd10  1  0.47713120  0.64903190  0.62616310  1
  Nd  Nd11  1  0.85096810  0.02286880  0.37383690  1
  Al  Al12  1  0.25000000  0.25000000  0.50000000  1
  Al  Al13  1  0.75000000  0.75000000  0.50000000  1
  Fe  Fe14  1  0.06765063  0.20951139  -0.00000000  1
  Fe  Fe15  1  0.93234937  0.79048861  -0.00000000  1
  Fe  Fe16  1  0.79048861  0.06765063  -0.00000000  1
  Fe  Fe17  1  0.43234937  0.70951139  -0.00000000  1
  Fe  Fe18  1  0.20951139  0.93234937  -0.00000000  1
  Fe  Fe19  1  0.56765063  0.29048861  -0.00000000  1
  Fe  Fe20  1  0.70951139  0.56765063  -0.00000000  1
  Fe  Fe21  1  0.29048861  0.43234937  -0.00000000  1
  Fe  Fe22  1  -0.00000000  0.50000000  -0.00000000  1
  Fe  Fe23  1  0.50000000  0.00000000  -0.00000000  1
  Fe  Fe24  1  0.70863781  0.20863781  0.18953717  1
  Fe  Fe25  1  0.29136219  0.79136219  0.81046283  1
  Fe  Fe26  1  0.48089936  0.98089936  0.18953717  1
  Fe  Fe27  1  0.98089936  0.70863781  0.18953717  1
  Fe  Fe28  1  0.79136219  0.51910064  0.81046283  1
  Fe  Fe29  1  0.51910064  0.01910064  0.81046283  1
  Fe  Fe30  1  0.01910064  0.29136219  0.81046283  1
  Fe  Fe31  1  0.20863781  0.48089936  0.18953717  1
  Fe  Fe32  1  0.23704895  0.73704895  0.11870714  1
  Fe  Fe33  1  0.76295105  0.26295105  0.88129286  1
  Fe  Fe34  1  0.88165819  0.38165819  0.11870714  1
  Fe  Fe35  1  0.38165819  0.23704895  0.11870714  1
  Fe  Fe36  1  0.26295105  0.11834181  0.88129286  1
  Fe  Fe37  1  0.11834181  0.61834181  0.88129286  1
  Fe  Fe38  1  0.61834181  0.76295105  0.88129286  1
  Fe  Fe39  1  0.73704895  0.88165819  0.11870714  1
