# generated using pymatgen
data_La4Al51W7
_symmetry_space_group_name_H-M   'P 1'
_cell_length_a   10.45640832
_cell_length_b   10.45640832
_cell_length_c   11.78218472
_cell_angle_alpha   90.00000000
_cell_angle_beta   90.00000000
_cell_angle_gamma   120.00000041
_symmetry_Int_Tables_number   1
_chemical_formula_structural   La4Al51W7
_chemical_formula_sum   'La4 Al51 W7'
_cell_volume   1115.63344568
_cell_formula_units_Z   1
loop_
 _symmetry_equiv_pos_site_id
 _symmetry_equiv_pos_as_xyz
  1  'x, y, z'
loop_
 _atom_site_type_symbol
 _atom_site_label
 _atom_site_symmetry_multiplicity
 _atom_site_fract_x
 _atom_site_fract_y
 _atom_site_fract_z
 _atom_site_occupancy
  La  La0  1  0.66666700  0.33333300  0.57895333  1
  La  La1  1  0.33333300  0.66666700  0.42104667  1
  La  La2  1  0.66666700  0.33333300  0.90805008  1
  La  La3  1  0.33333300  0.66666700  0.09194992  1
  Al  Al4  1  0.90795734  0.81591467  0.60005175  1
  Al  Al5  1  0.09204266  0.18408533  0.39994825  1
  Al  Al6  1  0.90795734  0.09204266  0.60005175  1
  Al  Al7  1  0.09204266  0.90795734  0.39994825  1
  Al  Al8  1  0.18408533  0.09204266  0.60005175  1
  Al  Al9  1  0.81591467  0.90795734  0.39994825  1
  Al  Al10  1  0.42257958  0.84515915  0.65598279  1
  Al  Al11  1  0.57742042  0.15484085  0.34401721  1
  Al  Al12  1  0.42257958  0.57742042  0.65598279  1
  Al  Al13  1  0.57742042  0.42257958  0.34401721  1
  Al  Al14  1  0.15484085  0.57742042  0.65598279  1
  Al  Al15  1  0.84515915  0.42257958  0.34401721  1
  Al  Al16  1  0.84441357  0.68882714  0.95561706  1
  Al  Al17  1  0.15558643  0.31117286  0.04438294  1
  Al  Al18  1  0.84441357  0.15558643  0.95561706  1
  Al  Al19  1  0.15558643  0.84441357  0.04438294  1
  Al  Al20  1  0.31117286  0.15558643  0.95561706  1
  Al  Al21  1  0.68882714  0.84441357  0.04438294  1
  Al  Al22  1  0.09142273  0.18284547  0.83074578  1
  Al  Al23  1  0.90857727  0.81715453  0.16925422  1
  Al  Al24  1  0.09142273  0.90857727  0.83074578  1
  Al  Al25  1  0.90857727  0.09142273  0.16925422  1
  Al  Al26  1  0.81715453  0.90857727  0.83074578  1
  Al  Al27  1  0.18284547  0.09142273  0.16925422  1
  Al  Al28  1  0.24262866  0.48525732  0.85853048  1
  Al  Al29  1  0.75737134  0.51474268  0.14146952  1
  Al  Al30  1  0.24262866  0.75737134  0.85853048  1
  Al  Al31  1  0.75737134  0.24262866  0.14146952  1
  Al  Al32  1  0.51474268  0.75737134  0.85853048  1
  Al  Al33  1  0.48525732  0.24262866  0.14146952  1
  Al  Al34  1  0.50000000  0.50000000  -0.00000000  1
  Al  Al35  1  0.00000000  0.50000000  -0.00000000  1
  Al  Al36  1  0.50000000  0.00000000  -0.00000000  1
  Al  Al37  1  0.92905059  0.33003612  0.75449370  1
  Al  Al38  1  0.07094941  0.66996388  0.24550630  1
  Al  Al39  1  0.40098553  0.07094941  0.75449370  1
  Al  Al40  1  0.59901447  0.66996388  0.24550630  1
  Al  Al41  1  0.59901447  0.92905059  0.24550630  1
  Al  Al42  1  0.40098553  0.33003612  0.75449370  1
  Al  Al43  1  0.66996388  0.59901447  0.75449370  1
  Al  Al44  1  0.33003612  0.92905059  0.24550630  1
  Al  Al45  1  0.33003612  0.40098553  0.24550630  1
  Al  Al46  1  0.66996388  0.07094941  0.75449370  1
  Al  Al47  1  0.07094941  0.40098553  0.24550630  1
  Al  Al48  1  0.92905059  0.59901447  0.75449370  1
  Al  Al49  1  0.63409314  0.63409314  0.50000000  1
  Al  Al50  1  0.36590686  0.36590686  0.50000000  1
  Al  Al51  1  1.00000000  0.36590686  0.50000000  1
  Al  Al52  1  0.00000000  0.63409314  0.50000000  1
  Al  Al53  1  0.36590686  1.00000000  0.50000000  1
  Al  Al54  1  0.63409314  0.00000000  0.50000000  1
  W  W55  1  0.16843285  0.33686570  0.65607679  1
  W  W56  1  0.83156715  0.66313430  0.34392321  1
  W  W57  1  0.16843285  0.83156715  0.65607679  1
  W  W58  1  0.83156715  0.16843285  0.34392321  1
  W  W59  1  0.66313430  0.83156715  0.65607679  1
  W  W60  1  0.33686570  0.16843285  0.34392321  1
  W  W61  1  0.00000000  0.00000000  -0.00000000  1
