# generated using pymatgen
data_Pr2Sn3(PbS4)3
_symmetry_space_group_name_H-M   'P 1'
_cell_length_a   4.00415463
_cell_length_b   11.75165577
_cell_length_c   20.62069449
_cell_angle_alpha   90.00000000
_cell_angle_beta   90.00000000
_cell_angle_gamma   90.00000000
_symmetry_Int_Tables_number   1
_chemical_formula_structural   Pr2Sn3(PbS4)3
_chemical_formula_sum   'Pr4 Sn6 Pb6 S24'
_cell_volume   970.31599382
_cell_formula_units_Z   2
loop_
 _symmetry_equiv_pos_site_id
 _symmetry_equiv_pos_as_xyz
  1  'x, y, z'
loop_
 _atom_site_type_symbol
 _atom_site_label
 _atom_site_symmetry_multiplicity
 _atom_site_fract_x
 _atom_site_fract_y
 _atom_site_fract_z
 _atom_site_occupancy
  Pr  Pr0  1  0.50000000  0.65175324  0.41238428  1
  Pr  Pr1  1  0.50000000  0.15175324  0.58761572  1
  Pr  Pr2  1  0.50000000  0.82430164  0.89480107  1
  Pr  Pr3  1  0.50000000  0.32430164  0.10519893  1
  Sn  Sn4  1  -0.00000000  0.00122748  0.74990529  1
  Sn  Sn5  1  -0.00000000  0.50122748  0.25009471  1
  Sn  Sn6  1  0.00000000  0.51797332  0.91124677  1
  Sn  Sn7  1  0.00000000  0.01797332  0.08875323  1
  Sn  Sn8  1  -0.00000000  0.99488304  0.42345494  1
  Sn  Sn9  1  -0.00000000  0.49488304  0.57654506  1
  Pb  Pb10  1  0.50000000  0.40358287  0.74305621  1
  Pb  Pb11  1  0.50000000  0.90358287  0.25694379  1
  Pb  Pb12  1  0.50000000  0.19746109  0.91243632  1
  Pb  Pb13  1  0.50000000  0.69746109  0.08756368  1
  Pb  Pb14  1  0.50000000  0.76981157  0.62326600  1
  Pb  Pb15  1  0.50000000  0.26981157  0.37673400  1
  S  S16  1  0.00000000  0.99781386  0.87455213  1
  S  S17  1  -0.00000000  0.49781386  0.12544787  1
  S  S18  1  -0.00000000  0.98032044  0.62743270  1
  S  S19  1  0.00000000  0.48032044  0.37256730  1
  S  S20  1  0.00000000  0.68387358  0.51397742  1
  S  S21  1  -0.00000000  0.18387358  0.48602258  1
  S  S22  1  0.50000000  0.64434874  0.25689228  1
  S  S23  1  0.50000000  0.14434874  0.74310772  1
  S  S24  1  0.50000000  0.85136954  0.75570435  1
  S  S25  1  0.50000000  0.35136954  0.24429565  1
  S  S26  1  0.50000000  0.59695133  0.84055650  1
  S  S27  1  0.50000000  0.09695133  0.15944350  1
  S  S28  1  0.50000000  0.44106351  0.98087631  1
  S  S29  1  0.50000000  0.94106351  0.01912369  1
  S  S30  1  0.50000000  0.93473650  0.48732938  1
  S  S31  1  0.50000000  0.43473650  0.51267062  1
  S  S32  1  0.00000000  0.33794478  0.84263353  1
  S  S33  1  0.00000000  0.83794478  0.15736647  1
  S  S34  1  0.00000000  0.70847103  0.97203739  1
  S  S35  1  0.00000000  0.20847103  0.02796261  1
  S  S36  1  -0.00000000  0.80933499  0.35692889  1
  S  S37  1  -0.00000000  0.30933499  0.64307111  1
  S  S38  1  -0.00000000  0.60207744  0.67799893  1
  S  S39  1  -0.00000000  0.10207744  0.32200107  1
