# generated using pymatgen
data_KTm(MoO4)2
_symmetry_space_group_name_H-M   'P 1'
_cell_length_a   7.44586277
_cell_length_b   7.44586277
_cell_length_c   7.69646663
_cell_angle_alpha   61.72706794
_cell_angle_beta   61.72706794
_cell_angle_gamma   87.78781618
_symmetry_Int_Tables_number   1
_chemical_formula_structural   KTm(MoO4)2
_chemical_formula_sum   'K2 Tm2 Mo4 O16'
_cell_volume   321.33012656
_cell_formula_units_Z   2
loop_
 _symmetry_equiv_pos_site_id
 _symmetry_equiv_pos_as_xyz
  1  'x, y, z'
loop_
 _atom_site_type_symbol
 _atom_site_label
 _atom_site_symmetry_multiplicity
 _atom_site_fract_x
 _atom_site_fract_y
 _atom_site_fract_z
 _atom_site_occupancy
  K  K0  1  0.80030917  0.19969083  0.75000000  1
  K  K1  1  0.19969083  0.80030917  0.25000000  1
  Tm  Tm2  1  0.22872065  0.77127935  0.75000000  1
  Tm  Tm3  1  0.77127935  0.22872065  0.25000000  1
  Mo  Mo4  1  0.30325588  0.30158463  0.73841753  1
  Mo  Mo5  1  0.69674412  0.69841537  0.26158247  1
  Mo  Mo6  1  0.69841537  0.69674412  0.76158247  1
  Mo  Mo7  1  0.30158463  0.30325588  0.23841753  1
  O  O8  1  0.38757135  0.22911738  0.94091866  1
  O  O9  1  0.61242865  0.77088262  0.05908134  1
  O  O10  1  0.77088262  0.61242865  0.55908134  1
  O  O11  1  0.22911738  0.38757135  0.44091866  1
  O  O12  1  0.61852995  0.93613040  0.61958788  1
  O  O13  1  0.38147005  0.06386960  0.38041212  1
  O  O14  1  0.06386960  0.38147005  0.88041212  1
  O  O15  1  0.93613040  0.61852995  0.11958788  1
  O  O16  1  0.41224599  0.63346770  0.53259851  1
  O  O17  1  0.58775401  0.36653230  0.46740149  1
  O  O18  1  0.36653230  0.58775401  0.96740149  1
  O  O19  1  0.63346770  0.41224599  0.03259851  1
  O  O20  1  0.20712546  0.04313525  0.80819717  1
  O  O21  1  0.79287454  0.95686475  0.19180283  1
  O  O22  1  0.95686475  0.79287454  0.69180283  1
  O  O23  1  0.04313525  0.20712546  0.30819717  1
