# generated using pymatgen
data_Lu2Be2SiO7
_symmetry_space_group_name_H-M   'P 1'
_cell_length_a   4.72447604
_cell_length_b   7.23835910
_cell_length_c   7.23835910
_cell_angle_alpha   90.00000000
_cell_angle_beta   90.00000000
_cell_angle_gamma   90.00000000
_symmetry_Int_Tables_number   1
_chemical_formula_structural   Lu2Be2SiO7
_chemical_formula_sum   'Lu4 Be4 Si2 O14'
_cell_volume   247.53345335
_cell_formula_units_Z   2
loop_
 _symmetry_equiv_pos_site_id
 _symmetry_equiv_pos_as_xyz
  1  'x, y, z'
loop_
 _atom_site_type_symbol
 _atom_site_label
 _atom_site_symmetry_multiplicity
 _atom_site_fract_x
 _atom_site_fract_y
 _atom_site_fract_z
 _atom_site_occupancy
  Lu  Lu0  1  0.51238559  0.15727209  0.65727209  1
  Lu  Lu1  1  0.51238559  0.84272791  0.34272791  1
  Lu  Lu2  1  0.48761441  0.65727209  0.84272791  1
  Lu  Lu3  1  0.48761441  0.34272791  0.15727209  1
  Be  Be4  1  0.95568082  0.63728659  0.13728659  1
  Be  Be5  1  0.95568082  0.36271341  0.86271341  1
  Be  Be6  1  0.04431918  0.13728659  0.36271341  1
  Be  Be7  1  0.04431918  0.86271341  0.63728659  1
  Si  Si8  1  -0.00000000  0.00000000  -0.00000000  1
  Si  Si9  1  -0.00000000  0.50000000  0.50000000  1
  O  O10  1  0.19162479  0.00000000  0.50000000  1
  O  O11  1  0.80837521  0.50000000  -0.00000000  1
  O  O12  1  0.29278882  0.64068555  0.14068555  1
  O  O13  1  0.29278882  0.35931445  0.85931445  1
  O  O14  1  0.70721118  0.14068555  0.35931445  1
  O  O15  1  0.70721118  0.85931445  0.64068555  1
  O  O16  1  0.20603232  0.08452205  0.16158077  1
  O  O17  1  0.20603232  0.91547795  0.83841923  1
  O  O18  1  0.79396768  0.16158077  0.91547795  1
  O  O19  1  0.79396768  0.41547795  0.66158077  1
  O  O20  1  0.79396768  0.83841923  0.08452205  1
  O  O21  1  0.79396768  0.58452205  0.33841923  1
  O  O22  1  0.20603232  0.33841923  0.41547795  1
  O  O23  1  0.20603232  0.66158077  0.58452205  1
