# generated using pymatgen
data_Mo3(AsO4)4
_symmetry_space_group_name_H-M   'P 1'
_cell_length_a   4.94292015
_cell_length_b   8.76611842
_cell_length_c   16.89436730
_cell_angle_alpha   111.90033389
_cell_angle_beta   90.00000000
_cell_angle_gamma   90.00000000
_symmetry_Int_Tables_number   1
_chemical_formula_structural   Mo3(AsO4)4
_chemical_formula_sum   'Mo6 As8 O32'
_cell_volume   679.20860622
_cell_formula_units_Z   2
loop_
 _symmetry_equiv_pos_site_id
 _symmetry_equiv_pos_as_xyz
  1  'x, y, z'
loop_
 _atom_site_type_symbol
 _atom_site_label
 _atom_site_symmetry_multiplicity
 _atom_site_fract_x
 _atom_site_fract_y
 _atom_site_fract_z
 _atom_site_occupancy
  Mo  Mo0  1  0.05211335  0.33314657  0.11449159  1
  Mo  Mo1  1  0.94788665  0.66685343  0.88550841  1
  Mo  Mo2  1  0.55211335  0.16685343  0.38550841  1
  Mo  Mo3  1  0.44788665  0.83314657  0.61449159  1
  Mo  Mo4  1  0.50000000  0.50000000  0.00000000  1
  Mo  Mo5  1  -0.00000000  0.00000000  0.50000000  1
  As  As6  1  0.48550257  0.02187282  0.83418216  1
  As  As7  1  0.02661560  0.28784806  0.89494231  1
  As  As8  1  0.52661560  0.21215194  0.60505769  1
  As  As9  1  0.47338440  0.78784806  0.39494231  1
  As  As10  1  0.51449743  0.97812718  0.16581784  1
  As  As11  1  0.97338440  0.71215194  0.10505769  1
  As  As12  1  0.01449743  0.52187282  0.33418216  1
  As  As13  1  0.98550257  0.47812718  0.66581784  1
  O  O14  1  0.10061294  0.54840662  0.77366945  1
  O  O15  1  0.71909887  0.20545131  0.51265035  1
  O  O16  1  0.25838812  0.18753905  0.81417051  1
  O  O17  1  0.13844956  0.78005528  0.64477768  1
  O  O18  1  0.74161188  0.81246095  0.18582949  1
  O  O19  1  0.39938706  0.04840662  0.27366945  1
  O  O20  1  0.75838812  0.31246095  0.68582949  1
  O  O21  1  0.75130916  0.91527402  0.39127376  1
  O  O22  1  0.70278237  0.62262888  0.38782950  1
  O  O23  1  0.89938706  0.45159338  0.22633055  1
  O  O24  1  0.36155044  0.28005528  0.14477768  1
  O  O25  1  0.24869084  0.08472598  0.60872624  1
  O  O26  1  0.21179044  0.50735884  0.92179246  1
  O  O27  1  0.29721763  0.37737112  0.61217050  1
  O  O28  1  0.86952945  0.15456797  0.07667446  1
  O  O29  1  0.36952945  0.34543203  0.42332554  1
  O  O30  1  0.71179044  0.99264116  0.57820754  1
  O  O31  1  0.24161188  0.68753905  0.31417051  1
  O  O32  1  0.20278237  0.87737112  0.11217050  1
  O  O33  1  0.25130916  0.58472598  0.10872624  1
  O  O34  1  0.63047055  0.65456797  0.57667446  1
  O  O35  1  0.13047055  0.84543203  0.92332554  1
  O  O36  1  0.28090113  0.79454869  0.48734965  1
  O  O37  1  0.21909887  0.29454869  0.98734965  1
  O  O38  1  0.78820956  0.49264116  0.07820754  1
  O  O39  1  0.60061294  0.95159338  0.72633055  1
  O  O40  1  0.86155044  0.21994472  0.35522232  1
  O  O41  1  0.79721763  0.12262888  0.88782950  1
  O  O42  1  0.78090113  0.70545131  0.01265035  1
  O  O43  1  0.74869084  0.41527402  0.89127376  1
  O  O44  1  0.28820956  0.00735884  0.42179246  1
  O  O45  1  0.63844956  0.71994472  0.85522232  1
