# generated using pymatgen
data_KLiEr2(MoO4)4
_symmetry_space_group_name_H-M   'P 1'
_cell_length_a   5.24560993
_cell_length_b   6.86375987
_cell_length_c   19.57515912
_cell_angle_alpha   88.76376842
_cell_angle_beta   86.76336876
_cell_angle_gamma   67.53470764
_symmetry_Int_Tables_number   1
_chemical_formula_structural   KLiEr2(MoO4)4
_chemical_formula_sum   'K2 Li2 Er4 Mo8 O32'
_cell_volume   650.27085545
_cell_formula_units_Z   2
loop_
 _symmetry_equiv_pos_site_id
 _symmetry_equiv_pos_as_xyz
  1  'x, y, z'
loop_
 _atom_site_type_symbol
 _atom_site_label
 _atom_site_symmetry_multiplicity
 _atom_site_fract_x
 _atom_site_fract_y
 _atom_site_fract_z
 _atom_site_occupancy
  K  K0  1  0.46904263  0.06191474  0.75000000  1
  K  K1  1  0.53095737  0.93808526  0.25000000  1
  Li  Li2  1  0.18669520  0.62660961  0.75000000  1
  Li  Li3  1  0.81330480  0.37339039  0.25000000  1
  Er  Er4  1  0.35188312  0.29383780  0.96815168  1
  Er  Er5  1  0.64811688  0.70616220  0.03184832  1
  Er  Er6  1  0.35427909  0.29383780  0.53184832  1
  Er  Er7  1  0.64572091  0.70616220  0.46815168  1
  Mo  Mo8  1  0.08162364  0.87530212  0.90835585  1
  Mo  Mo9  1  0.91837636  0.12469788  0.09164415  1
  Mo  Mo10  1  0.04307424  0.87530212  0.59164415  1
  Mo  Mo11  1  0.95692576  0.12469788  0.40835585  1
  Mo  Mo12  1  0.76868237  0.48426200  0.85259374  1
  Mo  Mo13  1  0.23131763  0.51573800  0.14740626  1
  Mo  Mo14  1  0.74705563  0.48426200  0.64740626  1
  Mo  Mo15  1  0.25294437  0.51573800  0.35259374  1
  O  O16  1  0.33598475  0.65974189  0.95832425  1
  O  O17  1  0.66401525  0.34025811  0.04167575  1
  O  O18  1  0.00427335  0.65974189  0.54167575  1
  O  O19  1  0.99572665  0.34025811  0.45832425  1
  O  O20  1  0.50821246  0.72274408  0.82716710  1
  O  O21  1  0.49178754  0.27725592  0.17283290  1
  O  O22  1  0.76904346  0.72274408  0.67283290  1
  O  O23  1  0.23095654  0.27725592  0.32716710  1
  O  O24  1  0.28074947  0.96057993  0.53650096  1
  O  O25  1  0.71925053  0.03942007  0.46349904  1
  O  O26  1  0.75867060  0.96057993  0.96349904  1
  O  O27  1  0.24132940  0.03942007  0.03650096  1
  O  O28  1  0.55977800  0.52091584  0.56613471  1
  O  O29  1  0.44022200  0.47908416  0.43386529  1
  O  O30  1  0.91930616  0.52091584  0.93386529  1
  O  O31  1  0.08069384  0.47908416  0.06613471  1
  O  O32  1  0.20131004  0.81835516  0.67043321  1
  O  O33  1  0.79868996  0.18164484  0.32956679  1
  O  O34  1  0.98033480  0.81835516  0.82956679  1
  O  O35  1  0.01966520  0.18164484  0.17043321  1
  O  O36  1  0.28078800  0.90559357  0.39878354  1
  O  O37  1  0.71921200  0.09440643  0.60121646  1
  O  O38  1  0.81361843  0.90559357  0.10121646  1
  O  O39  1  0.18638157  0.09440643  0.89878354  1
  O  O40  1  0.59849382  0.30028776  0.86867431  1
  O  O41  1  0.40150618  0.69971224  0.13132569  1
  O  O42  1  0.10121842  0.30028776  0.63132569  1
  O  O43  1  0.89878158  0.69971224  0.36867431  1
  O  O44  1  0.56591374  0.40499469  0.71396203  1
  O  O45  1  0.43408626  0.59500531  0.28603797  1
  O  O46  1  0.02909157  0.40499469  0.78603797  1
  O  O47  1  0.97090843  0.59500531  0.21396203  1
