# generated using pymatgen
data_KCaFe2F9
_symmetry_space_group_name_H-M   'P 1'
_cell_length_a   7.58612664
_cell_length_b   7.58612664
_cell_length_c   23.93561944
_cell_angle_alpha   90.00000000
_cell_angle_beta   90.00000000
_cell_angle_gamma   119.82005046
_symmetry_Int_Tables_number   1
_chemical_formula_structural   KCaFe2F9
_chemical_formula_sum   'K6 Ca6 Fe12 F54'
_cell_volume   1195.08867126
_cell_formula_units_Z   6
loop_
 _symmetry_equiv_pos_site_id
 _symmetry_equiv_pos_as_xyz
  1  'x, y, z'
loop_
 _atom_site_type_symbol
 _atom_site_label
 _atom_site_symmetry_multiplicity
 _atom_site_fract_x
 _atom_site_fract_y
 _atom_site_fract_z
 _atom_site_occupancy
  K  K0  1  0.49051330  0.50948670  0.75000000  1
  K  K1  1  0.50948670  0.49051330  0.25000000  1
  K  K2  1  0.50540882  0.46355831  0.91650320  1
  K  K3  1  0.49459118  0.53644169  0.41650320  1
  K  K4  1  0.53644169  0.49459118  0.58349680  1
  K  K5  1  0.46355831  0.50540882  0.08349680  1
  Ca  Ca6  1  0.98503806  0.98503806  0.00000000  1
  Ca  Ca7  1  0.01496194  0.01496194  0.50000000  1
  Ca  Ca8  1  0.51422973  0.00134593  0.66664039  1
  Ca  Ca9  1  0.48577027  0.99865407  0.16664039  1
  Ca  Ca10  1  0.99865407  0.48577027  0.83335961  1
  Ca  Ca11  1  0.00134593  0.51422973  0.33335961  1
  Fe  Fe12  1  0.48253028  0.97984692  0.99769665  1
  Fe  Fe13  1  0.51746972  0.02015308  0.49769665  1
  Fe  Fe14  1  0.02015308  0.51746972  0.50230335  1
  Fe  Fe15  1  0.97984692  0.48253028  0.00230335  1
  Fe  Fe16  1  0.50173599  0.98425602  0.83535463  1
  Fe  Fe17  1  0.49826401  0.01574398  0.33535463  1
  Fe  Fe18  1  0.01574398  0.49826401  0.66464537  1
  Fe  Fe19  1  0.98425602  0.50173599  0.16464537  1
  Fe  Fe20  1  0.99619931  0.01178557  0.33107196  1
  Fe  Fe21  1  0.00380069  0.98821443  0.83107196  1
  Fe  Fe22  1  0.98821443  0.00380069  0.16892804  1
  Fe  Fe23  1  0.01178557  0.99619931  0.66892804  1
  F  F24  1  0.62354473  0.82852949  0.98359902  1
  F  F25  1  0.37645527  0.17147051  0.48359902  1
  F  F26  1  0.17147051  0.37645527  0.51640098  1
  F  F27  1  0.82852949  0.62354473  0.01640098  1
  F  F28  1  0.63678778  0.27638925  0.82264146  1
  F  F29  1  0.36321222  0.72361075  0.32264146  1
  F  F30  1  0.72361075  0.36321222  0.67735854  1
  F  F31  1  0.27638925  0.63678778  0.17735854  1
  F  F32  1  0.77318811  0.02692389  0.84597229  1
  F  F33  1  0.22681189  0.97307611  0.34597229  1
  F  F34  1  0.97307611  0.22681189  0.65402771  1
  F  F35  1  0.02692389  0.77318811  0.15402771  1
  F  F36  1  0.51178651  0.92509124  0.75708190  1
  F  F37  1  0.48821349  0.07490876  0.25708190  1
  F  F38  1  0.07490876  0.48821349  0.74291810  1
  F  F39  1  0.92509124  0.51178651  0.24291810  1
  F  F40  1  0.02065929  0.95927732  0.91002390  1
  F  F41  1  0.97934071  0.04072268  0.41002390  1
  F  F42  1  0.04072268  0.97934071  0.58997610  1
  F  F43  1  0.95927732  0.02065929  0.08997610  1
  F  F44  1  0.21107744  0.75026687  0.98657773  1
  F  F45  1  0.78892256  0.24973313  0.48657773  1
  F  F46  1  0.24973313  0.78892256  0.51342227  1
  F  F47  1  0.75026687  0.21107744  0.01342227  1
  F  F48  1  0.98205381  0.01794619  0.75000000  1
  F  F49  1  0.01794619  0.98205381  0.25000000  1
  F  F50  1  0.53574121  0.08769175  0.57626717  1
  F  F51  1  0.46425879  0.91230825  0.07626717  1
  F  F52  1  0.91230825  0.46425879  0.92373283  1
  F  F53  1  0.08769175  0.53574121  0.42373283  1
  F  F54  1  0.71626130  0.83334426  0.66429383  1
  F  F55  1  0.28373870  0.16665574  0.16429383  1
  F  F56  1  0.16665574  0.28373870  0.83570617  1
  F  F57  1  0.83334426  0.71626130  0.33570617  1
  F  F58  1  0.65031341  0.85893266  0.50821967  1
  F  F59  1  0.34968659  0.14106734  0.00821967  1
  F  F60  1  0.14106734  0.34968659  0.99178033  1
  F  F61  1  0.85893266  0.65031341  0.49178033  1
  F  F62  1  0.30642294  0.15832947  0.67740769  1
  F  F63  1  0.69357706  0.84167053  0.17740769  1
  F  F64  1  0.84167053  0.69357706  0.82259231  1
  F  F65  1  0.15832947  0.30642294  0.32259231  1
  F  F66  1  0.23630216  0.95153420  0.82004842  1
  F  F67  1  0.76369784  0.04846580  0.32004842  1
  F  F68  1  0.04846580  0.76369784  0.67995158  1
  F  F69  1  0.95153420  0.23630216  0.17995158  1
  F  F70  1  0.36013247  0.69501324  0.85198577  1
  F  F71  1  0.63986753  0.30498676  0.35198577  1
  F  F72  1  0.30498676  0.63986753  0.64801423  1
  F  F73  1  0.69501324  0.36013247  0.14801423  1
  F  F74  1  0.49488302  0.04612654  0.91647863  1
  F  F75  1  0.50511698  0.95387346  0.41647863  1
  F  F76  1  0.95387346  0.50511698  0.58352137  1
  F  F77  1  0.04612654  0.49488302  0.08352137  1
