# generated using pymatgen
data_ErGaO3
_symmetry_space_group_name_H-M   'P 1'
_cell_length_a   6.07450678
_cell_length_b   6.07450678
_cell_length_c   11.66901241
_cell_angle_alpha   90.00000000
_cell_angle_beta   90.00000000
_cell_angle_gamma   119.99999175
_symmetry_Int_Tables_number   1
_chemical_formula_structural   ErGaO3
_chemical_formula_sum   'Er6 Ga6 O18'
_cell_volume   372.89521636
_cell_formula_units_Z   6
loop_
 _symmetry_equiv_pos_site_id
 _symmetry_equiv_pos_as_xyz
  1  'x, y, z'
loop_
 _atom_site_type_symbol
 _atom_site_label
 _atom_site_symmetry_multiplicity
 _atom_site_fract_x
 _atom_site_fract_y
 _atom_site_fract_z
 _atom_site_occupancy
  Er  Er0  1  0.66666700  0.33333300  0.96034124  1
  Er  Er1  1  0.33333300  0.66666700  0.46034124  1
  Er  Er2  1  0.66666700  0.33333300  0.46034124  1
  Er  Er3  1  0.33333300  0.66666700  0.96034124  1
  Er  Er4  1  -0.00000000  -0.00000000  0.00112021  1
  Er  Er5  1  -0.00000000  -0.00000000  0.50112021  1
  Ga  Ga6  1  0.66573966  0.66573966  0.72701996  1
  Ga  Ga7  1  1.00000000  0.33426034  0.72701996  1
  Ga  Ga8  1  0.33426034  0.33426034  0.22701996  1
  Ga  Ga9  1  0.00000000  0.66573966  0.22701996  1
  Ga  Ga10  1  0.33426034  1.00000000  0.72701996  1
  Ga  Ga11  1  0.66573966  0.00000000  0.22701996  1
  O  O12  1  0.69141381  0.69141381  0.89084314  1
  O  O13  1  1.00000000  0.30858619  0.89084314  1
  O  O14  1  0.30858619  0.30858619  0.39084314  1
  O  O15  1  0.00000000  0.69141381  0.39084314  1
  O  O16  1  0.30858619  1.00000000  0.89084314  1
  O  O17  1  0.69141381  0.00000000  0.39084314  1
  O  O18  1  0.64283498  0.64283498  0.56433500  1
  O  O19  1  1.00000000  0.35716502  0.56433500  1
  O  O20  1  0.35716502  0.35716502  0.06433500  1
  O  O21  1  0.00000000  0.64283498  0.06433500  1
  O  O22  1  0.35716502  1.00000000  0.56433500  1
  O  O23  1  0.64283498  0.00000000  0.06433500  1
  O  O24  1  -0.00000000  -0.00000000  0.70438862  1
  O  O25  1  -0.00000000  -0.00000000  0.20438862  1
  O  O26  1  0.66666700  0.33333300  0.74655219  1
  O  O27  1  0.33333300  0.66666700  0.24655219  1
  O  O28  1  0.66666700  0.33333300  0.24655219  1
  O  O29  1  0.33333300  0.66666700  0.74655219  1
