# generated using pymatgen
data_Dy12Al7Si
_symmetry_space_group_name_H-M   'P 1'
_cell_length_a   11.23684304
_cell_length_b   11.23684304
_cell_length_c   11.23684304
_cell_angle_alpha   94.46933691
_cell_angle_beta   117.45405761
_cell_angle_gamma   117.45405761
_symmetry_Int_Tables_number   1
_chemical_formula_structural   Dy12Al7Si
_chemical_formula_sum   'Dy24 Al14 Si2'
_cell_volume   1038.45984656
_cell_formula_units_Z   2
loop_
 _symmetry_equiv_pos_site_id
 _symmetry_equiv_pos_as_xyz
  1  'x, y, z'
loop_
 _atom_site_type_symbol
 _atom_site_label
 _atom_site_symmetry_multiplicity
 _atom_site_fract_x
 _atom_site_fract_y
 _atom_site_fract_z
 _atom_site_occupancy
  Dy  Dy0  1  0.50000000  0.85227267  0.35227267  1
  Dy  Dy1  1  0.50000000  0.14772733  0.64772733  1
  Dy  Dy2  1  0.50000000  0.35227267  0.85227267  1
  Dy  Dy3  1  0.50000000  0.64772733  0.14772733  1
  Dy  Dy4  1  0.73545936  0.79914458  0.66344699  1
  Dy  Dy5  1  0.26454064  0.20085542  0.33655301  1
  Dy  Dy6  1  0.26454064  0.92798763  0.06368522  1
  Dy  Dy7  1  0.13569759  0.06368522  0.79914458  1
  Dy  Dy8  1  0.86430241  0.70085542  0.43631478  1
  Dy  Dy9  1  0.73545936  0.07201237  0.93631478  1
  Dy  Dy10  1  0.86430241  0.93631478  0.20085542  1
  Dy  Dy11  1  0.13569759  0.29914458  0.56368522  1
  Dy  Dy12  1  0.86430241  0.66344699  0.92798763  1
  Dy  Dy13  1  0.13569759  0.57201237  0.83655301  1
  Dy  Dy14  1  0.13569759  0.33655301  0.07201237  1
  Dy  Dy15  1  0.86430241  0.42798763  0.16344699  1
  Dy  Dy16  1  0.73545936  0.43631478  0.57201237  1
  Dy  Dy17  1  0.26454064  0.56368522  0.42798763  1
  Dy  Dy18  1  0.26454064  0.83655301  0.70085542  1
  Dy  Dy19  1  0.73545936  0.16344699  0.29914458  1
  Dy  Dy20  1  0.16000243  0.83000122  0.33000122  1
  Dy  Dy21  1  0.83999757  0.16999878  0.66999878  1
  Dy  Dy22  1  0.50000000  0.66999878  0.83000122  1
  Dy  Dy23  1  0.50000000  0.33000122  0.16999878  1
  Al  Al24  1  0.26452521  0.38226260  0.88226260  1
  Al  Al25  1  0.73547479  0.61773740  0.11773740  1
  Al  Al26  1  0.50000000  0.11773740  0.38226260  1
  Al  Al27  1  0.50000000  0.88226260  0.61773740  1
  Al  Al28  1  -0.00000000  -0.00000000  -0.00000000  1
  Al  Al29  1  -0.00000000  0.50000000  0.50000000  1
  Al  Al30  1  0.14323051  0.61799506  0.11799506  1
  Al  Al31  1  0.85676949  0.38200494  0.88200494  1
  Al  Al32  1  0.85676949  0.97476455  0.47476455  1
  Al  Al33  1  0.50000000  0.47476455  0.61799506  1
  Al  Al34  1  0.50000000  0.88200494  0.02523545  1
  Al  Al35  1  0.14323051  0.02523545  0.52523545  1
  Al  Al36  1  0.50000000  0.52523545  0.38200494  1
  Al  Al37  1  0.50000000  0.11799506  0.97476455  1
  Si  Si38  1  -0.00000000  0.75000000  0.75000000  1
  Si  Si39  1  -0.00000000  0.25000000  0.25000000  1
