# generated using pymatgen
data_La2MgSnO6
_symmetry_space_group_name_H-M   'P 1'
_cell_length_a   5.66377518
_cell_length_b   5.82606448
_cell_length_c   8.10996616
_cell_angle_alpha   90.00000000
_cell_angle_beta   90.12825876
_cell_angle_gamma   90.00000000
_symmetry_Int_Tables_number   1
_chemical_formula_structural   La2MgSnO6
_chemical_formula_sum   'La4 Mg2 Sn2 O12'
_cell_volume   267.60809522
_cell_formula_units_Z   2
loop_
 _symmetry_equiv_pos_site_id
 _symmetry_equiv_pos_as_xyz
  1  'x, y, z'
loop_
 _atom_site_type_symbol
 _atom_site_label
 _atom_site_symmetry_multiplicity
 _atom_site_fract_x
 _atom_site_fract_y
 _atom_site_fract_z
 _atom_site_occupancy
  La  La0  1  0.01067291  0.45031319  0.25038505  1
  La  La1  1  0.98932709  0.54968681  0.74961495  1
  La  La2  1  0.48932709  0.95031319  0.24961495  1
  La  La3  1  0.51067291  0.04968681  0.75038505  1
  Mg  Mg4  1  0.00000000  -0.00000000  -0.00000000  1
  Mg  Mg5  1  0.50000000  0.50000000  0.50000000  1
  Sn  Sn6  1  0.00000000  -0.00000000  0.50000000  1
  Sn  Sn7  1  0.50000000  0.50000000  -0.00000000  1
  O  O8  1  0.19965385  0.69705376  0.04927909  1
  O  O9  1  0.80034615  0.30294624  0.95072091  1
  O  O10  1  0.30034615  0.19705376  0.45072091  1
  O  O11  1  0.69965385  0.80294624  0.54927909  1
  O  O12  1  0.30495972  0.20061928  0.04878223  1
  O  O13  1  0.69504028  0.79938072  0.95121777  1
  O  O14  1  0.19504028  0.70061928  0.45121777  1
  O  O15  1  0.80495972  0.29938072  0.54878223  1
  O  O16  1  0.90660160  0.03162822  0.25074572  1
  O  O17  1  0.09339840  0.96837178  0.74925428  1
  O  O18  1  0.59339840  0.53162822  0.24925428  1
  O  O19  1  0.40660160  0.46837178  0.75074572  1
