# generated using pymatgen
data_Dy4Al2O9
_symmetry_space_group_name_H-M   'P 1'
_cell_length_a   7.44961369
_cell_length_b   10.59166266
_cell_length_c   11.19275835
_cell_angle_alpha   90.00000000
_cell_angle_beta   108.65568079
_cell_angle_gamma   90.00000000
_symmetry_Int_Tables_number   1
_chemical_formula_structural   Dy4Al2O9
_chemical_formula_sum   'Dy16 Al8 O36'
_cell_volume   836.74858080
_cell_formula_units_Z   4
loop_
 _symmetry_equiv_pos_site_id
 _symmetry_equiv_pos_as_xyz
  1  'x, y, z'
loop_
 _atom_site_type_symbol
 _atom_site_label
 _atom_site_symmetry_multiplicity
 _atom_site_fract_x
 _atom_site_fract_y
 _atom_site_fract_z
 _atom_site_occupancy
  Dy  Dy0  1  0.52260514  0.40782447  0.30658974  1
  Dy  Dy1  1  0.47739486  0.59217553  0.69341026  1
  Dy  Dy2  1  0.47739486  0.90782447  0.19341026  1
  Dy  Dy3  1  0.52260514  0.09217553  0.80658974  1
  Dy  Dy4  1  0.02315764  0.39381767  0.28460547  1
  Dy  Dy5  1  0.97684236  0.60618233  0.71539453  1
  Dy  Dy6  1  0.97684236  0.89381767  0.21539453  1
  Dy  Dy7  1  0.02315764  0.10618233  0.78460547  1
  Dy  Dy8  1  0.16326605  0.62403519  0.06584742  1
  Dy  Dy9  1  0.83673395  0.37596481  0.93415258  1
  Dy  Dy10  1  0.83673395  0.12403519  0.43415258  1
  Dy  Dy11  1  0.16326605  0.87596481  0.56584742  1
  Dy  Dy12  1  0.33652966  0.12167229  0.41258971  1
  Dy  Dy13  1  0.66347034  0.87832771  0.58741029  1
  Dy  Dy14  1  0.66347034  0.62167229  0.08741029  1
  Dy  Dy15  1  0.33652966  0.37832771  0.91258971  1
  Al  Al16  1  0.15376735  0.18310898  0.11444941  1
  Al  Al17  1  0.84623265  0.81689102  0.88555059  1
  Al  Al18  1  0.84623265  0.68310898  0.38555059  1
  Al  Al19  1  0.15376735  0.31689102  0.61444941  1
  Al  Al20  1  0.71754247  0.18568395  0.12833205  1
  Al  Al21  1  0.28245753  0.81431605  0.87166795  1
  Al  Al22  1  0.28245753  0.68568395  0.37166795  1
  Al  Al23  1  0.71754247  0.31431605  0.62833205  1
  O  O24  1  0.57105190  0.26638624  0.47954536  1
  O  O25  1  0.42894810  0.73361376  0.52045464  1
  O  O26  1  0.42894810  0.76638624  0.02045464  1
  O  O27  1  0.57105190  0.23361376  0.97954536  1
  O  O28  1  0.13947560  0.27095163  0.46089559  1
  O  O29  1  0.86052440  0.72904837  0.53910441  1
  O  O30  1  0.86052440  0.77095163  0.03910441  1
  O  O31  1  0.13947560  0.22904837  0.96089559  1
  O  O32  1  0.19882638  0.02571493  0.16764908  1
  O  O33  1  0.80117362  0.97428507  0.83235092  1
  O  O34  1  0.80117362  0.52571493  0.33235092  1
  O  O35  1  0.19882638  0.47428507  0.66764908  1
  O  O36  1  0.42305454  0.49434384  0.10619638  1
  O  O37  1  0.57694546  0.50565616  0.89380362  1
  O  O38  1  0.57694546  0.99434384  0.39380362  1
  O  O39  1  0.42305454  0.00565616  0.60619638  1
  O  O40  1  0.28773869  0.27016985  0.24732525  1
  O  O41  1  0.71226131  0.72983015  0.75267475  1
  O  O42  1  0.71226131  0.77016985  0.25267475  1
  O  O43  1  0.28773869  0.22983015  0.74732525  1
  O  O44  1  0.73270703  0.26812229  0.26954052  1
  O  O45  1  0.26729297  0.73187771  0.73045948  1
  O  O46  1  0.26729297  0.76812229  0.23045948  1
  O  O47  1  0.73270703  0.23187771  0.76954052  1
  O  O48  1  0.06737667  0.74539063  0.38537767  1
  O  O49  1  0.93262333  0.25460937  0.61462233  1
  O  O50  1  0.93262333  0.24539063  0.11462233  1
  O  O51  1  0.06737667  0.75460937  0.88537767  1
  O  O52  1  0.28408366  0.52422616  0.33886206  1
  O  O53  1  0.71591634  0.47577384  0.66113794  1
  O  O54  1  0.71591634  0.02422616  0.16113794  1
  O  O55  1  0.28408366  0.97577384  0.83886206  1
  O  O56  1  0.06593200  0.00914639  0.39454470  1
  O  O57  1  0.93406800  0.99085361  0.60545530  1
  O  O58  1  0.93406800  0.50914639  0.10545530  1
  O  O59  1  0.06593200  0.49085361  0.89454470  1
