# generated using pymatgen
data_KUSiHO6
_symmetry_space_group_name_H-M   'P 1'
_cell_length_a   6.73510214
_cell_length_b   7.10127414
_cell_length_c   6.76101214
_cell_angle_alpha   90.00000000
_cell_angle_beta   105.23979559
_cell_angle_gamma   90.00000000
_symmetry_Int_Tables_number   1
_chemical_formula_structural   KUSiHO6
_chemical_formula_sum   'K2 U2 Si2 H2 O12'
_cell_volume   311.99299966
_cell_formula_units_Z   2
loop_
 _symmetry_equiv_pos_site_id
 _symmetry_equiv_pos_as_xyz
  1  'x, y, z'
loop_
 _atom_site_type_symbol
 _atom_site_label
 _atom_site_symmetry_multiplicity
 _atom_site_fract_x
 _atom_site_fract_y
 _atom_site_fract_z
 _atom_site_occupancy
  K  K0  1  0.20136976  0.29730628  0.57773489  1
  K  K1  1  0.79863024  0.79730628  0.42226511  1
  U  U2  1  0.14094514  0.96767592  0.01874172  1
  U  U3  1  0.85905486  0.46767592  0.98125828  1
  Si  Si4  1  0.35168704  0.46844405  0.09236061  1
  Si  Si5  1  0.64831296  0.96844405  0.90763939  1
  H  H6  1  0.58252700  0.40959109  0.40741789  1
  H  H7  1  0.41747300  0.90959109  0.59258211  1
  O  O8  1  0.17862429  0.97987319  0.29944273  1
  O  O9  1  0.82137571  0.47987319  0.70055727  1
  O  O10  1  0.19106372  0.64671128  0.04218306  1
  O  O11  1  0.80893628  0.14671128  0.95781694  1
  O  O12  1  0.18697859  0.29465463  0.01343320  1
  O  O13  1  0.81302141  0.79465463  0.98656680  1
  O  O14  1  0.08468018  0.96107831  0.73580700  1
  O  O15  1  0.91531982  0.46107831  0.26419300  1
  O  O16  1  0.47229378  0.97181476  0.03126444  1
  O  O17  1  0.52770622  0.47181476  0.96873556  1
  O  O18  1  0.44720324  0.46385050  0.34624418  1
  O  O19  1  0.55279676  0.96385050  0.65375582  1
