# generated using pymatgen
data_Ba2LaV3O11
_symmetry_space_group_name_H-M   'P 1'
_cell_length_a   7.88892087
_cell_length_b   12.63535578
_cell_length_c   11.56477088
_cell_angle_alpha   103.45246862
_cell_angle_beta   90.00000000
_cell_angle_gamma   90.00000000
_symmetry_Int_Tables_number   1
_chemical_formula_structural   Ba2LaV3O11
_chemical_formula_sum   'Ba8 La4 V12 O44'
_cell_volume   1121.14029483
_cell_formula_units_Z   4
loop_
 _symmetry_equiv_pos_site_id
 _symmetry_equiv_pos_as_xyz
  1  'x, y, z'
loop_
 _atom_site_type_symbol
 _atom_site_label
 _atom_site_symmetry_multiplicity
 _atom_site_fract_x
 _atom_site_fract_y
 _atom_site_fract_z
 _atom_site_occupancy
  Ba  Ba0  1  0.27319382  0.76439688  0.94166862  1
  Ba  Ba1  1  0.72680618  0.23560312  0.05833138  1
  Ba  Ba2  1  0.77319382  0.23560312  0.55833138  1
  Ba  Ba3  1  0.22680618  0.76439688  0.44166862  1
  Ba  Ba4  1  0.74668611  0.55381773  0.88905739  1
  Ba  Ba5  1  0.25331389  0.44618227  0.11094261  1
  Ba  Ba6  1  0.24668611  0.44618227  0.61094261  1
  Ba  Ba7  1  0.75331389  0.55381773  0.38905739  1
  La  La8  1  0.50009721  0.99744411  0.71578892  1
  La  La9  1  0.49990279  0.00255589  0.28421108  1
  La  La10  1  0.00009721  0.00255589  0.78421108  1
  La  La11  1  -0.00009721  0.99744411  0.21578892  1
  V  V12  1  0.74996264  0.90261650  0.97486424  1
  V  V13  1  0.25003736  0.09738350  0.02513576  1
  V  V14  1  0.24996264  0.09738350  0.52513576  1
  V  V15  1  0.75003736  0.90261650  0.47486424  1
  V  V16  1  0.52010540  0.68224867  0.67347362  1
  V  V17  1  0.47989460  0.31775133  0.32652638  1
  V  V18  1  0.02010540  0.31775133  0.82652638  1
  V  V19  1  0.97989460  0.68224867  0.17347362  1
  V  V20  1  0.98060314  0.68537462  0.66948204  1
  V  V21  1  0.01939686  0.31462538  0.33051796  1
  V  V22  1  0.48060314  0.31462538  0.83051796  1
  V  V23  1  0.51939686  0.68537462  0.16948204  1
  O  O24  1  0.44171716  0.81320227  0.72027896  1
  O  O25  1  0.55828284  0.18679773  0.27972104  1
  O  O26  1  0.94171716  0.18679773  0.77972104  1
  O  O27  1  0.05828284  0.81320227  0.22027896  1
  O  O28  1  0.55200809  0.18240985  0.81074304  1
  O  O29  1  0.44799191  0.81759015  0.18925696  1
  O  O30  1  0.05200809  0.81759015  0.68925696  1
  O  O31  1  0.94799191  0.18240985  0.31074304  1
  O  O32  1  0.75041631  0.66773794  0.66699025  1
  O  O33  1  0.24958369  0.33226206  0.33300975  1
  O  O34  1  0.25041631  0.33226206  0.83300975  1
  O  O35  1  0.74958369  0.66773794  0.16699025  1
  O  O36  1  0.94643780  0.37540219  0.96538165  1
  O  O37  1  0.05356220  0.62459781  0.03461835  1
  O  O38  1  0.44643780  0.62459781  0.53461835  1
  O  O39  1  0.55356220  0.37540219  0.46538165  1
  O  O40  1  0.94388494  0.39357895  0.73324693  1
  O  O41  1  0.05611506  0.60642105  0.26675307  1
  O  O42  1  0.44388494  0.60642105  0.76675307  1
  O  O43  1  0.55611506  0.39357895  0.23324693  1
  O  O44  1  0.78641641  0.98557559  0.61932161  1
  O  O45  1  0.21358359  0.01442441  0.38067839  1
  O  O46  1  0.28641641  0.01442441  0.88067839  1
  O  O47  1  0.71358359  0.98557559  0.11932161  1
  O  O48  1  0.96626736  0.87919236  0.97228696  1
  O  O49  1  0.03373264  0.12080764  0.02771304  1
  O  O50  1  0.46626736  0.12080764  0.52771304  1
  O  O51  1  0.53373264  0.87919236  0.47228696  1
  O  O52  1  0.63551072  0.78523320  0.94558007  1
  O  O53  1  0.36448928  0.21476680  0.05441993  1
  O  O54  1  0.13551072  0.21476680  0.55441993  1
  O  O55  1  0.86448928  0.78523320  0.44558007  1
  O  O56  1  0.71678865  0.98190132  0.86804008  1
  O  O57  1  0.28321135  0.01809868  0.13195992  1
  O  O58  1  0.21678865  0.01809868  0.63195992  1
  O  O59  1  0.78321135  0.98190132  0.36804008  1
  O  O60  1  0.55813643  0.36998662  0.72059136  1
  O  O61  1  0.44186357  0.63001338  0.27940864  1
  O  O62  1  0.05813643  0.63001338  0.77940864  1
  O  O63  1  0.94186357  0.36998662  0.22059136  1
  O  O64  1  0.56069928  0.38922552  0.96172676  1
  O  O65  1  0.43930072  0.61077448  0.03827324  1
  O  O66  1  0.06069928  0.61077448  0.53827324  1
  O  O67  1  0.93930072  0.38922552  0.46172676  1
