# generated using pymatgen
data_CsSr2I5
_symmetry_space_group_name_H-M   'P 1'
_cell_length_a   9.32696315
_cell_length_b   10.34944889
_cell_length_c   14.72816882
_cell_angle_alpha   90.35879577
_cell_angle_beta   90.00000000
_cell_angle_gamma   90.00000000
_symmetry_Int_Tables_number   1
_chemical_formula_structural   CsSr2I5
_chemical_formula_sum   'Cs4 Sr8 I20'
_cell_volume   1421.66647884
_cell_formula_units_Z   4
loop_
 _symmetry_equiv_pos_site_id
 _symmetry_equiv_pos_as_xyz
  1  'x, y, z'
loop_
 _atom_site_type_symbol
 _atom_site_label
 _atom_site_symmetry_multiplicity
 _atom_site_fract_x
 _atom_site_fract_y
 _atom_site_fract_z
 _atom_site_occupancy
  Cs  Cs0  1  0.96225800  0.49862771  0.67187920  1
  Cs  Cs1  1  0.03774200  0.50137229  0.32812080  1
  Cs  Cs2  1  0.46225800  0.50137229  0.82812080  1
  Cs  Cs3  1  0.53774200  0.49862771  0.17187920  1
  Sr  Sr4  1  0.97821299  0.99681557  0.68096689  1
  Sr  Sr5  1  0.02178701  0.00318443  0.31903311  1
  Sr  Sr6  1  0.47821299  0.00318443  0.81903311  1
  Sr  Sr7  1  0.52178701  0.99681557  0.18096689  1
  Sr  Sr8  1  0.92694474  0.75628391  0.99336646  1
  Sr  Sr9  1  0.07305526  0.24371609  0.00663354  1
  Sr  Sr10  1  0.42694474  0.24371609  0.50663354  1
  Sr  Sr11  1  0.57305526  0.75628391  0.49336646  1
  I  I12  1  0.83551741  0.46292107  0.91995217  1
  I  I13  1  0.16448259  0.53707893  0.08004783  1
  I  I14  1  0.33551741  0.53707893  0.58004783  1
  I  I15  1  0.66448259  0.46292107  0.41995217  1
  I  I16  1  0.16308415  0.78909504  0.81852492  1
  I  I17  1  0.83691585  0.21090496  0.18147508  1
  I  I18  1  0.66308415  0.21090496  0.68147508  1
  I  I19  1  0.33691585  0.78909504  0.31852492  1
  I  I20  1  0.69308640  0.78256437  0.71332306  1
  I  I21  1  0.30691360  0.21743563  0.28667694  1
  I  I22  1  0.19308640  0.21743563  0.78667694  1
  I  I23  1  0.80691360  0.78256437  0.21332306  1
  I  I24  1  0.54752184  0.79276481  0.99547965  1
  I  I25  1  0.45247816  0.20723519  0.00452035  1
  I  I26  1  0.04752184  0.20723519  0.50452035  1
  I  I27  1  0.95247816  0.79276481  0.49547965  1
  I  I28  1  0.34056934  0.95727522  0.60019868  1
  I  I29  1  0.65943066  0.04272478  0.39980132  1
  I  I30  1  0.84056934  0.04272478  0.89980132  1
  I  I31  1  0.15943066  0.95727522  0.10019868  1
