# generated using pymatgen
data_Ba3CaCuSi6O17
_symmetry_space_group_name_H-M   'P 1'
_cell_length_a   7.18152824
_cell_length_b   8.13606277
_cell_length_c   16.29707955
_cell_angle_alpha   90.00000000
_cell_angle_beta   90.00000000
_cell_angle_gamma   116.18936047
_symmetry_Int_Tables_number   1
_chemical_formula_structural   Ba3CaCuSi6O17
_chemical_formula_sum   'Ba6 Ca2 Cu2 Si12 O34'
_cell_volume   854.47259885
_cell_formula_units_Z   2
loop_
 _symmetry_equiv_pos_site_id
 _symmetry_equiv_pos_as_xyz
  1  'x, y, z'
loop_
 _atom_site_type_symbol
 _atom_site_label
 _atom_site_symmetry_multiplicity
 _atom_site_fract_x
 _atom_site_fract_y
 _atom_site_fract_z
 _atom_site_occupancy
  Ba  Ba0  1  0.49641981  0.51080963  0.61361207  1
  Ba  Ba1  1  0.01438982  0.51080963  0.38638793  1
  Ba  Ba2  1  0.01438982  0.51080963  0.11361207  1
  Ba  Ba3  1  0.49641981  0.51080963  0.88638793  1
  Ba  Ba4  1  0.03955387  0.01812830  0.25000000  1
  Ba  Ba5  1  0.97857443  0.01812830  0.75000000  1
  Ca  Ca6  1  0.00056280  0.00112560  0.00000000  1
  Ca  Ca7  1  0.00056280  0.00112560  0.50000000  1
  Cu  Cu8  1  0.47749279  0.95498558  -0.00000000  1
  Cu  Cu9  1  0.47749279  0.95498558  0.50000000  1
  Si  Si10  1  0.41890698  0.76391705  0.25000000  1
  Si  Si11  1  0.34501007  0.76391705  0.75000000  1
  Si  Si12  1  0.60771448  0.17507360  0.25000000  1
  Si  Si13  1  0.56735912  0.17507360  0.75000000  1
  Si  Si14  1  0.39513145  0.26051558  0.08988497  1
  Si  Si15  1  0.86538413  0.26051558  0.91011503  1
  Si  Si16  1  0.86538413  0.26051558  0.58988497  1
  Si  Si17  1  0.39513145  0.26051558  0.41011503  1
  Si  Si18  1  0.62631454  0.68642721  0.09473267  1
  Si  Si19  1  0.06011267  0.68642721  0.90526733  1
  Si  Si20  1  0.06011267  0.68642721  0.59473267  1
  Si  Si21  1  0.62631454  0.68642721  0.40526733  1
  O  O22  1  0.37500323  0.14061378  0.00721888  1
  O  O23  1  0.76561055  0.14061378  0.99278112  1
  O  O24  1  0.76561055  0.14061378  0.50721888  1
  O  O25  1  0.37500323  0.14061378  0.49278112  1
  O  O26  1  0.46894514  0.17541398  0.16975251  1
  O  O27  1  0.70646884  0.17541398  0.83024749  1
  O  O28  1  0.70646884  0.17541398  0.66975251  1
  O  O29  1  0.46894514  0.17541398  0.33024749  1
  O  O30  1  0.58532674  0.47072005  0.07504143  1
  O  O31  1  0.88539331  0.47072005  0.92495857  1
  O  O32  1  0.88539331  0.47072005  0.57504143  1
  O  O33  1  0.58532674  0.47072005  0.42495857  1
  O  O34  1  0.84264222  0.32659661  0.25000000  1
  O  O35  1  0.48395439  0.32659661  0.75000000  1
  O  O36  1  0.57570701  0.76473959  0.01000654  1
  O  O37  1  0.18903258  0.76473959  0.98999346  1
  O  O38  1  0.18903258  0.76473959  0.51000654  1
  O  O39  1  0.57570701  0.76473959  0.48999346  1
  O  O40  1  0.61158926  0.97289573  0.25000000  1
  O  O41  1  0.36130647  0.97289573  0.75000000  1
  O  O42  1  0.86562361  0.80014262  0.12087225  1
  O  O43  1  0.93451901  0.80014262  0.87912775  1
  O  O44  1  0.93451901  0.80014262  0.62087225  1
  O  O45  1  0.86562361  0.80014262  0.37912775  1
  O  O46  1  0.45354131  0.66345378  0.16733136  1
  O  O47  1  0.20991247  0.66345378  0.83266864  1
  O  O48  1  0.20991247  0.66345378  0.66733136  1
  O  O49  1  0.45354131  0.66345378  0.33266864  1
  O  O50  1  0.18842321  0.74535466  0.25000000  1
  O  O51  1  0.55693145  0.74535466  0.75000000  1
  O  O52  1  0.17056213  0.25172522  0.10867182  1
  O  O53  1  0.08116309  0.25172522  0.89132818  1
  O  O54  1  0.08116309  0.25172522  0.60867182  1
  O  O55  1  0.17056213  0.25172522  0.39132818  1
