# generated using pymatgen
data_Cr5Cu2(PO4)6
_symmetry_space_group_name_H-M   'P 1'
_cell_length_a   6.33404697
_cell_length_b   8.02089387
_cell_length_c   9.36356187
_cell_angle_alpha   106.03140280
_cell_angle_beta   108.02200508
_cell_angle_gamma   101.52073790
_symmetry_Int_Tables_number   1
_chemical_formula_structural   Cr5Cu2(PO4)6
_chemical_formula_sum   'Cr5 Cu2 P6 O24'
_cell_volume   413.07629801
_cell_formula_units_Z   1
loop_
 _symmetry_equiv_pos_site_id
 _symmetry_equiv_pos_as_xyz
  1  'x, y, z'
loop_
 _atom_site_type_symbol
 _atom_site_label
 _atom_site_symmetry_multiplicity
 _atom_site_fract_x
 _atom_site_fract_y
 _atom_site_fract_z
 _atom_site_occupancy
  Cr  Cr0  1  0.05004447  0.21395026  0.02160368  1
  Cr  Cr1  1  0.94995553  0.78604974  0.97839632  1
  Cr  Cr2  1  0.62008158  0.03906574  0.38989168  1
  Cr  Cr3  1  0.37991842  0.96093426  0.61010832  1
  Cr  Cr4  1  -0.00000000  0.50000000  0.50000000  1
  Cu  Cu5  1  0.29585879  0.32737116  0.79822548  1
  Cu  Cu6  1  0.70414121  0.67262884  0.20177452  1
  P  P7  1  0.60804090  0.26149916  0.13571073  1
  P  P8  1  0.39195910  0.73850084  0.86428927  1
  P  P9  1  0.09571934  0.10108723  0.33557369  1
  P  P10  1  0.90428066  0.89891277  0.66442631  1
  P  P11  1  0.22030939  0.64421546  0.26432813  1
  P  P12  1  0.77969061  0.35578454  0.73567187  1
  O  O13  1  0.31552091  0.04695857  0.42005534  1
  O  O14  1  0.68447909  0.95304143  0.57994466  1
  O  O15  1  0.21534099  0.69256788  0.44061786  1
  O  O16  1  0.78465901  0.30743212  0.55938214  1
  O  O17  1  0.00951903  0.68717093  0.15800962  1
  O  O18  1  0.99048097  0.31282907  0.84199038  1
  O  O19  1  0.20504858  0.44635399  0.20161980  1
  O  O20  1  0.79495142  0.55364601  0.79838020  1
  O  O21  1  0.12576409  0.30027338  0.41704072  1
  O  O22  1  0.87423591  0.69972662  0.58295928  1
  O  O23  1  0.55283490  0.12987344  0.21878985  1
  O  O24  1  0.44716510  0.87012656  0.78121015  1
  O  O25  1  0.74085275  0.45754918  0.27436045  1
  O  O26  1  0.25914725  0.54245082  0.72563955  1
  O  O27  1  0.37215950  0.25676485  0.01265385  1
  O  O28  1  0.62784050  0.74323515  0.98734615  1
  O  O29  1  0.11683907  0.02489557  0.65706403  1
  O  O30  1  0.88316093  0.97510443  0.34293597  1
  O  O31  1  0.07431854  0.05226318  0.15646028  1
  O  O32  1  0.92568146  0.94773682  0.84353972  1
  O  O33  1  0.45276373  0.76316616  0.26998360  1
  O  O34  1  0.54723627  0.23683384  0.73001640  1
  O  O35  1  0.75086060  0.21151040  0.03597148  1
  O  O36  1  0.24913940  0.78848960  0.96402852  1
