# generated using pymatgen
data_Ba2FeBrO3
_symmetry_space_group_name_H-M   'P 1'
_cell_length_a   4.13905530
_cell_length_b   4.13905530
_cell_length_c   15.97557819
_cell_angle_alpha   90.00000000
_cell_angle_beta   90.00000000
_cell_angle_gamma   90.00000000
_symmetry_Int_Tables_number   1
_chemical_formula_structural   Ba2FeBrO3
_chemical_formula_sum   'Ba4 Fe2 Br2 O6'
_cell_volume   273.69007138
_cell_formula_units_Z   2
loop_
 _symmetry_equiv_pos_site_id
 _symmetry_equiv_pos_as_xyz
  1  'x, y, z'
loop_
 _atom_site_type_symbol
 _atom_site_label
 _atom_site_symmetry_multiplicity
 _atom_site_fract_x
 _atom_site_fract_y
 _atom_site_fract_z
 _atom_site_occupancy
  Ba  Ba0  1  0.50000000  0.50000000  0.09145867  1
  Ba  Ba1  1  -0.00000000  0.00000000  0.51856352  1
  Ba  Ba2  1  0.00000000  0.00000000  0.75695031  1
  Ba  Ba3  1  0.50000000  0.50000000  0.33117042  1
  Fe  Fe4  1  0.50000000  0.50000000  0.62320563  1
  Fe  Fe5  1  -0.00000000  -0.00000000  0.22601505  1
  Br  Br6  1  0.50000000  0.50000000  0.84602652  1
  Br  Br7  1  0.00000000  0.00000000  0.99883493  1
  O  O8  1  0.50000000  0.50000000  0.50339140  1
  O  O9  1  0.00000000  0.50000000  0.20474768  1
  O  O10  1  0.50000000  0.00000000  0.20474768  1
  O  O11  1  -0.00000000  0.50000000  0.64384114  1
  O  O12  1  0.50000000  0.00000000  0.64384114  1
  O  O13  1  0.00000000  0.00000000  0.34565591  1
