# generated using pymatgen
data_Cs3Re6(S4Cl3)2
_symmetry_space_group_name_H-M   'P 1'
_cell_length_a   9.34625346
_cell_length_b   11.25433361
_cell_length_c   13.06526581
_cell_angle_alpha   90.00000000
_cell_angle_beta   90.00000000
_cell_angle_gamma   107.03227315
_symmetry_Int_Tables_number   1
_chemical_formula_structural   Cs3Re6(S4Cl3)2
_chemical_formula_sum   'Cs6 Re12 S16 Cl12'
_cell_volume   1314.00506530
_cell_formula_units_Z   2
loop_
 _symmetry_equiv_pos_site_id
 _symmetry_equiv_pos_as_xyz
  1  'x, y, z'
loop_
 _atom_site_type_symbol
 _atom_site_label
 _atom_site_symmetry_multiplicity
 _atom_site_fract_x
 _atom_site_fract_y
 _atom_site_fract_z
 _atom_site_occupancy
  Cs  Cs0  1  0.47661650  0.86454749  0.75918623  1
  Cs  Cs1  1  0.52338350  0.13545251  0.24081377  1
  Cs  Cs2  1  0.52338350  0.63545251  0.25918623  1
  Cs  Cs3  1  0.47661650  0.36454749  0.74081377  1
  Cs  Cs4  1  0.00000000  -0.00000000  0.00000000  1
  Cs  Cs5  1  0.00000000  0.50000000  0.50000000  1
  Re  Re6  1  0.88336920  0.59969030  0.95620798  1
  Re  Re7  1  0.11663080  0.40030970  0.04379202  1
  Re  Re8  1  0.11663080  0.90030970  0.45620798  1
  Re  Re9  1  0.88336920  0.09969030  0.54379202  1
  Re  Re10  1  0.86268650  0.86336176  0.55303383  1
  Re  Re11  1  0.13731350  0.13663824  0.44696617  1
  Re  Re12  1  0.13731350  0.63663824  0.05303383  1
  Re  Re13  1  0.86268650  0.36336176  0.94696617  1
  Re  Re14  1  0.89660578  0.97390215  0.37469287  1
  Re  Re15  1  0.10339422  0.02609785  0.62530713  1
  Re  Re16  1  0.10339422  0.52609785  0.87469287  1
  Re  Re17  1  0.89660578  0.47390215  0.12530713  1
  S  S18  1  0.88684228  0.75853068  0.39208599  1
  S  S19  1  0.11315772  0.24146932  0.60791401  1
  S  S20  1  0.11315772  0.74146932  0.89208599  1
  S  S21  1  0.88684228  0.25853068  0.10791401  1
  S  S22  1  0.86256381  0.99039263  0.70584980  1
  S  S23  1  0.13743619  0.00960737  0.29415020  1
  S  S24  1  0.13743619  0.50960737  0.20584980  1
  S  S25  1  0.86256381  0.49039263  0.79415020  1
  S  S26  1  0.92620290  0.69403813  0.12535501  1
  S  S27  1  0.07379710  0.30596187  0.87464499  1
  S  S28  1  0.07379710  0.80596187  0.62535501  1
  S  S29  1  0.92620290  0.19403813  0.37464499  1
  S  S30  1  0.67073015  0.94293555  0.47396310  1
  S  S31  1  0.32926985  0.05706445  0.52603690  1
  S  S32  1  0.32926985  0.55706445  0.97396310  1
  S  S33  1  0.67073015  0.44293555  0.02603690  1
  Cl  Cl34  1  0.72927048  0.73104386  0.90482990  1
  Cl  Cl35  1  0.27072952  0.26895614  0.09517010  1
  Cl  Cl36  1  0.27072952  0.76895614  0.40482990  1
  Cl  Cl37  1  0.72927048  0.23104386  0.59517010  1
  Cl  Cl38  1  0.67436453  0.67693610  0.61442260  1
  Cl  Cl39  1  0.32563547  0.32306390  0.38557740  1
  Cl  Cl40  1  0.32563547  0.82306390  0.11442260  1
  Cl  Cl41  1  0.67436453  0.17693610  0.88557740  1
  Cl  Cl42  1  0.75499115  0.93800007  0.21287340  1
  Cl  Cl43  1  0.24500885  0.06199993  0.78712660  1
  Cl  Cl44  1  0.24500885  0.56199993  0.71287340  1
  Cl  Cl45  1  0.75499115  0.43800007  0.28712660  1
