# generated using pymatgen
data_Ba2YbV3O11
_symmetry_space_group_name_H-M   'P 1'
_cell_length_a   7.86632962
_cell_length_b   12.45032536
_cell_length_c   11.26054445
_cell_angle_alpha   103.13911244
_cell_angle_beta   90.00000000
_cell_angle_gamma   90.00000000
_symmetry_Int_Tables_number   1
_chemical_formula_structural   Ba2YbV3O11
_chemical_formula_sum   'Ba8 Yb4 V12 O44'
_cell_volume   1073.96808255
_cell_formula_units_Z   4
loop_
 _symmetry_equiv_pos_site_id
 _symmetry_equiv_pos_as_xyz
  1  'x, y, z'
loop_
 _atom_site_type_symbol
 _atom_site_label
 _atom_site_symmetry_multiplicity
 _atom_site_fract_x
 _atom_site_fract_y
 _atom_site_fract_z
 _atom_site_occupancy
  Ba  Ba0  1  0.27689013  0.77351007  0.94282808  1
  Ba  Ba1  1  0.72310987  0.22648993  0.05717192  1
  Ba  Ba2  1  0.77689013  0.22648993  0.55717192  1
  Ba  Ba3  1  0.22310987  0.77351007  0.44282808  1
  Ba  Ba4  1  0.74838027  0.55311557  0.88873070  1
  Ba  Ba5  1  0.25161973  0.44688443  0.11126930  1
  Ba  Ba6  1  0.24838027  0.44688443  0.61126930  1
  Ba  Ba7  1  0.75161973  0.55311557  0.38873070  1
  Yb  Yb8  1  0.50024344  0.99728947  0.71815089  1
  Yb  Yb9  1  0.49975656  0.00271053  0.28184911  1
  Yb  Yb10  1  0.00024344  0.00271053  0.78184911  1
  Yb  Yb11  1  0.99975656  0.99728947  0.21815089  1
  V  V12  1  0.75690286  0.91084276  0.97749407  1
  V  V13  1  0.24309714  0.08915724  0.02250593  1
  V  V14  1  0.25690286  0.08915724  0.52250593  1
  V  V15  1  0.74309714  0.91084276  0.47749407  1
  V  V16  1  0.52034651  0.68371124  0.67306644  1
  V  V17  1  0.47965349  0.31628876  0.32693356  1
  V  V18  1  0.02034651  0.31628876  0.82693356  1
  V  V19  1  0.97965349  0.68371124  0.17306644  1
  V  V20  1  0.98086135  0.68760099  0.67088475  1
  V  V21  1  0.01913865  0.31239901  0.32911525  1
  V  V22  1  0.48086135  0.31239901  0.82911525  1
  V  V23  1  0.51913865  0.68760099  0.17088475  1
  O  O24  1  0.44412967  0.81526349  0.71705658  1
  O  O25  1  0.55587033  0.18473651  0.28294342  1
  O  O26  1  0.94412967  0.18473651  0.78294342  1
  O  O27  1  0.05587033  0.81526349  0.21705658  1
  O  O28  1  0.55208800  0.17974416  0.80765093  1
  O  O29  1  0.44791200  0.82025584  0.19234907  1
  O  O30  1  0.05208800  0.82025584  0.69234907  1
  O  O31  1  0.94791200  0.17974416  0.30765093  1
  O  O32  1  0.75077071  0.66568209  0.66751682  1
  O  O33  1  0.24922929  0.33431791  0.33248318  1
  O  O34  1  0.25077071  0.33431791  0.83248318  1
  O  O35  1  0.74922929  0.66568209  0.16751682  1
  O  O36  1  0.94611211  0.37593238  0.96884499  1
  O  O37  1  0.05388789  0.62406762  0.03115501  1
  O  O38  1  0.44611211  0.62406762  0.53115501  1
  O  O39  1  0.55388789  0.37593238  0.46884499  1
  O  O40  1  0.94098726  0.39239074  0.73027374  1
  O  O41  1  0.05901274  0.60760926  0.26972626  1
  O  O42  1  0.44098726  0.60760926  0.76972626  1
  O  O43  1  0.55901274  0.39239074  0.23027374  1
  O  O44  1  0.78427303  0.98993912  0.62326283  1
  O  O45  1  0.21572697  0.01006088  0.37673717  1
  O  O46  1  0.28427303  0.01006088  0.87673717  1
  O  O47  1  0.71572697  0.98993912  0.12326283  1
  O  O48  1  0.97807322  0.88875661  0.97561688  1
  O  O49  1  0.02192678  0.11124339  0.02438312  1
  O  O50  1  0.47807322  0.11124339  0.52438312  1
  O  O51  1  0.52192678  0.88875661  0.47561688  1
  O  O52  1  0.64665801  0.78803307  0.94796771  1
  O  O53  1  0.35334199  0.21196693  0.05203229  1
  O  O54  1  0.14665801  0.21196693  0.55203229  1
  O  O55  1  0.85334199  0.78803307  0.44796771  1
  O  O56  1  0.71925547  0.98595845  0.86701390  1
  O  O57  1  0.28074453  0.01404155  0.13298610  1
  O  O58  1  0.21925547  0.01404155  0.63298610  1
  O  O59  1  0.78074453  0.98595845  0.36701390  1
  O  O60  1  0.55805183  0.36983199  0.71638810  1
  O  O61  1  0.44194817  0.63016801  0.28361190  1
  O  O62  1  0.05805183  0.63016801  0.78361190  1
  O  O63  1  0.94194817  0.36983199  0.21638810  1
  O  O64  1  0.56345655  0.38763211  0.96295048  1
  O  O65  1  0.43654345  0.61236789  0.03704952  1
  O  O66  1  0.06345655  0.61236789  0.53704952  1
  O  O67  1  0.93654345  0.38763211  0.46295048  1
