# generated using pymatgen
data_ErCrGeO5
_symmetry_space_group_name_H-M   'P 1'
_cell_length_a   5.79640871
_cell_length_b   7.41395125
_cell_length_c   8.44681630
_cell_angle_alpha   90.00000000
_cell_angle_beta   90.00000000
_cell_angle_gamma   90.00000000
_symmetry_Int_Tables_number   1
_chemical_formula_structural   ErCrGeO5
_chemical_formula_sum   'Er4 Cr4 Ge4 O20'
_cell_volume   362.99594678
_cell_formula_units_Z   4
loop_
 _symmetry_equiv_pos_site_id
 _symmetry_equiv_pos_as_xyz
  1  'x, y, z'
loop_
 _atom_site_type_symbol
 _atom_site_label
 _atom_site_symmetry_multiplicity
 _atom_site_fract_x
 _atom_site_fract_y
 _atom_site_fract_z
 _atom_site_occupancy
  Er  Er0  1  0.50000000  0.35420564  0.32719532  1
  Er  Er1  1  0.50000000  0.64579436  0.67280468  1
  Er  Er2  1  0.50000000  0.14579436  0.82719532  1
  Er  Er3  1  0.50000000  0.85420564  0.17280468  1
  Cr  Cr4  1  0.24978181  -0.00000000  0.50000000  1
  Cr  Cr5  1  0.75021819  -0.00000000  0.50000000  1
  Cr  Cr6  1  0.75021819  0.50000000  0.00000000  1
  Cr  Cr7  1  0.24978181  0.50000000  0.00000000  1
  Ge  Ge8  1  -0.00000000  0.11648562  0.14535138  1
  Ge  Ge9  1  -0.00000000  0.88351438  0.85464862  1
  Ge  Ge10  1  0.00000000  0.38351438  0.64535138  1
  Ge  Ge11  1  0.00000000  0.61648562  0.35464862  1
  O  O12  1  0.25094165  0.11236250  0.28323503  1
  O  O13  1  0.74905835  0.88763750  0.71676497  1
  O  O14  1  0.25094165  0.88763750  0.71676497  1
  O  O15  1  0.74905835  0.38763750  0.78323503  1
  O  O16  1  0.74905835  0.11236250  0.28323503  1
  O  O17  1  0.25094165  0.61236250  0.21676497  1
  O  O18  1  0.74905835  0.61236250  0.21676497  1
  O  O19  1  0.25094165  0.38763750  0.78323503  1
  O  O20  1  -0.00000000  0.34296322  0.08206351  1
  O  O21  1  -0.00000000  0.65703678  0.91793649  1
  O  O22  1  0.00000000  0.15703678  0.58206351  1
  O  O23  1  0.00000000  0.84296322  0.41793649  1
  O  O24  1  0.50000000  0.33051576  0.05859709  1
  O  O25  1  0.50000000  0.66948424  0.94140291  1
  O  O26  1  0.50000000  0.16948424  0.55859709  1
  O  O27  1  0.50000000  0.83051576  0.44140291  1
  O  O28  1  0.21286056  -0.00000000  0.00000000  1
  O  O29  1  0.78713944  -0.00000000  0.00000000  1
  O  O30  1  0.78713944  0.50000000  0.50000000  1
  O  O31  1  0.21286056  0.50000000  0.50000000  1
