# generated using pymatgen
data_MgMo2O7
_symmetry_space_group_name_H-M   'P 1'
_cell_length_a   6.79789877
_cell_length_b   6.45919949
_cell_length_c   8.84305559
_cell_angle_alpha   117.44401001
_cell_angle_beta   90.00000000
_cell_angle_gamma   90.00000000
_symmetry_Int_Tables_number   1
_chemical_formula_structural   MgMo2O7
_chemical_formula_sum   'Mg2 Mo4 O14'
_cell_volume   344.59211298
_cell_formula_units_Z   2
loop_
 _symmetry_equiv_pos_site_id
 _symmetry_equiv_pos_as_xyz
  1  'x, y, z'
loop_
 _atom_site_type_symbol
 _atom_site_label
 _atom_site_symmetry_multiplicity
 _atom_site_fract_x
 _atom_site_fract_y
 _atom_site_fract_z
 _atom_site_occupancy
  Mg  Mg0  1  0.86249614  0.54312840  0.64253868  1
  Mg  Mg1  1  0.36249614  0.45687160  0.35746132  1
  Mo  Mo2  1  0.85743691  0.30816016  0.20697681  1
  Mo  Mo3  1  0.35743691  0.69183984  0.79302319  1
  Mo  Mo4  1  0.31479773  0.86084449  0.22583651  1
  Mo  Mo5  1  0.81479773  0.13915551  0.77416349  1
  O  O6  1  0.62273793  0.05407361  0.63283263  1
  O  O7  1  0.12273693  0.94592639  0.36716737  1
  O  O8  1  0.23942148  0.54211707  0.58473435  1
  O  O9  1  0.73942148  0.45788293  0.41526565  1
  O  O10  1  0.97003835  0.32079715  0.72160282  1
  O  O11  1  0.47003835  0.67920285  0.27839718  1
  O  O12  1  0.60156434  0.58138047  0.76814431  1
  O  O13  1  0.10156434  0.41861953  0.23185569  1
  O  O14  1  0.93776092  0.87995620  0.75137844  1
  O  O15  1  0.43776092  0.12004380  0.24862156  1
  O  O16  1  0.73964804  0.31254035  0.01171986  1
  O  O17  1  0.23964804  0.68745965  0.98828014  1
  O  O18  1  0.87915615  0.01823895  0.15548775  1
  O  O19  1  0.37915615  0.98176105  0.84451225  1
