# generated using pymatgen
data_ZrScB24
_symmetry_space_group_name_H-M   'P 1'
_cell_length_a   5.24043120
_cell_length_b   5.24043087
_cell_length_c   9.09416138
_cell_angle_alpha   73.25452319
_cell_angle_beta   106.74547626
_cell_angle_gamma   120.00000368
_symmetry_Int_Tables_number   1
_chemical_formula_structural   ZrScB24
_chemical_formula_sum   'Zr1 Sc1 B24'
_cell_volume   203.96477808
_cell_formula_units_Z   1
loop_
 _symmetry_equiv_pos_site_id
 _symmetry_equiv_pos_as_xyz
  1  'x, y, z'
loop_
 _atom_site_type_symbol
 _atom_site_label
 _atom_site_symmetry_multiplicity
 _atom_site_fract_x
 _atom_site_fract_y
 _atom_site_fract_z
 _atom_site_occupancy
  Zr  Zr0  1  0.74515524  0.25484476  0.23546573  1
  Sc  Sc1  1  0.25571995  0.74428005  0.76715986  1
  B  B2  1  0.99985717  0.66148319  0.99976019  1
  B  B3  1  0.66138621  0.00014283  0.99976019  1
  B  B4  1  0.33851681  0.33861379  0.99976019  1
  B  B5  1  0.33851681  0.00014283  0.99976019  1
  B  B6  1  0.66138621  0.66148319  0.99976019  1
  B  B7  1  0.99985717  0.33861379  0.99976019  1
  B  B8  1  0.66895043  0.33104957  0.66840546  1
  B  B9  1  0.33050460  0.33104957  0.66840546  1
  B  B10  1  0.66895043  0.66949540  0.66840546  1
  B  B11  1  0.33070443  0.66929557  0.33109823  1
  B  B12  1  0.66968936  0.66929557  0.33109823  1
  B  B13  1  0.33070443  0.33031064  0.33109823  1
  B  B14  1  0.17021945  0.82978055  0.17065974  1
  B  B15  1  0.83022084  0.82978055  0.17065974  1
  B  B16  1  0.17021945  0.16977916  0.17065974  1
  B  B17  1  0.83011239  0.16988761  0.82944971  1
  B  B18  1  0.16922493  0.16988761  0.82944971  1
  B  B19  1  0.83011239  0.83077507  0.82944971  1
  B  B20  1  0.49968677  0.16117149  0.49999565  1
  B  B21  1  0.16148037  0.50031323  0.49999565  1
  B  B22  1  0.83882851  0.83851963  0.49999565  1
  B  B23  1  0.83882851  0.50031323  0.49999565  1
  B  B24  1  0.16148037  0.16117149  0.49999565  1
  B  B25  1  0.49968677  0.83851963  0.49999565  1
