# generated using pymatgen
data_Zr10(IrPt)3
_symmetry_space_group_name_H-M   'P 1'
_cell_length_a   5.51526092
_cell_length_b   8.18829716
_cell_length_c   8.18819788
_cell_angle_alpha   120.00040451
_cell_angle_beta   90.00039109
_cell_angle_gamma   89.99921790
_symmetry_Int_Tables_number   1
_chemical_formula_structural   Zr10(IrPt)3
_chemical_formula_sum   'Zr10 Ir3 Pt3'
_cell_volume   320.24093838
_cell_formula_units_Z   1
loop_
 _symmetry_equiv_pos_site_id
 _symmetry_equiv_pos_as_xyz
  1  'x, y, z'
loop_
 _atom_site_type_symbol
 _atom_site_label
 _atom_site_symmetry_multiplicity
 _atom_site_fract_x
 _atom_site_fract_y
 _atom_site_fract_z
 _atom_site_occupancy
  Zr  Zr0  1  0.50288206  0.33330788  0.66669696  1
  Zr  Zr1  1  0.50288206  0.66661092  0.33330304  1
  Zr  Zr2  1  0.99711851  0.66667604  0.33330331  1
  Zr  Zr3  1  0.99711851  0.33337273  0.66669669  1
  Zr  Zr4  1  0.75000888  0.24502507  0.00000000  1
  Zr  Zr5  1  0.74999522  0.75495074  0.75497466  1
  Zr  Zr6  1  0.74999522  -0.00002392  0.24502534  1
  Zr  Zr7  1  0.25000816  0.75314065  1.00000000  1
  Zr  Zr8  1  0.24999534  0.24688560  0.24685085  1
  Zr  Zr9  1  0.24999534  0.00003476  0.75314915  1
  Ir  Ir10  1  0.74999810  0.60797190  0.00000000  1
  Ir  Ir11  1  0.75000147  0.39200412  0.39204883  1
  Ir  Ir12  1  0.75000147  0.99995529  0.60795117  1
  Pt  Pt13  1  0.24999297  0.39399424  1.00000000  1
  Pt  Pt14  1  0.25000335  0.60603951  0.60598506  1
  Pt  Pt15  1  0.25000335  0.00005445  0.39401494  1
