# generated using pymatgen
data_Al3Co(PO4)4
_symmetry_space_group_name_H-M   'P 1'
_cell_length_a   8.88085407
_cell_length_b   8.88085407
_cell_length_c   28.55668747
_cell_angle_alpha   90.88301818
_cell_angle_beta   90.88301818
_cell_angle_gamma   109.35922000
_symmetry_Int_Tables_number   1
_chemical_formula_structural   Al3Co(PO4)4
_chemical_formula_sum   'Al12 Co4 P16 O64'
_cell_volume   2124.15354762
_cell_formula_units_Z   4
loop_
 _symmetry_equiv_pos_site_id
 _symmetry_equiv_pos_as_xyz
  1  'x, y, z'
loop_
 _atom_site_type_symbol
 _atom_site_label
 _atom_site_symmetry_multiplicity
 _atom_site_fract_x
 _atom_site_fract_y
 _atom_site_fract_z
 _atom_site_occupancy
  Al  Al0  1  0.16668234  0.11693228  0.80683399  1
  Al  Al1  1  0.83331766  0.88306772  0.19316601  1
  Al  Al2  1  0.88306772  0.83331766  0.69316601  1
  Al  Al3  1  0.11693228  0.16668234  0.30683399  1
  Al  Al4  1  0.34692230  0.35670824  0.94289885  1
  Al  Al5  1  0.65307770  0.64329176  0.05710115  1
  Al  Al6  1  0.64329176  0.65307770  0.55710115  1
  Al  Al7  1  0.35670824  0.34692230  0.44289885  1
  Al  Al8  1  0.71753752  0.97735116  0.88294231  1
  Al  Al9  1  0.28246248  0.02264884  0.11705769  1
  Al  Al10  1  0.02264884  0.28246248  0.61705769  1
  Al  Al11  1  0.97735116  0.71753752  0.38294231  1
  Co  Co12  1  0.49694857  0.20665944  0.63316825  1
  Co  Co13  1  0.50305143  0.79334056  0.36683175  1
  Co  Co14  1  0.79334056  0.50305143  0.86683175  1
  Co  Co15  1  0.20665944  0.49694857  0.13316825  1
  P  P16  1  0.71956875  0.97831770  0.61660327  1
  P  P17  1  0.28043125  0.02168230  0.38339673  1
  P  P18  1  0.02168230  0.28043125  0.88339673  1
  P  P19  1  0.97831770  0.71956875  0.11660327  1
  P  P20  1  0.18306169  0.13739384  0.69664731  1
  P  P21  1  0.81693831  0.86260616  0.30335269  1
  P  P22  1  0.86260616  0.81693831  0.80335269  1
  P  P23  1  0.13739384  0.18306169  0.19664731  1
  P  P24  1  0.64240721  0.67077767  0.94514261  1
  P  P25  1  0.35759279  0.32922233  0.05485739  1
  P  P26  1  0.32922233  0.35759279  0.55485739  1
  P  P27  1  0.67077767  0.64240721  0.44514261  1
  P  P28  1  0.48879513  0.18737774  0.86709884  1
  P  P29  1  0.51120487  0.81262226  0.13290116  1
  P  P30  1  0.81262226  0.51120487  0.63290116  1
  P  P31  1  0.18737774  0.48879513  0.36709884  1
  O  O32  1  0.60930290  0.33959667  0.84658369  1
  O  O33  1  0.39069710  0.66040333  0.15341631  1
  O  O34  1  0.66040333  0.39069710  0.65341631  1
  O  O35  1  0.33959667  0.60930290  0.34658369  1
  O  O36  1  0.18621352  0.18041998  0.74900343  1
  O  O37  1  0.81378648  0.81958002  0.25099657  1
  O  O38  1  0.81958002  0.81378648  0.75099657  1
  O  O39  1  0.18041998  0.18621352  0.24900343  1
  O  O40  1  0.75479242  0.91596830  0.66414984  1
  O  O41  1  0.24520758  0.08403170  0.33585016  1
  O  O42  1  0.08403170  0.24520758  0.83585016  1
  O  O43  1  0.91596830  0.75479242  0.16414984  1
  O  O44  1  0.91874408  0.03957478  0.31189783  1
  O  O45  1  0.08125592  0.96042522  0.68810217  1
  O  O46  1  0.96042522  0.08125592  0.18810217  1
  O  O47  1  0.03957478  0.91874408  0.81189783  1
  O  O48  1  0.34844420  0.12281179  0.83208547  1
  O  O49  1  0.65155580  0.87718821  0.16791453  1
  O  O50  1  0.87718821  0.65155580  0.66791453  1
  O  O51  1  0.12281179  0.34844420  0.33208547  1
  O  O52  1  0.65484268  0.83543790  0.92639883  1
  O  O53  1  0.34515732  0.16456210  0.07360117  1
  O  O54  1  0.16456210  0.34515732  0.57360117  1
  O  O55  1  0.83543790  0.65484268  0.42639883  1
  O  O56  1  0.58579155  0.05033629  0.62280349  1
  O  O57  1  0.41420845  0.94966371  0.37719651  1
  O  O58  1  0.94966371  0.41420845  0.87719651  1
  O  O59  1  0.05033629  0.58579155  0.12280349  1
  O  O60  1  0.75292795  0.88774981  0.83085793  1
  O  O61  1  0.24707205  0.11225019  0.16914207  1
  O  O62  1  0.11225019  0.24707205  0.66914207  1
  O  O63  1  0.88774981  0.75292795  0.33085793  1
  O  O64  1  0.56619442  0.05848566  0.87377806  1
  O  O65  1  0.43380558  0.94151434  0.12622194  1
  O  O66  1  0.94151434  0.43380558  0.62622194  1
  O  O67  1  0.05848566  0.56619442  0.37377806  1
  O  O68  1  0.66164390  0.84045198  0.58075580  1
  O  O69  1  0.33835610  0.15954802  0.41924420  1
  O  O70  1  0.15954802  0.33835610  0.91924420  1
  O  O71  1  0.84045198  0.66164390  0.08075580  1
  O  O72  1  0.35492953  0.16288264  0.68161487  1
  O  O73  1  0.64507047  0.83711736  0.31838513  1
  O  O74  1  0.83711736  0.64507047  0.81838513  1
  O  O75  1  0.16288264  0.35492953  0.18161487  1
  O  O76  1  0.42939903  0.22526135  0.91496301  1
  O  O77  1  0.57060097  0.77473865  0.08503699  1
  O  O78  1  0.77473865  0.57060097  0.58503699  1
  O  O79  1  0.22526135  0.42939903  0.41496301  1
  O  O80  1  0.47204095  0.55436713  0.93523165  1
  O  O81  1  0.52795905  0.44563287  0.06476835  1
  O  O82  1  0.44563287  0.52795905  0.56476835  1
  O  O83  1  0.55436713  0.47204095  0.43523165  1
  O  O84  1  0.67717507  0.68884962  0.99798420  1
  O  O85  1  0.32282493  0.31115038  0.00201580  1
  O  O86  1  0.31115038  0.32282493  0.50201580  1
  O  O87  1  0.68884962  0.67717507  0.49798420  1
  O  O88  1  0.39110174  0.23216940  0.57839980  1
  O  O89  1  0.60889826  0.76783060  0.42160020  1
  O  O90  1  0.76783060  0.60889826  0.92160020  1
  O  O91  1  0.23216940  0.39110174  0.07839980  1
  O  O92  1  0.87177489  0.10500873  0.59868074  1
  O  O93  1  0.12822511  0.89499127  0.40131926  1
  O  O94  1  0.89499127  0.12822511  0.90131926  1
  O  O95  1  0.10500873  0.87177489  0.09868074  1
