# generated using pymatgen
data_Yb4SmS5
_symmetry_space_group_name_H-M   'P 1'
_cell_length_a   3.97927196
_cell_length_b   5.64445560
_cell_length_c   10.61752144
_cell_angle_alpha   74.58499534
_cell_angle_beta   79.19939103
_cell_angle_gamma   90.00000000
_symmetry_Int_Tables_number   1
_chemical_formula_structural   Yb4SmS5
_chemical_formula_sum   'Yb4 Sm1 S5'
_cell_volume   225.51398440
_cell_formula_units_Z   1
loop_
 _symmetry_equiv_pos_site_id
 _symmetry_equiv_pos_as_xyz
  1  'x, y, z'
loop_
 _atom_site_type_symbol
 _atom_site_label
 _atom_site_symmetry_multiplicity
 _atom_site_fract_x
 _atom_site_fract_y
 _atom_site_fract_z
 _atom_site_occupancy
  Yb  Yb0  1  0.39889672  0.89889672  0.20220656  1
  Yb  Yb1  1  0.79929369  0.29929369  0.40141261  1
  Yb  Yb2  1  0.20070631  0.70070631  0.59858739  1
  Yb  Yb3  1  0.60110328  0.10110328  0.79779344  1
  Sm  Sm4  1  -0.00000000  0.50000000  -0.00000000  1
  S  S5  1  0.19962338  0.19962338  0.60075324  1
  S  S6  1  0.60100850  0.60100850  0.79798300  1
  S  S7  1  -0.00000000  0.00000000  -0.00000000  1
  S  S8  1  0.39899150  0.39899150  0.20201700  1
  S  S9  1  0.80037662  0.80037662  0.39924676  1
