# generated using pymatgen
data_ZnCuAu2
_symmetry_space_group_name_H-M   'P 1'
_cell_length_a   2.96407555
_cell_length_b   4.62122119
_cell_length_c   9.13069331
_cell_angle_alpha   88.26130576
_cell_angle_beta   90.00000000
_cell_angle_gamma   90.00000000
_symmetry_Int_Tables_number   1
_chemical_formula_structural   ZnCuAu2
_chemical_formula_sum   'Zn2 Cu2 Au4'
_cell_volume   125.01144764
_cell_formula_units_Z   2
loop_
 _symmetry_equiv_pos_site_id
 _symmetry_equiv_pos_as_xyz
  1  'x, y, z'
loop_
 _atom_site_type_symbol
 _atom_site_label
 _atom_site_symmetry_multiplicity
 _atom_site_fract_x
 _atom_site_fract_y
 _atom_site_fract_z
 _atom_site_occupancy
  Zn  Zn0  1  0.00000000  0.69135729  0.11655865  1
  Zn  Zn1  1  0.00000000  0.30864271  0.88344135  1
  Cu  Cu2  1  0.00000000  0.18540317  0.39008648  1
  Cu  Cu3  1  -0.00000000  0.81459683  0.60991352  1
  Au  Au4  1  0.50000000  0.68624346  0.36767390  1
  Au  Au5  1  0.50000000  0.31375654  0.63232610  1
  Au  Au6  1  0.50000000  0.18875147  0.13881833  1
  Au  Au7  1  0.50000000  0.81124853  0.86118167  1
