# generated using pymatgen
data_YbTe4Pb3
_symmetry_space_group_name_H-M   'P 1'
_cell_length_a   4.61382835
_cell_length_b   7.99847032
_cell_length_c   8.00090258
_cell_angle_alpha   99.68288395
_cell_angle_beta   106.75809987
_cell_angle_gamma   89.99999995
_symmetry_Int_Tables_number   1
_chemical_formula_structural   YbTe4Pb3
_chemical_formula_sum   'Yb1 Te4 Pb3'
_cell_volume   278.32645078
_cell_formula_units_Z   1
loop_
 _symmetry_equiv_pos_site_id
 _symmetry_equiv_pos_as_xyz
  1  'x, y, z'
loop_
 _atom_site_type_symbol
 _atom_site_label
 _atom_site_symmetry_multiplicity
 _atom_site_fract_x
 _atom_site_fract_y
 _atom_site_fract_z
 _atom_site_occupancy
  Yb  Yb0  1  0.00000000  0.00000000  0.00000000  1
  Te  Te1  1  0.37888392  0.12073740  0.75776784  1
  Te  Te2  1  0.12297255  0.36877040  0.24594511  1
  Te  Te3  1  0.87702745  0.63122960  0.75405489  1
  Te  Te4  1  0.62111608  0.87926260  0.24223216  1
  Pb  Pb5  1  0.75002496  0.24965557  0.50004992  1
  Pb  Pb6  1  0.50000000  0.50000000  0.00000000  1
  Pb  Pb7  1  0.24997504  0.75034443  0.49995008  1
