# generated using pymatgen
data_CaMo2O7
_symmetry_space_group_name_H-M   'P 1'
_cell_length_a   7.10706926
_cell_length_b   6.89826981
_cell_length_c   9.37765424
_cell_angle_alpha   118.23348011
_cell_angle_beta   90.00000000
_cell_angle_gamma   90.00000000
_symmetry_Int_Tables_number   1
_chemical_formula_structural   CaMo2O7
_chemical_formula_sum   'Ca2 Mo4 O14'
_cell_volume   405.05522946
_cell_formula_units_Z   2
loop_
 _symmetry_equiv_pos_site_id
 _symmetry_equiv_pos_as_xyz
  1  'x, y, z'
loop_
 _atom_site_type_symbol
 _atom_site_label
 _atom_site_symmetry_multiplicity
 _atom_site_fract_x
 _atom_site_fract_y
 _atom_site_fract_z
 _atom_site_occupancy
  Ca  Ca0  1  0.87602241  0.52239555  0.64092262  1
  Ca  Ca1  1  0.37602241  0.47760445  0.35907638  1
  Mo  Mo2  1  0.85192081  0.31346717  0.20854812  1
  Mo  Mo3  1  0.35192081  0.68653283  0.79145188  1
  Mo  Mo4  1  0.31955053  0.87331369  0.20597923  1
  Mo  Mo5  1  0.81955053  0.12668631  0.79402077  1
  O  O6  1  0.64226886  0.03551607  0.65120781  1
  O  O7  1  0.14226786  0.96448393  0.34879219  1
  O  O8  1  0.21939093  0.54720663  0.60232575  1
  O  O9  1  0.71939093  0.45279337  0.39767425  1
  O  O10  1  0.96835281  0.29550060  0.74637432  1
  O  O11  1  0.46835281  0.70449940  0.25362568  1
  O  O12  1  0.57789618  0.56062228  0.75268634  1
  O  O13  1  0.07789618  0.43937772  0.24731366  1
  O  O14  1  0.94101436  0.89082499  0.77899795  1
  O  O15  1  0.44101436  0.10917501  0.22100205  1
  O  O16  1  0.73998516  0.29919175  0.01848965  1
  O  O17  1  0.23998516  0.70080825  0.98151035  1
  O  O18  1  0.88865297  0.04716135  0.16899240  1
  O  O19  1  0.38865297  0.95283865  0.83100760  1
