# generated using pymatgen
data_ZrMnFe
_symmetry_space_group_name_H-M   'P 1'
_cell_length_a   4.96811762
_cell_length_b   4.96906372
_cell_length_c   8.16446398
_cell_angle_alpha   90.00000000
_cell_angle_beta   90.00000000
_cell_angle_gamma   59.70729766
_symmetry_Int_Tables_number   1
_chemical_formula_structural   ZrMnFe
_chemical_formula_sum   'Zr4 Mn4 Fe4'
_cell_volume   174.03485584
_cell_formula_units_Z   4
loop_
 _symmetry_equiv_pos_site_id
 _symmetry_equiv_pos_as_xyz
  1  'x, y, z'
loop_
 _atom_site_type_symbol
 _atom_site_label
 _atom_site_symmetry_multiplicity
 _atom_site_fract_x
 _atom_site_fract_y
 _atom_site_fract_z
 _atom_site_occupancy
  Zr  Zr0  1  0.33322602  0.33314904  0.56399326  1
  Zr  Zr1  1  0.66641626  0.66639177  0.43722696  1
  Zr  Zr2  1  0.66641626  0.66639177  0.06277304  1
  Zr  Zr3  1  0.33322602  0.33314904  0.93600674  1
  Mn  Mn4  1  0.83393620  0.83390183  0.75000000  1
  Mn  Mn5  1  0.16938275  0.66138115  0.25000000  1
  Mn  Mn6  1  0.66130365  0.16942655  0.25000000  1
  Mn  Mn7  1  0.16926751  0.16926175  0.25000000  1
  Fe  Fe8  1  0.00007614  0.00015992  0.49581951  1
  Fe  Fe9  1  0.00007614  0.00015992  0.00418049  1
  Fe  Fe10  1  0.83376457  0.33288723  0.75000000  1
  Fe  Fe11  1  0.33290849  0.83374003  0.75000000  1
