# generated using pymatgen
data_ZnIn2Cu2S5
_symmetry_space_group_name_H-M   'P 1'
_cell_length_a   3.94053711
_cell_length_b   5.53716311
_cell_length_c   10.41496347
_cell_angle_alpha   74.63066767
_cell_angle_beta   79.09525799
_cell_angle_gamma   90.00000000
_symmetry_Int_Tables_number   1
_chemical_formula_structural   ZnIn2Cu2S5
_chemical_formula_sum   'Zn1 In2 Cu2 S5'
_cell_volume   214.86267454
_cell_formula_units_Z   1
loop_
 _symmetry_equiv_pos_site_id
 _symmetry_equiv_pos_as_xyz
  1  'x, y, z'
loop_
 _atom_site_type_symbol
 _atom_site_label
 _atom_site_symmetry_multiplicity
 _atom_site_fract_x
 _atom_site_fract_y
 _atom_site_fract_z
 _atom_site_occupancy
  Zn  Zn0  1  0.40454282  0.40518714  0.19091435  1
  In  In1  1  0.80102625  0.80938469  0.39794750  1
  In  In2  1  0.59640663  0.59826729  0.80718675  1
  Cu  Cu3  1  0.99948446  0.99227751  0.00103108  1
  Cu  Cu4  1  0.19903433  0.19694423  0.60193135  1
  S  S5  1  0.49533530  0.76618554  0.00932940  1
  S  S6  1  0.90645809  0.16366560  0.18708383  1
  S  S7  1  0.29896849  0.52322780  0.40206302  1
  S  S8  1  0.69931129  0.97485780  0.60137743  1
  S  S9  1  0.09943235  0.32000239  0.80113530  1
