# generated using pymatgen
data_MgSnBiO5
_symmetry_space_group_name_H-M   'P 1'
_cell_length_a   5.30313483
_cell_length_b   10.37084510
_cell_length_c   15.42393608
_cell_angle_alpha   90.00000000
_cell_angle_beta   90.00000000
_cell_angle_gamma   90.00000000
_symmetry_Int_Tables_number   1
_chemical_formula_structural   MgSnBiO5
_chemical_formula_sum   'Mg8 Sn8 Bi8 O40'
_cell_volume   848.28548023
_cell_formula_units_Z   8
loop_
 _symmetry_equiv_pos_site_id
 _symmetry_equiv_pos_as_xyz
  1  'x, y, z'
loop_
 _atom_site_type_symbol
 _atom_site_label
 _atom_site_symmetry_multiplicity
 _atom_site_fract_x
 _atom_site_fract_y
 _atom_site_fract_z
 _atom_site_occupancy
  Mg  Mg0  1  0.53472001  0.37879998  0.43567695  1
  Mg  Mg1  1  0.03472001  0.12120002  0.43567695  1
  Mg  Mg2  1  0.03472001  0.62120002  0.06432305  1
  Mg  Mg3  1  0.96527999  0.37879998  0.93567695  1
  Mg  Mg4  1  0.46527999  0.12120002  0.93567695  1
  Mg  Mg5  1  0.96527999  0.87879998  0.56432305  1
  Mg  Mg6  1  0.46527999  0.62120002  0.56432305  1
  Mg  Mg7  1  0.53472001  0.87879998  0.06432305  1
  Sn  Sn8  1  0.04685080  0.37707379  0.56576520  1
  Sn  Sn9  1  0.45314920  0.87707379  0.43423480  1
  Sn  Sn10  1  0.95314920  0.62292621  0.43423480  1
  Sn  Sn11  1  0.54685080  0.12292621  0.56576520  1
  Sn  Sn12  1  0.95314920  0.12292621  0.06576520  1
  Sn  Sn13  1  0.04685080  0.87707379  0.93423480  1
  Sn  Sn14  1  0.45314920  0.37707379  0.06576520  1
  Sn  Sn15  1  0.54685080  0.62292621  0.93423480  1
  Bi  Bi16  1  0.98867274  0.85730877  0.24287647  1
  Bi  Bi17  1  0.01132726  0.14269123  0.75712353  1
  Bi  Bi18  1  0.51132726  0.35730877  0.75712353  1
  Bi  Bi19  1  0.01132726  0.64269123  0.74287647  1
  Bi  Bi20  1  0.48867274  0.14269123  0.25712353  1
  Bi  Bi21  1  0.48867274  0.64269123  0.24287647  1
  Bi  Bi22  1  0.51132726  0.85730877  0.74287647  1
  Bi  Bi23  1  0.98867274  0.35730877  0.25712353  1
  O  O24  1  0.85708269  0.30699041  0.67865915  1
  O  O25  1  0.24159107  0.00194651  0.02590945  1
  O  O26  1  0.25840893  0.50194651  0.97409055  1
  O  O27  1  0.31643393  0.79815226  0.16681631  1
  O  O28  1  0.18356607  0.29815226  0.83318369  1
  O  O29  1  0.85708269  0.80699041  0.82134085  1
  O  O30  1  0.18356607  0.79815226  0.66681631  1
  O  O31  1  0.64291731  0.80699041  0.32134085  1
  O  O32  1  0.24159107  0.50194651  0.47409055  1
  O  O33  1  0.14291731  0.69300959  0.32134085  1
  O  O34  1  0.64291731  0.30699041  0.17865915  1
  O  O35  1  0.81442814  0.24146046  0.50858785  1
  O  O36  1  0.74159107  0.99805349  0.47409055  1
  O  O37  1  0.68356607  0.70184774  0.66681631  1
  O  O38  1  0.25565328  0.99590495  0.84622404  1
  O  O39  1  0.74159107  0.49805349  0.02590945  1
  O  O40  1  0.14291731  0.19300959  0.17865915  1
  O  O41  1  0.81643393  0.20184774  0.33318369  1
  O  O42  1  0.31442814  0.75853954  0.99141215  1
  O  O43  1  0.25840893  0.00194651  0.52590945  1
  O  O44  1  0.18557186  0.75853954  0.49141215  1
  O  O45  1  0.74434672  0.00409505  0.15377596  1
  O  O46  1  0.68356607  0.20184774  0.83318369  1
  O  O47  1  0.75565328  0.00409505  0.65377596  1
  O  O48  1  0.18557186  0.25853954  0.00858785  1
  O  O49  1  0.31442814  0.25853954  0.50858785  1
  O  O50  1  0.75840893  0.49805349  0.52590945  1
  O  O51  1  0.75840893  0.99805349  0.97409055  1
  O  O52  1  0.75565328  0.50409505  0.84622404  1
  O  O53  1  0.68557186  0.74146046  0.49141215  1
  O  O54  1  0.68557186  0.24146046  0.00858785  1
  O  O55  1  0.81442814  0.74146046  0.99141215  1
  O  O56  1  0.74434672  0.50409505  0.34622404  1
  O  O57  1  0.81643393  0.70184774  0.16681631  1
  O  O58  1  0.31643393  0.29815226  0.33318369  1
  O  O59  1  0.25565328  0.49590495  0.65377596  1
  O  O60  1  0.24434672  0.49590495  0.15377596  1
  O  O61  1  0.35708269  0.19300959  0.67865915  1
  O  O62  1  0.24434672  0.99590495  0.34622404  1
  O  O63  1  0.35708269  0.69300959  0.82134085  1
