# generated using pymatgen
data_YLuGa6
_symmetry_space_group_name_H-M   'P 1'
_cell_length_a   6.10897471
_cell_length_b   6.11055501
_cell_length_c   9.55051927
_cell_angle_alpha   90.00000000
_cell_angle_beta   90.00000000
_cell_angle_gamma   59.99143695
_symmetry_Int_Tables_number   1
_chemical_formula_structural   YLuGa6
_chemical_formula_sum   'Y2 Lu2 Ga12'
_cell_volume   308.72309688
_cell_formula_units_Z   2
loop_
 _symmetry_equiv_pos_site_id
 _symmetry_equiv_pos_as_xyz
  1  'x, y, z'
loop_
 _atom_site_type_symbol
 _atom_site_label
 _atom_site_symmetry_multiplicity
 _atom_site_fract_x
 _atom_site_fract_y
 _atom_site_fract_z
 _atom_site_occupancy
  Y  Y0  1  0.33336872  0.33331564  0.75000000  1
  Y  Y1  1  0.66663128  0.66668436  0.25000000  1
  Lu  Lu2  1  -0.00000000  0.00000000  0.50000000  1
  Lu  Lu3  1  -0.00000000  0.00000000  -0.00000000  1
  Ga  Ga4  1  0.81635552  0.36730328  0.75000000  1
  Ga  Ga5  1  0.36727107  0.81636447  0.75000000  1
  Ga  Ga6  1  0.81635552  0.81634119  0.75000000  1
  Ga  Ga7  1  0.18364448  0.63269672  0.25000000  1
  Ga  Ga8  1  0.63272893  0.18363553  0.25000000  1
  Ga  Ga9  1  0.18364448  0.18365881  0.25000000  1
  Ga  Ga10  1  0.50000000  0.00000000  0.50000000  1
  Ga  Ga11  1  -0.00000000  0.50000000  0.50000000  1
  Ga  Ga12  1  0.50000000  0.50000000  0.50000000  1
  Ga  Ga13  1  0.50000000  0.00000000  -0.00000000  1
  Ga  Ga14  1  -0.00000000  0.50000000  -0.00000000  1
  Ga  Ga15  1  0.50000000  0.50000000  -0.00000000  1
