# generated using pymatgen
data_Y6Cr(SiS7)2
_symmetry_space_group_name_H-M   'P 1'
_cell_length_a   5.61359077
_cell_length_b   9.90992074
_cell_length_c   9.92395481
_cell_angle_alpha   120.04974451
_cell_angle_beta   90.06180736
_cell_angle_gamma   89.95260945
_symmetry_Int_Tables_number   1
_chemical_formula_structural   Y6Cr(SiS7)2
_chemical_formula_sum   'Y6 Cr1 Si2 S14'
_cell_volume   477.86822184
_cell_formula_units_Z   1
loop_
 _symmetry_equiv_pos_site_id
 _symmetry_equiv_pos_as_xyz
  1  'x, y, z'
loop_
 _atom_site_type_symbol
 _atom_site_label
 _atom_site_symmetry_multiplicity
 _atom_site_fract_x
 _atom_site_fract_y
 _atom_site_fract_z
 _atom_site_occupancy
  Y  Y0  1  0.25069854  0.23300166  0.35643565  1
  Y  Y1  1  0.25064189  0.64413528  0.87705281  1
  Y  Y2  1  0.25063987  0.12236497  0.76636460  1
  Y  Y3  1  0.74910034  0.76749928  0.64477501  1
  Y  Y4  1  0.74826091  0.35479678  0.12219193  1
  Y  Y5  1  0.74885072  0.87761901  0.23304721  1
  Cr  Cr6  1  0.48666626  0.00046155  0.00052324  1
  Si  Si7  1  0.83498120  0.33343807  0.66670102  1
  Si  Si8  1  0.33768813  0.66665823  0.33326173  1
  S  S9  1  0.46038313  0.33339821  0.66666524  1
  S  S10  1  0.96285838  0.66637182  0.33330348  1
  S  S11  1  0.72436251  0.15973024  0.24544923  1
  S  S12  1  0.72238987  0.75611464  0.91454638  1
  S  S13  1  0.72488806  0.08564335  0.84002938  1
  S  S14  1  0.24809770  0.83825480  0.75491023  1
  S  S15  1  0.25084782  0.24354810  0.08233980  1
  S  S16  1  0.24836219  0.91687963  0.16206945  1
  S  S17  1  0.98480874  0.10796470  0.51906608  1
  S  S18  1  0.98446126  0.48078775  0.58908872  1
  S  S19  1  0.98475681  0.41153307  0.89212906  1
  S  S20  1  0.48764675  0.89185930  0.48004805  1
  S  S21  1  0.48731115  0.51986604  0.41170681  1
  S  S22  1  0.48729778  0.58807353  0.10829488  1
