# generated using pymatgen
data_Y2(MgZn)3
_symmetry_space_group_name_H-M   'P 1'
_cell_length_a   4.91751123
_cell_length_b   4.91751123
_cell_length_c   8.52789312
_cell_angle_alpha   73.24264227
_cell_angle_beta   90.00000000
_cell_angle_gamma   120.00000000
_symmetry_Int_Tables_number   1
_chemical_formula_structural   Y2(MgZn)3
_chemical_formula_sum   'Y2 Mg3 Zn3'
_cell_volume   168.40450997
_cell_formula_units_Z   1
loop_
 _symmetry_equiv_pos_site_id
 _symmetry_equiv_pos_as_xyz
  1  'x, y, z'
loop_
 _atom_site_type_symbol
 _atom_site_label
 _atom_site_symmetry_multiplicity
 _atom_site_fract_x
 _atom_site_fract_y
 _atom_site_fract_z
 _atom_site_occupancy
  Y  Y0  1  0.00639843  0.01279687  0.98080470  1
  Y  Y1  1  0.49444472  0.98888944  0.51666585  1
  Mg  Mg2  1  0.24651314  0.49302627  0.26046059  1
  Mg  Mg3  1  0.75250900  0.50501800  0.74247300  1
  Mg  Mg4  1  0.62341522  0.24683044  0.12975434  1
  Zn  Zn5  1  0.12613245  0.25226489  0.62160266  1
  Zn  Zn6  1  0.88000044  0.76000089  0.35999867  1
  Zn  Zn7  1  0.37058660  0.74117321  0.88824019  1
