# generated using pymatgen
data_YScS2
_symmetry_space_group_name_H-M   'P 1'
_cell_length_a   3.80221541
_cell_length_b   3.80221542
_cell_length_c   6.63705694
_cell_angle_alpha   73.35516118
_cell_angle_beta   90.00000000
_cell_angle_gamma   120.00000006
_symmetry_Int_Tables_number   1
_chemical_formula_structural   YScS2
_chemical_formula_sum   'Y1 Sc1 S2'
_cell_volume   78.41912168
_cell_formula_units_Z   1
loop_
 _symmetry_equiv_pos_site_id
 _symmetry_equiv_pos_as_xyz
  1  'x, y, z'
loop_
 _atom_site_type_symbol
 _atom_site_label
 _atom_site_symmetry_multiplicity
 _atom_site_fract_x
 _atom_site_fract_y
 _atom_site_fract_z
 _atom_site_occupancy
  Y  Y0  1  0.50000000  0.00000000  0.50000000  1
  Sc  Sc1  1  -0.00000000  -0.00000000  0.00000000  1
  S  S2  1  0.25597402  0.51194804  0.23207795  1
  S  S3  1  0.74402598  0.48805196  0.76792205  1
