# generated using pymatgen
data_YTiNbO6
_symmetry_space_group_name_H-M   'P 1'
_cell_length_a   5.24596502
_cell_length_b   5.64002281
_cell_length_c   14.78512561
_cell_angle_alpha   90.00000000
_cell_angle_beta   90.00000000
_cell_angle_gamma   89.33672942
_symmetry_Int_Tables_number   1
_chemical_formula_structural   YTiNbO6
_chemical_formula_sum   'Y4 Ti4 Nb4 O24'
_cell_volume   437.42355861
_cell_formula_units_Z   4
loop_
 _symmetry_equiv_pos_site_id
 _symmetry_equiv_pos_as_xyz
  1  'x, y, z'
loop_
 _atom_site_type_symbol
 _atom_site_label
 _atom_site_symmetry_multiplicity
 _atom_site_fract_x
 _atom_site_fract_y
 _atom_site_fract_z
 _atom_site_occupancy
  Y  Y0  1  0.25538482  0.23779808  0.99948727  1
  Y  Y1  1  0.74461518  0.26220192  0.49948727  1
  Y  Y2  1  0.74461518  0.76220192  0.00051273  1
  Y  Y3  1  0.25538482  0.73779808  0.50051273  1
  Ti  Ti4  1  0.68399416  0.31213955  0.83657050  1
  Ti  Ti5  1  0.31600584  0.18786045  0.33657050  1
  Ti  Ti6  1  0.31600584  0.68786045  0.16342950  1
  Ti  Ti7  1  0.68399416  0.81213955  0.66342950  1
  Nb  Nb8  1  0.17682646  0.18523633  0.66931035  1
  Nb  Nb9  1  0.82317354  0.31476367  0.16931035  1
  Nb  Nb10  1  0.82317354  0.81476367  0.33068965  1
  Nb  Nb11  1  0.17682646  0.68523633  0.83068965  1
  O  O12  1  0.96200360  0.43464014  0.90779366  1
  O  O13  1  0.46298109  0.05742958  0.59181952  1
  O  O14  1  0.03799640  0.06535986  0.40779366  1
  O  O15  1  0.53701891  0.44257042  0.09181952  1
  O  O16  1  0.03799640  0.56535986  0.09220634  1
  O  O17  1  0.53701891  0.94257042  0.40818048  1
  O  O18  1  0.96200360  0.93464014  0.59220634  1
  O  O19  1  0.46298109  0.55742958  0.90818048  1
  O  O20  1  0.58418872  0.08881751  0.91340559  1
  O  O21  1  0.08204868  0.41257516  0.58486991  1
  O  O22  1  0.41581128  0.41118249  0.41340559  1
  O  O23  1  0.91795132  0.08742484  0.08486991  1
  O  O24  1  0.41581128  0.91118249  0.08659441  1
  O  O25  1  0.91795132  0.58742484  0.41513009  1
  O  O26  1  0.58418872  0.58881751  0.58659441  1
  O  O27  1  0.08204868  0.91257516  0.91513009  1
  O  O28  1  0.85795020  0.14158681  0.74259386  1
  O  O29  1  0.35767955  0.36031621  0.76043897  1
  O  O30  1  0.14204980  0.35841319  0.24259386  1
  O  O31  1  0.64232045  0.13968379  0.26043897  1
  O  O32  1  0.14204980  0.85841319  0.25740614  1
  O  O33  1  0.64232045  0.63968379  0.23956103  1
  O  O34  1  0.85795020  0.64158681  0.75740614  1
  O  O35  1  0.35767955  0.86031621  0.73956103  1
