# generated using pymatgen
data_Zn3InCuS5
_symmetry_space_group_name_H-M   'P 1'
_cell_length_a   6.36507499
_cell_length_b   6.71898406
_cell_length_c   10.26313011
_cell_angle_alpha   70.91654825
_cell_angle_beta   89.99478152
_cell_angle_gamma   90.00623477
_symmetry_Int_Tables_number   1
_chemical_formula_structural   Zn3InCuS5
_chemical_formula_sum   'Zn6 In2 Cu2 S10'
_cell_volume   414.79996258
_cell_formula_units_Z   2
loop_
 _symmetry_equiv_pos_site_id
 _symmetry_equiv_pos_as_xyz
  1  'x, y, z'
loop_
 _atom_site_type_symbol
 _atom_site_label
 _atom_site_symmetry_multiplicity
 _atom_site_fract_x
 _atom_site_fract_y
 _atom_site_fract_z
 _atom_site_occupancy
  Zn  Zn0  1  0.49333867  0.13130413  0.40138285  1
  Zn  Zn1  1  0.50030947  0.53562520  0.59908201  1
  Zn  Zn2  1  0.50584556  0.93257213  0.79814042  1
  Zn  Zn3  1  0.99817998  0.66351464  0.00261497  1
  Zn  Zn4  1  0.00136394  0.06709548  0.20492826  1
  Zn  Zn5  1  0.99904845  0.87073849  0.59272345  1
  In  In6  1  0.49985752  0.73409731  0.20082953  1
  In  In7  1  0.99830777  0.27136154  0.79995874  1
  Cu  Cu8  1  0.49929698  0.33310567  0.00024653  1
  Cu  Cu9  1  0.00015412  0.46307376  0.39986566  1
  S  S10  1  0.13527137  0.33564557  0.00926408  1
  S  S11  1  0.10696200  0.73076841  0.20174547  1
  S  S12  1  0.12520736  0.13574502  0.40043323  1
  S  S13  1  0.12896867  0.54350997  0.58890481  1
  S  S14  1  0.13103236  0.91932050  0.79960821  1
  S  S15  1  0.60643098  0.26707708  0.80220462  1
  S  S16  1  0.62895730  0.66088934  0.99101525  1
  S  S17  1  0.62940551  0.08489703  0.19812991  1
  S  S18  1  0.63500440  0.45424291  0.40868079  1
  S  S19  1  0.62705758  0.86541582  0.60024121  1
