# generated using pymatgen
data_Y7Mg3Ge8
_symmetry_space_group_name_H-M   'P 1'
_cell_length_a   7.16318469
_cell_length_b   7.82484221
_cell_length_c   14.47433044
_cell_angle_alpha   89.99745384
_cell_angle_beta   90.00000000
_cell_angle_gamma   90.00000000
_symmetry_Int_Tables_number   1
_chemical_formula_structural   Y7Mg3Ge8
_chemical_formula_sum   'Y14 Mg6 Ge16'
_cell_volume   811.29765433
_cell_formula_units_Z   2
loop_
 _symmetry_equiv_pos_site_id
 _symmetry_equiv_pos_as_xyz
  1  'x, y, z'
loop_
 _atom_site_type_symbol
 _atom_site_label
 _atom_site_symmetry_multiplicity
 _atom_site_fract_x
 _atom_site_fract_y
 _atom_site_fract_z
 _atom_site_occupancy
  Y  Y0  1  0.49104394  0.31623685  0.90282870  1
  Y  Y1  1  0.99104394  0.18376315  0.59717130  1
  Y  Y2  1  0.51252535  0.68335939  0.40547867  1
  Y  Y3  1  0.01252535  0.81664061  0.09452133  1
  Y  Y4  1  0.50979214  0.68386110  0.09330276  1
  Y  Y5  1  0.00979214  0.81613890  0.40669724  1
  Y  Y6  1  0.48878246  0.31514077  0.59773869  1
  Y  Y7  1  0.98878246  0.18485923  0.90226131  1
  Y  Y8  1  0.67086122  0.17684433  0.37536915  1
  Y  Y9  1  0.17086122  0.32315567  0.12463085  1
  Y  Y10  1  0.66942265  0.17521408  0.12592032  1
  Y  Y11  1  0.16942265  0.32478592  0.37407968  1
  Y  Y12  1  0.33090818  0.81935430  0.62938162  1
  Y  Y13  1  0.83090818  0.68064570  0.87061838  1
  Mg  Mg14  1  0.15831692  0.48642585  0.74944392  1
  Mg  Mg15  1  0.65831692  0.01357415  0.75055608  1
  Mg  Mg16  1  0.83919944  0.51778040  0.24988833  1
  Mg  Mg17  1  0.33919944  0.98221960  0.25011167  1
  Mg  Mg18  1  0.32697314  0.82385216  0.87646827  1
  Mg  Mg19  1  0.82697314  0.67614784  0.62353173  1
  Ge  Ge20  1  0.33069145  0.03167652  0.03435332  1
  Ge  Ge21  1  0.83069145  0.46832348  0.46564668  1
  Ge  Ge22  1  0.67207020  0.96327775  0.53999377  1
  Ge  Ge23  1  0.17207020  0.53672225  0.96000623  1
  Ge  Ge24  1  0.66589233  0.96465396  0.96190841  1
  Ge  Ge25  1  0.16589233  0.53534604  0.53809159  1
  Ge  Ge26  1  0.32975910  0.03325072  0.46517817  1
  Ge  Ge27  1  0.82975910  0.46674928  0.03482183  1
  Ge  Ge28  1  0.28592634  0.13750526  0.74999738  1
  Ge  Ge29  1  0.78592634  0.36249474  0.75000262  1
  Ge  Ge30  1  0.71206462  0.86255224  0.24969525  1
  Ge  Ge31  1  0.21206462  0.63744776  0.25030475  1
  Ge  Ge32  1  0.52873135  0.59394788  0.74946986  1
  Ge  Ge33  1  0.02873135  0.90605212  0.75053014  1
  Ge  Ge34  1  0.47703915  0.41103883  0.24933247  1
  Ge  Ge35  1  0.97703915  0.08896117  0.25066753  1
