# generated using pymatgen
data_Y3(Fe8Mo)4
_symmetry_space_group_name_H-M   'P 1'
_cell_length_a   4.73252083
_cell_length_b   6.47925921
_cell_length_c   18.23054450
_cell_angle_alpha   93.11076233
_cell_angle_beta   82.54216843
_cell_angle_gamma   111.42022363
_symmetry_Int_Tables_number   1
_chemical_formula_structural   Y3(Fe8Mo)4
_chemical_formula_sum   'Y3 Fe32 Mo4'
_cell_volume   515.97856331
_cell_formula_units_Z   1
loop_
 _symmetry_equiv_pos_site_id
 _symmetry_equiv_pos_as_xyz
  1  'x, y, z'
loop_
 _atom_site_type_symbol
 _atom_site_label
 _atom_site_symmetry_multiplicity
 _atom_site_fract_x
 _atom_site_fract_y
 _atom_site_fract_z
 _atom_site_occupancy
  Y  Y0  1  0.00027249  0.00033594  0.99979096  1
  Y  Y1  1  0.32923461  0.99399663  0.33552641  1
  Y  Y2  1  0.66289324  0.99442758  0.66864210  1
  Fe  Fe3  1  0.34997950  0.77484005  0.07488204  1
  Fe  Fe4  1  0.68069246  0.77135469  0.40996976  1
  Fe  Fe5  1  0.01393176  0.77091074  0.74304621  1
  Fe  Fe6  1  0.98334356  0.22505652  0.25837040  1
  Fe  Fe7  1  0.31867040  0.22812273  0.59078192  1
  Fe  Fe8  1  0.65192695  0.22749711  0.92364222  1
  Fe  Fe9  1  0.76023466  0.78061464  0.26014633  1
  Fe  Fe10  1  0.09351158  0.77917018  0.59214701  1
  Fe  Fe11  1  0.42620171  0.77779879  0.92539437  1
  Fe  Fe12  1  0.57341384  0.22008178  0.07325509  1
  Fe  Fe13  1  0.90820279  0.22358220  0.40717662  1
  Fe  Fe14  1  0.24179170  0.22364833  0.74006392  1
  Fe  Fe15  1  0.16730016  0.00019015  0.16663035  1
  Fe  Fe16  1  0.49826215  0.99840829  0.50015134  1
  Fe  Fe17  1  0.83104254  0.99782274  0.83342667  1
  Fe  Fe18  1  0.66626063  0.00019015  0.16663035  1
  Fe  Fe19  1  -0.00000521  0.99840829  0.50015134  1
  Fe  Fe20  1  0.33335252  0.99782274  0.83342667  1
  Fe  Fe21  1  0.00067037  0.49865535  0.99926795  1
  Fe  Fe22  1  0.33097975  0.50103692  0.33490776  1
  Fe  Fe23  1  0.66547057  0.49943583  0.66733565  1
  Fe  Fe24  1  0.49871703  0.49865535  0.99926795  1
  Fe  Fe25  1  0.83514841  0.50103692  0.33490776  1
  Fe  Fe26  1  0.16663061  0.49943583  0.66733565  1
  Fe  Fe27  1  0.09399483  0.64127925  0.45328858  1
  Fe  Fe28  1  0.42760458  0.64137153  0.78616336  1
  Fe  Fe29  1  0.11944829  0.35810018  0.11920359  1
  Fe  Fe30  1  0.45341522  0.35961499  0.45278355  1
  Fe  Fe31  1  0.78682774  0.35967257  0.78601808  1
  Fe  Fe32  1  0.21369908  0.64145103  0.21405188  1
  Fe  Fe33  1  0.54741353  0.64167501  0.54684895  1
  Fe  Fe34  1  0.88075365  0.64163435  0.88012706  1
  Mo  Mo35  1  0.57107108  0.35776045  0.21561728  1
  Mo  Mo36  1  0.91069356  0.36578705  0.54440093  1
  Mo  Mo37  1  0.24454550  0.36581340  0.87672241  1
  Mo  Mo38  1  0.76240213  0.64330375  0.11849949  1
