# generated using pymatgen
data_TiCrCuSe4
_symmetry_space_group_name_H-M   'P 1'
_cell_length_a   7.42159397
_cell_length_b   7.52715651
_cell_length_c   7.33045820
_cell_angle_alpha   90.00000000
_cell_angle_beta   60.40538828
_cell_angle_gamma   120.47164228
_symmetry_Int_Tables_number   1
_chemical_formula_structural   TiCrCuSe4
_chemical_formula_sum   'Ti2 Cr2 Cu2 Se8'
_cell_volume   289.25663093
_cell_formula_units_Z   2
loop_
 _symmetry_equiv_pos_site_id
 _symmetry_equiv_pos_as_xyz
  1  'x, y, z'
loop_
 _atom_site_type_symbol
 _atom_site_label
 _atom_site_symmetry_multiplicity
 _atom_site_fract_x
 _atom_site_fract_y
 _atom_site_fract_z
 _atom_site_occupancy
  Ti  Ti0  1  0.00000000  0.00000000  0.50000000  1
  Ti  Ti1  1  0.00000000  0.00000000  0.00000000  1
  Cr  Cr2  1  0.50000000  0.50000000  0.00000000  1
  Cr  Cr3  1  0.50000000  0.00000000  0.00000000  1
  Cu  Cu4  1  0.75076216  0.37538108  0.37461892  1
  Cu  Cu5  1  0.24923784  0.62461892  0.62538108  1
  Se  Se6  1  0.01352390  0.76658111  0.24323805  1
  Se  Se7  1  0.01352390  0.24694279  0.24323805  1
  Se  Se8  1  0.48821635  0.24410817  0.77185183  1
  Se  Se9  1  0.48821635  0.24410817  0.23993183  1
  Se  Se10  1  0.98647610  0.23341889  0.75676195  1
  Se  Se11  1  0.98647610  0.75305721  0.75676195  1
  Se  Se12  1  0.51178365  0.75589183  0.22814817  1
  Se  Se13  1  0.51178365  0.75589183  0.76006817  1
