# generated using pymatgen
data_CaCr2CuO7
_symmetry_space_group_name_H-M   'P 1'
_cell_length_a   8.97088273
_cell_length_b   10.18241753
_cell_length_c   10.35213175
_cell_angle_alpha   92.71178972
_cell_angle_beta   90.00000000
_cell_angle_gamma   90.00000000
_symmetry_Int_Tables_number   1
_chemical_formula_structural   CaCr2CuO7
_chemical_formula_sum   'Ca6 Cr12 Cu6 O42'
_cell_volume   944.55936600
_cell_formula_units_Z   6
loop_
 _symmetry_equiv_pos_site_id
 _symmetry_equiv_pos_as_xyz
  1  'x, y, z'
loop_
 _atom_site_type_symbol
 _atom_site_label
 _atom_site_symmetry_multiplicity
 _atom_site_fract_x
 _atom_site_fract_y
 _atom_site_fract_z
 _atom_site_occupancy
  Ca  Ca0  1  0.44233335  0.17652476  0.56708766  1
  Ca  Ca1  1  0.93162907  0.50000000  0.75000000  1
  Ca  Ca2  1  0.44233335  0.82347524  0.93291234  1
  Ca  Ca3  1  0.06837093  0.50000000  0.25000000  1
  Ca  Ca4  1  0.55766665  0.82347524  0.43291234  1
  Ca  Ca5  1  0.55766665  0.17652476  0.06708766  1
  Cr  Cr6  1  0.20803612  0.16308299  0.28986435  1
  Cr  Cr7  1  0.74676869  0.16450152  0.38143114  1
  Cr  Cr8  1  0.25323131  0.16450152  0.88143114  1
  Cr  Cr9  1  0.79196388  0.16308299  0.78986435  1
  Cr  Cr10  1  0.28918929  0.47588404  0.96026553  1
  Cr  Cr11  1  0.74676869  0.83549848  0.11856886  1
  Cr  Cr12  1  0.71081071  0.47588404  0.46026553  1
  Cr  Cr13  1  0.25323131  0.83549848  0.61856886  1
  Cr  Cr14  1  0.28918929  0.52411596  0.53973447  1
  Cr  Cr15  1  0.71081071  0.52411596  0.03973447  1
  Cr  Cr16  1  0.79196388  0.83691701  0.71013565  1
  Cr  Cr17  1  0.20803612  0.83691701  0.21013565  1
  Cu  Cu18  1  0.94196741  0.80722800  0.40995658  1
  Cu  Cu19  1  0.05803259  0.19277200  0.59004342  1
  Cu  Cu20  1  0.44806087  0.50000000  0.25000000  1
  Cu  Cu21  1  0.94196741  0.19277200  0.09004342  1
  Cu  Cu22  1  0.55193913  0.50000000  0.75000000  1
  Cu  Cu23  1  0.05803259  0.80722800  0.90995658  1
  O  O24  1  0.78833536  0.18952707  0.95511542  1
  O  O25  1  0.76970208  0.82709674  0.28138201  1
  O  O26  1  0.85386520  -0.00000000  0.75000000  1
  O  O27  1  0.87790657  0.51073684  0.10385770  1
  O  O28  1  0.38180317  0.94587212  0.56932697  1
  O  O29  1  0.92259079  0.26345054  0.71837827  1
  O  O30  1  0.35601554  0.30951764  0.93615036  1
  O  O31  1  0.12209343  0.51073684  0.60385770  1
  O  O32  1  0.71224277  0.48773115  0.87677911  1
  O  O33  1  0.38180317  0.05412788  0.93067303  1
  O  O34  1  0.71224277  0.51226885  0.62322089  1
  O  O35  1  0.41510966  0.57179833  0.87965165  1
  O  O36  1  0.90946644  0.85474113  0.04060421  1
  O  O37  1  0.07740921  0.26345054  0.21837827  1
  O  O38  1  0.64398446  0.69048236  0.06384964  1
  O  O39  1  0.35601554  0.69048236  0.56384964  1
  O  O40  1  0.92259079  0.73654946  0.78162173  1
  O  O41  1  0.61819683  0.05412788  0.43067303  1
  O  O42  1  0.21166464  0.18952707  0.45511542  1
  O  O43  1  0.58489034  0.42820167  0.12034835  1
  O  O44  1  0.37428910  0.81268738  0.27360232  1
  O  O45  1  0.28775723  0.51226885  0.12322089  1
  O  O46  1  0.09053356  0.85474113  0.54060421  1
  O  O47  1  0.28775723  0.48773115  0.37677911  1
  O  O48  1  0.87790657  0.48926316  0.39614230  1
  O  O49  1  0.58489034  0.57179833  0.37965165  1
  O  O50  1  0.12209343  0.48926316  0.89614230  1
  O  O51  1  0.62571090  0.81268738  0.77360232  1
  O  O52  1  0.62571090  0.18731262  0.72639768  1
  O  O53  1  0.09053356  0.14525887  0.95939579  1
  O  O54  1  0.07740921  0.73654946  0.28162173  1
  O  O55  1  0.78833536  0.81047293  0.54488458  1
  O  O56  1  0.14613480  -0.00000000  0.25000000  1
  O  O57  1  0.23029792  0.82709674  0.78138201  1
  O  O58  1  0.61819683  0.94587212  0.06932697  1
  O  O59  1  0.90946644  0.14525887  0.45939579  1
  O  O60  1  0.21166464  0.81047293  0.04488458  1
  O  O61  1  0.76970208  0.17290326  0.21861799  1
  O  O62  1  0.41510966  0.42820167  0.62034835  1
  O  O63  1  0.64398446  0.30951764  0.43615036  1
  O  O64  1  0.23029792  0.17290326  0.71861799  1
  O  O65  1  0.37428910  0.18731262  0.22639768  1
