# generated using pymatgen
data_Ti2Cr3Si
_symmetry_space_group_name_H-M   'P 1'
_cell_length_a   4.79883012
_cell_length_b   4.79853454
_cell_length_c   8.05145305
_cell_angle_alpha   90.00000000
_cell_angle_beta   90.00000000
_cell_angle_gamma   60.00203747
_symmetry_Int_Tables_number   1
_chemical_formula_structural   Ti2Cr3Si
_chemical_formula_sum   'Ti4 Cr6 Si2'
_cell_volume   160.56756206
_cell_formula_units_Z   2
loop_
 _symmetry_equiv_pos_site_id
 _symmetry_equiv_pos_as_xyz
  1  'x, y, z'
loop_
 _atom_site_type_symbol
 _atom_site_label
 _atom_site_symmetry_multiplicity
 _atom_site_fract_x
 _atom_site_fract_y
 _atom_site_fract_z
 _atom_site_occupancy
  Ti  Ti0  1  0.33336484  0.33331758  0.56237169  1
  Ti  Ti1  1  0.66663516  0.66668242  0.43762831  1
  Ti  Ti2  1  0.66663516  0.66668242  0.06237169  1
  Ti  Ti3  1  0.33336484  0.33331758  0.93762831  1
  Cr  Cr4  1  0.82723903  0.34553380  0.75000000  1
  Cr  Cr5  1  0.34551341  0.82724330  0.75000000  1
  Cr  Cr6  1  0.82723903  0.82722717  0.75000000  1
  Cr  Cr7  1  0.17276097  0.65446620  0.25000000  1
  Cr  Cr8  1  0.65448659  0.17275670  0.25000000  1
  Cr  Cr9  1  0.17276097  0.17277283  0.25000000  1
  Si  Si10  1  -0.00000000  -0.00000000  0.50000000  1
  Si  Si11  1  -0.00000000  -0.00000000  -0.00000000  1
