# generated using pymatgen
data_TiVSe4
_symmetry_space_group_name_H-M   'P 1'
_cell_length_a   3.46778801
_cell_length_b   5.99820822
_cell_length_c   6.43489109
_cell_angle_alpha   89.78215194
_cell_angle_beta   90.05055521
_cell_angle_gamma   89.95229447
_symmetry_Int_Tables_number   1
_chemical_formula_structural   TiVSe4
_chemical_formula_sum   'Ti1 V1 Se4'
_cell_volume   133.84797941
_cell_formula_units_Z   1
loop_
 _symmetry_equiv_pos_site_id
 _symmetry_equiv_pos_as_xyz
  1  'x, y, z'
loop_
 _atom_site_type_symbol
 _atom_site_label
 _atom_site_symmetry_multiplicity
 _atom_site_fract_x
 _atom_site_fract_y
 _atom_site_fract_z
 _atom_site_occupancy
  Ti  Ti0  1  0.00000000  0.00000000  0.00000000  1
  V  V1  1  0.50000000  0.50000000  0.00000000  1
  Se  Se2  1  -0.00006174  0.33749947  0.24132625  1
  Se  Se3  1  0.50008277  0.82944665  0.24509002  1
  Se  Se4  1  0.49991723  0.17055335  0.75490998  1
  Se  Se5  1  0.00006174  0.66250053  0.75867375  1
