# generated using pymatgen
data_TmTiFe11
_symmetry_space_group_name_H-M   'P 1'
_cell_length_a   4.67445382
_cell_length_b   6.41838420
_cell_length_c   6.41838420
_cell_angle_alpha   98.14531181
_cell_angle_beta   111.35501247
_cell_angle_gamma   68.64498753
_symmetry_Int_Tables_number   1
_chemical_formula_structural   TmTiFe11
_chemical_formula_sum   'Tm1 Ti1 Fe11'
_cell_volume   167.02323258
_cell_formula_units_Z   1
loop_
 _symmetry_equiv_pos_site_id
 _symmetry_equiv_pos_as_xyz
  1  'x, y, z'
loop_
 _atom_site_type_symbol
 _atom_site_label
 _atom_site_symmetry_multiplicity
 _atom_site_fract_x
 _atom_site_fract_y
 _atom_site_fract_z
 _atom_site_occupancy
  Tm  Tm0  1  0.00625062  0.99374938  0.00625062  1
  Ti  Ti1  1  0.63158466  0.36841534  0.63158466  1
  Fe  Fe2  1  0.72871223  0.77128777  0.22871223  1
  Fe  Fe3  1  0.27623970  0.22376030  0.77623970  1
  Fe  Fe4  1  0.49954210  0.78361703  0.78270123  1
  Fe  Fe5  1  0.49954210  0.21729877  0.21638297  1
  Fe  Fe6  1  0.50089787  0.99759742  0.50033134  1
  Fe  Fe7  1  0.00183605  0.99759742  0.50033134  1
  Fe  Fe8  1  0.50089787  0.49966866  0.00240258  1
  Fe  Fe9  1  0.00183605  0.49966866  0.00240258  1
  Fe  Fe10  1  0.35270771  0.64729229  0.35270771  1
  Fe  Fe11  1  -0.00002349  0.35567968  0.35563270  1
  Fe  Fe12  1  -0.00002349  0.64436730  0.64432032  1
