# generated using pymatgen
data_TmBeCu4
_symmetry_space_group_name_H-M   'P 1'
_cell_length_a   4.96484971
_cell_length_b   4.96484971
_cell_length_c   4.81012948
_cell_angle_alpha   90.00000000
_cell_angle_beta   58.93014493
_cell_angle_gamma   120.00000000
_symmetry_Int_Tables_number   1
_chemical_formula_structural   TmBeCu4
_chemical_formula_sum   'Tm1 Be1 Cu4'
_cell_volume   82.45907060
_cell_formula_units_Z   1
loop_
 _symmetry_equiv_pos_site_id
 _symmetry_equiv_pos_as_xyz
  1  'x, y, z'
loop_
 _atom_site_type_symbol
 _atom_site_label
 _atom_site_symmetry_multiplicity
 _atom_site_fract_x
 _atom_site_fract_y
 _atom_site_fract_z
 _atom_site_occupancy
  Tm  Tm0  1  0.99549757  0.99774879  0.00675364  1
  Be  Be1  1  0.75930146  0.37965073  0.86104781  1
  Cu  Cu2  1  0.24930898  0.37718596  0.37350506  1
  Cu  Cu3  1  0.24930898  0.87212302  0.37350506  1
  Cu  Cu4  1  0.75437192  0.37718596  0.37350506  1
  Cu  Cu5  1  0.49221108  0.74610554  0.76168337  1
