# generated using pymatgen
data_Ti2MnZnO6
_symmetry_space_group_name_H-M   'P 1'
_cell_length_a   5.16531403
_cell_length_b   5.16531440
_cell_length_c   5.61426074
_cell_angle_alpha   62.61177465
_cell_angle_beta   117.38822457
_cell_angle_gamma   120.00000238
_symmetry_Int_Tables_number   1
_chemical_formula_structural   Ti2MnZnO6
_chemical_formula_sum   'Ti2 Mn1 Zn1 O6'
_cell_volume   109.90872280
_cell_formula_units_Z   1
loop_
 _symmetry_equiv_pos_site_id
 _symmetry_equiv_pos_as_xyz
  1  'x, y, z'
loop_
 _atom_site_type_symbol
 _atom_site_label
 _atom_site_symmetry_multiplicity
 _atom_site_fract_x
 _atom_site_fract_y
 _atom_site_fract_z
 _atom_site_occupancy
  Ti  Ti0  1  0.85348578  0.14651422  0.56045735  1
  Ti  Ti1  1  0.14672551  0.85327449  0.44017654  1
  Mn  Mn2  1  0.64058278  0.35941722  0.92174834  1
  Zn  Zn3  1  0.36173530  0.63826470  0.08520591  1
  O  O4  1  0.43509590  0.22260881  0.26470142  1
  O  O5  1  0.05221432  0.56490410  0.26470142  1
  O  O6  1  0.77739119  0.94778568  0.26470142  1
  O  O7  1  0.56243609  0.78749348  0.73276920  1
  O  O8  1  0.95782660  0.43756391  0.73276920  1
  O  O9  1  0.21250652  0.04217340  0.73276920  1
