# generated using pymatgen
data_SrTiFeBiO6
_symmetry_space_group_name_H-M   'P 1'
_cell_length_a   5.63851454
_cell_length_b   5.63851514
_cell_length_c   5.66479128
_cell_angle_alpha   60.15332217
_cell_angle_beta   119.84667672
_cell_angle_gamma   120.00000349
_symmetry_Int_Tables_number   1
_chemical_formula_structural   SrTiFeBiO6
_chemical_formula_sum   'Sr1 Ti1 Fe1 Bi1 O6'
_cell_volume   127.64415909
_cell_formula_units_Z   1
loop_
 _symmetry_equiv_pos_site_id
 _symmetry_equiv_pos_as_xyz
  1  'x, y, z'
loop_
 _atom_site_type_symbol
 _atom_site_label
 _atom_site_symmetry_multiplicity
 _atom_site_fract_x
 _atom_site_fract_y
 _atom_site_fract_z
 _atom_site_occupancy
  Sr  Sr0  1  0.49190157  0.50809843  0.47570472  1
  Ti  Ti1  1  0.24437445  0.75562555  0.73312334  1
  Fe  Fe2  1  0.73501254  0.26498746  0.20503761  1
  Bi  Bi3  1  0.01878926  0.98121074  0.05636779  1
  O  O4  1  0.45115883  0.06678901  0.41223835  1
  O  O5  1  0.02786853  0.54884117  0.41223835  1
  O  O6  1  0.93321099  0.97213147  0.41223835  1
  O  O7  1  0.41755058  0.01847926  0.93028383  1
  O  O8  1  0.53121251  0.58244942  0.93028383  1
  O  O9  1  0.98152074  0.46878749  0.93028383  1
