# generated using pymatgen
data_Ca2Cr3O8
_symmetry_space_group_name_H-M   'P 1'
_cell_length_a   6.01356488
_cell_length_b   6.01356463
_cell_length_c   10.56209266
_cell_angle_alpha   90.00000000
_cell_angle_beta   90.00000000
_cell_angle_gamma   120.00000140
_symmetry_Int_Tables_number   1
_chemical_formula_structural   Ca2Cr3O8
_chemical_formula_sum   'Ca4 Cr6 O16'
_cell_volume   330.78406675
_cell_formula_units_Z   2
loop_
 _symmetry_equiv_pos_site_id
 _symmetry_equiv_pos_as_xyz
  1  'x, y, z'
loop_
 _atom_site_type_symbol
 _atom_site_label
 _atom_site_symmetry_multiplicity
 _atom_site_fract_x
 _atom_site_fract_y
 _atom_site_fract_z
 _atom_site_occupancy
  Ca  Ca0  1  0.66666700  0.33333400  0.02310727  1
  Ca  Ca1  1  0.33333300  0.66666600  0.52310827  1
  Ca  Ca2  1  0.66666700  0.33333400  0.43080618  1
  Ca  Ca3  1  0.33333300  0.66666600  0.93080718  1
  Cr  Cr4  1  0.67263245  0.83631672  0.24548998  1
  Cr  Cr5  1  0.83631772  0.16368428  0.74548998  1
  Cr  Cr6  1  0.16368428  0.32736855  0.24548998  1
  Cr  Cr7  1  0.83631572  0.67263245  0.74548998  1
  Cr  Cr8  1  0.32736855  0.16368428  0.74548998  1
  Cr  Cr9  1  0.16368428  0.83631672  0.24548998  1
  O  O10  1  0.84466289  0.15533811  0.15771569  1
  O  O11  1  0.68932379  0.84466289  0.65771469  1
  O  O12  1  0.15533811  0.31067721  0.65771469  1
  O  O13  1  0.84466189  0.68932379  0.15771569  1
  O  O14  1  0.31067621  0.15533811  0.15771569  1
  O  O15  1  0.15533811  0.84466289  0.65771469  1
  O  O16  1  0.52352581  0.47647319  0.84693064  1
  O  O17  1  0.04705162  0.52352581  0.34692964  1
  O  O18  1  0.47647419  0.95294938  0.34692964  1
  O  O19  1  0.52352581  0.04705162  0.84693064  1
  O  O20  1  -0.00000000  -0.00000000  0.34546942  1
  O  O21  1  -0.00000000  -0.00000000  0.84546942  1
  O  O22  1  0.33333300  0.66666600  0.14370818  1
  O  O23  1  0.95294738  0.47647319  0.84693064  1
  O  O24  1  0.47647319  0.52352581  0.34692964  1
  O  O25  1  0.66666700  0.33333400  0.64370818  1
