# generated using pymatgen
data_Ta3Co2Mo
_symmetry_space_group_name_H-M   'P 1'
_cell_length_a   4.93001315
_cell_length_b   4.97798715
_cell_length_c   4.92358697
_cell_angle_alpha   104.35409856
_cell_angle_beta   120.04318458
_cell_angle_gamma   60.31828810
_symmetry_Int_Tables_number   1
_chemical_formula_structural   Ta3Co2Mo
_chemical_formula_sum   'Ta3 Co2 Mo1'
_cell_volume   90.87398310
_cell_formula_units_Z   1
loop_
 _symmetry_equiv_pos_site_id
 _symmetry_equiv_pos_as_xyz
  1  'x, y, z'
loop_
 _atom_site_type_symbol
 _atom_site_label
 _atom_site_symmetry_multiplicity
 _atom_site_fract_x
 _atom_site_fract_y
 _atom_site_fract_z
 _atom_site_occupancy
  Ta  Ta0  1  0.84169394  0.50000000  0.18338788  1
  Ta  Ta1  1  0.33932996  0.82105097  0.49971088  1
  Ta  Ta2  1  0.66038093  0.17894903  0.49971088  1
  Co  Co3  1  0.75018501  -0.00000000  0.00037002  1
  Co  Co4  1  0.25018501  -0.00000000  0.00037002  1
  Mo  Mo5  1  0.15822516  0.50000000  0.81645031  1
