# generated using pymatgen
data_SrNdCoRuO6
_symmetry_space_group_name_H-M   'P 1'
_cell_length_a   5.54872025
_cell_length_b   5.63323817
_cell_length_c   7.89625258
_cell_angle_alpha   90.00000000
_cell_angle_beta   89.88546542
_cell_angle_gamma   90.00000000
_symmetry_Int_Tables_number   1
_chemical_formula_structural   SrNdCoRuO6
_chemical_formula_sum   'Sr2 Nd2 Co2 Ru2 O12'
_cell_volume   246.81474786
_cell_formula_units_Z   2
loop_
 _symmetry_equiv_pos_site_id
 _symmetry_equiv_pos_as_xyz
  1  'x, y, z'
loop_
 _atom_site_type_symbol
 _atom_site_label
 _atom_site_symmetry_multiplicity
 _atom_site_fract_x
 _atom_site_fract_y
 _atom_site_fract_z
 _atom_site_occupancy
  Sr  Sr0  1  0.50574814  0.96315850  0.75017605  1
  Sr  Sr1  1  0.00574814  0.53684150  0.25017605  1
  Nd  Nd2  1  0.48693402  0.05365033  0.24894990  1
  Nd  Nd3  1  0.98693402  0.44634967  0.74894990  1
  Co  Co4  1  0.49975937  0.50540215  -0.00001663  1
  Co  Co5  1  0.99975937  0.99459785  0.49998337  1
  Ru  Ru6  1  0.50023128  0.50212919  0.50038260  1
  Ru  Ru7  1  0.00023128  0.99787081  0.00038260  1
  O  O8  1  0.40932224  0.51238442  0.74557735  1
  O  O9  1  0.90932224  0.98761558  0.24557735  1
  O  O10  1  0.56535612  0.47660360  0.25415863  1
  O  O11  1  0.06535612  0.02339640  0.75415863  1
  O  O12  1  0.79333290  0.70397989  0.54418946  1
  O  O13  1  0.29333290  0.79602011  0.04418946  1
  O  O14  1  0.22093234  0.28081267  0.46245325  1
  O  O15  1  0.72093234  0.21918733  0.96245325  1
  O  O16  1  0.30184018  0.79307327  0.45412078  1
  O  O17  1  0.80184018  0.70692673  0.95412078  1
  O  O18  1  0.71654342  0.22207517  0.54000860  1
  O  O19  1  0.21654342  0.27792483  0.04000860  1
