# generated using pymatgen
data_Ti4FeNi
_symmetry_space_group_name_H-M   'P 1'
_cell_length_a   7.96565826
_cell_length_b   7.96565826
_cell_length_c   7.96565826
_cell_angle_alpha   90.00000000
_cell_angle_beta   60.00000000
_cell_angle_gamma   120.00000000
_symmetry_Int_Tables_number   1
_chemical_formula_structural   Ti4FeNi
_chemical_formula_sum   'Ti16 Fe4 Ni4'
_cell_volume   357.39626799
_cell_formula_units_Z   4
loop_
 _symmetry_equiv_pos_site_id
 _symmetry_equiv_pos_as_xyz
  1  'x, y, z'
loop_
 _atom_site_type_symbol
 _atom_site_label
 _atom_site_symmetry_multiplicity
 _atom_site_fract_x
 _atom_site_fract_y
 _atom_site_fract_z
 _atom_site_occupancy
  Ti  Ti0  1  0.50040237  0.50060356  -0.00020119  1
  Ti  Ti1  1  0.50040237  -0.00020119  -0.00020119  1
  Ti  Ti2  1  -0.00040237  -0.00020119  0.50060356  1
  Ti  Ti3  1  -0.00040237  -0.00020119  -0.00020119  1
  Ti  Ti4  1  0.63310895  0.81655448  0.43344552  1
  Ti  Ti5  1  0.86689105  0.43344552  0.81655448  1
  Ti  Ti6  1  0.25000000  0.81655448  0.81655448  1
  Ti  Ti7  1  0.25000000  0.43344552  0.43344552  1
  Ti  Ti8  1  0.25000000  0.43344552  0.81655448  1
  Ti  Ti9  1  0.25000000  0.81655448  0.43344552  1
  Ti  Ti10  1  0.38071558  0.19035779  0.55964221  1
  Ti  Ti11  1  0.11928442  0.55964221  0.19035779  1
  Ti  Ti12  1  0.75000000  0.19035779  0.19035779  1
  Ti  Ti13  1  0.75000000  0.55964221  0.55964221  1
  Ti  Ti14  1  0.75000000  0.55964221  0.19035779  1
  Ti  Ti15  1  0.75000000  0.19035779  0.55964221  1
  Fe  Fe16  1  0.07345321  0.86017982  0.21327339  1
  Fe  Fe17  1  0.07345321  0.21327339  0.21327339  1
  Fe  Fe18  1  0.42654679  0.21327339  0.86017982  1
  Fe  Fe19  1  0.42654679  0.21327339  0.21327339  1
  Ni  Ni20  1  0.93445570  0.15168355  0.78277215  1
  Ni  Ni21  1  0.93445570  0.78277215  0.78277215  1
  Ni  Ni22  1  0.56554430  0.78277215  0.15168355  1
  Ni  Ni23  1  0.56554430  0.78277215  0.78277215  1
