# generated using pymatgen
data_Ta4(Pd3Rh)3
_symmetry_space_group_name_H-M   'P 1'
_cell_length_a   5.58579047
_cell_length_b   5.58579047
_cell_length_c   9.16017625
_cell_angle_alpha   90.00000000
_cell_angle_beta   90.00000000
_cell_angle_gamma   119.99670402
_symmetry_Int_Tables_number   1
_chemical_formula_structural   Ta4(Pd3Rh)3
_chemical_formula_sum   'Ta4 Pd9 Rh3'
_cell_volume   247.52448495
_cell_formula_units_Z   1
loop_
 _symmetry_equiv_pos_site_id
 _symmetry_equiv_pos_as_xyz
  1  'x, y, z'
loop_
 _atom_site_type_symbol
 _atom_site_label
 _atom_site_symmetry_multiplicity
 _atom_site_fract_x
 _atom_site_fract_y
 _atom_site_fract_z
 _atom_site_occupancy
  Ta  Ta0  1  0.66668493  0.33331507  0.75000000  1
  Ta  Ta1  1  0.33331992  0.66668008  0.25000000  1
  Ta  Ta2  1  0.00000032  0.99999968  0.51735797  1
  Ta  Ta3  1  0.00000032  0.99999968  0.98264203  1
  Pd  Pd4  1  0.83436301  0.16563699  0.25000000  1
  Pd  Pd5  1  0.33126393  0.16563981  0.25000000  1
  Pd  Pd6  1  0.83436019  0.66873607  0.25000000  1
  Pd  Pd7  1  0.49889577  0.99779594  0.50097047  1
  Pd  Pd8  1  0.49889402  0.50110598  0.50097251  1
  Pd  Pd9  1  0.00220406  0.50110423  0.50097047  1
  Pd  Pd10  1  0.49889577  0.99779594  0.99902953  1
  Pd  Pd11  1  0.49889402  0.50110598  0.99902749  1
  Pd  Pd12  1  0.00220406  0.50110423  0.99902953  1
  Rh  Rh13  1  0.16740289  0.83259711  0.75000000  1
  Rh  Rh14  1  0.66521909  0.83260230  0.75000000  1
  Rh  Rh15  1  0.16739770  0.33478091  0.75000000  1
