# generated using pymatgen
data_Tb2Al3Fe
_symmetry_space_group_name_H-M   'P 1'
_cell_length_a   5.52753672
_cell_length_b   5.52753672
_cell_length_c   5.39655429
_cell_angle_alpha   90.00000000
_cell_angle_beta   59.19380426
_cell_angle_gamma   120.00000000
_symmetry_Int_Tables_number   1
_chemical_formula_structural   Tb2Al3Fe
_chemical_formula_sum   'Tb2 Al3 Fe1'
_cell_volume   115.14995182
_cell_formula_units_Z   1
loop_
 _symmetry_equiv_pos_site_id
 _symmetry_equiv_pos_as_xyz
  1  'x, y, z'
loop_
 _atom_site_type_symbol
 _atom_site_label
 _atom_site_symmetry_multiplicity
 _atom_site_fract_x
 _atom_site_fract_y
 _atom_site_fract_z
 _atom_site_occupancy
  Tb  Tb0  1  0.49856298  0.74928149  0.75215552  1
  Tb  Tb1  1  0.00143702  0.00071851  0.99784448  1
  Al  Al2  1  0.25000000  0.37500000  0.37500000  1
  Al  Al3  1  0.25000000  0.87500000  0.37500000  1
  Al  Al4  1  0.75000000  0.37500000  0.37500000  1
  Fe  Fe5  1  0.75000000  0.37500000  0.87500000  1
