# generated using pymatgen
data_Sr2MnAlCu2O7
_symmetry_space_group_name_H-M   'P 1'
_cell_length_a   5.32611088
_cell_length_b   5.31989345
_cell_length_c   12.26260251
_cell_angle_alpha   102.50318129
_cell_angle_beta   102.46261429
_cell_angle_gamma   89.99584192
_symmetry_Int_Tables_number   1
_chemical_formula_structural   Sr2MnAlCu2O7
_chemical_formula_sum   'Sr4 Mn2 Al2 Cu4 O14'
_cell_volume   330.82293791
_cell_formula_units_Z   2
loop_
 _symmetry_equiv_pos_site_id
 _symmetry_equiv_pos_as_xyz
  1  'x, y, z'
loop_
 _atom_site_type_symbol
 _atom_site_label
 _atom_site_symmetry_multiplicity
 _atom_site_fract_x
 _atom_site_fract_y
 _atom_site_fract_z
 _atom_site_occupancy
  Sr  Sr0  1  0.32755659  0.34054864  0.70268212  1
  Sr  Sr1  1  0.63051674  0.65000526  0.29564607  1
  Sr  Sr2  1  0.82788162  0.85525764  0.70293974  1
  Sr  Sr3  1  0.13093421  0.13950976  0.29591252  1
  Mn  Mn4  1  0.26566687  0.69084104  0.49931031  1
  Mn  Mn5  1  0.76633219  0.30527433  0.49929263  1
  Al  Al6  1  0.98446889  0.01099189  0.99926185  1
  Al  Al7  1  0.48326717  0.49483451  0.99913255  1
  Cu  Cu8  1  0.91844185  0.44503172  0.88270185  1
  Cu  Cu9  1  0.04436640  0.56063135  0.11533993  1
  Cu  Cu10  1  0.41971049  0.93866145  0.88319012  1
  Cu  Cu11  1  0.54424409  0.05721593  0.11566996  1
  O  O12  1  0.12783310  0.33730339  0.49918093  1
  O  O13  1  0.62730069  0.65855322  0.49928029  1
  O  O14  1  0.24444662  0.26618576  0.89444716  1
  O  O15  1  0.36427466  0.72941360  0.10687483  1
  O  O16  1  0.74454981  0.12516496  0.89153635  1
  O  O17  1  0.86229686  0.87718741  0.10453364  1
  O  O18  1  0.59597845  0.61845149  0.88913670  1
  O  O19  1  0.71883750  0.37549033  0.10634141  1
  O  O20  1  0.09983333  0.77156144  0.89194177  1
  O  O21  1  0.21837439  0.23380366  0.10940222  1
  O  O22  1  0.29926538  0.83773769  0.65755904  1
  O  O23  1  0.64545034  0.15896955  0.34062087  1
  O  O24  1  0.80134279  0.31675907  0.65776763  1
  O  O25  1  0.14429598  0.68020491  0.34090152  1
