# generated using pymatgen
data_SrCaSi4
_symmetry_space_group_name_H-M   'P 1'
_cell_length_a   3.93624236
_cell_length_b   3.93420095
_cell_length_c   10.12870583
_cell_angle_alpha   89.99999998
_cell_angle_beta   89.93037180
_cell_angle_gamma   119.98282884
_symmetry_Int_Tables_number   1
_chemical_formula_structural   SrCaSi4
_chemical_formula_sum   'Sr1 Ca1 Si4'
_cell_volume   135.86189003
_cell_formula_units_Z   1
loop_
 _symmetry_equiv_pos_site_id
 _symmetry_equiv_pos_as_xyz
  1  'x, y, z'
loop_
 _atom_site_type_symbol
 _atom_site_label
 _atom_site_symmetry_multiplicity
 _atom_site_fract_x
 _atom_site_fract_y
 _atom_site_fract_z
 _atom_site_occupancy
  Sr  Sr0  1  -0.00000000  -0.00000000  0.50000000  1
  Ca  Ca1  1  -0.00000000  -0.00000000  -0.00000000  1
  Si  Si2  1  0.33361670  0.66680835  0.28611021  1
  Si  Si3  1  0.33367999  0.66683999  0.79786034  1
  Si  Si4  1  0.66632001  0.33316001  0.20213966  1
  Si  Si5  1  0.66638330  0.33319165  0.71388979  1
