# generated using pymatgen
data_Sr6Mn3FeO14
_symmetry_space_group_name_H-M   'P 1'
_cell_length_a   5.51350495
_cell_length_b   5.51039873
_cell_length_c   10.50619482
_cell_angle_alpha   90.00000000
_cell_angle_beta   74.78789539
_cell_angle_gamma   90.00000000
_symmetry_Int_Tables_number   1
_chemical_formula_structural   Sr6Mn3FeO14
_chemical_formula_sum   'Sr6 Mn3 Fe1 O14'
_cell_volume   308.01086921
_cell_formula_units_Z   1
loop_
 _symmetry_equiv_pos_site_id
 _symmetry_equiv_pos_as_xyz
  1  'x, y, z'
loop_
 _atom_site_type_symbol
 _atom_site_label
 _atom_site_symmetry_multiplicity
 _atom_site_fract_x
 _atom_site_fract_y
 _atom_site_fract_z
 _atom_site_occupancy
  Sr  Sr0  1  0.50012275  -0.00000000  0.99975450  1
  Sr  Sr1  1  0.00016315  0.50000000  0.99967370  1
  Sr  Sr2  1  0.18290925  0.50000000  0.63418151  1
  Sr  Sr3  1  0.68273791  -0.00000000  0.63452419  1
  Sr  Sr4  1  0.31695027  -0.00000000  0.36609945  1
  Sr  Sr5  1  0.81732988  0.50000000  0.36534024  1
  Mn  Mn6  1  0.09741287  -0.00000000  0.80517425  1
  Mn  Mn7  1  0.90252815  -0.00000000  0.19494370  1
  Mn  Mn8  1  0.40237544  0.50000000  0.19524913  1
  Fe  Fe9  1  0.59699569  0.50000000  0.80600861  1
  O  O10  1  0.19372595  -0.00000000  0.61254810  1
  O  O11  1  0.69438451  0.50000000  0.61123098  1
  O  O12  1  0.30690318  0.50000000  0.38619365  1
  O  O13  1  0.80725915  -0.00000000  0.38548170  1
  O  O14  1  0.49923553  0.50000000  0.00152894  1
  O  O15  1  -0.00068632  -0.00000000  0.00137264  1
  O  O16  1  0.34358924  0.24767643  0.80849401  1
  O  O17  1  0.84791675  0.75232357  0.80849401  1
  O  O18  1  0.84791675  0.24767643  0.80849401  1
  O  O19  1  0.34358924  0.75232357  0.80849401  1
  O  O20  1  0.15422428  0.24985082  0.19167967  1
  O  O21  1  0.65409605  0.75014918  0.19167967  1
  O  O22  1  0.65409605  0.24985082  0.19167967  1
  O  O23  1  0.15422428  0.75014918  0.19167967  1
