# generated using pymatgen
data_Sr3Ga3B4HO14
_symmetry_space_group_name_H-M   'P 1'
_cell_length_a   4.95427075
_cell_length_b   9.13139436
_cell_length_c   13.90920286
_cell_angle_alpha   90.00000000
_cell_angle_beta   90.00000000
_cell_angle_gamma   105.23106813
_symmetry_Int_Tables_number   1
_chemical_formula_structural   Sr3Ga3B4HO14
_chemical_formula_sum   'Sr6 Ga6 B8 H2 O28'
_cell_volume   607.14128174
_cell_formula_units_Z   2
loop_
 _symmetry_equiv_pos_site_id
 _symmetry_equiv_pos_as_xyz
  1  'x, y, z'
loop_
 _atom_site_type_symbol
 _atom_site_label
 _atom_site_symmetry_multiplicity
 _atom_site_fract_x
 _atom_site_fract_y
 _atom_site_fract_z
 _atom_site_occupancy
  Sr  Sr0  1  0.61504386  0.70564903  0.94868128  1
  Sr  Sr1  1  0.38495614  0.29435097  0.44868128  1
  Sr  Sr2  1  0.38243289  0.29773841  0.04743966  1
  Sr  Sr3  1  0.61756711  0.70226159  0.54743966  1
  Sr  Sr4  1  0.47444809  0.38223781  0.74881966  1
  Sr  Sr5  1  0.52555191  0.61776219  0.24881966  1
  Ga  Ga6  1  0.07679743  0.69018543  0.75028285  1
  Ga  Ga7  1  0.92320257  0.30981457  0.25028285  1
  Ga  Ga8  1  0.83298339  0.12903728  0.87054455  1
  Ga  Ga9  1  0.16701661  0.87096272  0.37054455  1
  Ga  Ga10  1  0.16660336  0.87133154  0.12923124  1
  Ga  Ga11  1  0.83339664  0.12866846  0.62923124  1
  B  B12  1  0.99495323  0.43532286  0.89639389  1
  B  B13  1  0.00504677  0.56467714  0.39639389  1
  B  B14  1  0.00492132  0.56519806  0.10296188  1
  B  B15  1  0.99507868  0.43480194  0.60296188  1
  B  B16  1  0.25079738  0.96561036  0.87831330  1
  B  B17  1  0.74920262  0.03438964  0.37831330  1
  B  B18  1  0.75006908  0.03559355  0.12270445  1
  B  B19  1  0.24993092  0.96440645  0.62270445  1
  H  H20  1  0.55904950  0.79324540  0.73800199  1
  H  H21  1  0.44095050  0.20675460  0.23800199  1
  O  O22  1  0.53000276  0.96212958  0.88529343  1
  O  O23  1  0.46999724  0.03787042  0.38529343  1
  O  O24  1  0.47034079  0.04028762  0.11776312  1
  O  O25  1  0.52965921  0.95971238  0.61776312  1
  O  O26  1  0.17877798  0.09769647  0.90495144  1
  O  O27  1  0.82122202  0.90230353  0.40495144  1
  O  O28  1  0.82056770  0.90362623  0.09513604  1
  O  O29  1  0.17943230  0.09637377  0.59513604  1
  O  O30  1  0.05100311  0.84022442  0.84881597  1
  O  O31  1  0.94899689  0.15977558  0.34881597  1
  O  O32  1  0.95178507  0.16056530  0.15191086  1
  O  O33  1  0.04821493  0.83943470  0.65191086  1
  O  O34  1  0.88424590  0.53810077  0.84631694  1
  O  O35  1  0.11575410  0.46189923  0.34631694  1
  O  O36  1  0.11471675  0.46223311  0.15333280  1
  O  O37  1  0.88528325  0.53776689  0.65333280  1
  O  O38  1  0.80051593  0.30467323  0.93533276  1
  O  O39  1  0.19948407  0.69532677  0.43533276  1
  O  O40  1  0.20184685  0.69609330  0.06495596  1
  O  O41  1  0.79815315  0.30390670  0.56495596  1
  O  O42  1  0.45988938  0.68744982  0.74986830  1
  O  O43  1  0.54011062  0.31255018  0.24986830  1
  O  O44  1  0.27376775  0.45198016  0.90747601  1
  O  O45  1  0.72623225  0.54801984  0.40747601  1
  O  O46  1  0.72686872  0.54912982  0.09057673  1
  O  O47  1  0.27313128  0.45087018  0.59057673  1
  O  O48  1  0.86689360  0.21362430  0.74989488  1
  O  O49  1  0.13310640  0.78637570  0.24989488  1
