# generated using pymatgen
data_Sr3MnRuO7
_symmetry_space_group_name_H-M   'P 1'
_cell_length_a   3.95185556
_cell_length_b   3.95185556
_cell_length_c   10.60733983
_cell_angle_alpha   79.26427006
_cell_angle_beta   79.26427006
_cell_angle_gamma   90.00000000
_symmetry_Int_Tables_number   1
_chemical_formula_structural   Sr3MnRuO7
_chemical_formula_sum   'Sr3 Mn1 Ru1 O7'
_cell_volume   159.80491620
_cell_formula_units_Z   1
loop_
 _symmetry_equiv_pos_site_id
 _symmetry_equiv_pos_as_xyz
  1  'x, y, z'
loop_
 _atom_site_type_symbol
 _atom_site_label
 _atom_site_symmetry_multiplicity
 _atom_site_fract_x
 _atom_site_fract_y
 _atom_site_fract_z
 _atom_site_occupancy
  Sr  Sr0  1  0.31384752  0.31384752  0.37230495  1
  Sr  Sr1  1  0.68102758  0.68102758  0.63794483  1
  Sr  Sr2  1  0.50681649  0.50681649  0.98636702  1
  Mn  Mn3  1  0.10003724  0.10003724  0.79992551  1
  Ru  Ru4  1  0.90315095  0.90315095  0.19369810  1
  O  O5  1  0.19401247  0.19401247  0.61197506  1
  O  O6  1  0.80461869  0.80461869  0.39076261  1
  O  O7  1  0.59579686  0.09579686  0.80840628  1
  O  O8  1  0.09579686  0.59579686  0.80840628  1
  O  O9  1  0.40236373  0.90236373  0.19527253  1
  O  O10  1  0.90236373  0.40236373  0.19527253  1
  O  O11  1  0.00016785  0.00016785  0.99966429  1
