# generated using pymatgen
data_SrCaTi2O6
_symmetry_space_group_name_H-M   'P 1'
_cell_length_a   5.52465262
_cell_length_b   5.52903243
_cell_length_c   7.81389455
_cell_angle_alpha   90.00000000
_cell_angle_beta   90.00000000
_cell_angle_gamma   90.00000000
_symmetry_Int_Tables_number   1
_chemical_formula_structural   SrCaTi2O6
_chemical_formula_sum   'Sr2 Ca2 Ti4 O12'
_cell_volume   238.68309400
_cell_formula_units_Z   2
loop_
 _symmetry_equiv_pos_site_id
 _symmetry_equiv_pos_as_xyz
  1  'x, y, z'
loop_
 _atom_site_type_symbol
 _atom_site_label
 _atom_site_symmetry_multiplicity
 _atom_site_fract_x
 _atom_site_fract_y
 _atom_site_fract_z
 _atom_site_occupancy
  Sr  Sr0  1  0.50435925  0.98527838  0.75000000  1
  Sr  Sr1  1  0.99564075  0.48527838  0.75000000  1
  Ca  Ca2  1  0.49840765  0.01740173  0.25000000  1
  Ca  Ca3  1  0.00159235  0.51740173  0.25000000  1
  Ti  Ti4  1  0.50136952  0.49869163  0.00486187  1
  Ti  Ti5  1  0.99863048  0.99869163  0.49513813  1
  Ti  Ti6  1  0.50136952  0.49869163  0.49513813  1
  Ti  Ti7  1  0.99863048  0.99869163  0.00486187  1
  O  O8  1  0.27515031  0.77639240  0.03580239  1
  O  O9  1  0.22484969  0.27639240  0.46419761  1
  O  O10  1  0.72654562  0.22690548  0.52008194  1
  O  O11  1  0.77345438  0.72690548  0.97991806  1
  O  O12  1  0.72654562  0.22690548  0.97991806  1
  O  O13  1  0.77345438  0.72690548  0.52008194  1
  O  O14  1  0.27515031  0.77639240  0.46419761  1
  O  O15  1  0.22484969  0.27639240  0.03580239  1
  O  O16  1  0.56398678  0.49010080  0.25000000  1
  O  O17  1  0.93601322  0.99010080  0.25000000  1
  O  O18  1  0.45684166  0.50324007  0.75000000  1
  O  O19  1  0.04315834  0.00324007  0.75000000  1
