# generated using pymatgen
data_Sr7Mg8(P4O15)3
_symmetry_space_group_name_H-M   'P 1'
_cell_length_a   7.30665723
_cell_length_b   11.84257567
_cell_length_c   22.51624605
_cell_angle_alpha   74.75348769
_cell_angle_beta   90.02882027
_cell_angle_gamma   90.10981750
_symmetry_Int_Tables_number   1
_chemical_formula_structural   Sr7Mg8(P4O15)3
_chemical_formula_sum   'Sr14 Mg16 P24 O90'
_cell_volume   1879.74477292
_cell_formula_units_Z   2
loop_
 _symmetry_equiv_pos_site_id
 _symmetry_equiv_pos_as_xyz
  1  'x, y, z'
loop_
 _atom_site_type_symbol
 _atom_site_label
 _atom_site_symmetry_multiplicity
 _atom_site_fract_x
 _atom_site_fract_y
 _atom_site_fract_z
 _atom_site_occupancy
  Sr  Sr0  1  0.24573252  0.23333623  0.11096579  1
  Sr  Sr1  1  0.24705242  0.56593564  0.44469382  1
  Sr  Sr2  1  0.24839572  0.90229587  0.77726281  1
  Sr  Sr3  1  0.75426973  0.65570105  0.11096608  1
  Sr  Sr4  1  0.75294945  0.98937054  0.44469389  1
  Sr  Sr5  1  0.75160257  0.32044162  0.77726134  1
  Sr  Sr6  1  0.75294766  0.76739742  0.88863922  1
  Sr  Sr7  1  0.75426755  0.09999774  0.22236809  1
  Sr  Sr8  1  0.75160428  0.43103723  0.55607012  1
  Sr  Sr9  1  0.24705031  0.34396254  0.88863913  1
  Sr  Sr10  1  0.24573022  0.67763306  0.22236778  1
  Sr  Sr11  1  0.24839768  0.01289121  0.55607179  1
  Sr  Sr12  1  0.49999987  0.50007036  0.99986127  1
  Sr  Sr13  1  0.50000015  0.83326271  0.33347167  1
  Mg  Mg14  1  0.50000041  0.61054679  0.77890772  1
  Mg  Mg15  1  0.50000060  0.94240574  0.11518464  1
  Mg  Mg16  1  0.50000043  0.27560901  0.44877620  1
  Mg  Mg17  1  0.00000012  0.61150090  0.77700840  1
  Mg  Mg18  1  0.00000007  0.94488272  0.11024379  1
  Mg  Mg19  1  0.00000123  0.27705839  0.44588528  1
  Mg  Mg20  1  0.49999934  0.39092728  0.21814842  1
  Mg  Mg21  1  0.49999948  0.72278619  0.55442590  1
  Mg  Mg22  1  0.49999970  0.05772492  0.88455753  1
  Mg  Mg23  1  0.00000006  0.38845011  0.22308939  1
  Mg  Mg24  1  0.99999981  0.72183239  0.55632465  1
  Mg  Mg25  1  0.99999861  0.05627508  0.88744919  1
  Mg  Mg26  1  0.50000001  0.16666706  0.66666694  1
  Mg  Mg27  1  0.00000009  0.50004720  0.99990485  1
  Mg  Mg28  1  0.00000002  0.83328590  0.33342812  1
  Mg  Mg29  1  0.99999999  0.16666691  0.66666694  1
  P  P30  1  0.46894475  0.81076708  -0.00001797  1
  P  P31  1  0.46894563  0.14408293  0.33335179  1
  P  P32  1  0.46695754  0.46677947  0.66666640  1
  P  P33  1  0.53105413  0.18924995  -0.00001874  1
  P  P34  1  0.53105533  0.52256606  0.33335097  1
  P  P35  1  0.53304246  0.86655453  0.66666752  1
  P  P36  1  0.03546855  0.80066380  0.99964722  1
  P  P37  1  0.03547141  0.13364386  0.33368730  1
  P  P38  1  0.03355180  0.46637240  0.66666634  1
  P  P39  1  0.96452885  0.19968911  0.99964572  1
  P  P40  1  0.96453158  0.53266934  0.33368577  1
  P  P41  1  0.96644823  0.86696158  0.66666743  1
  P  P42  1  0.24060892  0.50632455  0.12856280  1
  P  P43  1  0.24111614  0.83967762  0.46220797  1
  P  P44  1  0.24986806  0.17407932  0.79319228  1
  P  P45  1  0.75938637  0.36511785  0.12856043  1
  P  P46  1  0.75888696  0.69811828  0.46220521  1
  P  P47  1  0.75012878  0.03273059  0.79319339  1
  P  P48  1  0.75888406  0.49365542  0.87112510  1
  P  P49  1  0.75939116  0.82700952  0.20477095  1
  P  P50  1  0.75013186  0.15925356  0.54014107  1
  P  P51  1  0.24111298  0.63521495  0.87112772  1
  P  P52  1  0.24061358  0.96821583  0.20477307  1
  P  P53  1  0.24987091  0.30060234  0.54014021  1
  O  O54  1  0.21852201  0.47169986  0.06697084  1
  O  O55  1  0.21846715  0.80471436  0.40066796  1
  O  O56  1  0.25011274  0.14316826  0.72970940  1
  O  O57  1  0.78147767  0.46133568  0.06697046  1
  O  O58  1  0.78153059  0.79462129  0.40066753  1
  O  O59  1  0.74988718  0.12712302  0.72970919  1
  O  O60  1  0.78153291  0.52861860  0.93266507  1
  O  O61  1  0.78147812  0.86163424  0.26636301  1
  O  O62  1  0.74988720  0.19016475  0.60362368  1
  O  O63  1  0.21846948  0.53871160  0.93266554  1
  O  O64  1  0.21852239  0.87199837  0.26636334  1
  O  O65  1  0.25011292  0.20620999  0.60362388  1
  O  O66  1  0.25320967  0.78409059  0.99993783  1
  O  O67  1  0.25320886  0.11736139  0.33339592  1
  O  O68  1  0.25021713  0.45084542  0.66666732  1
  O  O69  1  0.74679108  0.21597167  0.99993699  1
  O  O70  1  0.74679011  0.54924234  0.33339517  1
  O  O71  1  0.74978278  0.88248850  0.66666671  1
  O  O72  1  0.48359580  0.09820952  0.05957654  1
  O  O73  1  0.48370551  0.43108365  0.39267364  1
  O  O74  1  0.47856495  0.77375914  0.72534914  1
  O  O75  1  0.51640628  0.84220897  0.05957795  1
  O  O76  1  0.51629483  0.17623739  0.39267536  1
  O  O77  1  0.52143110  0.50089156  0.72534756  1
  O  O78  1  0.02043766  0.10691868  0.05806152  1
  O  O79  1  0.02002979  0.43970996  0.39220873  1
  O  O80  1  0.02099005  0.77417017  0.72499020  1
  O  O81  1  0.97956378  0.83501847  0.05806138  1
  O  O82  1  0.97997511  0.16808204  0.39220904  1
  O  O83  1  0.97901184  0.50083806  0.72499005  1
  O  O84  1  0.51629463  0.90224946  0.94065934  1
  O  O85  1  0.51640416  0.23512353  0.27375652  1
  O  O86  1  0.52143505  0.55957482  0.60798485  1
  O  O87  1  0.48370506  0.15709597  0.94065765  1
  O  O88  1  0.48359382  0.49112411  0.27375515  1
  O  O89  1  0.47856852  0.83244226  0.60798604  1
  O  O90  1  0.97997007  0.89362324  0.94112419  1
  O  O91  1  0.97956223  0.22641466  0.27527146  1
  O  O92  1  0.97900998  0.55916365  0.60834387  1
  O  O93  1  0.02002485  0.16525112  0.94112400  1
  O  O94  1  0.02043622  0.49831476  0.27527157  1
  O  O95  1  0.02098793  0.83249548  0.60834390  1
  O  O96  1  0.24803059  0.56998761  0.81697328  1
  O  O97  1  0.24665122  0.90265617  0.15097387  1
  O  O98  1  0.24867950  0.23362912  0.48670581  1
  O  O99  1  0.75196960  0.61304473  0.81697441  1
  O  O100  1  0.75334617  0.94637331  0.15097412  1
  O  O101  1  0.75132019  0.27966299  0.48670603  1
  O  O102  1  0.75334840  0.43067742  0.18235967  1
  O  O103  1  0.75196959  0.76334542  0.51635964  1
  O  O104  1  0.75132027  0.09970438  0.84662776  1
  O  O105  1  0.24665405  0.38695938  0.18235919  1
  O  O106  1  0.24803033  0.72028809  0.51635875  1
  O  O107  1  0.24867980  0.05367086  0.84662794  1
  O  O108  1  0.56662700  0.69703751  0.99990233  1
  O  O109  1  0.56662651  0.03027183  0.33343114  1
  O  O110  1  0.54706738  0.34649345  0.66666682  1
  O  O111  1  0.43337352  0.30306101  0.99990181  1
  O  O112  1  0.43337295  0.63629564  0.33343054  1
  O  O113  1  0.45293289  0.98684021  0.66666714  1
  O  O114  1  0.95594802  0.68068442  0.99987017  1
  O  O115  1  0.95594728  0.01388859  0.33346222  1
  O  O116  1  0.95261073  0.34613213  0.66666711  1
  O  O117  1  0.04405285  0.31944425  0.99987074  1
  O  O118  1  0.04405221  0.65264876  0.33346282  1
  O  O119  1  0.04738932  0.98720179  0.66666678  1
  O  O120  1  0.42302640  0.56728545  0.13471293  1
  O  O121  1  0.42322950  0.90082764  0.46801533  1
  O  O122  1  0.42480715  0.23659855  0.80512114  1
  O  O123  1  0.57697682  0.29800260  0.13471159  1
  O  O124  1  0.57676961  0.63115524  0.46801465  1
  O  O125  1  0.57518955  0.95828490  0.80512075  1
  O  O126  1  0.07466815  0.57312765  0.14331939  1
  O  O127  1  0.07468392  0.90633448  0.47687643  1
  O  O128  1  0.07551304  0.23686741  0.80492826  1
  O  O129  1  0.92533041  0.28355225  0.14331935  1
  O  O130  1  0.92531367  0.61678744  0.47687636  1
  O  O131  1  0.92448879  0.95820974  0.80492842  1
  O  O132  1  0.57677068  0.43250548  0.86531766  1
  O  O133  1  0.57697353  0.76604843  0.19862113  1
  O  O134  1  0.57519307  0.09673467  0.52821176  1
  O  O135  1  0.42323085  0.70217793  0.86531829  1
  O  O136  1  0.42302267  0.03533122  0.19862240  1
  O  O137  1  0.42481065  0.37504824  0.52821221  1
  O  O138  1  0.92531604  0.42699857  0.85645652  1
  O  O139  1  0.92533168  0.76020633  0.19001463  1
  O  O140  1  0.92448692  0.09646569  0.52840464  1
  O  O141  1  0.07468639  0.71654540  0.85645664  1
  O  O142  1  0.07466979  0.04978184  0.19001460  1
  O  O143  1  0.07551104  0.37512344  0.52840456  1
