# generated using pymatgen
data_SrCaNiWO6
_symmetry_space_group_name_H-M   'P 1'
_cell_length_a   5.58048013
_cell_length_b   7.91208469
_cell_length_c   5.62546718
_cell_angle_alpha   90.00000000
_cell_angle_beta   90.00000000
_cell_angle_gamma   90.00472950
_symmetry_Int_Tables_number   1
_chemical_formula_structural   SrCaNiWO6
_chemical_formula_sum   'Sr2 Ca2 Ni2 W2 O12'
_cell_volume   248.38255335
_cell_formula_units_Z   2
loop_
 _symmetry_equiv_pos_site_id
 _symmetry_equiv_pos_as_xyz
  1  'x, y, z'
loop_
 _atom_site_type_symbol
 _atom_site_label
 _atom_site_symmetry_multiplicity
 _atom_site_fract_x
 _atom_site_fract_y
 _atom_site_fract_z
 _atom_site_occupancy
  Sr  Sr0  1  0.99617718  0.24947159  0.52695543  1
  Sr  Sr1  1  0.49617718  0.74947159  0.97304457  1
  Ca  Ca2  1  0.00542051  0.75136379  0.46343301  1
  Ca  Ca3  1  0.50542051  0.25136379  0.03656699  1
  Ni  Ni4  1  0.49995741  0.50035839  0.50147213  1
  Ni  Ni5  1  0.99995741  0.00035839  0.99852787  1
  W  W6  1  0.49986721  0.99978148  0.49897360  1
  W  W7  1  0.99986721  0.49978148  0.00102640  1
  O  O8  1  0.78957443  0.46707169  0.27374726  1
  O  O9  1  0.28957443  0.96707169  0.22625274  1
  O  O10  1  0.19407281  0.54181333  0.71647120  1
  O  O11  1  0.69407281  0.04181333  0.78352880  1
  O  O12  1  0.71689879  0.45844467  0.80227114  1
  O  O13  1  0.21689879  0.95844467  0.69772886  1
  O  O14  1  0.27359845  0.53078058  0.21161116  1
  O  O15  1  0.77359845  0.03078058  0.28838884  1
  O  O16  1  0.94150910  0.74174503  0.02121414  1
  O  O17  1  0.44150910  0.24174503  0.47878586  1
  O  O18  1  0.08292411  0.25916945  0.98794417  1
  O  O19  1  0.58292411  0.75916945  0.51205583  1
