# generated using pymatgen
data_Sm2VFe16
_symmetry_space_group_name_H-M   'P 1'
_cell_length_a   6.42828786
_cell_length_b   6.42828786
_cell_length_c   6.42828808
_cell_angle_alpha   82.77692422
_cell_angle_beta   82.77692422
_cell_angle_gamma   82.77692973
_symmetry_Int_Tables_number   1
_chemical_formula_structural   Sm2VFe16
_chemical_formula_sum   'Sm2 V1 Fe16'
_cell_volume   259.80027884
_cell_formula_units_Z   1
loop_
 _symmetry_equiv_pos_site_id
 _symmetry_equiv_pos_as_xyz
  1  'x, y, z'
loop_
 _atom_site_type_symbol
 _atom_site_label
 _atom_site_symmetry_multiplicity
 _atom_site_fract_x
 _atom_site_fract_y
 _atom_site_fract_z
 _atom_site_occupancy
  Sm  Sm0  1  0.65884783  0.65884783  0.65884783  1
  Sm  Sm1  1  0.34504465  0.34504465  0.34504465  1
  V  V2  1  0.09090363  0.09090363  0.09090363  1
  Fe  Fe3  1  0.34011603  0.34011603  0.84389535  1
  Fe  Fe4  1  0.34011603  0.84389535  0.34011603  1
  Fe  Fe5  1  0.84389535  0.34011603  0.34011603  1
  Fe  Fe6  1  0.66029915  0.66029915  0.15572279  1
  Fe  Fe7  1  0.66029915  0.15572279  0.66029915  1
  Fe  Fe8  1  0.15572279  0.66029915  0.66029915  1
  Fe  Fe9  1  0.00107245  0.00107245  0.49956799  1
  Fe  Fe10  1  0.00107245  0.49956799  0.00107245  1
  Fe  Fe11  1  0.49956799  0.00107245  0.00107245  1
  Fe  Fe12  1  0.29467139  0.70434341  0.99941152  1
  Fe  Fe13  1  0.70434341  0.99941152  0.29467139  1
  Fe  Fe14  1  0.99941152  0.29467139  0.70434341  1
  Fe  Fe15  1  0.29467139  0.99941152  0.70434341  1
  Fe  Fe16  1  0.99941152  0.70434341  0.29467139  1
  Fe  Fe17  1  0.70434341  0.29467139  0.99941152  1
  Fe  Fe18  1  0.90618988  0.90618988  0.90618988  1
