# generated using pymatgen
data_ZnFeBiO5
_symmetry_space_group_name_H-M   'P 1'
_cell_length_a   5.21618753
_cell_length_b   10.41108711
_cell_length_c   15.60270831
_cell_angle_alpha   90.00000000
_cell_angle_beta   90.00000000
_cell_angle_gamma   90.00000000
_symmetry_Int_Tables_number   1
_chemical_formula_structural   ZnFeBiO5
_chemical_formula_sum   'Zn8 Fe8 Bi8 O40'
_cell_volume   847.32352899
_cell_formula_units_Z   8
loop_
 _symmetry_equiv_pos_site_id
 _symmetry_equiv_pos_as_xyz
  1  'x, y, z'
loop_
 _atom_site_type_symbol
 _atom_site_label
 _atom_site_symmetry_multiplicity
 _atom_site_fract_x
 _atom_site_fract_y
 _atom_site_fract_z
 _atom_site_occupancy
  Zn  Zn0  1  0.48831576  0.36589039  0.47276001  1
  Zn  Zn1  1  0.98831576  0.13410961  0.47276001  1
  Zn  Zn2  1  0.98831576  0.63410961  0.02723999  1
  Zn  Zn3  1  0.01168424  0.36589039  0.97276001  1
  Zn  Zn4  1  0.51168424  0.13410961  0.97276001  1
  Zn  Zn5  1  0.01168424  0.86589039  0.52723999  1
  Zn  Zn6  1  0.51168424  0.63410961  0.52723999  1
  Zn  Zn7  1  0.48831576  0.86589039  0.02723999  1
  Fe  Fe8  1  0.91414081  0.34776624  0.60466356  1
  Fe  Fe9  1  0.58585919  0.84776624  0.39533644  1
  Fe  Fe10  1  0.08585919  0.65223376  0.39533644  1
  Fe  Fe11  1  0.41414081  0.15223376  0.60466356  1
  Fe  Fe12  1  0.08585919  0.15223376  0.10466356  1
  Fe  Fe13  1  0.91414081  0.84776624  0.89533644  1
  Fe  Fe14  1  0.58585919  0.34776624  0.10466356  1
  Fe  Fe15  1  0.41414081  0.65223376  0.89533644  1
  Bi  Bi16  1  0.15136243  0.86084490  0.22161019  1
  Bi  Bi17  1  0.84863757  0.13915510  0.77838981  1
  Bi  Bi18  1  0.34863757  0.36084490  0.77838981  1
  Bi  Bi19  1  0.84863757  0.63915510  0.72161019  1
  Bi  Bi20  1  0.65136243  0.13915510  0.27838981  1
  Bi  Bi21  1  0.65136243  0.63915510  0.22161019  1
  Bi  Bi22  1  0.34863757  0.86084490  0.72161019  1
  Bi  Bi23  1  0.15136243  0.36084490  0.27838981  1
  O  O24  1  0.64785363  0.28671478  0.69314315  1
  O  O25  1  0.28869905  0.02455346  0.05316047  1
  O  O26  1  0.21130095  0.52455346  0.94683953  1
  O  O27  1  0.47628261  0.79825762  0.14685762  1
  O  O28  1  0.02371739  0.29825762  0.85314238  1
  O  O29  1  0.64785363  0.78671478  0.80685685  1
  O  O30  1  0.02371739  0.79825762  0.64685762  1
  O  O31  1  0.85214637  0.78671478  0.30685685  1
  O  O32  1  0.28869905  0.52455346  0.44683953  1
  O  O33  1  0.35214637  0.71328522  0.30685685  1
  O  O34  1  0.85214637  0.28671478  0.19314315  1
  O  O35  1  0.69587748  0.22019185  0.53354043  1
  O  O36  1  0.78869905  0.97544654  0.44683953  1
  O  O37  1  0.52371739  0.70174238  0.64685762  1
  O  O38  1  0.09204051  0.97274779  0.81315709  1
  O  O39  1  0.78869905  0.47544654  0.05316047  1
  O  O40  1  0.35214637  0.21328522  0.19314315  1
  O  O41  1  0.97628261  0.20174238  0.35314238  1
  O  O42  1  0.19587748  0.77980815  0.96645957  1
  O  O43  1  0.21130095  0.02455346  0.55316047  1
  O  O44  1  0.30412252  0.77980815  0.46645957  1
  O  O45  1  0.90795949  0.02725221  0.18684291  1
  O  O46  1  0.52371739  0.20174238  0.85314238  1
  O  O47  1  0.59204051  0.02725221  0.68684291  1
  O  O48  1  0.30412252  0.27980815  0.03354043  1
  O  O49  1  0.19587748  0.27980815  0.53354043  1
  O  O50  1  0.71130095  0.47544654  0.55316047  1
  O  O51  1  0.71130095  0.97544654  0.94683953  1
  O  O52  1  0.59204051  0.52725221  0.81315709  1
  O  O53  1  0.80412252  0.72019185  0.46645957  1
  O  O54  1  0.80412252  0.22019185  0.03354043  1
  O  O55  1  0.69587748  0.72019185  0.96645957  1
  O  O56  1  0.90795949  0.52725221  0.31315709  1
  O  O57  1  0.97628261  0.70174238  0.14685762  1
  O  O58  1  0.47628261  0.29825762  0.35314238  1
  O  O59  1  0.09204051  0.47274779  0.68684291  1
  O  O60  1  0.40795949  0.47274779  0.18684291  1
  O  O61  1  0.14785363  0.21328522  0.69314315  1
  O  O62  1  0.40795949  0.97274779  0.31315709  1
  O  O63  1  0.14785363  0.71328522  0.80685685  1
