# generated using pymatgen
data_Sr2Ce2YCoCu2O11
_symmetry_space_group_name_H-M   'P 1'
_cell_length_a   5.45556812
_cell_length_b   5.49587896
_cell_length_c   17.41561437
_cell_angle_alpha   80.92015519
_cell_angle_beta   80.98873392
_cell_angle_gamma   90.00000000
_symmetry_Int_Tables_number   1
_chemical_formula_structural   Sr2Ce2YCoCu2O11
_chemical_formula_sum   'Sr4 Ce4 Y2 Co2 Cu4 O22'
_cell_volume   509.10392982
_cell_formula_units_Z   2
loop_
 _symmetry_equiv_pos_site_id
 _symmetry_equiv_pos_as_xyz
  1  'x, y, z'
loop_
 _atom_site_type_symbol
 _atom_site_label
 _atom_site_symmetry_multiplicity
 _atom_site_fract_x
 _atom_site_fract_y
 _atom_site_fract_z
 _atom_site_occupancy
  Sr  Sr0  1  0.18458516  0.19503802  0.63332639  1
  Sr  Sr1  1  0.81791155  0.80496198  0.36667361  1
  Sr  Sr2  1  0.68456423  0.67165647  0.63332654  1
  Sr  Sr3  1  0.31789078  0.32834353  0.36667346  1
  Ce  Ce4  1  0.07599803  0.07647153  0.84867019  1
  Ce  Ce5  1  0.92466822  0.92352847  0.15132981  1
  Ce  Ce6  1  0.57598646  0.57484122  0.84867343  1
  Ce  Ce7  1  0.42465988  0.42515878  0.15132657  1
  Y  Y8  1  0.00000825  0.50000000  0.00000000  1
  Y  Y9  1  0.50001090  -0.00000000  0.00000000  1
  Co  Co10  1  0.71442739  0.18563904  0.49999198  1
  Co  Co11  1  0.21441937  0.81436096  0.50000802  1
  Cu  Cu12  1  0.63130547  0.12967472  0.73962018  1
  Cu  Cu13  1  0.37092565  0.87032528  0.26037982  1
  Cu  Cu14  1  0.13129491  0.63068338  0.73962641  1
  Cu  Cu15  1  0.87092133  0.36931662  0.26037359  1
  O  O16  1  0.21886734  0.66558874  0.60139092  1
  O  O17  1  0.82025826  0.33441126  0.39860908  1
  O  O18  1  0.71875315  0.23279975  0.60146867  1
  O  O19  1  0.32022181  0.76720025  0.39853133  1
  O  O20  1  0.87314836  0.37509821  0.75298772  1
  O  O21  1  0.62613607  0.62490179  0.24701228  1
  O  O22  1  0.37336846  0.37159180  0.75299238  1
  O  O23  1  0.12636083  0.62840820  0.24700762  1
  O  O24  1  0.79079417  0.29077355  0.91835723  1
  O  O25  1  0.70915139  0.70922645  0.08164277  1
  O  O26  1  0.29080861  0.29090028  0.91835770  1
  O  O27  1  0.20916631  0.70909972  0.08164230  1
  O  O28  1  0.37560937  0.87528113  0.75067051  1
  O  O29  1  0.12627988  0.12471887  0.24932949  1
  O  O30  1  0.87532357  0.87431418  0.75066441  1
  O  O31  1  0.62598798  0.12568582  0.24933559  1
  O  O32  1  0.29107404  0.79114567  0.91779335  1
  O  O33  1  0.20886739  0.20885433  0.08220665  1
  O  O34  1  0.79105617  0.79112578  0.91779284  1
  O  O35  1  0.70884901  0.20887422  0.08220716  1
  O  O36  1  0.35917249  0.13840441  0.49999530  1
  O  O37  1  0.85916780  0.86159559  0.50000470  1
