# generated using pymatgen
data_RbOsNO3
_symmetry_space_group_name_H-M   'P 1'
_cell_length_a   5.83952124
_cell_length_b   5.96903038
_cell_length_c   14.22157377
_cell_angle_alpha   90.00000000
_cell_angle_beta   90.00000000
_cell_angle_gamma   90.00000000
_symmetry_Int_Tables_number   1
_chemical_formula_structural   RbOsNO3
_chemical_formula_sum   'Rb4 Os4 N4 O12'
_cell_volume   495.71115291
_cell_formula_units_Z   4
loop_
 _symmetry_equiv_pos_site_id
 _symmetry_equiv_pos_as_xyz
  1  'x, y, z'
loop_
 _atom_site_type_symbol
 _atom_site_label
 _atom_site_symmetry_multiplicity
 _atom_site_fract_x
 _atom_site_fract_y
 _atom_site_fract_z
 _atom_site_occupancy
  Rb  Rb0  1  0.97196303  0.25144146  0.87463851  1
  Rb  Rb1  1  0.47196303  0.24855854  0.62536149  1
  Rb  Rb2  1  0.02803697  0.75144146  0.12536149  1
  Rb  Rb3  1  0.52803697  0.74855854  0.37463851  1
  Os  Os4  1  0.53645197  0.25146606  0.12084386  1
  Os  Os5  1  0.03645197  0.24853394  0.37915614  1
  Os  Os6  1  0.46354803  0.75146606  0.87915614  1
  Os  Os7  1  0.96354803  0.74853394  0.62084386  1
  N  N8  1  0.48738784  0.01904409  0.18736062  1
  N  N9  1  0.98738784  0.48095591  0.31263938  1
  N  N10  1  0.51261216  0.51904409  0.81263938  1
  N  N11  1  0.01261216  0.98095591  0.68736062  1
  O  O12  1  0.34535862  0.24591035  0.02484332  1
  O  O13  1  0.84535862  0.25408965  0.47515668  1
  O  O14  1  0.65464138  0.74591035  0.97515668  1
  O  O15  1  0.15464138  0.75408965  0.52484332  1
  O  O16  1  0.82520640  0.24523082  0.08273288  1
  O  O17  1  0.32520640  0.25476918  0.41726712  1
  O  O18  1  0.17479360  0.74523082  0.91726712  1
  O  O19  1  0.67479360  0.75476918  0.58273288  1
  O  O20  1  0.51615569  0.98847774  0.80865478  1
  O  O21  1  0.01615569  0.51152226  0.69134522  1
  O  O22  1  0.48384431  0.48847774  0.19134522  1
  O  O23  1  0.98384431  0.01152226  0.30865478  1
