# generated using pymatgen
data_Ni7Sn8
_symmetry_space_group_name_H-M   'P 1'
_cell_length_a   4.08843332
_cell_length_b   5.25806741
_cell_length_c   12.46215896
_cell_angle_alpha   79.13052962
_cell_angle_beta   90.00000000
_cell_angle_gamma   90.00000000
_symmetry_Int_Tables_number   1
_chemical_formula_structural   Ni7Sn8
_chemical_formula_sum   'Ni7 Sn8'
_cell_volume   263.09590095
_cell_formula_units_Z   1
loop_
 _symmetry_equiv_pos_site_id
 _symmetry_equiv_pos_as_xyz
  1  'x, y, z'
loop_
 _atom_site_type_symbol
 _atom_site_label
 _atom_site_symmetry_multiplicity
 _atom_site_fract_x
 _atom_site_fract_y
 _atom_site_fract_z
 _atom_site_occupancy
  Ni  Ni0  1  0.50000000  0.37226720  0.29101346  1
  Ni  Ni1  1  -0.00000000  0.87341945  0.78567575  1
  Ni  Ni2  1  0.00000000  0.12658055  0.21432425  1
  Ni  Ni3  1  0.50000000  0.62773280  0.70898654  1
  Ni  Ni4  1  -0.00000000  0.00000000  0.00000000  1
  Ni  Ni5  1  0.50000000  0.50000000  0.50000000  1
  Ni  Ni6  1  0.00000000  0.50000000  0.00000000  1
  Sn  Sn7  1  0.50000000  0.85760737  0.33182995  1
  Sn  Sn8  1  -0.00000000  0.35349964  0.81671086  1
  Sn  Sn9  1  0.00000000  0.64650036  0.18328914  1
  Sn  Sn10  1  0.50000000  0.14239263  0.66817005  1
  Sn  Sn11  1  0.50000000  0.22069828  0.07961299  1
  Sn  Sn12  1  -0.00000000  0.74249590  0.56966114  1
  Sn  Sn13  1  -0.00000000  0.25750410  0.43033886  1
  Sn  Sn14  1  0.50000000  0.77930172  0.92038701  1
