# generated using pymatgen
data_RbBa3Ga5(Se5Cl)2
_symmetry_space_group_name_H-M   'P 1'
_cell_length_a   8.81535352
_cell_length_b   8.84749868
_cell_length_c   10.12908549
_cell_angle_alpha   63.86503187
_cell_angle_beta   64.17795822
_cell_angle_gamma   89.98663674
_symmetry_Int_Tables_number   1
_chemical_formula_structural   RbBa3Ga5(Se5Cl)2
_chemical_formula_sum   'Rb1 Ba3 Ga5 Se10 Cl2'
_cell_volume   620.20908211
_cell_formula_units_Z   1
loop_
 _symmetry_equiv_pos_site_id
 _symmetry_equiv_pos_as_xyz
  1  'x, y, z'
loop_
 _atom_site_type_symbol
 _atom_site_label
 _atom_site_symmetry_multiplicity
 _atom_site_fract_x
 _atom_site_fract_y
 _atom_site_fract_z
 _atom_site_occupancy
  Rb  Rb0  1  0.25641933  0.12661489  0.22714716  1
  Ba  Ba1  1  0.51735881  0.64791910  0.22961296  1
  Ba  Ba2  1  0.35514911  0.74938832  0.77083982  1
  Ba  Ba3  1  0.87618924  0.48041517  0.77049798  1
  Ga  Ga4  1  0.00285534  0.00031139  0.00047361  1
  Ga  Ga5  1  0.73996962  0.14006363  0.33177854  1
  Ga  Ga6  1  0.93153807  0.52696629  0.32835982  1
  Ga  Ga7  1  0.47279243  0.25968596  0.66963205  1
  Ga  Ga8  1  0.85847154  0.06863235  0.66577393  1
  Se  Se9  1  0.82131851  0.92394264  0.52346953  1
  Se  Se10  1  0.65105272  0.55365231  0.51672335  1
  Se  Se11  1  0.44632264  0.16983278  0.48459392  1
  Se  Se12  1  0.06593036  0.35070202  0.48669095  1
  Se  Se13  1  0.71729386  0.04751755  0.14515246  1
  Se  Se14  1  0.14161837  0.80191053  0.14167308  1
  Se  Se15  1  0.19161205  0.28600621  0.84848057  1
  Se  Se16  1  0.95098065  0.86177545  0.85518831  1
  Se  Se17  1  0.92153730  0.43141984  0.14171976  1
  Se  Se18  1  0.57297208  0.07308694  0.85775068  1
  Cl  Cl19  1  0.50900888  0.51434303  0.99269585  1
  Cl  Cl20  1  0.24960908  0.73581360  0.51174566  1
