# generated using pymatgen
data_ScCuSe2
_symmetry_space_group_name_H-M   'P 1'
_cell_length_a   3.94495593
_cell_length_b   3.94486966
_cell_length_c   6.29205206
_cell_angle_alpha   90.00051866
_cell_angle_beta   90.00000003
_cell_angle_gamma   59.99927566
_symmetry_Int_Tables_number   1
_chemical_formula_structural   ScCuSe2
_chemical_formula_sum   'Sc1 Cu1 Se2'
_cell_volume   84.79975224
_cell_formula_units_Z   1
loop_
 _symmetry_equiv_pos_site_id
 _symmetry_equiv_pos_as_xyz
  1  'x, y, z'
loop_
 _atom_site_type_symbol
 _atom_site_label
 _atom_site_symmetry_multiplicity
 _atom_site_fract_x
 _atom_site_fract_y
 _atom_site_fract_z
 _atom_site_occupancy
  Sc  Sc0  1  -0.00000134  0.00000268  0.98687130  1
  Cu  Cu1  1  0.66669722  0.66660556  0.37728659  1
  Se  Se2  1  0.66666794  0.66666413  0.76116732  1
  Se  Se3  1  0.33333618  0.33332764  0.24667480  1
