# generated using pymatgen
data_Sm4TiFe33
_symmetry_space_group_name_H-M   'P 1'
_cell_length_a   6.44300218
_cell_length_b   6.44300218
_cell_length_c   12.85368137
_cell_angle_alpha   82.80809377
_cell_angle_beta   82.80809377
_cell_angle_gamma   83.17386982
_symmetry_Int_Tables_number   1
_chemical_formula_structural   Sm4TiFe33
_chemical_formula_sum   'Sm4 Ti1 Fe33'
_cell_volume   522.32883348
_cell_formula_units_Z   1
loop_
 _symmetry_equiv_pos_site_id
 _symmetry_equiv_pos_as_xyz
  1  'x, y, z'
loop_
 _atom_site_type_symbol
 _atom_site_label
 _atom_site_symmetry_multiplicity
 _atom_site_fract_x
 _atom_site_fract_y
 _atom_site_fract_z
 _atom_site_occupancy
  Sm  Sm0  1  0.65351747  0.65351747  0.32583248  1
  Sm  Sm1  1  0.65852069  0.65852069  0.82976049  1
  Sm  Sm2  1  0.34163387  0.34163387  0.17005134  1
  Sm  Sm3  1  0.34070057  0.34070057  0.67164187  1
  Ti  Ti4  1  0.90765777  0.90765777  0.45329960  1
  Fe  Fe5  1  0.34057511  0.34057511  0.42210647  1
  Fe  Fe6  1  0.34278280  0.34278280  0.92234899  1
  Fe  Fe7  1  0.34132293  0.84393170  0.17040193  1
  Fe  Fe8  1  0.34141895  0.84395474  0.67115939  1
  Fe  Fe9  1  0.84393170  0.34132293  0.17040193  1
  Fe  Fe10  1  0.84395474  0.34141895  0.67115939  1
  Fe  Fe11  1  0.65767572  0.65767572  0.07733169  1
  Fe  Fe12  1  0.65800581  0.65800581  0.57944176  1
  Fe  Fe13  1  0.65719372  0.15806938  0.32855238  1
  Fe  Fe14  1  0.65824533  0.15596993  0.82941860  1
  Fe  Fe15  1  0.15806938  0.65719372  0.32855238  1
  Fe  Fe16  1  0.15596993  0.65824533  0.82941860  1
  Fe  Fe17  1  0.00105399  0.00105399  0.24835248  1
  Fe  Fe18  1  0.99932918  0.99932918  0.75032656  1
  Fe  Fe19  1  0.00027414  0.50011565  0.00008945  1
  Fe  Fe20  1  0.00046210  0.49755298  0.50026747  1
  Fe  Fe21  1  0.50011565  0.00027414  0.00008945  1
  Fe  Fe22  1  0.49755298  0.00046210  0.50026747  1
  Fe  Fe23  1  0.29031777  0.70957620  0.99994245  1
  Fe  Fe24  1  0.29707044  0.70334188  0.50038273  1
  Fe  Fe25  1  0.70716779  0.00020309  0.14683238  1
  Fe  Fe26  1  0.70362334  0.00187109  0.64832183  1
  Fe  Fe27  1  0.99975916  0.29725753  0.35150699  1
  Fe  Fe28  1  0.99923929  0.29249695  0.85333379  1
  Fe  Fe29  1  0.29725753  0.99975916  0.35150699  1
  Fe  Fe30  1  0.29249695  0.99923929  0.85333379  1
  Fe  Fe31  1  0.00020309  0.70716779  0.14683238  1
  Fe  Fe32  1  0.00187109  0.70362334  0.64832183  1
  Fe  Fe33  1  0.70957620  0.29031777  0.99994245  1
  Fe  Fe34  1  0.70334188  0.29707044  0.50038273  1
  Fe  Fe35  1  0.90431383  0.90431383  0.95179559  1
  Fe  Fe36  1  0.09581861  0.09581861  0.04720043  1
  Fe  Fe37  1  0.09797852  0.09797852  0.55009148  1
