# generated using pymatgen
data_Nb4CuSe8
_symmetry_space_group_name_H-M   'P 1'
_cell_length_a   3.50828735
_cell_length_b   13.56504908
_cell_length_c   6.07199919
_cell_angle_alpha   77.25511756
_cell_angle_beta   89.95647494
_cell_angle_gamma   97.59661490
_symmetry_Int_Tables_number   1
_chemical_formula_structural   Nb4CuSe8
_chemical_formula_sum   'Nb4 Cu1 Se8'
_cell_volume   279.23990206
_cell_formula_units_Z   1
loop_
 _symmetry_equiv_pos_site_id
 _symmetry_equiv_pos_as_xyz
  1  'x, y, z'
loop_
 _atom_site_type_symbol
 _atom_site_label
 _atom_site_symmetry_multiplicity
 _atom_site_fract_x
 _atom_site_fract_y
 _atom_site_fract_z
 _atom_site_occupancy
  Nb  Nb0  1  0.87606054  0.74979830  0.11399440  1
  Nb  Nb1  1  0.37320577  0.74891131  0.63482622  1
  Nb  Nb2  1  0.62393946  0.25020170  0.38600560  1
  Nb  Nb3  1  0.12679423  0.25108869  0.86517378  1
  Cu  Cu4  1  0.25000000  0.50000000  0.75000000  1
  Se  Se5  1  0.30845209  0.61862207  0.03001464  1
  Se  Se6  1  0.81015747  0.62227809  0.51515754  1
  Se  Se7  1  0.68984253  0.37772191  0.98484246  1
  Se  Se8  1  0.19154791  0.38137793  0.46998536  1
  Se  Se9  1  0.56199908  0.12601415  0.10485945  1
  Se  Se10  1  0.06041439  0.12053543  0.60665046  1
  Se  Se11  1  0.43958561  0.87946457  0.89334954  1
  Se  Se12  1  0.93800092  0.87398585  0.39514055  1
