# generated using pymatgen
data_Pr(InCu)6
_symmetry_space_group_name_H-M   'P 1'
_cell_length_a   5.59417162
_cell_length_b   7.13018626
_cell_length_c   7.13018626
_cell_angle_alpha   98.46884687
_cell_angle_beta   113.09693861
_cell_angle_gamma   66.90306139
_symmetry_Int_Tables_number   1
_chemical_formula_structural   Pr(InCu)6
_chemical_formula_sum   'Pr1 In6 Cu6'
_cell_volume   240.63076616
_cell_formula_units_Z   1
loop_
 _symmetry_equiv_pos_site_id
 _symmetry_equiv_pos_as_xyz
  1  'x, y, z'
loop_
 _atom_site_type_symbol
 _atom_site_label
 _atom_site_symmetry_multiplicity
 _atom_site_fract_x
 _atom_site_fract_y
 _atom_site_fract_z
 _atom_site_occupancy
  Pr  Pr0  1  0.00000000  -0.00000000  0.00000000  1
  In  In1  1  0.66073043  0.33926957  0.66073043  1
  In  In2  1  0.33926957  0.66073043  0.33926957  1
  In  In3  1  0.00000000  0.34435533  0.34435533  1
  In  In4  1  0.00000000  0.65564467  0.65564467  1
  In  In5  1  0.50000000  0.81215838  0.81215838  1
  In  In6  1  0.50000000  0.18784162  0.18784162  1
  Cu  Cu7  1  0.50000000  -0.00000000  0.50000000  1
  Cu  Cu8  1  0.00000000  -0.00000000  0.50000000  1
  Cu  Cu9  1  0.50000000  0.50000000  0.00000000  1
  Cu  Cu10  1  0.00000000  0.50000000  0.00000000  1
  Cu  Cu11  1  0.73707399  0.76292601  0.23707399  1
  Cu  Cu12  1  0.26292601  0.23707399  0.76292601  1
