# generated using pymatgen
data_NbMoS4
_symmetry_space_group_name_H-M   'P 1'
_cell_length_a   3.28917458
_cell_length_b   6.64775452
_cell_length_c   5.70296044
_cell_angle_alpha   73.18883214
_cell_angle_beta   90.00001235
_cell_angle_gamma   90.00000867
_symmetry_Int_Tables_number   1
_chemical_formula_structural   NbMoS4
_chemical_formula_sum   'Nb1 Mo1 S4'
_cell_volume   119.36956076
_cell_formula_units_Z   1
loop_
 _symmetry_equiv_pos_site_id
 _symmetry_equiv_pos_as_xyz
  1  'x, y, z'
loop_
 _atom_site_type_symbol
 _atom_site_label
 _atom_site_symmetry_multiplicity
 _atom_site_fract_x
 _atom_site_fract_y
 _atom_site_fract_z
 _atom_site_occupancy
  Nb  Nb0  1  0.50000000  0.99905130  0.50489458  1
  Mo  Mo1  1  0.00000000  0.99922906  0.99710662  1
  S  S2  1  1.00000000  0.24672989  0.58799456  1
  S  S3  1  0.50000000  0.24070043  0.08045065  1
  S  S4  1  0.50000000  0.75800203  0.24286570  1
  S  S5  1  1.00000000  0.75228729  0.75468789  1
