# generated using pymatgen
data_Ca3Ta6(FeO6)4
_symmetry_space_group_name_H-M   'P 1'
_cell_length_a   7.02682230
_cell_length_b   8.68606152
_cell_length_c   10.64760446
_cell_angle_alpha   107.41974239
_cell_angle_beta   103.48660544
_cell_angle_gamma   107.24554072
_symmetry_Int_Tables_number   1
_chemical_formula_structural   Ca3Ta6(FeO6)4
_chemical_formula_sum   'Ca3 Ta6 Fe4 O24'
_cell_volume   554.00075857
_cell_formula_units_Z   1
loop_
 _symmetry_equiv_pos_site_id
 _symmetry_equiv_pos_as_xyz
  1  'x, y, z'
loop_
 _atom_site_type_symbol
 _atom_site_label
 _atom_site_symmetry_multiplicity
 _atom_site_fract_x
 _atom_site_fract_y
 _atom_site_fract_z
 _atom_site_occupancy
  Ca  Ca0  1  -0.00000000  0.50000000  0.50000000  1
  Ca  Ca1  1  0.31565369  0.31003599  0.80917408  1
  Ca  Ca2  1  0.68434631  0.68996401  0.19082592  1
  Ta  Ta3  1  0.82212620  0.34155983  0.74303588  1
  Ta  Ta4  1  0.17787380  0.65844017  0.25696412  1
  Ta  Ta5  1  0.87699279  0.90615460  0.66823624  1
  Ta  Ta6  1  0.39830176  0.75564768  0.86901693  1
  Ta  Ta7  1  0.12300721  0.09384540  0.33176376  1
  Ta  Ta8  1  0.60169824  0.24435232  0.13098307  1
  Fe  Fe9  1  0.37477291  0.95740826  0.60011251  1
  Fe  Fe10  1  0.62522709  0.04259174  0.39988749  1
  Fe  Fe11  1  0.03473476  0.19277166  0.01501200  1
  Fe  Fe12  1  0.96526524  0.80722834  0.98498800  1
  O  O13  1  0.82549635  0.67951349  0.57483156  1
  O  O14  1  0.17450365  0.32048651  0.42516844  1
  O  O15  1  0.20758971  0.52167156  0.75921238  1
  O  O16  1  0.79241029  0.47832844  0.24078762  1
  O  O17  1  0.79765910  0.28527119  0.55307100  1
  O  O18  1  0.20234090  0.71472881  0.44692900  1
  O  O19  1  0.65744802  0.96238476  0.56914647  1
  O  O20  1  0.34255198  0.03761524  0.43085353  1
  O  O21  1  0.63925596  0.73913824  0.98226655  1
  O  O22  1  0.36074404  0.26086176  0.01773345  1
  O  O23  1  0.45284053  0.78345079  0.26895336  1
  O  O24  1  0.54715947  0.21654921  0.73104664  1
  O  O25  1  0.13548872  0.02008832  0.64940111  1
  O  O26  1  0.07996027  0.06424034  0.13969717  1
  O  O27  1  0.92003973  0.93575966  0.86030283  1
  O  O28  1  0.57755098  0.14757707  0.26368799  1
  O  O29  1  0.42244902  0.85242293  0.73631201  1
  O  O30  1  0.14288433  0.43421579  0.15152391  1
  O  O31  1  0.85711567  0.56578421  0.84847609  1
  O  O32  1  0.98829744  0.24412680  0.83688252  1
  O  O33  1  0.01170256  0.75587320  0.16311748  1
  O  O34  1  0.25841554  0.84792814  0.97893367  1
  O  O35  1  0.74158446  0.15207186  0.02106633  1
  O  O36  1  0.86451128  0.97991168  0.35059889  1
