# generated using pymatgen
data_Pr6Cu8P8O3
_symmetry_space_group_name_H-M   'P 1'
_cell_length_a   5.64246092
_cell_length_b   5.64233060
_cell_length_c   13.54502221
_cell_angle_alpha   90.00000000
_cell_angle_beta   77.97810506
_cell_angle_gamma   90.00000000
_symmetry_Int_Tables_number   1
_chemical_formula_structural   Pr6Cu8P8O3
_chemical_formula_sum   'Pr6 Cu8 P8 O3'
_cell_volume   421.77020381
_cell_formula_units_Z   1
loop_
 _symmetry_equiv_pos_site_id
 _symmetry_equiv_pos_as_xyz
  1  'x, y, z'
loop_
 _atom_site_type_symbol
 _atom_site_label
 _atom_site_symmetry_multiplicity
 _atom_site_fract_x
 _atom_site_fract_y
 _atom_site_fract_z
 _atom_site_occupancy
  Pr  Pr0  1  0.31371896  0.01342817  0.39942566  1
  Pr  Pr1  1  0.78685539  0.48657183  0.39942566  1
  Pr  Pr2  1  0.21314461  0.48657183  0.60057434  1
  Pr  Pr3  1  0.68628104  0.01342817  0.60057434  1
  Pr  Pr4  1  0.50000000  0.50018906  0.00000000  1
  Pr  Pr5  1  0.00000000  0.99981094  0.00000000  1
  Cu  Cu6  1  0.34517615  0.25000000  0.80964770  1
  Cu  Cu7  1  0.84431277  0.75000000  0.81137446  1
  Cu  Cu8  1  0.84499683  0.25000000  0.81000634  1
  Cu  Cu9  1  0.34505656  0.75000000  0.80988688  1
  Cu  Cu10  1  0.15500317  0.25000000  0.18999366  1
  Cu  Cu11  1  0.65494344  0.75000000  0.19011312  1
  Cu  Cu12  1  0.65482385  0.25000000  0.19035230  1
  Cu  Cu13  1  0.15568723  0.75000000  0.18862554  1
  P  P14  1  0.13898880  0.99600452  0.71422212  1
  P  P15  1  0.64678909  0.50399548  0.71422212  1
  P  P16  1  0.35321091  0.50399548  0.28577788  1
  P  P17  1  0.86101120  0.99600452  0.28577788  1
  P  P18  1  0.45698471  0.00065754  0.08637676  1
  P  P19  1  0.95663853  0.49934246  0.08637676  1
  P  P20  1  0.04336147  0.49934246  0.91362324  1
  P  P21  1  0.54301529  0.00065754  0.91362324  1
  O  O22  1  0.50000000  0.25000000  0.50000000  1
  O  O23  1  0.50000000  0.75000000  0.50000000  1
  O  O24  1  0.00000000  0.25000000  0.50000000  1
