# generated using pymatgen
data_PPd4
_symmetry_space_group_name_H-M   'P 1'
_cell_length_a   5.20613916
_cell_length_b   5.75005560
_cell_length_c   7.65666420
_cell_angle_alpha   90.00000000
_cell_angle_beta   90.00000000
_cell_angle_gamma   90.29602928
_symmetry_Int_Tables_number   1
_chemical_formula_structural   PPd4
_chemical_formula_sum   'P3 Pd12'
_cell_volume   229.20369814
_cell_formula_units_Z   3
loop_
 _symmetry_equiv_pos_site_id
 _symmetry_equiv_pos_as_xyz
  1  'x, y, z'
loop_
 _atom_site_type_symbol
 _atom_site_label
 _atom_site_symmetry_multiplicity
 _atom_site_fract_x
 _atom_site_fract_y
 _atom_site_fract_z
 _atom_site_occupancy
  P  P0  1  0.45350648  0.88071084  0.25000000  1
  P  P1  1  0.95516971  0.60973617  0.75000000  1
  P  P2  1  0.54484574  0.11490612  0.75000000  1
  Pd  Pd3  1  0.64465269  0.52000008  0.25000000  1
  Pd  Pd4  1  0.86962045  0.03352316  0.25000000  1
  Pd  Pd5  1  0.37215483  0.48265518  0.75000000  1
  Pd  Pd6  1  0.12697543  0.98322180  0.75000000  1
  Pd  Pd7  1  0.16822017  0.67468462  0.06485559  1
  Pd  Pd8  1  0.32790508  0.18262970  0.43611031  1
  Pd  Pd9  1  0.82906195  0.31758236  0.55672462  1
  Pd  Pd10  1  0.67155013  0.82002663  0.94030186  1
  Pd  Pd11  1  0.82906195  0.31758236  0.94327538  1
  Pd  Pd12  1  0.67155013  0.82002663  0.55969814  1
  Pd  Pd13  1  0.16822017  0.67468462  0.43514441  1
  Pd  Pd14  1  0.32790508  0.18262970  0.06388969  1
