# generated using pymatgen
data_Pr2UP3
_symmetry_space_group_name_H-M   'P 1'
_cell_length_a   4.09904827
_cell_length_b   5.81409379
_cell_length_c   7.15454213
_cell_angle_alpha   66.02601147
_cell_angle_beta   73.35357625
_cell_angle_gamma   90.00000000
_symmetry_Int_Tables_number   1
_chemical_formula_structural   Pr2UP3
_chemical_formula_sum   'Pr2 U1 P3'
_cell_volume   147.94435395
_cell_formula_units_Z   1
loop_
 _symmetry_equiv_pos_site_id
 _symmetry_equiv_pos_as_xyz
  1  'x, y, z'
loop_
 _atom_site_type_symbol
 _atom_site_label
 _atom_site_symmetry_multiplicity
 _atom_site_fract_x
 _atom_site_fract_y
 _atom_site_fract_z
 _atom_site_occupancy
  Pr  Pr0  1  0.33174300  0.33174300  0.33651299  1
  Pr  Pr1  1  0.66825700  0.66825700  0.66348701  1
  U  U2  1  -0.00000000  0.00000000  -0.00000000  1
  P  P3  1  -0.00000000  0.50000000  -0.00000000  1
  P  P4  1  0.34599449  0.84599449  0.30801002  1
  P  P5  1  0.65400551  0.15400551  0.69198998  1
