# generated using pymatgen
data_Nb3WSe8
_symmetry_space_group_name_H-M   'P 1'
_cell_length_a   3.44015756
_cell_length_b   14.32260102
_cell_length_c   5.97509313
_cell_angle_alpha   85.43764211
_cell_angle_beta   89.99999997
_cell_angle_gamma   83.10239234
_symmetry_Int_Tables_number   1
_chemical_formula_structural   Nb3WSe8
_chemical_formula_sum   'Nb3 W1 Se8'
_cell_volume   291.33432852
_cell_formula_units_Z   1
loop_
 _symmetry_equiv_pos_site_id
 _symmetry_equiv_pos_as_xyz
  1  'x, y, z'
loop_
 _atom_site_type_symbol
 _atom_site_label
 _atom_site_symmetry_multiplicity
 _atom_site_fract_x
 _atom_site_fract_y
 _atom_site_fract_z
 _atom_site_occupancy
  Nb  Nb0  1  0.25038229  0.49923542  0.75122682  1
  Nb  Nb1  1  0.50006441  0.99987118  0.51079550  1
  Nb  Nb2  1  0.75009241  0.49981518  0.24973144  1
  W  W3  1  0.00018618  0.99962765  0.98947222  1
  Se  Se4  1  0.93959720  0.12080559  0.64836249  1
  Se  Se5  1  0.19019675  0.61960649  0.39420332  1
  Se  Se6  1  0.44267673  0.11464653  0.14043867  1
  Se  Se7  1  0.69011669  0.61976662  0.89313818  1
  Se  Se8  1  0.31008294  0.37983411  0.43816665  1
  Se  Se9  1  0.55766401  0.88467199  0.18499407  1
  Se  Se10  1  0.81042320  0.37915360  0.93918510  1
  Se  Se11  1  0.06051718  0.87896564  0.69428555  1
