# generated using pymatgen
data_NaSr2LaTi4O12
_symmetry_space_group_name_H-M   'P 1'
_cell_length_a   5.55499889
_cell_length_b   5.55499889
_cell_length_c   8.78097466
_cell_angle_alpha   71.56015785
_cell_angle_beta   71.56015785
_cell_angle_gamma   90.00000000
_symmetry_Int_Tables_number   1
_chemical_formula_structural   NaSr2LaTi4O12
_chemical_formula_sum   'Na1 Sr2 La1 Ti4 O12'
_cell_volume   242.34153095
_cell_formula_units_Z   1
loop_
 _symmetry_equiv_pos_site_id
 _symmetry_equiv_pos_as_xyz
  1  'x, y, z'
loop_
 _atom_site_type_symbol
 _atom_site_label
 _atom_site_symmetry_multiplicity
 _atom_site_fract_x
 _atom_site_fract_y
 _atom_site_fract_z
 _atom_site_occupancy
  Na  Na0  1  0.87500000  0.37500000  0.25000000  1
  Sr  Sr1  1  0.62631731  0.12631731  0.74736538  1
  Sr  Sr2  1  0.12368269  0.62368269  0.75263462  1
  La  La3  1  0.37500000  0.87500000  0.25000000  1
  Ti  Ti4  1  0.75085886  0.75085886  0.49828228  1
  Ti  Ti5  1  0.49914114  0.49914114  0.00171772  1
  Ti  Ti6  1  0.25085886  0.25085886  0.49828228  1
  Ti  Ti7  1  0.99914114  0.99914114  0.00171772  1
  O  O8  1  0.62500000  0.62500000  0.75000000  1
  O  O9  1  0.37500000  0.37500000  0.25000000  1
  O  O10  1  0.12500000  0.12500000  0.75000000  1
  O  O11  1  0.87500000  0.87500000  0.25000000  1
  O  O12  1  0.74278739  0.24278739  0.00204829  1
  O  O13  1  0.49483568  0.99483568  0.49795171  1
  O  O14  1  0.25516432  0.75516432  0.00204829  1
  O  O15  1  0.00721261  0.50721261  0.49795171  1
  O  O16  1  0.74278739  0.75516432  0.00204829  1
  O  O17  1  0.49483568  0.50721261  0.49795171  1
  O  O18  1  0.25516432  0.24278739  0.00204829  1
  O  O19  1  0.00721261  0.99483568  0.49795171  1
