# generated using pymatgen
data_NaNd(WO4)2
_symmetry_space_group_name_H-M   'P 1'
_cell_length_a   5.37496557
_cell_length_b   5.37496557
_cell_length_c   6.94166868
_cell_angle_alpha   67.22257909
_cell_angle_beta   67.22257900
_cell_angle_gamma   90.00000000
_symmetry_Int_Tables_number   1
_chemical_formula_structural   NaNd(WO4)2
_chemical_formula_sum   'Na1 Nd1 W2 O8'
_cell_volume   167.81641739
_cell_formula_units_Z   1
loop_
 _symmetry_equiv_pos_site_id
 _symmetry_equiv_pos_as_xyz
  1  'x, y, z'
loop_
 _atom_site_type_symbol
 _atom_site_label
 _atom_site_symmetry_multiplicity
 _atom_site_fract_x
 _atom_site_fract_y
 _atom_site_fract_z
 _atom_site_occupancy
  Na  Na0  1  0.12500000  0.87500000  0.75000000  1
  Nd  Nd1  1  0.87500000  0.12500000  0.25000000  1
  W  W2  1  0.37500000  0.62500000  0.25000000  1
  W  W3  1  0.62500000  0.37500000  0.75000000  1
  O  O4  1  0.44826302  0.78456770  0.41592259  1
  O  O5  1  0.13581439  0.29950971  0.41592259  1
  O  O6  1  0.77709594  0.14292300  0.92708520  1
  O  O7  1  0.29581886  0.42999180  0.92708520  1
  O  O8  1  0.57000820  0.22290406  0.57291480  1
  O  O9  1  0.85707700  0.70418114  0.57291480  1
  O  O10  1  0.21543230  0.86418561  0.08407741  1
  O  O11  1  0.70049029  0.55173698  0.08407741  1
