# generated using pymatgen
data_Nb5V3S20
_symmetry_space_group_name_H-M   'P 1'
_cell_length_a   6.75340248
_cell_length_b   9.69634504
_cell_length_c   10.39535546
_cell_angle_alpha   116.09875407
_cell_angle_beta   90.00000000
_cell_angle_gamma   69.62000322
_symmetry_Int_Tables_number   1
_chemical_formula_structural   Nb5V3S20
_chemical_formula_sum   'Nb5 V3 S20'
_cell_volume   563.47873746
_cell_formula_units_Z   1
loop_
 _symmetry_equiv_pos_site_id
 _symmetry_equiv_pos_as_xyz
  1  'x, y, z'
loop_
 _atom_site_type_symbol
 _atom_site_label
 _atom_site_symmetry_multiplicity
 _atom_site_fract_x
 _atom_site_fract_y
 _atom_site_fract_z
 _atom_site_occupancy
  Nb  Nb0  1  0.41356477  0.91718953  0.13493202  1
  Nb  Nb1  1  0.91924570  0.91718953  0.13493202  1
  Nb  Nb2  1  0.08586542  0.07826916  0.86173104  1
  Nb  Nb3  1  0.58531368  0.07937263  0.86103440  1
  Nb  Nb4  1  0.45066189  0.34867622  0.41198213  1
  V  V5  1  0.95283499  0.34433002  0.40321245  1
  V  V6  1  0.02511909  0.66268139  0.59995242  1
  V  V7  1  0.56219952  0.66268139  0.59995242  1
  S  S8  1  0.28502325  0.67995350  0.02006061  1
  S  S9  1  0.78362406  0.68275189  0.02156465  1
  S  S10  1  0.21756884  0.31459319  0.97699356  1
  S  S11  1  0.71783798  0.31459319  0.97699356  1
  S  S12  1  0.63271813  0.49587526  0.34668384  1
  S  S13  1  0.12140661  0.49587526  0.34668384  1
  S  S14  1  0.87188982  0.50622036  0.65558503  1
  S  S15  1  0.36467422  0.52065156  0.66367801  1
  S  S16  1  0.22770173  0.79459653  0.24399386  1
  S  S17  1  0.72561500  0.79877000  0.24501631  1
  S  S18  1  0.27410983  0.20094379  0.75330925  1
  S  S19  1  0.77494637  0.20094379  0.75330925  1
  S  S20  1  0.43846611  0.87409967  0.86496551  1
  S  S21  1  0.93743423  0.87409967  0.86496551  1
  S  S22  1  0.06263056  0.12473888  0.13358387  1
  S  S23  1  0.56490778  0.12018444  0.12948948  1
  S  S24  1  0.29521044  0.14881757  0.40514234  1
  S  S25  1  0.80597200  0.14881757  0.40514234  1
  S  S26  1  0.20476419  0.84047162  0.59618936  1
  S  S27  1  0.69869379  0.85261242  0.58892089  1
