# generated using pymatgen
data_Na4ZnCd(SiO3)4
_symmetry_space_group_name_H-M   'P 1'
_cell_length_a   5.23291656
_cell_length_b   5.23291656
_cell_length_c   11.57744387
_cell_angle_alpha   77.54665584
_cell_angle_beta   77.54665584
_cell_angle_gamma   92.54813880
_symmetry_Int_Tables_number   1
_chemical_formula_structural   Na4ZnCd(SiO3)4
_chemical_formula_sum   'Na4 Zn1 Cd1 Si4 O12'
_cell_volume   300.90859542
_cell_formula_units_Z   1
loop_
 _symmetry_equiv_pos_site_id
 _symmetry_equiv_pos_as_xyz
  1  'x, y, z'
loop_
 _atom_site_type_symbol
 _atom_site_label
 _atom_site_symmetry_multiplicity
 _atom_site_fract_x
 _atom_site_fract_y
 _atom_site_fract_z
 _atom_site_occupancy
  Na  Na0  1  0.35648640  0.32374126  0.35504679  1
  Na  Na1  1  0.67625874  0.64351360  0.64495321  1
  Na  Na2  1  0.44926214  0.92607397  0.15902875  1
  Na  Na3  1  0.07392603  0.55073786  0.84097125  1
  Zn  Zn4  1  0.23776064  0.76223936  0.50000000  1
  Cd  Cd5  1  0.48843539  0.51156461  -0.00000000  1
  Si  Si6  1  0.83111271  0.90479834  0.33468392  1
  Si  Si7  1  0.09520166  0.16888729  0.66531608  1
  Si  Si8  1  0.92122625  0.48508991  0.17511180  1
  Si  Si9  1  0.51491009  0.07877375  0.82488820  1
  O  O10  1  0.61616711  0.86717969  0.46204023  1
  O  O11  1  0.13282031  0.38383289  0.53795977  1
  O  O12  1  0.87282367  0.57524939  0.03952274  1
  O  O13  1  0.42475061  0.12717633  0.96047726  1
  O  O14  1  0.75958935  0.66442363  0.26715303  1
  O  O15  1  0.33557637  0.24041065  0.73284697  1
  O  O16  1  0.77605519  0.17833309  0.23889644  1
  O  O17  1  0.82166691  0.22394481  0.76110356  1
  O  O18  1  0.13464284  0.91861391  0.34646653  1
  O  O19  1  0.08138609  0.86535716  0.65353347  1
  O  O20  1  0.23099806  0.50505655  0.17742253  1
  O  O21  1  0.49494345  0.76900194  0.82257747  1
