# generated using pymatgen
data_V4Zn(CuO4)3
_symmetry_space_group_name_H-M   'P 1'
_cell_length_a   6.38821950
_cell_length_b   6.40820814
_cell_length_c   6.39499835
_cell_angle_alpha   109.68240203
_cell_angle_beta   109.40319467
_cell_angle_gamma   109.65194922
_symmetry_Int_Tables_number   1
_chemical_formula_structural   V4Zn(CuO4)3
_chemical_formula_sum   'V4 Zn1 Cu3 O12'
_cell_volume   200.71715607
_cell_formula_units_Z   1
loop_
 _symmetry_equiv_pos_site_id
 _symmetry_equiv_pos_as_xyz
  1  'x, y, z'
loop_
 _atom_site_type_symbol
 _atom_site_label
 _atom_site_symmetry_multiplicity
 _atom_site_fract_x
 _atom_site_fract_y
 _atom_site_fract_z
 _atom_site_occupancy
  V  V0  1  0.00000109  0.00000401  0.49999943  1
  V  V1  1  0.99999591  0.50000211  0.99999804  1
  V  V2  1  0.50000076  0.49999705  0.49999961  1
  V  V3  1  0.50000097  0.00000193  0.99999920  1
  Zn  Zn4  1  0.00000316  0.00000266  0.99999398  1
  Cu  Cu5  1  0.49999829  0.49999866  -0.00000083  1
  Cu  Cu6  1  0.00000105  0.50000113  0.49999913  1
  Cu  Cu7  1  0.49999976  -0.00000356  0.49999904  1
  O  O8  1  0.81348689  0.29400376  0.12244238  1
  O  O9  1  0.18651517  0.70599645  0.87755878  1
  O  O10  1  0.82229896  0.69879641  0.52218349  1
  O  O11  1  0.30276947  0.48029474  0.17729384  1
  O  O12  1  0.47753434  0.17676819  0.30310530  1
  O  O13  1  0.12133060  0.81335678  0.29481891  1
  O  O14  1  0.70498718  0.87827130  0.18635782  1
  O  O15  1  0.52246632  0.82322520  0.69689692  1
  O  O16  1  0.17770265  0.30120496  0.47781704  1
  O  O17  1  0.69722321  0.51970380  0.82271227  1
  O  O18  1  0.87867070  0.18664241  0.70518137  1
  O  O19  1  0.29501353  0.12173103  0.81364430  1
