# generated using pymatgen
data_Na4Ni3(SbO5)2
_symmetry_space_group_name_H-M   'P 1'
_cell_length_a   5.32446388
_cell_length_b   8.16109400
_cell_length_c   5.73780176
_cell_angle_alpha   95.56358409
_cell_angle_beta   72.71036559
_cell_angle_gamma   109.03889969
_symmetry_Int_Tables_number   1
_chemical_formula_structural   Na4Ni3(SbO5)2
_chemical_formula_sum   'Na4 Ni3 Sb2 O10'
_cell_volume   225.03873367
_cell_formula_units_Z   1
loop_
 _symmetry_equiv_pos_site_id
 _symmetry_equiv_pos_as_xyz
  1  'x, y, z'
loop_
 _atom_site_type_symbol
 _atom_site_label
 _atom_site_symmetry_multiplicity
 _atom_site_fract_x
 _atom_site_fract_y
 _atom_site_fract_z
 _atom_site_occupancy
  Na  Na0  1  0.69681521  0.39363042  0.50000000  1
  Na  Na1  1  0.29885755  0.59771509  0.50000000  1
  Na  Na2  1  0.90114245  0.80228491  0.50000000  1
  Na  Na3  1  0.50318479  0.00636958  0.50000000  1
  Ni  Ni4  1  0.60000000  0.20000000  -0.00000000  1
  Ni  Ni5  1  0.79916005  0.59832009  0.00000000  1
  Ni  Ni6  1  0.40083995  0.80167991  1.00000000  1
  Sb  Sb7  1  0.99688830  0.99377660  0.00000000  1
  Sb  Sb8  1  0.20311170  0.40622340  1.00000000  1
  O  O9  1  0.87852705  0.20000000  0.19422710  1
  O  O10  1  0.45724310  0.40306553  0.19381798  1
  O  O11  1  0.06681048  0.59035826  0.20755525  1
  O  O12  1  0.67645223  0.80964174  0.20755525  1
  O  O13  1  0.25417758  0.99693447  0.19381798  1
  O  O14  1  0.52354777  0.59035826  0.79244475  1
  O  O15  1  0.13318952  0.80964174  0.79244475  1
  O  O16  1  0.74275690  0.99693447  0.80618202  1
  O  O17  1  0.32147295  0.20000000  0.80577290  1
  O  O18  1  0.94582242  0.40306553  0.80618202  1
