# generated using pymatgen
data_Na4H8PdPt
_symmetry_space_group_name_H-M   'P 1'
_cell_length_a   5.04755540
_cell_length_b   5.04755540
_cell_length_c   8.57559864
_cell_angle_alpha   78.79360400
_cell_angle_beta   101.20639600
_cell_angle_gamma   116.31709206
_symmetry_Int_Tables_number   1
_chemical_formula_structural   Na4H8PdPt
_chemical_formula_sum   'Na4 H8 Pd1 Pt1'
_cell_volume   190.64850940
_cell_formula_units_Z   1
loop_
 _symmetry_equiv_pos_site_id
 _symmetry_equiv_pos_as_xyz
  1  'x, y, z'
loop_
 _atom_site_type_symbol
 _atom_site_label
 _atom_site_symmetry_multiplicity
 _atom_site_fract_x
 _atom_site_fract_y
 _atom_site_fract_z
 _atom_site_occupancy
  Na  Na0  1  0.37424002  0.62575998  0.12468270  1
  Na  Na1  1  0.87578992  0.12421008  0.62530023  1
  Na  Na2  1  0.12421008  0.87578992  0.37469977  1
  Na  Na3  1  0.62575998  0.37424002  0.87531730  1
  H  H4  1  0.17082451  0.39043354  0.39037852  1
  H  H5  1  0.66989314  0.88985929  0.88984817  1
  H  H6  1  0.33010686  0.11014071  0.11015183  1
  H  H7  1  0.82917549  0.60956646  0.60962148  1
  H  H8  1  0.60956646  0.82917549  0.39037852  1
  H  H9  1  0.11014071  0.33010686  0.88984817  1
  H  H10  1  0.88985929  0.66989314  0.11015183  1
  H  H11  1  0.39043354  0.17082451  0.60962148  1
  Pd  Pd12  1  0.50000000  0.50000000  0.50000000  1
  Pt  Pt13  1  0.00000000  -0.00000000  0.00000000  1
