# generated using pymatgen
data_NaNb4(PO4)6
_symmetry_space_group_name_H-M   'P 1'
_cell_length_a   8.88236335
_cell_length_b   8.88236336
_cell_length_c   9.04057117
_cell_angle_alpha   60.57721854
_cell_angle_beta   60.57721852
_cell_angle_gamma   60.00000027
_symmetry_Int_Tables_number   1
_chemical_formula_structural   NaNb4(PO4)6
_chemical_formula_sum   'Na1 Nb4 P6 O24'
_cell_volume   508.71251274
_cell_formula_units_Z   1
loop_
 _symmetry_equiv_pos_site_id
 _symmetry_equiv_pos_as_xyz
  1  'x, y, z'
loop_
 _atom_site_type_symbol
 _atom_site_label
 _atom_site_symmetry_multiplicity
 _atom_site_fract_x
 _atom_site_fract_y
 _atom_site_fract_z
 _atom_site_occupancy
  Na  Na0  1  0.50000000  0.50000000  0.50000000  1
  Nb  Nb1  1  0.64532450  0.64532450  0.06402650  1
  Nb  Nb2  1  0.14147357  0.14147357  0.57557928  1
  Nb  Nb3  1  0.35467550  0.35467550  0.93597350  1
  Nb  Nb4  1  0.85852643  0.85852643  0.42442072  1
  P  P5  1  0.46271200  0.03940558  0.74800008  1
  P  P6  1  0.03940558  0.74988234  0.74800008  1
  P  P7  1  0.74988234  0.46271200  0.74800008  1
  P  P8  1  0.96059442  0.25011766  0.25199992  1
  P  P9  1  0.25011766  0.53728800  0.25199992  1
  P  P10  1  0.53728800  0.96059442  0.25199992  1
  O  O11  1  0.87557958  0.71267203  0.91842031  1
  O  O12  1  0.71267203  0.49332808  0.91842031  1
  O  O13  1  0.49332808  0.87557958  0.91842031  1
  O  O14  1  0.37062825  0.99651115  0.41924677  1
  O  O15  1  0.99651115  0.21361383  0.41924677  1
  O  O16  1  0.21361383  0.37062825  0.41924677  1
  O  O17  1  0.12442042  0.28732797  0.08157969  1
  O  O18  1  0.28732797  0.50667192  0.08157969  1
  O  O19  1  0.50667192  0.12442042  0.08157969  1
  O  O20  1  0.62937175  0.00348885  0.58075323  1
  O  O21  1  0.00348885  0.78638617  0.58075323  1
  O  O22  1  0.78638617  0.62937175  0.58075323  1
  O  O23  1  0.56108174  0.78152768  0.24033846  1
  O  O24  1  0.78152768  0.41705211  0.24033846  1
  O  O25  1  0.41705211  0.56108174  0.24033846  1
  O  O26  1  0.06375139  0.91790371  0.73141441  1
  O  O27  1  0.91790371  0.28693049  0.73141441  1
  O  O28  1  0.28693049  0.06375139  0.73141441  1
  O  O29  1  0.43891826  0.21847232  0.75966154  1
  O  O30  1  0.21847232  0.58294789  0.75966154  1
  O  O31  1  0.58294789  0.43891826  0.75966154  1
  O  O32  1  0.93624861  0.08209629  0.26858559  1
  O  O33  1  0.08209629  0.71306951  0.26858559  1
  O  O34  1  0.71306951  0.93624861  0.26858559  1
