# generated using pymatgen
data_NaCaAlSi2O7
_symmetry_space_group_name_H-M   'P 1'
_cell_length_a   5.11261568
_cell_length_b   7.72336961
_cell_length_c   7.71007525
_cell_angle_alpha   90.00000000
_cell_angle_beta   90.00000000
_cell_angle_gamma   88.71444053
_symmetry_Int_Tables_number   1
_chemical_formula_structural   NaCaAlSi2O7
_chemical_formula_sum   'Na2 Ca2 Al2 Si4 O14'
_cell_volume   304.36818593
_cell_formula_units_Z   2
loop_
 _symmetry_equiv_pos_site_id
 _symmetry_equiv_pos_as_xyz
  1  'x, y, z'
loop_
 _atom_site_type_symbol
 _atom_site_label
 _atom_site_symmetry_multiplicity
 _atom_site_fract_x
 _atom_site_fract_y
 _atom_site_fract_z
 _atom_site_occupancy
  Na  Na0  1  0.51191569  0.32956760  0.16325757  1
  Na  Na1  1  0.48808431  0.17043240  0.66325757  1
  Ca  Ca2  1  0.51908844  0.65079684  0.84081471  1
  Ca  Ca3  1  0.48091156  0.84920316  0.34081471  1
  Al  Al4  1  0.00177401  0.50027300  0.50083938  1
  Al  Al5  1  0.99822599  0.99972700  0.00083938  1
  Si  Si6  1  0.95245191  0.13900458  0.35748239  1
  Si  Si7  1  0.04754809  0.36099542  0.85748239  1
  Si  Si8  1  0.95307266  0.85414286  0.64222499  1
  Si  Si9  1  0.04692734  0.64585714  0.14222499  1
  O  O10  1  0.82637284  0.32862752  0.41023646  1
  O  O11  1  0.17362716  0.17137248  0.91023646  1
  O  O12  1  0.80107369  0.67457673  0.58307177  1
  O  O13  1  0.19892631  0.82542327  0.08307177  1
  O  O14  1  0.18278401  0.59635855  0.33027588  1
  O  O15  1  0.81721599  0.90364145  0.83027588  1
  O  O16  1  0.19466497  0.42332270  0.67667158  1
  O  O17  1  0.80533503  0.07667730  0.17667158  1
  O  O18  1  0.17181693  0.50006330  0.00322287  1
  O  O19  1  0.82818307  0.99993670  0.50322287  1
  O  O20  1  0.26551321  0.12337421  0.35175691  1
  O  O21  1  0.73448679  0.37662579  0.85175691  1
  O  O22  1  0.26720942  0.83702650  0.64014548  1
  O  O23  1  0.73279058  0.66297350  0.14014548  1
