# generated using pymatgen
data_NaAlSiO4
_symmetry_space_group_name_H-M   'P 1'
_cell_length_a   8.45517482
_cell_length_b   10.06538874
_cell_length_c   10.03117944
_cell_angle_alpha   119.93793965
_cell_angle_beta   90.17037023
_cell_angle_gamma   89.76689490
_symmetry_Int_Tables_number   1
_chemical_formula_structural   NaAlSiO4
_chemical_formula_sum   'Na8 Al8 Si8 O32'
_cell_volume   739.78100372
_cell_formula_units_Z   8
loop_
 _symmetry_equiv_pos_site_id
 _symmetry_equiv_pos_as_xyz
  1  'x, y, z'
loop_
 _atom_site_type_symbol
 _atom_site_label
 _atom_site_symmetry_multiplicity
 _atom_site_fract_x
 _atom_site_fract_y
 _atom_site_fract_z
 _atom_site_occupancy
  Na  Na0  1  0.24790771  0.00880488  0.56468060  1
  Na  Na1  1  0.24588808  0.44551327  0.44961204  1
  Na  Na2  1  0.24957545  0.55249074  0.00256523  1
  Na  Na3  1  0.74716310  0.00175614  0.45035294  1
  Na  Na4  1  0.75056804  0.55800849  0.55649430  1
  Na  Na5  1  0.74523283  0.44732612  0.01023830  1
  Na  Na6  1  0.23566049  0.97875636  0.01028033  1
  Na  Na7  1  0.73499010  0.01829757  0.02789912  1
  Al  Al8  1  0.45234500  0.33516394  0.66458709  1
  Al  Al9  1  0.95257780  0.66125648  0.32941628  1
  Al  Al10  1  0.43991920  0.90801506  0.23951362  1
  Al  Al11  1  0.44003618  0.76220957  0.66969483  1
  Al  Al12  1  0.43510061  0.32430562  0.08952650  1
  Al  Al13  1  0.93894797  0.09210106  0.76271517  1
  Al  Al14  1  0.93705846  0.23764801  0.32672991  1
  Al  Al15  1  0.93883416  0.66949332  0.90691784  1
  Si  Si16  1  0.06591073  0.90822764  0.24051431  1
  Si  Si17  1  0.06860068  0.76030587  0.66860936  1
  Si  Si18  1  0.07152620  0.32500281  0.08771720  1
  Si  Si19  1  0.56920790  0.09082425  0.76061963  1
  Si  Si20  1  0.56937700  0.23956005  0.32840399  1
  Si  Si21  1  0.56735949  0.66932083  0.90817387  1
  Si  Si22  1  0.05454786  0.33445119  0.66426070  1
  Si  Si23  1  0.55422402  0.66122109  0.32958912  1
  O  O24  1  0.24501695  0.97827776  0.29095673  1
  O  O25  1  0.24690507  0.71020109  0.69210348  1
  O  O26  1  0.24573081  0.29255752  0.00629276  1
  O  O27  1  0.74700350  0.01877317  0.70518949  1
  O  O28  1  0.74482658  0.27817359  0.28673321  1
  O  O29  1  0.74547108  0.68526215  0.97949545  1
  O  O30  1  0.01154669  0.83671739  0.34763302  1
  O  O31  1  0.01837884  0.64882675  0.48885106  1
  O  O32  1  0.03270588  0.50801787  0.16165128  1
  O  O33  1  0.51587014  0.16476620  0.65488557  1
  O  O34  1  0.53615093  0.35035101  0.51234007  1
  O  O35  1  0.50957396  0.49237499  0.84135216  1
  O  O36  1  0.49974147  0.82673724  0.35002482  1
  O  O37  1  0.49382061  0.64744018  0.47627228  1
  O  O38  1  0.48084131  0.52017044  0.17005419  1
  O  O39  1  0.99571484  0.17371864  0.65134597  1
  O  O40  1  0.97791515  0.35222874  0.52344211  1
  O  O41  1  0.00131822  0.47874128  0.83005503  1
  O  O42  1  0.57122078  0.05757060  0.27730173  1
  O  O43  1  0.57513942  0.72043252  0.77723550  1
  O  O44  1  0.57486581  0.21637977  0.94529959  1
  O  O45  1  0.07294166  0.94243645  0.72027727  1
  O  O46  1  0.07598566  0.27457014  0.21960030  1
  O  O47  1  0.07178536  0.78285303  0.05642391  1
  O  O48  1  0.93853559  0.04103710  0.26381889  1
  O  O49  1  0.93940743  0.73576169  0.77528322  1
  O  O50  1  0.93530435  0.22592660  0.96015634  1
  O  O51  1  0.44128248  0.95789948  0.73065089  1
  O  O52  1  0.43317800  0.26699425  0.22868701  1
  O  O53  1  0.43975914  0.78252149  0.03999298  1
  O  O54  1  0.74694325  0.64868871  0.31974542  1
  O  O55  1  0.24676002  0.33253177  0.64873597  1
