# generated using pymatgen
data_ZnCuNiP2O9
_symmetry_space_group_name_H-M   'P 1'
_cell_length_a   6.21301503
_cell_length_b   7.15267220
_cell_length_c   14.23760163
_cell_angle_alpha   90.02292876
_cell_angle_beta   89.99280765
_cell_angle_gamma   90.00845179
_symmetry_Int_Tables_number   1
_chemical_formula_structural   ZnCuNiP2O9
_chemical_formula_sum   'Zn4 Cu4 Ni4 P8 O36'
_cell_volume   632.71411155
_cell_formula_units_Z   4
loop_
 _symmetry_equiv_pos_site_id
 _symmetry_equiv_pos_as_xyz
  1  'x, y, z'
loop_
 _atom_site_type_symbol
 _atom_site_label
 _atom_site_symmetry_multiplicity
 _atom_site_fract_x
 _atom_site_fract_y
 _atom_site_fract_z
 _atom_site_occupancy
  Zn  Zn0  1  0.75001482  0.88356065  0.77792665  1
  Zn  Zn1  1  0.74999255  0.61599842  0.27681529  1
  Zn  Zn2  1  0.24995936  0.11655200  0.22208218  1
  Zn  Zn3  1  0.25000425  0.38315373  0.72288866  1
  Cu  Cu4  1  0.75008616  0.35482273  0.87898854  1
  Cu  Cu5  1  0.24994600  0.64555853  0.12116448  1
  Cu  Cu6  1  0.25016142  0.85544526  0.62168518  1
  Cu  Cu7  1  0.74982758  0.14476953  0.37836630  1
  Ni  Ni8  1  0.50000344  0.00020947  0.00027996  1
  Ni  Ni9  1  0.49999437  0.49993738  0.50007564  1
  Ni  Ni10  1  0.00005556  0.49993915  0.50010528  1
  Ni  Ni11  1  -0.00003900  0.00016851  0.00029199  1
  P  P12  1  0.25004673  0.36379028  0.93060786  1
  P  P13  1  0.74997298  0.63630101  0.06959016  1
  P  P14  1  0.75005632  0.86434935  0.56970132  1
  P  P15  1  0.24993668  0.13563596  0.43020347  1
  P  P16  1  0.75002683  0.38590381  0.69808607  1
  P  P17  1  0.24995711  0.61409290  0.30189802  1
  P  P18  1  0.24997102  0.88518324  0.80220053  1
  P  P19  1  0.74999857  0.11511242  0.19786866  1
  O  O20  1  0.03790127  0.60781965  0.35990485  1
  O  O21  1  0.53773793  0.39182520  0.63996825  1
  O  O22  1  0.96219881  0.10816813  0.14004639  1
  O  O23  1  0.46211291  0.89207622  0.86003407  1
  O  O24  1  0.96231273  0.39188927  0.63993619  1
  O  O25  1  0.46203901  0.60785971  0.35986089  1
  O  O26  1  0.03782303  0.89199860  0.86004928  1
  O  O27  1  0.53780411  0.10814315  0.14006102  1
  O  O28  1  0.25008371  0.32807530  0.48035777  1
  O  O29  1  0.74994923  0.67164913  0.51967582  1
  O  O30  1  0.74996743  0.82856953  0.01994615  1
  O  O31  1  0.24994216  0.17163747  0.98045350  1
  O  O32  1  0.75005273  0.13410911  0.94839006  1
  O  O33  1  0.24996330  0.86428466  0.05118078  1
  O  O34  1  0.25027605  0.63740537  0.54905577  1
  O  O35  1  0.74975764  0.36238584  0.45101060  1
  O  O36  1  0.75009453  0.20404200  0.75938977  1
  O  O37  1  0.24991624  0.79574241  0.24010446  1
  O  O38  1  0.25000752  0.70279341  0.74079200  1
  O  O39  1  0.74997491  0.29756295  0.25923268  1
  O  O40  1  0.43563254  0.12819966  0.35657754  1
  O  O41  1  0.93599938  0.87167871  0.64319337  1
  O  O42  1  0.56431163  0.62850799  0.14309505  1
  O  O43  1  0.06436844  0.37177663  0.85707571  1
  O  O44  1  0.56426935  0.87183420  0.64329991  1
  O  O45  1  0.06409476  0.12836560  0.35667784  1
  O  O46  1  0.43585866  0.37162248  0.85713344  1
  O  O47  1  0.93553104  0.62854350  0.14314026  1
  O  O48  1  0.75005503  0.95431179  0.27347983  1
  O  O49  1  0.24991547  0.04617081  0.72661272  1
  O  O50  1  0.24994437  0.45364615  0.22590616  1
  O  O51  1  0.75000460  0.54713928  0.77345060  1
  O  O52  1  0.74993578  0.02139068  0.50024685  1
  O  O53  1  0.24999759  0.97818738  0.49954922  1
  O  O54  1  0.25006008  0.52185054  0.00002232  1
  O  O55  1  0.75013128  0.47825318  0.00026165  1
