# generated using pymatgen
data_Na3HoTi2Nb2O12
_symmetry_space_group_name_H-M   'P 1'
_cell_length_a   5.44065478
_cell_length_b   5.59591100
_cell_length_c   7.77075543
_cell_angle_alpha   90.11253752
_cell_angle_beta   89.95951186
_cell_angle_gamma   90.75679200
_symmetry_Int_Tables_number   1
_chemical_formula_structural   Na3HoTi2Nb2O12
_chemical_formula_sum   'Na3 Ho1 Ti2 Nb2 O12'
_cell_volume   236.56276352
_cell_formula_units_Z   1
loop_
 _symmetry_equiv_pos_site_id
 _symmetry_equiv_pos_as_xyz
  1  'x, y, z'
loop_
 _atom_site_type_symbol
 _atom_site_label
 _atom_site_symmetry_multiplicity
 _atom_site_fract_x
 _atom_site_fract_y
 _atom_site_fract_z
 _atom_site_occupancy
  Na  Na0  1  0.50892059  0.53067530  0.25163976  1
  Na  Na1  1  0.99731624  0.02069644  0.25008071  1
  Na  Na2  1  0.49143168  0.46168461  0.74975296  1
  Ho  Ho3  1  0.00992484  0.93364323  0.74977964  1
  Ti  Ti4  1  0.51131585  0.98299017  0.99266347  1
  Ti  Ti5  1  0.99617653  0.47660721  0.50670921  1
  Nb  Nb6  1  0.50623106  0.99286396  0.48867068  1
  Nb  Nb7  1  0.99728159  0.47771296  0.01093865  1
  O  O8  1  0.43106265  0.98367206  0.24679031  1
  O  O9  1  0.08066878  0.48822981  0.25294551  1
  O  O10  1  0.60052339  0.02843110  0.75344677  1
  O  O11  1  0.92247279  0.53300772  0.74691365  1
  O  O12  1  0.79510180  0.80432181  0.02442203  1
  O  O13  1  0.70678441  0.30345536  0.46281341  1
  O  O14  1  0.19325467  0.20905079  0.55405567  1
  O  O15  1  0.28114726  0.73385137  0.94683474  1
  O  O16  1  0.19539318  0.20627920  0.94510888  1
  O  O17  1  0.27705767  0.73099434  0.55275623  1
  O  O18  1  0.79760130  0.80265245  0.47423385  1
  O  O19  1  0.70033374  0.29918012  0.03944389  1
