# generated using pymatgen
data_Na3TiFe3O8
_symmetry_space_group_name_H-M   'P 1'
_cell_length_a   5.24322162
_cell_length_b   6.03876115
_cell_length_c   5.80020802
_cell_angle_alpha   90.00000455
_cell_angle_beta   72.05179321
_cell_angle_gamma   90.00000022
_symmetry_Int_Tables_number   1
_chemical_formula_structural   Na3TiFe3O8
_chemical_formula_sum   'Na3 Ti1 Fe3 O8'
_cell_volume   174.71223724
_cell_formula_units_Z   1
loop_
 _symmetry_equiv_pos_site_id
 _symmetry_equiv_pos_as_xyz
  1  'x, y, z'
loop_
 _atom_site_type_symbol
 _atom_site_label
 _atom_site_symmetry_multiplicity
 _atom_site_fract_x
 _atom_site_fract_y
 _atom_site_fract_z
 _atom_site_occupancy
  Na  Na0  1  1.00000000  0.98971782  0.00000000  1
  Na  Na1  1  0.50000000  0.25000000  0.00000000  1
  Na  Na2  1  0.00000000  0.51028218  1.00000000  1
  Ti  Ti3  1  -0.00000000  0.75000000  0.50000000  1
  Fe  Fe4  1  0.50000000  0.49932461  0.50000000  1
  Fe  Fe5  1  0.50000000  0.00067539  0.50000000  1
  Fe  Fe6  1  -0.00000000  0.25000000  0.50000000  1
  O  O7  1  0.73159283  0.25000000  0.29896777  1
  O  O8  1  0.22453490  0.50402239  0.30784901  1
  O  O9  1  0.74439485  0.75000000  0.31144927  1
  O  O10  1  0.22453490  0.99597761  0.30784901  1
  O  O11  1  0.25560515  0.75000000  0.68855073  1
  O  O12  1  0.77546510  0.99597761  0.69215099  1
  O  O13  1  0.26840717  0.25000000  0.70103223  1
  O  O14  1  0.77546510  0.50402239  0.69215099  1
