# generated using pymatgen
data_MgZn3S4
_symmetry_space_group_name_H-M   'P 1'
_cell_length_a   3.90035842
_cell_length_b   6.75869804
_cell_length_c   6.36929106
_cell_angle_alpha   89.99052500
_cell_angle_beta   89.99987002
_cell_angle_gamma   89.99754864
_symmetry_Int_Tables_number   1
_chemical_formula_structural   MgZn3S4
_chemical_formula_sum   'Mg1 Zn3 S4'
_cell_volume   167.90307508
_cell_formula_units_Z   1
loop_
 _symmetry_equiv_pos_site_id
 _symmetry_equiv_pos_as_xyz
  1  'x, y, z'
loop_
 _atom_site_type_symbol
 _atom_site_label
 _atom_site_symmetry_multiplicity
 _atom_site_fract_x
 _atom_site_fract_y
 _atom_site_fract_z
 _atom_site_occupancy
  Mg  Mg0  1  0.99998952  0.33296389  0.50107027  1
  Zn  Zn1  1  0.49999028  0.83352898  0.49976787  1
  Zn  Zn2  1  0.50000765  0.16470211  0.99909443  1
  Zn  Zn3  1  0.00001008  0.66875056  0.99931273  1
  S  S4  1  0.99999502  0.33385700  0.11411802  1
  S  S5  1  0.49999629  0.83297607  0.12591477  1
  S  S6  1  0.50000491  0.15777225  0.62979674  1
  S  S7  1  0.00000624  0.67544915  0.62692517  1
