# generated using pymatgen
data_Na3DyTi2Nb2O12
_symmetry_space_group_name_H-M   'P 1'
_cell_length_a   5.44187900
_cell_length_b   5.58962277
_cell_length_c   7.76308367
_cell_angle_alpha   90.12756625
_cell_angle_beta   89.96477415
_cell_angle_gamma   90.78620841
_symmetry_Int_Tables_number   1
_chemical_formula_structural   Na3DyTi2Nb2O12
_chemical_formula_sum   'Na3 Dy1 Ti2 Nb2 O12'
_cell_volume   236.11501656
_cell_formula_units_Z   1
loop_
 _symmetry_equiv_pos_site_id
 _symmetry_equiv_pos_as_xyz
  1  'x, y, z'
loop_
 _atom_site_type_symbol
 _atom_site_label
 _atom_site_symmetry_multiplicity
 _atom_site_fract_x
 _atom_site_fract_y
 _atom_site_fract_z
 _atom_site_occupancy
  Na  Na0  1  0.50968928  0.52908671  0.25130816  1
  Na  Na1  1  0.99626285  0.02054872  0.25025163  1
  Na  Na2  1  0.49129311  0.46395189  0.74995430  1
  Dy  Dy3  1  0.00953905  0.93649425  0.74981246  1
  Ti  Ti4  1  0.51119981  0.98229871  0.99274614  1
  Ti  Ti5  1  0.99614302  0.47630700  0.50697068  1
  Nb  Nb6  1  0.50614043  0.99217672  0.48814804  1
  Nb  Nb7  1  0.99687542  0.47760994  0.01150814  1
  O  O8  1  0.79440896  0.80297492  0.02473269  1
  O  O9  1  0.70887297  0.30119368  0.46243409  1
  O  O10  1  0.19526679  0.21115023  0.55333496  1
  O  O11  1  0.27997942  0.73522856  0.94734797  1
  O  O12  1  0.19744815  0.20869077  0.94570232  1
  O  O13  1  0.27591772  0.73221606  0.55213427  1
  O  O14  1  0.79669944  0.80134828  0.47376403  1
  O  O15  1  0.70188141  0.29673306  0.03992095  1
  O  O16  1  0.43010743  0.98440868  0.24672599  1
  O  O17  1  0.08153649  0.48841839  0.25281865  1
  O  O18  1  0.59835524  0.02819335  0.75365289  1
  O  O19  1  0.92238303  0.53097008  0.74673164  1
