# generated using pymatgen
data_Mn6BiPO12
_symmetry_space_group_name_H-M   'P 1'
_cell_length_a   6.95860307
_cell_length_b   6.95860307
_cell_length_c   6.95860307
_cell_angle_alpha   90.00000000
_cell_angle_beta   60.00000000
_cell_angle_gamma   120.00000000
_symmetry_Int_Tables_number   1
_chemical_formula_structural   Mn6BiPO12
_chemical_formula_sum   'Mn6 Bi1 P1 O12'
_cell_volume   238.26003191
_cell_formula_units_Z   1
loop_
 _symmetry_equiv_pos_site_id
 _symmetry_equiv_pos_as_xyz
  1  'x, y, z'
loop_
 _atom_site_type_symbol
 _atom_site_label
 _atom_site_symmetry_multiplicity
 _atom_site_fract_x
 _atom_site_fract_y
 _atom_site_fract_z
 _atom_site_occupancy
  Mn  Mn0  1  0.00792943  0.00396472  0.49603528  1
  Mn  Mn1  1  0.50000000  0.49603528  0.49603528  1
  Mn  Mn2  1  0.50000000  0.00396472  0.49603528  1
  Mn  Mn3  1  0.99207057  0.49603528  0.00396472  1
  Mn  Mn4  1  0.50000000  0.00396472  0.00396472  1
  Mn  Mn5  1  0.50000000  0.49603528  0.00396472  1
  Bi  Bi6  1  -0.00000000  -0.00000000  -0.00000000  1
  P  P7  1  -0.00000000  0.50000000  0.50000000  1
  O  O8  1  0.28489272  0.14244636  0.57266091  1
  O  O9  1  0.71510728  0.14244636  0.14244636  1
  O  O10  1  0.71510728  0.57266091  0.14244636  1
  O  O11  1  0.28489272  0.14244636  0.14244636  1
  O  O12  1  0.70879878  0.85439939  0.43680183  1
  O  O13  1  0.29120122  0.85439939  0.85439939  1
  O  O14  1  0.29120122  0.43680183  0.85439939  1
  O  O15  1  0.70879878  0.85439939  0.85439939  1
  O  O16  1  0.81840616  0.40920308  0.77239075  1
  O  O17  1  0.18159384  0.40920308  0.40920308  1
  O  O18  1  0.18159384  0.77239075  0.40920308  1
  O  O19  1  0.81840616  0.40920308  0.40920308  1
