# generated using pymatgen
data_Mn3Co3(TeO6)2
_symmetry_space_group_name_H-M   'P 1'
_cell_length_a   6.23730734
_cell_length_b   6.23730705
_cell_length_c   6.23730734
_cell_angle_alpha   90.24650240
_cell_angle_beta   89.75350546
_cell_angle_gamma   89.75349760
_symmetry_Int_Tables_number   1
_chemical_formula_structural   Mn3Co3(TeO6)2
_chemical_formula_sum   'Mn3 Co3 Te2 O12'
_cell_volume   242.64945517
_cell_formula_units_Z   1
loop_
 _symmetry_equiv_pos_site_id
 _symmetry_equiv_pos_as_xyz
  1  'x, y, z'
loop_
 _atom_site_type_symbol
 _atom_site_label
 _atom_site_symmetry_multiplicity
 _atom_site_fract_x
 _atom_site_fract_y
 _atom_site_fract_z
 _atom_site_occupancy
  Mn  Mn0  1  0.43729895  0.74757954  0.05139922  1
  Mn  Mn1  1  0.94860078  0.56270105  0.74757954  1
  Mn  Mn2  1  0.25242046  0.05139922  0.56270105  1
  Co  Co3  1  0.56417664  0.25684870  0.94689873  1
  Co  Co4  1  0.05310127  0.43582336  0.25684870  1
  Co  Co5  1  0.74315130  0.94689873  0.43582336  1
  Te  Te6  1  0.50468888  0.49531112  0.49531112  1
  Te  Te7  1  0.99774444  0.00225556  0.00225556  1
  O  O8  1  0.56871425  0.55734750  0.79659775  1
  O  O9  1  0.20340225  0.43128575  0.55734750  1
  O  O10  1  0.44265250  0.79659775  0.43128575  1
  O  O11  1  0.42744589  0.42521079  0.19946972  1
  O  O12  1  0.80053028  0.57255411  0.42521079  1
  O  O13  1  0.57478921  0.19946972  0.57255411  1
  O  O14  1  0.08579331  0.70395417  0.05094613  1
  O  O15  1  0.94905387  0.91420669  0.70395417  1
  O  O16  1  0.29604583  0.05094613  0.91420669  1
  O  O17  1  0.90697565  0.29936357  0.95722221  1
  O  O18  1  0.04277779  0.09302435  0.29936357  1
  O  O19  1  0.70063643  0.95722221  0.09302435  1
