# generated using pymatgen
data_MgZn3O4
_symmetry_space_group_name_H-M   'P 1'
_cell_length_a   3.29293215
_cell_length_b   6.20960395
_cell_length_c   5.68951896
_cell_angle_alpha   62.73321192
_cell_angle_beta   90.00433884
_cell_angle_gamma   105.37791047
_symmetry_Int_Tables_number   1
_chemical_formula_structural   MgZn3O4
_chemical_formula_sum   'Mg1 Zn3 O4'
_cell_volume   98.70308405
_cell_formula_units_Z   1
loop_
 _symmetry_equiv_pos_site_id
 _symmetry_equiv_pos_as_xyz
  1  'x, y, z'
loop_
 _atom_site_type_symbol
 _atom_site_label
 _atom_site_symmetry_multiplicity
 _atom_site_fract_x
 _atom_site_fract_y
 _atom_site_fract_z
 _atom_site_occupancy
  Mg  Mg0  1  0.25084096  0.50169190  0.41792728  1
  Zn  Zn1  1  0.75130234  0.50261256  0.91365709  1
  Zn  Zn2  1  0.49933907  0.99866542  0.83212326  1
  Zn  Zn3  1  0.99893095  0.99785791  0.33606912  1
  O  O4  1  0.06127523  0.12258332  0.60539718  1
  O  O5  1  0.55914920  0.11831974  0.10760840  1
  O  O6  1  0.80834309  0.61665433  0.52226333  1
  O  O7  1  0.30881916  0.61761480  0.02695433  1
