# generated using pymatgen
data_Mn5Cr4O12
_symmetry_space_group_name_H-M   'P 1'
_cell_length_a   6.17222264
_cell_length_b   8.52509900
_cell_length_c   10.59365218
_cell_angle_alpha   113.58759798
_cell_angle_beta   106.88138855
_cell_angle_gamma   90.18909139
_symmetry_Int_Tables_number   1
_chemical_formula_structural   Mn5Cr4O12
_chemical_formula_sum   'Mn10 Cr8 O24'
_cell_volume   484.27863405
_cell_formula_units_Z   2
loop_
 _symmetry_equiv_pos_site_id
 _symmetry_equiv_pos_as_xyz
  1  'x, y, z'
loop_
 _atom_site_type_symbol
 _atom_site_label
 _atom_site_symmetry_multiplicity
 _atom_site_fract_x
 _atom_site_fract_y
 _atom_site_fract_z
 _atom_site_occupancy
  Mn  Mn0  1  0.83236422  0.08313484  0.66686545  1
  Mn  Mn1  1  0.50234461  0.75003325  0.00073860  1
  Mn  Mn2  1  0.16647397  0.41618949  0.33436891  1
  Mn  Mn3  1  0.33098839  0.33329975  0.66592840  1
  Mn  Mn4  1  0.00096878  0.00019816  -0.00019845  1
  Mn  Mn5  1  0.66686003  0.66714451  0.33229709  1
  Mn  Mn6  1  0.25411978  0.37689866  0.00306837  1
  Mn  Mn7  1  0.91666700  0.04166700  0.33333300  1
  Mn  Mn8  1  0.57921322  0.70643434  0.66359863  1
  Mn  Mn9  1  0.91666700  0.54166700  0.83333300  1
  Cr  Cr10  1  0.58423851  0.20742444  0.16683629  1
  Cr  Cr11  1  0.24909449  0.87590856  0.49983071  1
  Cr  Cr12  1  0.08656851  0.70791253  0.16736837  1
  Cr  Cr13  1  0.74676449  0.37542047  0.49929863  1
  Cr  Cr14  1  0.41666700  0.04166700  0.83333300  1
  Cr  Cr15  1  0.75113814  0.37509452  0.00050559  1
  Cr  Cr16  1  0.41666700  0.04166700  0.33333300  1
  Cr  Cr17  1  0.08219486  0.70823848  0.66616141  1
  O  O18  1  0.04856016  0.46912355  0.66851590  1
  O  O19  1  0.72014618  0.13597585  0.99978884  1
  O  O20  1  0.38633238  0.80358913  0.33508386  1
  O  O21  1  0.77298414  0.61801620  0.51268571  1
  O  O22  1  0.44002693  0.28461765  0.84657035  1
  O  O23  1  0.10488611  0.95193774  0.18047655  1
  O  O24  1  0.90988697  0.76754157  0.81498317  1
  O  O25  1  0.58208804  0.43582459  0.14861676  1
  O  O26  1  0.24774593  0.10346313  0.48215034  1
  O  O27  1  0.59213418  0.47435380  0.65458782  1
  O  O28  1  0.27869704  0.14319293  -0.00030308  1
  O  O29  1  0.94453027  0.81092627  0.33294595  1
  O  O30  1  0.11318682  0.94735715  0.66687816  1
  O  O31  1  0.78477284  0.61420945  0.99815110  1
  O  O32  1  0.44700162  0.27974487  0.33158214  1
  O  O33  1  0.39330707  0.79871635  0.82009565  1
  O  O34  1  0.06034886  0.46531680  0.15398129  1
  O  O35  1  0.72844689  0.13139526  0.48619045  1
  O  O36  1  0.25124496  0.64750841  0.51805024  1
  O  O37  1  0.92344703  0.31579243  0.85168283  1
  O  O38  1  0.58558707  0.97986987  0.18451666  1
  O  O39  1  0.55463596  0.94014007  0.66697008  1
  O  O40  1  0.24119882  0.60897920  0.01207918  1
  O  O41  1  0.88880373  0.27240773  0.33372005  1
