# generated using pymatgen
data_Mg2Ta2Ni2O9
_symmetry_space_group_name_H-M   'P 1'
_cell_length_a   5.19409119
_cell_length_b   5.19409164
_cell_length_c   14.12936136
_cell_angle_alpha   90.00037912
_cell_angle_beta   90.00037915
_cell_angle_gamma   59.99926292
_symmetry_Int_Tables_number   1
_chemical_formula_structural   Mg2Ta2Ni2O9
_chemical_formula_sum   'Mg4 Ta4 Ni4 O18'
_cell_volume   330.11793219
_cell_formula_units_Z   2
loop_
 _symmetry_equiv_pos_site_id
 _symmetry_equiv_pos_as_xyz
  1  'x, y, z'
loop_
 _atom_site_type_symbol
 _atom_site_label
 _atom_site_symmetry_multiplicity
 _atom_site_fract_x
 _atom_site_fract_y
 _atom_site_fract_z
 _atom_site_occupancy
  Mg  Mg0  1  0.66667210  0.66666922  0.81029397  1
  Mg  Mg1  1  0.66666922  0.66667210  0.31029397  1
  Mg  Mg2  1  0.33332790  0.33333078  0.18970603  1
  Mg  Mg3  1  0.33333078  0.33332790  0.68970603  1
  Ta  Ta4  1  0.00000184  0.00000229  0.85712160  1
  Ta  Ta5  1  0.00000229  0.00000184  0.35712160  1
  Ta  Ta6  1  0.99999816  0.99999771  0.14287840  1
  Ta  Ta7  1  0.99999771  0.99999816  0.64287840  1
  Ni  Ni8  1  0.66666620  0.66666729  0.51317847  1
  Ni  Ni9  1  0.66666729  0.66666620  0.01317847  1
  Ni  Ni10  1  0.33333380  0.33333271  0.48682153  1
  Ni  Ni11  1  0.33333271  0.33333380  0.98682153  1
  O  O12  1  0.32072099  0.65286204  0.58458083  1
  O  O13  1  0.02641592  0.32071927  0.58458336  1
  O  O14  1  0.65285989  0.02641669  0.58458258  1
  O  O15  1  0.65286204  0.32072099  0.08458083  1
  O  O16  1  0.02641669  0.65285989  0.08458258  1
  O  O17  1  0.32071927  0.02641592  0.08458336  1
  O  O18  1  0.67927901  0.34713796  0.41541917  1
  O  O19  1  0.97358408  0.67928073  0.41541664  1
  O  O20  1  0.34714011  0.97358331  0.41541742  1
  O  O21  1  0.34713796  0.67927901  0.91541917  1
  O  O22  1  0.97358331  0.34714011  0.91541742  1
  O  O23  1  0.67928073  0.97358408  0.91541664  1
  O  O24  1  0.00000425  0.71129703  0.74999945  1
  O  O25  1  0.28870297  0.99999575  0.75000055  1
  O  O26  1  0.71129449  0.28870551  0.75000000  1
  O  O27  1  0.71129703  0.00000425  0.24999945  1
  O  O28  1  0.28870551  0.71129449  0.25000000  1
  O  O29  1  0.99999575  0.28870297  0.25000055  1
