# generated using pymatgen
data_La2TiMnO6
_symmetry_space_group_name_H-M   'P 1'
_cell_length_a   5.63889258
_cell_length_b   5.76038224
_cell_length_c   8.03202981
_cell_angle_alpha   90.00000000
_cell_angle_beta   89.83928230
_cell_angle_gamma   90.00000000
_symmetry_Int_Tables_number   1
_chemical_formula_structural   La2TiMnO6
_chemical_formula_sum   'La4 Ti2 Mn2 O12'
_cell_volume   260.89678501
_cell_formula_units_Z   2
loop_
 _symmetry_equiv_pos_site_id
 _symmetry_equiv_pos_as_xyz
  1  'x, y, z'
loop_
 _atom_site_type_symbol
 _atom_site_label
 _atom_site_symmetry_multiplicity
 _atom_site_fract_x
 _atom_site_fract_y
 _atom_site_fract_z
 _atom_site_occupancy
  La  La0  1  0.48907570  0.54594413  0.25048844  1
  La  La1  1  0.01092430  0.04594413  0.24951156  1
  La  La2  1  0.51092430  0.45405587  0.74951156  1
  La  La3  1  0.98907570  0.95405587  0.75048844  1
  Ti  Ti4  1  0.00000000  0.50000000  0.50000000  1
  Ti  Ti5  1  0.50000000  -0.00000000  -0.00000000  1
  Mn  Mn6  1  0.00000000  0.50000000  -0.00000000  1
  Mn  Mn7  1  0.50000000  0.00000000  0.50000000  1
  O  O8  1  0.59616756  0.97009981  0.23690840  1
  O  O9  1  0.90383244  0.47009981  0.26309160  1
  O  O10  1  0.40383244  0.02990019  0.76309160  1
  O  O11  1  0.09616756  0.52990019  0.73690840  1
  O  O12  1  0.69046576  0.71695433  0.94712629  1
  O  O13  1  0.80953424  0.21695433  0.55287371  1
  O  O14  1  0.28135615  0.30648440  0.45056448  1
  O  O15  1  0.21864385  0.80648440  0.04943552  1
  O  O16  1  0.30953424  0.28304567  0.05287371  1
  O  O17  1  0.19046576  0.78304567  0.44712629  1
  O  O18  1  0.71864385  0.69351560  0.54943552  1
  O  O19  1  0.78135615  0.19351560  0.95056448  1
