# generated using pymatgen
data_Li5Co(Ni2O5)2
_symmetry_space_group_name_H-M   'P 1'
_cell_length_a   2.90238226
_cell_length_b   12.00790706
_cell_length_c   5.04563103
_cell_angle_alpha   85.18280874
_cell_angle_beta   89.99999935
_cell_angle_gamma   83.05866890
_symmetry_Int_Tables_number   1
_chemical_formula_structural   Li5Co(Ni2O5)2
_chemical_formula_sum   'Li5 Co1 Ni4 O10'
_cell_volume   173.93335289
_cell_formula_units_Z   1
loop_
 _symmetry_equiv_pos_site_id
 _symmetry_equiv_pos_as_xyz
  1  'x, y, z'
loop_
 _atom_site_type_symbol
 _atom_site_label
 _atom_site_symmetry_multiplicity
 _atom_site_fract_x
 _atom_site_fract_y
 _atom_site_fract_z
 _atom_site_occupancy
  Li  Li0  1  0.10280729  0.79438543  0.69760190  1
  Li  Li1  1  0.50000000  0.00000000  0.50000000  1
  Li  Li2  1  0.89719271  0.20561457  0.30239810  1
  Li  Li3  1  0.30070515  0.39858969  0.09973222  1
  Li  Li4  1  0.69929485  0.60141031  0.90026778  1
  Co  Co5  1  -0.00000000  0.00000000  -0.00000000  1
  Ni  Ni6  1  0.39945329  0.20109342  0.79780856  1
  Ni  Ni7  1  0.80033345  0.39933310  0.59366214  1
  Ni  Ni8  1  0.19966655  0.60066690  0.40633786  1
  Ni  Ni9  1  0.60054671  0.79890658  0.20219144  1
  O  O10  1  0.65215433  0.69569134  0.54592369  1
  O  O11  1  0.04800302  0.90399395  0.31497283  1
  O  O12  1  0.45684114  0.08631772  0.13333788  1
  O  O13  1  0.84784050  0.30431900  0.91671403  1
  O  O14  1  0.25056750  0.49886501  0.71897784  1
  O  O15  1  0.54315886  0.91368228  0.86666212  1
  O  O16  1  0.95199698  0.09600605  0.68502717  1
  O  O17  1  0.34784567  0.30430866  0.45407631  1
  O  O18  1  0.74943250  0.50113499  0.28102216  1
  O  O19  1  0.15215950  0.69568100  0.08328597  1
