# generated using pymatgen
data_KTi2(PO4)3
_symmetry_space_group_name_H-M   'P 1'
_cell_length_a   9.92241767
_cell_length_b   9.92241767
_cell_length_c   9.92241767
_cell_angle_alpha   90.00000000
_cell_angle_beta   90.00000000
_cell_angle_gamma   90.00000000
_symmetry_Int_Tables_number   1
_chemical_formula_structural   KTi2(PO4)3
_chemical_formula_sum   'K4 Ti8 P12 O48'
_cell_volume   976.90540457
_cell_formula_units_Z   4
loop_
 _symmetry_equiv_pos_site_id
 _symmetry_equiv_pos_as_xyz
  1  'x, y, z'
loop_
 _atom_site_type_symbol
 _atom_site_label
 _atom_site_symmetry_multiplicity
 _atom_site_fract_x
 _atom_site_fract_y
 _atom_site_fract_z
 _atom_site_occupancy
  K  K0  1  0.92607280  0.57392720  0.42607280  1
  K  K1  1  0.57392720  0.42607280  0.92607280  1
  K  K2  1  0.42607280  0.92607280  0.57392720  1
  K  K3  1  0.07392720  0.07392720  0.07392720  1
  Ti  Ti4  1  0.41354104  0.08645896  0.91354104  1
  Ti  Ti5  1  0.08645896  0.91354104  0.41354104  1
  Ti  Ti6  1  0.91354104  0.41354104  0.08645896  1
  Ti  Ti7  1  0.58645896  0.58645896  0.58645896  1
  Ti  Ti8  1  0.13992951  0.36007049  0.63992951  1
  Ti  Ti9  1  0.36007049  0.63992951  0.13992951  1
  Ti  Ti10  1  0.63992951  0.13992951  0.36007049  1
  Ti  Ti11  1  0.86007049  0.86007049  0.86007049  1
  P  P12  1  0.37444837  0.95449588  0.22729339  1
  P  P13  1  0.72729339  0.12555163  0.04550412  1
  P  P14  1  0.54550412  0.77270661  0.87444837  1
  P  P15  1  0.12555163  0.04550412  0.72729339  1
  P  P16  1  0.77270661  0.87444837  0.54550412  1
  P  P17  1  0.95449588  0.22729339  0.37444837  1
  P  P18  1  0.87444837  0.54550412  0.77270661  1
  P  P19  1  0.22729339  0.37444837  0.95449588  1
  P  P20  1  0.04550412  0.72729339  0.12555163  1
  P  P21  1  0.62555163  0.45449588  0.27270661  1
  P  P22  1  0.27270661  0.62555163  0.45449588  1
  P  P23  1  0.45449588  0.27270661  0.62555163  1
  O  O24  1  0.23976629  0.97607777  0.30389949  1
  O  O25  1  0.80389949  0.26023371  0.02392223  1
  O  O26  1  0.52392223  0.69610051  0.73976629  1
  O  O27  1  0.26023371  0.02392223  0.80389949  1
  O  O28  1  0.69610051  0.73976629  0.52392223  1
  O  O29  1  0.97607777  0.30389949  0.23976629  1
  O  O30  1  0.73976629  0.52392223  0.69610051  1
  O  O31  1  0.30389949  0.23976629  0.97607777  1
  O  O32  1  0.02392223  0.80389949  0.26023371  1
  O  O33  1  0.76023371  0.47607777  0.19610051  1
  O  O34  1  0.19610051  0.76023371  0.47607777  1
  O  O35  1  0.47607777  0.19610051  0.76023371  1
  O  O36  1  0.35375382  0.99846248  0.07911986  1
  O  O37  1  0.57911986  0.14624618  0.00153752  1
  O  O38  1  0.50153752  0.92088014  0.85375382  1
  O  O39  1  0.14624618  0.00153752  0.57911986  1
  O  O40  1  0.92088014  0.85375382  0.50153752  1
  O  O41  1  0.99846248  0.07911986  0.35375382  1
  O  O42  1  0.85375382  0.50153752  0.92088014  1
  O  O43  1  0.07911986  0.35375382  0.99846248  1
  O  O44  1  0.00153752  0.57911986  0.14624618  1
  O  O45  1  0.64624618  0.49846248  0.42088014  1
  O  O46  1  0.42088014  0.64624618  0.49846248  1
  O  O47  1  0.49846248  0.42088014  0.64624618  1
  O  O48  1  0.48181557  0.04058386  0.29841040  1
  O  O49  1  0.79841040  0.01818443  0.95941614  1
  O  O50  1  0.45941614  0.70158960  0.98181557  1
  O  O51  1  0.01818443  0.95941614  0.79841040  1
  O  O52  1  0.70158960  0.98181557  0.45941614  1
  O  O53  1  0.04058386  0.29841040  0.48181557  1
  O  O54  1  0.98181557  0.45941614  0.70158960  1
  O  O55  1  0.29841040  0.48181557  0.04058386  1
  O  O56  1  0.95941614  0.79841040  0.01818443  1
  O  O57  1  0.51818443  0.54058386  0.20158960  1
  O  O58  1  0.20158960  0.51818443  0.54058386  1
  O  O59  1  0.54058386  0.20158960  0.51818443  1
  O  O60  1  0.41624182  0.80503071  0.23419025  1
  O  O61  1  0.73419025  0.08375818  0.19496929  1
  O  O62  1  0.69496929  0.76580975  0.91624182  1
  O  O63  1  0.08375818  0.19496929  0.73419025  1
  O  O64  1  0.76580975  0.91624182  0.69496929  1
  O  O65  1  0.80503071  0.23419025  0.41624182  1
  O  O66  1  0.91624182  0.69496929  0.76580975  1
  O  O67  1  0.23419025  0.41624182  0.80503071  1
  O  O68  1  0.19496929  0.73419025  0.08375818  1
  O  O69  1  0.58375818  0.30503071  0.26580975  1
  O  O70  1  0.26580975  0.58375818  0.30503071  1
  O  O71  1  0.30503071  0.26580975  0.58375818  1
