# generated using pymatgen
data_Li5Fe2(IrO5)2
_symmetry_space_group_name_H-M   'P 1'
_cell_length_a   5.16522064
_cell_length_b   8.05595502
_cell_length_c   5.15064906
_cell_angle_alpha   108.64354873
_cell_angle_beta   109.38497542
_cell_angle_gamma   83.90910664
_symmetry_Int_Tables_number   1
_chemical_formula_structural   Li5Fe2(IrO5)2
_chemical_formula_sum   'Li5 Fe2 Ir2 O10'
_cell_volume   191.56368556
_cell_formula_units_Z   1
loop_
 _symmetry_equiv_pos_site_id
 _symmetry_equiv_pos_as_xyz
  1  'x, y, z'
loop_
 _atom_site_type_symbol
 _atom_site_label
 _atom_site_symmetry_multiplicity
 _atom_site_fract_x
 _atom_site_fract_y
 _atom_site_fract_z
 _atom_site_occupancy
  Li  Li0  1  0.50000000  0.39673733  0.69836866  1
  Li  Li1  1  0.00000000  0.99506453  0.99753226  1
  Li  Li2  1  1.00000000  0.19448413  0.59724207  1
  Li  Li3  1  1.00000000  0.40897671  0.20448835  1
  Li  Li4  1  0.00000000  0.60295703  0.80147851  1
  Fe  Fe5  1  0.50000000  0.79581955  0.89790978  1
  Fe  Fe6  1  0.50000000  0.00091500  0.50045750  1
  Ir  Ir7  1  0.50000000  0.60242823  0.30121412  1
  Ir  Ir8  1  0.50000000  0.20163080  0.10081540  1
  O  O9  1  0.27129755  0.19012616  0.34301666  1
  O  O10  1  0.27071596  0.40327236  0.97888187  1
  O  O11  1  0.28067240  0.60136364  0.55110640  1
  O  O12  1  0.27804141  0.79951966  0.15325825  1
  O  O13  1  0.27585779  0.00621154  0.76762532  1
  O  O14  1  0.71932760  0.60136364  0.05025724  1
  O  O15  1  0.72195859  0.79951966  0.64626141  1
  O  O16  1  0.72414221  0.00621154  0.23858622  1
  O  O17  1  0.72870245  0.19012616  0.84710950  1
  O  O18  1  0.72928404  0.40327236  0.42439048  1
