# generated using pymatgen
data_KRb2SiF7
_symmetry_space_group_name_H-M   'P 1'
_cell_length_a   5.81458095
_cell_length_b   7.97987352
_cell_length_c   7.97987352
_cell_angle_alpha   89.48872474
_cell_angle_beta   90.00000000
_cell_angle_gamma   90.00000000
_symmetry_Int_Tables_number   1
_chemical_formula_structural   KRb2SiF7
_chemical_formula_sum   'K2 Rb4 Si2 F14'
_cell_volume   370.24836163
_cell_formula_units_Z   2
loop_
 _symmetry_equiv_pos_site_id
 _symmetry_equiv_pos_as_xyz
  1  'x, y, z'
loop_
 _atom_site_type_symbol
 _atom_site_label
 _atom_site_symmetry_multiplicity
 _atom_site_fract_x
 _atom_site_fract_y
 _atom_site_fract_z
 _atom_site_occupancy
  K  K0  1  0.50000000  0.19497974  0.30502026  1
  K  K1  1  0.50000000  0.80502026  0.69497974  1
  Rb  Rb2  1  -0.00000000  0.50000000  0.50000000  1
  Rb  Rb3  1  0.00000000  0.00000000  -0.00000000  1
  Rb  Rb4  1  0.50000000  0.30613871  0.80613871  1
  Rb  Rb5  1  0.50000000  0.69386129  0.19386129  1
  Si  Si6  1  -0.00000000  0.00000000  0.50000000  1
  Si  Si7  1  0.00000000  0.50000000  -0.00000000  1
  F  F8  1  0.78827181  0.10634276  0.60634276  1
  F  F9  1  0.78827181  0.89365724  0.39365724  1
  F  F10  1  0.78879162  0.39194489  0.10805511  1
  F  F11  1  0.78879162  0.60805511  0.89194489  1
  F  F12  1  0.21172819  0.89365724  0.39365724  1
  F  F13  1  0.21172819  0.10634276  0.60634276  1
  F  F14  1  0.21120838  0.60805511  0.89194489  1
  F  F15  1  0.21120838  0.39194489  0.10805511  1
  F  F16  1  -0.00000000  0.34837136  0.84837136  1
  F  F17  1  0.00000000  0.65162864  0.15162864  1
  F  F18  1  0.00000000  0.15294675  0.34705325  1
  F  F19  1  -0.00000000  0.84705325  0.65294675  1
  F  F20  1  0.50000000  0.50000000  0.50000000  1
  F  F21  1  0.50000000  0.00000000  -0.00000000  1
