# generated using pymatgen
data_Mg8Ni3Pd
_symmetry_space_group_name_H-M   'P 1'
_cell_length_a   5.30252919
_cell_length_b   5.28955104
_cell_length_c   26.16888192
_cell_angle_alpha   90.00000000
_cell_angle_beta   90.00000000
_cell_angle_gamma   59.52644686
_symmetry_Int_Tables_number   1
_chemical_formula_structural   Mg8Ni3Pd
_chemical_formula_sum   'Mg24 Ni9 Pd3'
_cell_volume   632.59456455
_cell_formula_units_Z   3
loop_
 _symmetry_equiv_pos_site_id
 _symmetry_equiv_pos_as_xyz
  1  'x, y, z'
loop_
 _atom_site_type_symbol
 _atom_site_label
 _atom_site_symmetry_multiplicity
 _atom_site_fract_x
 _atom_site_fract_y
 _atom_site_fract_z
 _atom_site_occupancy
  Mg  Mg0  1  0.16742171  0.67232920  0.33475527  1
  Mg  Mg1  1  0.16486820  0.66929193  0.83333010  1
  Mg  Mg2  1  0.67348027  0.16630217  0.99849951  1
  Mg  Mg3  1  0.67336556  0.16612686  0.49873292  1
  Mg  Mg4  1  0.16149032  0.16055933  0.16657881  1
  Mg  Mg5  1  0.15939068  0.16600408  0.66808699  1
  Mg  Mg6  1  0.83257829  0.32767080  0.33475527  1
  Mg  Mg7  1  0.83513180  0.33070807  0.83333010  1
  Mg  Mg8  1  0.32651973  0.83369783  0.99849951  1
  Mg  Mg9  1  0.32663444  0.83387314  0.49873292  1
  Mg  Mg10  1  0.83850968  0.83944067  0.16657881  1
  Mg  Mg11  1  0.84060932  0.83399592  0.66808699  1
  Mg  Mg12  1  0.50000000  -0.00000000  0.39222243  1
  Mg  Mg13  1  0.50000000  -0.00000000  0.89186171  1
  Mg  Mg14  1  0.00000000  0.50000000  0.05745503  1
  Mg  Mg15  1  0.00000000  0.50000000  0.55752884  1
  Mg  Mg16  1  0.50000000  0.50000000  0.22455825  1
  Mg  Mg17  1  0.50000000  0.50000000  0.72556588  1
  Mg  Mg18  1  0.50000000  -0.00000000  0.27589652  1
  Mg  Mg19  1  0.50000000  -0.00000000  0.77478307  1
  Mg  Mg20  1  0.50000000  0.50000000  0.10879065  1
  Mg  Mg21  1  0.50000000  0.50000000  0.60914064  1
  Mg  Mg22  1  0.00000000  0.50000000  0.44114381  1
  Mg  Mg23  1  0.00000000  0.50000000  0.94104284  1
  Ni  Ni24  1  0.00000000  0.50000000  0.75045382  1
  Ni  Ni25  1  0.50000000  0.50000000  0.41667713  1
  Ni  Ni26  1  0.50000000  0.50000000  0.91625806  1
  Ni  Ni27  1  0.00000000  -0.00000000  0.08289545  1
  Ni  Ni28  1  0.00000000  -0.00000000  0.58330831  1
  Ni  Ni29  1  0.00000000  -0.00000000  0.25047110  1
  Ni  Ni30  1  0.00000000  -0.00000000  0.75041229  1
  Ni  Ni31  1  0.00000000  -0.00000000  0.41671493  1
  Ni  Ni32  1  0.00000000  -0.00000000  0.91621675  1
  Pd  Pd33  1  0.50000000  -0.00000000  0.08275248  1
  Pd  Pd34  1  0.50000000  -0.00000000  0.58333124  1
  Pd  Pd35  1  0.00000000  0.50000000  0.25055158  1
