# generated using pymatgen
data_La3Co2CuO9
_symmetry_space_group_name_H-M   'P 1'
_cell_length_a   5.58744728
_cell_length_b   13.17938401
_cell_length_c   5.58744643
_cell_angle_alpha   90.00000000
_cell_angle_beta   60.00000498
_cell_angle_gamma   90.00000000
_symmetry_Int_Tables_number   1
_chemical_formula_structural   La3Co2CuO9
_chemical_formula_sum   'La6 Co4 Cu2 O18'
_cell_volume   356.33015482
_cell_formula_units_Z   2
loop_
 _symmetry_equiv_pos_site_id
 _symmetry_equiv_pos_as_xyz
  1  'x, y, z'
loop_
 _atom_site_type_symbol
 _atom_site_label
 _atom_site_symmetry_multiplicity
 _atom_site_fract_x
 _atom_site_fract_y
 _atom_site_fract_z
 _atom_site_occupancy
  La  La0  1  0.66666700  0.58438362  0.66666700  1
  La  La1  1  0.00000000  0.25000000  -0.00000000  1
  La  La2  1  0.33333300  0.91561638  0.33333300  1
  La  La3  1  0.66666700  0.08438362  0.66666700  1
  La  La4  1  0.00000000  0.75000000  -0.00000000  1
  La  La5  1  0.33333300  0.41561638  0.33333300  1
  Co  Co6  1  0.66666700  0.83499585  0.66666700  1
  Co  Co7  1  0.33333300  0.16500415  0.33333300  1
  Co  Co8  1  0.66666700  0.33499585  0.66666700  1
  Co  Co9  1  0.33333300  0.66500415  0.33333300  1
  Cu  Cu10  1  0.00000000  0.50000000  -0.00000000  1
  Cu  Cu11  1  0.00000000  -0.00000000  -0.00000000  1
  O  O12  1  0.33612589  0.41536407  0.89553107  1
  O  O13  1  0.00000000  0.75000000  0.56587677  1
  O  O14  1  0.66387411  0.08463593  0.23165796  1
  O  O15  1  0.76834204  0.41536407  0.33612589  1
  O  O16  1  0.43412323  0.75000000  1.00000000  1
  O  O17  1  0.10446893  0.08463593  0.66387411  1
  O  O18  1  0.89553107  0.41536407  0.76834204  1
  O  O19  1  0.56587677  0.75000000  0.43412323  1
  O  O20  1  0.23165796  0.08463593  0.10446893  1
  O  O21  1  0.23165796  0.58463593  0.66387411  1
  O  O22  1  0.89553107  0.91536407  0.33612589  1
  O  O23  1  0.56587677  0.25000000  0.00000000  1
  O  O24  1  0.10446893  0.58463593  0.23165796  1
  O  O25  1  0.76834304  0.91536407  0.89553107  1
  O  O26  1  0.43412323  0.25000000  0.56587677  1
  O  O27  1  0.66387411  0.58463593  0.10446893  1
  O  O28  1  0.33612589  0.91536407  0.76834204  1
  O  O29  1  0.00000000  0.25000000  0.43412323  1
