# generated using pymatgen
data_MgAl8Fe3Si8(H2O5)8
_symmetry_space_group_name_H-M   'P 1'
_cell_length_a   5.17600050
_cell_length_b   12.37804475
_cell_length_c   12.37804475
_cell_angle_alpha   111.59042412
_cell_angle_beta   89.98070204
_cell_angle_gamma   89.98070204
_symmetry_Int_Tables_number   1
_chemical_formula_structural   MgAl8Fe3Si8(H2O5)8
_chemical_formula_sum   'Mg1 Al8 Fe3 Si8 H16 O40'
_cell_volume   737.40421961
_cell_formula_units_Z   1
loop_
 _symmetry_equiv_pos_site_id
 _symmetry_equiv_pos_as_xyz
  1  'x, y, z'
loop_
 _atom_site_type_symbol
 _atom_site_label
 _atom_site_symmetry_multiplicity
 _atom_site_fract_x
 _atom_site_fract_y
 _atom_site_fract_z
 _atom_site_occupancy
  Mg  Mg0  1  0.75000000  0.87595323  0.12404677  1
  Al  Al1  1  0.25000000  0.53923809  0.46076191  1
  Al  Al2  1  0.75000000  0.03806431  0.96193569  1
  Al  Al3  1  0.75000000  0.46092573  0.53907427  1
  Al  Al4  1  0.25000000  0.96016923  0.03983077  1
  Al  Al5  1  0.74902307  0.55940757  0.05814619  1
  Al  Al6  1  0.24965520  0.44184316  0.94184170  1
  Al  Al7  1  0.25034480  0.05815830  0.55815684  1
  Al  Al8  1  0.75097693  0.94185381  0.44059243  1
  Fe  Fe9  1  0.75000000  0.62522868  0.37477132  1
  Fe  Fe10  1  0.25000000  0.12473353  0.87526647  1
  Fe  Fe11  1  0.25000000  0.37521807  0.62478193  1
  Si  Si12  1  0.41584655  0.42762394  0.18481902  1
  Si  Si13  1  0.91544806  0.31485241  0.07244985  1
  Si  Si14  1  0.91621329  0.18448679  0.42646194  1
  Si  Si15  1  0.41672519  0.07147991  0.31448048  1
  Si  Si16  1  0.58378671  0.57353806  0.81551321  1
  Si  Si17  1  0.08327481  0.68551952  0.92852009  1
  Si  Si18  1  0.08415345  0.81518098  0.57237606  1
  Si  Si19  1  0.58455194  0.92755015  0.68514759  1
  H  H20  1  0.91986043  0.40293531  0.32407409  1
  H  H21  1  0.41852614  0.17579871  0.09757738  1
  H  H22  1  0.42055521  0.32390511  0.40233404  1
  H  H23  1  0.92208796  0.09726913  0.17644358  1
  H  H24  1  0.07944479  0.59766596  0.67609489  1
  H  H25  1  0.57791204  0.82355642  0.90273087  1
  H  H26  1  0.58013957  0.67592591  0.59706469  1
  H  H27  1  0.08147386  0.90242262  0.82420129  1
  H  H28  1  0.43851846  0.79012766  0.38872881  1
  H  H29  1  0.93803707  0.11263046  0.71047590  1
  H  H30  1  0.93806613  0.38896798  0.78981354  1
  H  H31  1  0.44369575  0.71258868  0.11295934  1
  H  H32  1  0.56193387  0.21018646  0.61103202  1
  H  H33  1  0.05630425  0.88704066  0.28741132  1
  H  H34  1  0.06148154  0.61127119  0.20987234  1
  H  H35  1  0.56196293  0.28952410  0.88736954  1
  O  O36  1  0.87943723  0.59101695  0.20779096  1
  O  O37  1  0.38093951  0.29182572  0.90951038  1
  O  O38  1  0.38021016  0.20818727  0.59018569  1
  O  O39  1  0.87643035  0.91041587  0.28947681  1
  O  O40  1  0.11978984  0.40981431  0.79181273  1
  O  O41  1  0.62356965  0.71052319  0.08958413  1
  O  O42  1  0.62056277  0.79220904  0.40898305  1
  O  O43  1  0.11906049  0.09048962  0.70817428  1
  O  O44  1  0.43077983  0.49625847  0.09408690  1
  O  O45  1  0.93065312  0.40549945  0.00382178  1
  O  O46  1  0.93167402  0.09386491  0.49513939  1
  O  O47  1  0.43131119  0.00453738  0.40651417  1
  O  O48  1  0.56832598  0.50486061  0.90613509  1
  O  O49  1  0.06868881  0.59348583  0.99546262  1
  O  O50  1  0.06922017  0.90591310  0.50374153  1
  O  O51  1  0.56934688  0.99617822  0.59450055  1
  O  O52  1  0.92815030  0.46649417  0.39950191  1
  O  O53  1  0.42763088  0.09982220  0.03465144  1
  O  O54  1  0.42800592  0.39934670  0.46605758  1
  O  O55  1  0.92781474  0.03177332  0.10227829  1
  O  O56  1  0.07199408  0.53394242  0.60065330  1
  O  O57  1  0.57218526  0.89772171  0.96822668  1
  O  O58  1  0.57184970  0.60049809  0.53350583  1
  O  O59  1  0.07236912  0.96534856  0.90017780  1
  O  O60  1  0.67129546  0.34194857  0.16427922  1
  O  O61  1  0.17149119  0.33592890  0.15796769  1
  O  O62  1  0.17113954  0.16254409  0.33996689  1
  O  O63  1  0.67084240  0.15807105  0.33540214  1
  O  O64  1  0.32886046  0.66003311  0.83745591  1
  O  O65  1  0.82915760  0.66459786  0.84192895  1
  O  O66  1  0.82870454  0.83572078  0.65805143  1
  O  O67  1  0.32850881  0.84203231  0.66407110  1
  O  O68  1  0.40236663  0.51916259  0.31772937  1
  O  O69  1  0.90177628  0.18139580  0.98193316  1
  O  O70  1  0.90271459  0.31749225  0.51815358  1
  O  O71  1  0.40967524  0.97798844  0.18196858  1
  O  O72  1  0.59728541  0.48184642  0.68250775  1
  O  O73  1  0.09032476  0.81803142  0.02201156  1
  O  O74  1  0.09763337  0.68227063  0.48083741  1
  O  O75  1  0.59822372  0.01806684  0.81860420  1
