# generated using pymatgen
data_K4MgCu3F12
_symmetry_space_group_name_H-M   'P 1'
_cell_length_a   4.10176733
_cell_length_b   9.09256976
_cell_length_c   8.10123712
_cell_angle_alpha   116.45448404
_cell_angle_beta   90.00000000
_cell_angle_gamma   90.00000000
_symmetry_Int_Tables_number   1
_chemical_formula_structural   K4MgCu3F12
_chemical_formula_sum   'K4 Mg1 Cu3 F12'
_cell_volume   270.50296693
_cell_formula_units_Z   1
loop_
 _symmetry_equiv_pos_site_id
 _symmetry_equiv_pos_as_xyz
  1  'x, y, z'
loop_
 _atom_site_type_symbol
 _atom_site_label
 _atom_site_symmetry_multiplicity
 _atom_site_fract_x
 _atom_site_fract_y
 _atom_site_fract_z
 _atom_site_occupancy
  K  K0  1  0.50000000  0.99804300  0.49689466  1
  K  K1  1  0.50000000  0.50195700  0.74885166  1
  K  K2  1  0.50000000  0.99804300  0.00114834  1
  K  K3  1  0.50000000  0.50195700  0.25310534  1
  Mg  Mg4  1  0.00000000  0.25000000  0.87500000  1
  Cu  Cu5  1  -0.00000000  0.74856523  0.12428261  1
  Cu  Cu6  1  0.00000000  0.25000000  0.37500000  1
  Cu  Cu7  1  0.00000000  0.75143477  0.62571739  1
  F  F8  1  0.00000000  0.25000000  0.12508483  1
  F  F9  1  0.00000000  0.75000000  0.37500000  1
  F  F10  1  0.00000000  0.25000000  0.62491517  1
  F  F11  1  0.00000000  0.75000000  0.87500000  1
  F  F12  1  0.00000000  0.99477905  0.24738952  1
  F  F13  1  0.00000000  0.50522095  0.50261048  1
  F  F14  1  -0.00000000  0.00321243  0.75160621  1
  F  F15  1  -0.00000000  0.49678757  0.99839379  1
  F  F16  1  0.50000000  0.25000000  0.37500000  1
  F  F17  1  0.50000000  0.75115614  0.62557807  1
  F  F18  1  0.50000000  0.25000000  0.87500000  1
  F  F19  1  0.50000000  0.74884386  0.12442193  1
