# generated using pymatgen
data_MgSi4NiO10
_symmetry_space_group_name_H-M   'P 1'
_cell_length_a   7.26758124
_cell_length_b   7.26758124
_cell_length_c   14.83604321
_cell_angle_alpha   90.00000000
_cell_angle_beta   90.00000000
_cell_angle_gamma   90.00000000
_symmetry_Int_Tables_number   1
_chemical_formula_structural   MgSi4NiO10
_chemical_formula_sum   'Mg4 Si16 Ni4 O40'
_cell_volume   783.60622957
_cell_formula_units_Z   4
loop_
 _symmetry_equiv_pos_site_id
 _symmetry_equiv_pos_as_xyz
  1  'x, y, z'
loop_
 _atom_site_type_symbol
 _atom_site_label
 _atom_site_symmetry_multiplicity
 _atom_site_fract_x
 _atom_site_fract_y
 _atom_site_fract_z
 _atom_site_occupancy
  Mg  Mg0  1  0.25000000  0.75000000  0.50000000  1
  Mg  Mg1  1  0.75000000  0.25000000  0.50000000  1
  Mg  Mg2  1  0.75000000  0.25000000  -0.00000000  1
  Mg  Mg3  1  0.25000000  0.75000000  -0.00000000  1
  Si  Si4  1  0.91790310  0.49297953  0.64401762  1
  Si  Si5  1  0.58209690  0.00702047  0.64401762  1
  Si  Si6  1  0.99297953  0.41790310  0.85598238  1
  Si  Si7  1  0.49297953  0.58209690  0.64401762  1
  Si  Si8  1  0.00702047  0.91790310  0.64401762  1
  Si  Si9  1  0.08209690  0.99297953  0.85598238  1
  Si  Si10  1  0.41790310  0.50702047  0.85598238  1
  Si  Si11  1  0.50702047  0.08209690  0.85598238  1
  Si  Si12  1  0.08209690  0.50702047  0.35598238  1
  Si  Si13  1  0.41790310  0.99297953  0.35598238  1
  Si  Si14  1  0.00702047  0.58209690  0.14401762  1
  Si  Si15  1  0.50702047  0.41790310  0.35598238  1
  Si  Si16  1  0.99297953  0.08209690  0.35598238  1
  Si  Si17  1  0.91790310  0.00702047  0.14401762  1
  Si  Si18  1  0.58209690  0.49297953  0.14401762  1
  Si  Si19  1  0.49297953  0.91790310  0.14401762  1
  Ni  Ni20  1  0.25000000  0.25000000  0.57187497  1
  Ni  Ni21  1  0.75000000  0.75000000  0.92812503  1
  Ni  Ni22  1  0.75000000  0.75000000  0.42812503  1
  Ni  Ni23  1  0.25000000  0.25000000  0.07187497  1
  O  O24  1  0.99007997  0.33638830  0.57511996  1
  O  O25  1  0.50992003  0.16361170  0.57511996  1
  O  O26  1  0.83638830  0.49007997  0.92488004  1
  O  O27  1  0.33638830  0.50992003  0.57511996  1
  O  O28  1  0.16361170  0.99007997  0.57511996  1
  O  O29  1  0.00992003  0.83638830  0.92488004  1
  O  O30  1  0.49007997  0.66361170  0.92488004  1
  O  O31  1  0.66361170  0.00992003  0.92488004  1
  O  O32  1  0.00992003  0.66361170  0.42488004  1
  O  O33  1  0.49007997  0.83638830  0.42488004  1
  O  O34  1  0.16361170  0.50992003  0.07511996  1
  O  O35  1  0.66361170  0.49007997  0.42488004  1
  O  O36  1  0.83638830  0.00992003  0.42488004  1
  O  O37  1  0.99007997  0.16361170  0.07511996  1
  O  O38  1  0.50992003  0.33638830  0.07511996  1
  O  O39  1  0.99788411  0.30344141  0.37734537  1
  O  O40  1  0.33638830  0.99007997  0.07511996  1
  O  O41  1  0.49788411  0.80344141  0.62265463  1
  O  O42  1  0.19655859  0.50211589  0.87734537  1
  O  O43  1  0.69655859  0.49788411  0.62265463  1
  O  O44  1  0.80344141  0.00211589  0.62265463  1
  O  O45  1  0.99788411  0.19655859  0.87734537  1
  O  O46  1  0.50211589  0.30344141  0.87734537  1
  O  O47  1  0.30344141  0.99788411  0.87734537  1
  O  O48  1  0.45294680  0.95294680  0.25000000  1
  O  O49  1  0.54705320  0.45294680  0.25000000  1
  O  O50  1  0.95294680  0.04705420  0.25000000  1
  O  O51  1  0.04705420  0.54705320  0.25000000  1
  O  O52  1  0.54705320  0.04705420  0.75000000  1
  O  O53  1  0.45294680  0.54705320  0.75000000  1
  O  O54  1  0.04705420  0.95294680  0.75000000  1
  O  O55  1  0.95294680  0.45294680  0.75000000  1
  O  O56  1  0.69655859  0.00211589  0.12265463  1
  O  O57  1  0.49788411  0.69655859  0.12265463  1
  O  O58  1  0.00211589  0.80344141  0.12265463  1
  O  O59  1  0.19655859  0.99788411  0.37734537  1
  O  O60  1  0.30344141  0.50211589  0.37734537  1
  O  O61  1  0.80344141  0.49788411  0.12265463  1
  O  O62  1  0.50211589  0.19655859  0.37734537  1
  O  O63  1  0.00211589  0.69655859  0.62265463  1
