# generated using pymatgen
data_KP2W7O25
_symmetry_space_group_name_H-M   'P 1'
_cell_length_a   5.46592703
_cell_length_b   6.81698151
_cell_length_c   14.08375946
_cell_angle_alpha   96.64922427
_cell_angle_beta   78.81072393
_cell_angle_gamma   90.00000000
_symmetry_Int_Tables_number   1
_chemical_formula_structural   KP2W7O25
_chemical_formula_sum   'K1 P2 W7 O25'
_cell_volume   511.20277543
_cell_formula_units_Z   1
loop_
 _symmetry_equiv_pos_site_id
 _symmetry_equiv_pos_as_xyz
  1  'x, y, z'
loop_
 _atom_site_type_symbol
 _atom_site_label
 _atom_site_symmetry_multiplicity
 _atom_site_fract_x
 _atom_site_fract_y
 _atom_site_fract_z
 _atom_site_occupancy
  K  K0  1  0.25073165  0.63639937  0.49853671  1
  P  P1  1  0.79360469  0.80412141  0.41279062  1
  P  P2  1  0.20705014  0.19638538  0.58589973  1
  W  W3  1  0.99881749  0.99431539  0.00236501  1
  W  W4  1  0.55352087  0.29981598  0.89295827  1
  W  W5  1  0.44281762  0.69471825  0.11436477  1
  W  W6  1  0.11217842  0.59909786  0.77564316  1
  W  W7  1  0.88537376  0.38957111  0.22925247  1
  W  W8  1  0.66849534  0.91154716  0.66300932  1
  W  W9  1  0.33115480  0.08724598  0.33769040  1
  O  O10  1  0.40084871  0.74902439  0.69942877  1
  O  O11  1  0.10054428  0.26205195  0.29721633  1
  O  O12  1  0.60223938  0.26205195  0.29721633  1
  O  O13  1  0.89972253  0.74902439  0.69942877  1
  O  O14  1  0.06207693  0.79669805  0.87584614  1
  O  O15  1  0.93841462  0.20268677  0.12317076  1
  O  O16  1  0.27959073  0.15894146  0.94099217  1
  O  O17  1  0.22827824  0.84254826  0.05721248  1
  O  O18  1  0.71450929  0.84254826  0.05721248  1
  O  O19  1  0.77941709  0.15894146  0.94099217  1
  O  O20  1  0.17703977  0.40161687  0.64592047  1
  O  O21  1  0.82242530  0.59873585  0.35514939  1
  O  O22  1  0.61445904  0.09429164  0.77108193  1
  O  O23  1  0.38587173  0.90537597  0.22825653  1
  O  O24  1  0.34249783  0.45253310  0.82117593  1
  O  O25  1  0.16167747  0.55281976  0.17613810  1
  O  O26  1  0.66218443  0.55281976  0.17613810  1
  O  O27  1  0.83632624  0.45253310  0.82117593  1
  O  O28  1  0.73812002  0.76562246  0.52375995  1
  O  O29  1  0.26130090  0.23748829  0.47739820  1
  O  O30  1  0.42918103  0.07853463  0.60555776  1
  O  O31  1  0.03834087  0.91428643  0.39659903  1
  O  O32  1  0.56506010  0.91428643  0.39659903  1
  O  O33  1  0.96526121  0.07853463  0.60555776  1
  O  O34  1  0.50066748  0.49978627  0.99866504  1
