# generated using pymatgen
data_La2Mn3CuGe4
_symmetry_space_group_name_H-M   'P 1'
_cell_length_a   4.14593610
_cell_length_b   4.14593610
_cell_length_c   10.80830547
_cell_angle_alpha   90.00000000
_cell_angle_beta   90.00000000
_cell_angle_gamma   90.00000000
_symmetry_Int_Tables_number   1
_chemical_formula_structural   La2Mn3CuGe4
_chemical_formula_sum   'La2 Mn3 Cu1 Ge4'
_cell_volume   185.78165132
_cell_formula_units_Z   1
loop_
 _symmetry_equiv_pos_site_id
 _symmetry_equiv_pos_as_xyz
  1  'x, y, z'
loop_
 _atom_site_type_symbol
 _atom_site_label
 _atom_site_symmetry_multiplicity
 _atom_site_fract_x
 _atom_site_fract_y
 _atom_site_fract_z
 _atom_site_occupancy
  La  La0  1  0.00000000  -0.00000000  0.00071845  1
  La  La1  1  0.50000000  0.50000000  0.49928155  1
  Mn  Mn2  1  0.50000000  0.00000000  0.75000000  1
  Mn  Mn3  1  0.50000000  0.00000000  0.25000000  1
  Mn  Mn4  1  -0.00000000  0.50000000  0.75000000  1
  Cu  Cu5  1  0.00000000  0.50000000  0.25000000  1
  Ge  Ge6  1  0.50000000  0.50000000  0.12189505  1
  Ge  Ge7  1  0.00000000  0.00000000  0.62644245  1
  Ge  Ge8  1  -0.00000000  -0.00000000  0.37810495  1
  Ge  Ge9  1  0.50000000  0.50000000  0.87355755  1
