# generated using pymatgen
data_Ho2SiGe
_symmetry_space_group_name_H-M   'P 1'
_cell_length_a   3.88100192
_cell_length_b   4.27042747
_cell_length_c   5.70732552
_cell_angle_alpha   68.03018391
_cell_angle_beta   90.00000000
_cell_angle_gamma   90.00000000
_symmetry_Int_Tables_number   1
_chemical_formula_structural   Ho2SiGe
_chemical_formula_sum   'Ho2 Si1 Ge1'
_cell_volume   87.72150597
_cell_formula_units_Z   1
loop_
 _symmetry_equiv_pos_site_id
 _symmetry_equiv_pos_as_xyz
  1  'x, y, z'
loop_
 _atom_site_type_symbol
 _atom_site_label
 _atom_site_symmetry_multiplicity
 _atom_site_fract_x
 _atom_site_fract_y
 _atom_site_fract_z
 _atom_site_occupancy
  Ho  Ho0  1  0.25000000  0.86104596  0.27790809  1
  Ho  Ho1  1  0.75000000  0.13987747  0.72024506  1
  Si  Si2  1  0.75000000  0.41810890  0.16378220  1
  Ge  Ge3  1  0.25000000  0.58096767  0.83806466  1
