# generated using pymatgen
data_Sm3(MnSn)4
_symmetry_space_group_name_H-M   'P 1'
_cell_length_a   4.57422246
_cell_length_b   7.38121763
_cell_length_c   8.65984395
_cell_angle_alpha   115.22505841
_cell_angle_beta   105.31379692
_cell_angle_gamma   90.00000000
_symmetry_Int_Tables_number   1
_chemical_formula_structural   Sm3(MnSn)4
_chemical_formula_sum   'Sm3 Mn4 Sn4'
_cell_volume   252.98048494
_cell_formula_units_Z   1
loop_
 _symmetry_equiv_pos_site_id
 _symmetry_equiv_pos_as_xyz
  1  'x, y, z'
loop_
 _atom_site_type_symbol
 _atom_site_label
 _atom_site_symmetry_multiplicity
 _atom_site_fract_x
 _atom_site_fract_y
 _atom_site_fract_z
 _atom_site_occupancy
  Sm  Sm0  1  0.00000000  0.50000000  0.00000000  1
  Sm  Sm1  1  0.87268634  0.87268634  0.74537268  1
  Sm  Sm2  1  0.12731366  0.12731366  0.25462732  1
  Mn  Mn3  1  0.67366207  0.48728890  0.34732413  1
  Mn  Mn4  1  0.67366207  0.86003523  0.34732413  1
  Mn  Mn5  1  0.32633793  0.13996477  0.65267587  1
  Mn  Mn6  1  0.32633793  0.51271110  0.65267587  1
  Sn  Sn7  1  0.78379169  0.28379169  0.56758338  1
  Sn  Sn8  1  0.21620831  0.71620831  0.43241662  1
  Sn  Sn9  1  0.50000000  0.79930713  0.00000000  1
  Sn  Sn10  1  0.50000000  0.20069287  0.00000000  1
