# generated using pymatgen
data_In3SnAu12
_symmetry_space_group_name_H-M   'P 1'
_cell_length_a   4.90177967
_cell_length_b   5.36029991
_cell_length_c   11.74317860
_cell_angle_alpha   90.00000000
_cell_angle_beta   90.00000000
_cell_angle_gamma   90.00000000
_symmetry_Int_Tables_number   1
_chemical_formula_structural   In3SnAu12
_chemical_formula_sum   'In3 Sn1 Au12'
_cell_volume   308.55212486
_cell_formula_units_Z   1
loop_
 _symmetry_equiv_pos_site_id
 _symmetry_equiv_pos_as_xyz
  1  'x, y, z'
loop_
 _atom_site_type_symbol
 _atom_site_label
 _atom_site_symmetry_multiplicity
 _atom_site_fract_x
 _atom_site_fract_y
 _atom_site_fract_z
 _atom_site_occupancy
  In  In0  1  0.75000000  0.33246466  0.87500000  1
  In  In1  1  0.25000000  0.66637587  0.12427940  1
  In  In2  1  0.25000000  0.66637587  0.62572060  1
  Sn  Sn3  1  0.75000000  0.33419684  0.37500000  1
  Au  Au4  1  0.25000000  0.67328170  0.37500000  1
  Au  Au5  1  0.25000000  0.66681712  0.87500000  1
  Au  Au6  1  0.75000000  0.33243137  0.12248673  1
  Au  Au7  1  0.75000000  0.33243137  0.62751327  1
  Au  Au8  1  0.75000000  0.83358797  0.00056463  1
  Au  Au9  1  0.75000000  0.83435012  0.50250143  1
  Au  Au10  1  0.75000000  0.83435012  0.24749857  1
  Au  Au11  1  0.75000000  0.83358797  0.74943537  1
  Au  Au12  1  0.25000000  0.16497241  0.99858235  1
  Au  Au13  1  0.25000000  0.16490211  0.50038168  1
  Au  Au14  1  0.25000000  0.16490211  0.24961832  1
  Au  Au15  1  0.25000000  0.16497241  0.75141765  1
