# generated using pymatgen
data_K3FeMo4O15
_symmetry_space_group_name_H-M   'P 1'
_cell_length_a   5.84897639
_cell_length_b   8.18327920
_cell_length_c   17.30384229
_cell_angle_alpha   92.63195141
_cell_angle_beta   80.26985148
_cell_angle_gamma   90.00000000
_symmetry_Int_Tables_number   1
_chemical_formula_structural   K3FeMo4O15
_chemical_formula_sum   'K6 Fe2 Mo8 O30'
_cell_volume   815.42699137
_cell_formula_units_Z   2
loop_
 _symmetry_equiv_pos_site_id
 _symmetry_equiv_pos_as_xyz
  1  'x, y, z'
loop_
 _atom_site_type_symbol
 _atom_site_label
 _atom_site_symmetry_multiplicity
 _atom_site_fract_x
 _atom_site_fract_y
 _atom_site_fract_z
 _atom_site_occupancy
  K  K0  1  0.60318916  0.76608022  0.79362169  1
  K  K1  1  0.39681084  0.23391978  0.20637831  1
  K  K2  1  0.51594288  0.22435829  0.96811424  1
  K  K3  1  0.48405712  0.77564171  0.03188576  1
  K  K4  1  0.18546497  0.52631347  0.62907005  1
  K  K5  1  0.81453503  0.47368653  0.37092995  1
  Fe  Fe6  1  0.18143937  0.02020508  0.63712126  1
  Fe  Fe7  1  0.81856063  0.97979492  0.36287874  1
  Mo  Mo8  1  0.05950445  0.51144727  0.88099109  1
  Mo  Mo9  1  0.94049555  0.48855273  0.11900891  1
  Mo  Mo10  1  0.71999456  0.81547645  0.56001088  1
  Mo  Mo11  1  0.28000544  0.18452355  0.43998912  1
  Mo  Mo12  1  0.64954480  0.26648276  0.70091040  1
  Mo  Mo13  1  0.35045520  0.73351724  0.29908960  1
  Mo  Mo14  1  0.07063538  0.04610876  0.85872925  1
  Mo  Mo15  1  0.92936462  0.95389124  0.14127075  1
  O  O16  1  0.60130421  0.19744033  0.79739158  1
  O  O17  1  0.39869579  0.80255967  0.20260842  1
  O  O18  1  0.93411235  0.19406041  0.65028926  1
  O  O19  1  0.41559839  0.19406041  0.65028926  1
  O  O20  1  0.06588765  0.80593959  0.34971074  1
  O  O21  1  0.58440161  0.80593959  0.34971074  1
  O  O22  1  0.28922781  0.96035010  0.90225771  1
  O  O23  1  0.80851448  0.96035010  0.90225771  1
  O  O24  1  0.71077219  0.03964990  0.09774229  1
  O  O25  1  0.19148552  0.03964990  0.09774229  1
  O  O26  1  0.12242820  0.98958733  0.75514361  1
  O  O27  1  0.87757180  0.01041267  0.24485639  1
  O  O28  1  0.10774687  0.57929487  0.78450626  1
  O  O29  1  0.89225313  0.42070513  0.21549374  1
  O  O30  1  0.05711856  0.27352896  0.88576288  1
  O  O31  1  0.94288144  0.72647104  0.11423712  1
  O  O32  1  0.43477557  0.84332942  0.62174631  1
  O  O33  1  0.94347812  0.84332942  0.62174631  1
  O  O34  1  0.56522443  0.15667058  0.37825369  1
  O  O35  1  0.05652188  0.15667058  0.37825369  1
  O  O36  1  0.75934318  0.95307656  0.48131364  1
  O  O37  1  0.24065682  0.04692344  0.51868636  1
  O  O38  1  0.73942429  0.61425339  0.52115141  1
  O  O39  1  0.26057571  0.38574661  0.47884859  1
  O  O40  1  0.64794148  0.48243672  0.70411704  1
  O  O41  1  0.35205852  0.51756328  0.29588296  1
  O  O42  1  0.79140701  0.59263076  0.92777284  1
  O  O43  1  0.28082015  0.59263076  0.92777284  1
  O  O44  1  0.20859299  0.40736924  0.07222716  1
  O  O45  1  0.71917985  0.40736924  0.07222716  1
