# generated using pymatgen
data_In2(HgTe2)3
_symmetry_space_group_name_H-M   'P 1'
_cell_length_a   6.40822484
_cell_length_b   9.17613477
_cell_length_c   8.04741718
_cell_angle_alpha   71.95769904
_cell_angle_beta   66.53716488
_cell_angle_gamma   90.00000000
_symmetry_Int_Tables_number   1
_chemical_formula_structural   In2(HgTe2)3
_chemical_formula_sum   'In2 Hg3 Te6'
_cell_volume   408.59369991
_cell_formula_units_Z   1
loop_
 _symmetry_equiv_pos_site_id
 _symmetry_equiv_pos_as_xyz
  1  'x, y, z'
loop_
 _atom_site_type_symbol
 _atom_site_label
 _atom_site_symmetry_multiplicity
 _atom_site_fract_x
 _atom_site_fract_y
 _atom_site_fract_z
 _atom_site_occupancy
  In  In0  1  0.98695149  0.50549929  0.99971136  1
  In  In1  1  0.65332985  0.82783371  0.66695564  1
  Hg  Hg2  1  0.98547996  0.98704620  0.01722648  1
  Hg  Hg3  1  0.37863864  0.16666700  0.33333300  1
  Hg  Hg4  1  0.66937344  0.34628680  0.64944052  1
  Te  Te5  1  0.26117261  0.73643338  0.02566532  1
  Te  Te6  1  0.55224174  0.88463142  0.34280795  1
  Te  Te7  1  0.91601058  0.08151866  0.66557049  1
  Te  Te8  1  0.24824707  0.25181434  0.00109651  1
  Te  Te9  1  0.56171669  0.44870258  0.32385805  1
  Te  Te10  1  0.95350493  0.59689962  0.64100168  1
