# generated using pymatgen
data_Ho4Zr3O12
_symmetry_space_group_name_H-M   'P 1'
_cell_length_a   6.36468887
_cell_length_b   6.40438237
_cell_length_c   6.57656084
_cell_angle_alpha   99.85718282
_cell_angle_beta   98.52724062
_cell_angle_gamma   99.58451759
_symmetry_Int_Tables_number   1
_chemical_formula_structural   Ho4Zr3O12
_chemical_formula_sum   'Ho4 Zr3 O12'
_cell_volume   256.08070219
_cell_formula_units_Z   1
loop_
 _symmetry_equiv_pos_site_id
 _symmetry_equiv_pos_as_xyz
  1  'x, y, z'
loop_
 _atom_site_type_symbol
 _atom_site_label
 _atom_site_symmetry_multiplicity
 _atom_site_fract_x
 _atom_site_fract_y
 _atom_site_fract_z
 _atom_site_occupancy
  Ho  Ho0  1  0.38897924  0.69948835  0.86529199  1
  Ho  Ho1  1  0.69463094  0.86496566  0.39059573  1
  Ho  Ho2  1  0.61102076  0.30051165  0.13470801  1
  Ho  Ho3  1  0.30536906  0.13503434  0.60940427  1
  Zr  Zr4  1  0.00000000  -0.00000000  0.00000000  1
  Zr  Zr5  1  0.84910862  0.39650992  0.67169381  1
  Zr  Zr6  1  0.15089138  0.60349008  0.32830619  1
  O  O7  1  0.03058730  0.67779391  0.88769386  1
  O  O8  1  0.68500237  0.93098863  0.06119307  1
  O  O9  1  0.91956900  0.08358666  0.69262908  1
  O  O10  1  0.96941270  0.32220609  0.11230614  1
  O  O11  1  0.31499763  0.06901137  0.93880693  1
  O  O12  1  0.08043100  0.91641334  0.30737092  1
  O  O13  1  0.58656231  0.18745198  0.43313067  1
  O  O14  1  0.17320145  0.42893867  0.57255703  1
  O  O15  1  0.41443260  0.58094976  0.17897307  1
  O  O16  1  0.41343769  0.81254802  0.56686933  1
  O  O17  1  0.82679855  0.57106133  0.42744297  1
  O  O18  1  0.58556740  0.41905024  0.82102693  1
