# generated using pymatgen
data_KIn(TeMo)6
_symmetry_space_group_name_H-M   'P 1'
_cell_length_a   4.62350879
_cell_length_b   9.82570096
_cell_length_c   9.82993512
_cell_angle_alpha   119.50897331
_cell_angle_beta   90.00000000
_cell_angle_gamma   90.00000000
_symmetry_Int_Tables_number   1
_chemical_formula_structural   KIn(TeMo)6
_chemical_formula_sum   'K1 In1 Te6 Mo6'
_cell_volume   388.63702097
_cell_formula_units_Z   1
loop_
 _symmetry_equiv_pos_site_id
 _symmetry_equiv_pos_as_xyz
  1  'x, y, z'
loop_
 _atom_site_type_symbol
 _atom_site_label
 _atom_site_symmetry_multiplicity
 _atom_site_fract_x
 _atom_site_fract_y
 _atom_site_fract_z
 _atom_site_occupancy
  K  K0  1  0.75000000  0.66251103  0.33273989  1
  In  In1  1  0.25000000  0.34283055  0.67913099  1
  Te  Te2  1  0.75000000  0.64633983  0.69293432  1
  Te  Te3  1  0.75000000  0.30821962  0.95136281  1
  Te  Te4  1  0.75000000  0.04291299  0.35143855  1
  Te  Te5  1  0.25000000  0.34855650  0.31172220  1
  Te  Te6  1  0.25000000  0.68548449  0.03722472  1
  Te  Te7  1  0.25000000  0.96499982  0.64890680  1
  Mo  Mo8  1  0.75000000  0.98162471  0.83354419  1
  Mo  Mo9  1  0.75000000  0.16453675  0.14444447  1
  Mo  Mo10  1  0.75000000  0.85315566  0.01935543  1
  Mo  Mo11  1  0.25000000  0.01765123  0.16359237  1
  Mo  Mo12  1  0.25000000  0.83460452  0.85384164  1
  Mo  Mo13  1  0.25000000  0.14657230  0.97976164  1
