# generated using pymatgen
data_MgBiSbO5
_symmetry_space_group_name_H-M   'P 1'
_cell_length_a   5.46289449
_cell_length_b   8.01594813
_cell_length_c   12.05445861
_cell_angle_alpha   90.00000000
_cell_angle_beta   90.00000000
_cell_angle_gamma   107.05774365
_symmetry_Int_Tables_number   1
_chemical_formula_structural   MgBiSbO5
_chemical_formula_sum   'Mg4 Bi4 Sb4 O20'
_cell_volume   504.64698235
_cell_formula_units_Z   4
loop_
 _symmetry_equiv_pos_site_id
 _symmetry_equiv_pos_as_xyz
  1  'x, y, z'
loop_
 _atom_site_type_symbol
 _atom_site_label
 _atom_site_symmetry_multiplicity
 _atom_site_fract_x
 _atom_site_fract_y
 _atom_site_fract_z
 _atom_site_occupancy
  Mg  Mg0  1  0.62170668  0.17351224  0.92077023  1
  Mg  Mg1  1  0.37829332  0.82648776  0.07922977  1
  Mg  Mg2  1  0.87829332  0.32648776  0.42077023  1
  Mg  Mg3  1  0.12170668  0.67351224  0.57922977  1
  Bi  Bi4  1  0.10714609  0.16317058  0.09691262  1
  Bi  Bi5  1  0.89285391  0.83682942  0.90308738  1
  Bi  Bi6  1  0.60714609  0.66317058  0.40308738  1
  Bi  Bi7  1  0.39285391  0.33682942  0.59691262  1
  Sb  Sb8  1  0.78737021  0.96764732  0.64368873  1
  Sb  Sb9  1  0.21262979  0.03235268  0.35631127  1
  Sb  Sb10  1  0.71262979  0.53235268  0.14368873  1
  Sb  Sb11  1  0.28737021  0.46764732  0.85631127  1
  O  O12  1  0.55466813  0.32159926  0.06457239  1
  O  O13  1  0.01294872  0.31952235  0.94010188  1
  O  O14  1  0.47354305  0.65295385  0.18262098  1
  O  O15  1  0.75754549  0.51462246  0.52374103  1
  O  O16  1  0.79640180  0.48224595  0.29254024  1
  O  O17  1  0.29640180  0.98224595  0.20745976  1
  O  O18  1  0.51294872  0.81952235  0.55989812  1
  O  O19  1  0.48705128  0.18047765  0.44010188  1
  O  O20  1  0.24245451  0.48537754  0.47625897  1
  O  O21  1  0.94533187  0.17840074  0.56457239  1
  O  O22  1  0.20359820  0.51775405  0.70745976  1
  O  O23  1  0.44533187  0.67840074  0.93542761  1
  O  O24  1  0.05466813  0.82159926  0.43542761  1
  O  O25  1  0.70359820  0.01775405  0.79254024  1
  O  O26  1  0.74245451  0.98537754  0.02374103  1
  O  O27  1  0.25754549  0.01462246  0.97625897  1
  O  O28  1  0.52645695  0.34704615  0.81737902  1
  O  O29  1  0.98705128  0.68047765  0.05989812  1
  O  O30  1  0.02645695  0.84704615  0.68262098  1
  O  O31  1  0.97354305  0.15295385  0.31737902  1
