# generated using pymatgen
data_Hf8Ni4N
_symmetry_space_group_name_H-M   'P 1'
_cell_length_a   8.53960663
_cell_length_b   8.52898028
_cell_length_c   8.55977864
_cell_angle_alpha   90.00000000
_cell_angle_beta   59.92182915
_cell_angle_gamma   119.95884541
_symmetry_Int_Tables_number   1
_chemical_formula_structural   Hf8Ni4N
_chemical_formula_sum   'Hf16 Ni8 N2'
_cell_volume   440.59429681
_cell_formula_units_Z   2
loop_
 _symmetry_equiv_pos_site_id
 _symmetry_equiv_pos_as_xyz
  1  'x, y, z'
loop_
 _atom_site_type_symbol
 _atom_site_label
 _atom_site_symmetry_multiplicity
 _atom_site_fract_x
 _atom_site_fract_y
 _atom_site_fract_z
 _atom_site_occupancy
  Hf  Hf0  1  0.61878775  0.80939388  0.44060612  1
  Hf  Hf1  1  0.87622548  0.43811274  0.81188726  1
  Hf  Hf2  1  0.25334215  0.81531540  0.80814089  1
  Hf  Hf3  1  0.25334215  0.43802675  0.43851696  1
  Hf  Hf4  1  0.25334215  0.43802675  0.80814089  1
  Hf  Hf5  1  0.25334215  0.81531540  0.43851696  1
  Hf  Hf6  1  0.38121225  0.19060612  0.55939388  1
  Hf  Hf7  1  0.12377452  0.56188726  0.18811274  1
  Hf  Hf8  1  0.74665785  0.18468460  0.19185911  1
  Hf  Hf9  1  0.74665785  0.56197325  0.56148304  1
  Hf  Hf10  1  0.74665785  0.56197325  0.19185911  1
  Hf  Hf11  1  0.74665785  0.18468460  0.56148304  1
  Hf  Hf12  1  0.50000000  0.50000000  -0.00000000  1
  Hf  Hf13  1  0.50000000  0.00000000  -0.00000000  1
  Hf  Hf14  1  -0.00000000  0.00000000  0.50000000  1
  Hf  Hf15  1  -0.00000000  0.00000000  -0.00000000  1
  Ni  Ni16  1  0.06112869  0.83654746  0.21943565  1
  Ni  Ni17  1  0.06112869  0.22458123  0.21943565  1
  Ni  Ni18  1  0.44098149  0.22049074  0.84506161  1
  Ni  Ni19  1  0.44098149  0.22049074  0.21395690  1
  Ni  Ni20  1  0.93887131  0.16345254  0.78056435  1
  Ni  Ni21  1  0.93887131  0.77541877  0.78056435  1
  Ni  Ni22  1  0.55901851  0.77950926  0.15493839  1
  Ni  Ni23  1  0.55901851  0.77950926  0.78604310  1
  N  N24  1  0.50000000  0.00000000  0.50000000  1
  N  N25  1  0.50000000  0.50000000  0.50000000  1
