# generated using pymatgen
data_HfTiB4
_symmetry_space_group_name_H-M   'P 1'
_cell_length_a   3.09557007
_cell_length_b   3.09557610
_cell_length_c   6.70440533
_cell_angle_alpha   90.00000000
_cell_angle_beta   90.00000000
_cell_angle_gamma   119.99994136
_symmetry_Int_Tables_number   1
_chemical_formula_structural   HfTiB4
_chemical_formula_sum   'Hf1 Ti1 B4'
_cell_volume   55.63822613
_cell_formula_units_Z   1
loop_
 _symmetry_equiv_pos_site_id
 _symmetry_equiv_pos_as_xyz
  1  'x, y, z'
loop_
 _atom_site_type_symbol
 _atom_site_label
 _atom_site_symmetry_multiplicity
 _atom_site_fract_x
 _atom_site_fract_y
 _atom_site_fract_z
 _atom_site_occupancy
  Hf  Hf0  1  0.99996088  0.00000000  -0.00000000  1
  Ti  Ti1  1  0.99996467  0.00000000  0.50000000  1
  B  B2  1  0.33330177  0.66666631  0.26252624  1
  B  B3  1  0.33330177  0.66666631  0.73747376  1
  B  B4  1  0.66663546  0.33333369  0.26252624  1
  B  B5  1  0.66663546  0.33333369  0.73747376  1
