# generated using pymatgen
data_DyGa3Ni
_symmetry_space_group_name_H-M   'P 1'
_cell_length_a   4.15603724
_cell_length_b   4.15603724
_cell_length_c   5.88523403
_cell_angle_alpha   69.32355587
_cell_angle_beta   69.32355587
_cell_angle_gamma   90.00000000
_symmetry_Int_Tables_number   1
_chemical_formula_structural   DyGa3Ni
_chemical_formula_sum   'Dy1 Ga3 Ni1'
_cell_volume   88.07297537
_cell_formula_units_Z   1
loop_
 _symmetry_equiv_pos_site_id
 _symmetry_equiv_pos_as_xyz
  1  'x, y, z'
loop_
 _atom_site_type_symbol
 _atom_site_label
 _atom_site_symmetry_multiplicity
 _atom_site_fract_x
 _atom_site_fract_y
 _atom_site_fract_z
 _atom_site_occupancy
  Dy  Dy0  1  0.00981887  0.00981887  0.98036225  1
  Ga  Ga1  1  0.59611220  0.59611220  0.80777561  1
  Ga  Ga2  1  0.76108342  0.26108342  0.47783316  1
  Ga  Ga3  1  0.26108342  0.76108342  0.47783316  1
  Ni  Ni4  1  0.37190209  0.37190209  0.25619582  1
