# generated using pymatgen
data_Eu2GaAg3
_symmetry_space_group_name_H-M   'P 1'
_cell_length_a   4.82948520
_cell_length_b   6.07666044
_cell_length_c   5.98333638
_cell_angle_alpha   96.19962413
_cell_angle_beta   113.80204949
_cell_angle_gamma   66.58551085
_symmetry_Int_Tables_number   1
_chemical_formula_structural   Eu2GaAg3
_chemical_formula_sum   'Eu2 Ga1 Ag3'
_cell_volume   147.14195723
_cell_formula_units_Z   1
loop_
 _symmetry_equiv_pos_site_id
 _symmetry_equiv_pos_as_xyz
  1  'x, y, z'
loop_
 _atom_site_type_symbol
 _atom_site_label
 _atom_site_symmetry_multiplicity
 _atom_site_fract_x
 _atom_site_fract_y
 _atom_site_fract_z
 _atom_site_occupancy
  Eu  Eu0  1  0.75264868  0.20020502  0.70550238  1
  Eu  Eu1  1  0.25061776  0.79902810  0.30026361  1
  Ga  Ga2  1  0.93674958  0.39343318  0.26693234  1
  Ag  Ag3  1  0.04841505  0.60437787  0.70120797  1
  Ag  Ag4  1  0.44496469  0.22885229  0.11878167  1
  Ag  Ag5  1  0.56660425  0.77410354  0.90731204  1
