# generated using pymatgen
data_EuAlGa
_symmetry_space_group_name_H-M   'P 1'
_cell_length_a   4.65426995
_cell_length_b   5.89602153
_cell_length_c   5.93158837
_cell_angle_alpha   100.02037836
_cell_angle_beta   113.09950330
_cell_angle_gamma   66.75299627
_symmetry_Int_Tables_number   1
_chemical_formula_structural   EuAlGa
_chemical_formula_sum   'Eu2 Al2 Ga2'
_cell_volume   137.53140946
_cell_formula_units_Z   2
loop_
 _symmetry_equiv_pos_site_id
 _symmetry_equiv_pos_as_xyz
  1  'x, y, z'
loop_
 _atom_site_type_symbol
 _atom_site_label
 _atom_site_symmetry_multiplicity
 _atom_site_fract_x
 _atom_site_fract_y
 _atom_site_fract_z
 _atom_site_occupancy
  Eu  Eu0  1  0.53779154  0.71274106  0.78832413  1
  Eu  Eu1  1  0.46220846  0.28725894  0.21167587  1
  Al  Al2  1  0.16460103  0.28121954  0.61042159  1
  Al  Al3  1  0.83539897  0.71878046  0.38957841  1
  Ga  Ga4  1  0.83671546  0.11021548  0.78364641  1
  Ga  Ga5  1  0.16328454  0.88978452  0.21635359  1
