# generated using pymatgen
data_Eu2MnRhO6
_symmetry_space_group_name_H-M   'P 1'
_cell_length_a   5.54404463
_cell_length_b   5.75529088
_cell_length_c   7.70062271
_cell_angle_alpha   90.00000000
_cell_angle_beta   90.69333153
_cell_angle_gamma   90.00000000
_symmetry_Int_Tables_number   1
_chemical_formula_structural   Eu2MnRhO6
_chemical_formula_sum   'Eu4 Mn2 Rh2 O12'
_cell_volume   245.69031866
_cell_formula_units_Z   2
loop_
 _symmetry_equiv_pos_site_id
 _symmetry_equiv_pos_as_xyz
  1  'x, y, z'
loop_
 _atom_site_type_symbol
 _atom_site_label
 _atom_site_symmetry_multiplicity
 _atom_site_fract_x
 _atom_site_fract_y
 _atom_site_fract_z
 _atom_site_occupancy
  Eu  Eu0  1  0.51367490  0.55930172  0.24999084  1
  Eu  Eu1  1  0.98632510  0.05930172  0.25000916  1
  Eu  Eu2  1  0.48632510  0.44069828  0.75000916  1
  Eu  Eu3  1  0.01367490  0.94069828  0.74999084  1
  Mn  Mn4  1  0.00000000  0.50000000  -0.00000000  1
  Mn  Mn5  1  0.50000000  0.00000000  0.50000000  1
  Rh  Rh6  1  0.00000000  0.50000000  0.50000000  1
  Rh  Rh7  1  0.50000000  0.00000000  -0.00000000  1
  O  O8  1  0.80089228  0.80269377  0.04819431  1
  O  O9  1  0.69910772  0.30269377  0.45180569  1
  O  O10  1  0.19451384  0.20159613  0.54817170  1
  O  O11  1  0.30548616  0.70159613  0.95182830  1
  O  O12  1  0.19910772  0.19730623  0.95180569  1
  O  O13  1  0.30089228  0.69730623  0.54819431  1
  O  O14  1  0.80548616  0.79840387  0.45182830  1
  O  O15  1  0.69451384  0.29840387  0.04817170  1
  O  O16  1  0.40398263  0.97060395  0.25527771  1
  O  O17  1  0.09601737  0.47060395  0.24472229  1
  O  O18  1  0.59601737  0.02939605  0.74472229  1
  O  O19  1  0.90398263  0.52939605  0.75527771  1
