# generated using pymatgen
data_Zn(Fe2O3)2
_symmetry_space_group_name_H-M   'P 1'
_cell_length_a   2.97259992
_cell_length_b   5.27671002
_cell_length_c   15.39688411
_cell_angle_alpha   90.00000000
_cell_angle_beta   90.00000000
_cell_angle_gamma   106.36000902
_symmetry_Int_Tables_number   1
_chemical_formula_structural   Zn(Fe2O3)2
_chemical_formula_sum   'Zn2 Fe8 O12'
_cell_volume   231.73007469
_cell_formula_units_Z   2
loop_
 _symmetry_equiv_pos_site_id
 _symmetry_equiv_pos_as_xyz
  1  'x, y, z'
loop_
 _atom_site_type_symbol
 _atom_site_label
 _atom_site_symmetry_multiplicity
 _atom_site_fract_x
 _atom_site_fract_y
 _atom_site_fract_z
 _atom_site_occupancy
  Zn  Zn0  1  0.65260685  0.30521470  0.75000000  1
  Zn  Zn1  1  0.34739315  0.69478530  0.25000000  1
  Fe  Fe2  1  0.86504376  0.73008953  0.04692817  1
  Fe  Fe3  1  0.39989308  0.79978516  0.63654270  1
  Fe  Fe4  1  0.13495424  0.26990947  0.95307183  1
  Fe  Fe5  1  0.60010692  0.20021484  0.36345830  1
  Fe  Fe6  1  0.86504376  0.73008953  0.45307183  1
  Fe  Fe7  1  0.13495424  0.26990947  0.54692817  1
  Fe  Fe8  1  0.60010692  0.20021484  0.13654170  1
  Fe  Fe9  1  0.39989308  0.79978516  0.86345730  1
  O  O10  1  0.49999900  -0.00000000  0.50000000  1
  O  O11  1  0.49999900  0.00000000  0.00000000  1
  O  O12  1  0.03489968  0.06979836  0.83679081  1
  O  O13  1  0.96510032  0.93020164  0.16321019  1
  O  O14  1  0.96510032  0.93020164  0.33678981  1
  O  O15  1  0.03489968  0.06979836  0.66321019  1
  O  O16  1  0.78805621  0.57611442  0.91721266  1
  O  O17  1  0.21194279  0.42388658  0.08278734  1
  O  O18  1  0.21194279  0.42388658  0.41721266  1
  O  O19  1  0.78805621  0.57611442  0.58278734  1
  O  O20  1  0.29810527  0.59621154  0.75000000  1
  O  O21  1  0.70189273  0.40378746  0.25000000  1
