# generated using pymatgen
data_Ga2CuAgS4
_symmetry_space_group_name_H-M   'P 1'
_cell_length_a   5.56724734
_cell_length_b   5.56724734
_cell_length_c   6.60456166
_cell_angle_alpha   65.07258424
_cell_angle_beta   65.07258424
_cell_angle_gamma   90.00000000
_symmetry_Int_Tables_number   1
_chemical_formula_structural   Ga2CuAgS4
_chemical_formula_sum   'Ga2 Cu1 Ag1 S4'
_cell_volume   164.36629843
_cell_formula_units_Z   1
loop_
 _symmetry_equiv_pos_site_id
 _symmetry_equiv_pos_as_xyz
  1  'x, y, z'
loop_
 _atom_site_type_symbol
 _atom_site_label
 _atom_site_symmetry_multiplicity
 _atom_site_fract_x
 _atom_site_fract_y
 _atom_site_fract_z
 _atom_site_occupancy
  Ga  Ga0  1  0.25000000  0.75000000  0.50000000  1
  Ga  Ga1  1  0.50000000  0.50000000  0.00000000  1
  Cu  Cu2  1  -0.00000000  -0.00000000  0.00000000  1
  Ag  Ag3  1  0.75000000  0.25000000  0.50000000  1
  S  S4  1  0.35060689  0.84814771  0.76574837  1
  S  S5  1  0.88364474  0.38610393  0.76574837  1
  S  S6  1  0.15185229  0.11635526  0.23425163  1
  S  S7  1  0.61389607  0.64939311  0.23425163  1
