# generated using pymatgen
data_Dy5(Sn3Os)6
_symmetry_space_group_name_H-M   'P 1'
_cell_length_a   9.90565075
_cell_length_b   9.90565075
_cell_length_c   9.90565075
_cell_angle_alpha   90.00000000
_cell_angle_beta   60.00000000
_cell_angle_gamma   120.00000000
_symmetry_Int_Tables_number   1
_chemical_formula_structural   Dy5(Sn3Os)6
_chemical_formula_sum   'Dy5 Sn18 Os6'
_cell_volume   687.28052502
_cell_formula_units_Z   1
loop_
 _symmetry_equiv_pos_site_id
 _symmetry_equiv_pos_as_xyz
  1  'x, y, z'
loop_
 _atom_site_type_symbol
 _atom_site_label
 _atom_site_symmetry_multiplicity
 _atom_site_fract_x
 _atom_site_fract_y
 _atom_site_fract_z
 _atom_site_occupancy
  Dy  Dy0  1  0.00000000  -0.00000000  -0.00000000  1
  Dy  Dy1  1  0.25655900  0.62827950  0.11516150  1
  Dy  Dy2  1  0.74344100  0.62827950  0.62827950  1
  Dy  Dy3  1  0.74344100  0.11516150  0.62827950  1
  Dy  Dy4  1  0.25655900  0.62827950  0.62827950  1
  Sn  Sn5  1  0.81979677  0.40989838  0.77030485  1
  Sn  Sn6  1  0.18020323  0.40989838  0.40989838  1
  Sn  Sn7  1  0.18020323  0.77030485  0.40989838  1
  Sn  Sn8  1  0.81979677  0.40989838  0.40989838  1
  Sn  Sn9  1  0.50000000  0.25000000  0.25000000  1
  Sn  Sn10  1  0.65110653  0.00189017  0.34700330  1
  Sn  Sn11  1  0.00378034  0.00189017  0.34700330  1
  Sn  Sn12  1  0.65110653  0.64921636  0.34700330  1
  Sn  Sn13  1  0.34889347  0.00189017  0.64921636  1
  Sn  Sn14  1  0.99621966  0.64921636  0.00189017  1
  Sn  Sn15  1  0.34889347  0.00189017  0.00189017  1
  Sn  Sn16  1  0.34889347  0.34700330  0.00189017  1
  Sn  Sn17  1  0.99621966  0.34700330  0.00189017  1
  Sn  Sn18  1  0.34889347  0.34700330  0.64921636  1
  Sn  Sn19  1  0.65110653  0.64921636  0.00189017  1
  Sn  Sn20  1  0.00378034  0.00189017  0.64921636  1
  Sn  Sn21  1  0.65110653  0.00189017  0.00189017  1
  Sn  Sn22  1  0.50000000  0.75000000  0.75000000  1
  Os  Os23  1  0.49336793  0.74668396  0.25331604  1
  Os  Os24  1  0.00000000  0.25331604  0.25331604  1
  Os  Os25  1  0.00000000  0.74668396  0.25331604  1
  Os  Os26  1  0.50663207  0.25331604  0.74668396  1
  Os  Os27  1  0.00000000  0.74668396  0.74668396  1
  Os  Os28  1  0.00000000  0.25331604  0.74668396  1
