# generated using pymatgen
data_Cr8Cd3CuS16
_symmetry_space_group_name_H-M   'P 1'
_cell_length_a   7.23667202
_cell_length_b   7.23667202
_cell_length_c   12.41154361
_cell_angle_alpha   73.05042916
_cell_angle_beta   90.00000000
_cell_angle_gamma   120.00000000
_symmetry_Int_Tables_number   1
_chemical_formula_structural   Cr8Cd3CuS16
_chemical_formula_sum   'Cr8 Cd3 Cu1 S16'
_cell_volume   530.05113708
_cell_formula_units_Z   1
loop_
 _symmetry_equiv_pos_site_id
 _symmetry_equiv_pos_as_xyz
  1  'x, y, z'
loop_
 _atom_site_type_symbol
 _atom_site_label
 _atom_site_symmetry_multiplicity
 _atom_site_fract_x
 _atom_site_fract_y
 _atom_site_fract_z
 _atom_site_occupancy
  Cr  Cr0  1  0.43382724  0.37083388  0.19533887  1
  Cr  Cr1  1  0.93813845  0.38003210  0.68182945  1
  Cr  Cr2  1  0.43382724  0.86765449  0.19533887  1
  Cr  Cr3  1  0.93813845  0.87627690  0.68182945  1
  Cr  Cr4  1  0.19062491  0.38124982  0.42812526  1
  Cr  Cr5  1  0.68729992  0.37459985  0.93810023  1
  Cr  Cr6  1  0.93700664  0.37083388  0.19533887  1
  Cr  Cr7  1  0.44189365  0.38003210  0.68182945  1
  Cd  Cd8  1  0.37472191  0.74944381  0.87583428  1
  Cd  Cd9  1  0.99945108  0.99890216  0.00164677  1
  Cd  Cd10  1  0.49898880  0.99797761  0.50303359  1
  Cu  Cu11  1  0.87522221  0.75044441  0.37433338  1
  S  S12  1  0.78732514  0.13932535  0.07334952  1
  S  S13  1  0.28920255  0.14376466  0.56703279  1
  S  S14  1  0.78732514  0.57465027  0.07334952  1
  S  S15  1  0.28920255  0.57840511  0.56703279  1
  S  S16  1  0.56948687  0.13897375  0.29153938  1
  S  S17  1  0.07131060  0.14262121  0.78606819  1
  S  S18  1  0.35200021  0.13932535  0.07334952  1
  S  S19  1  0.85456210  0.14376466  0.56703279  1
  S  S20  1  0.07383982  0.61729956  0.30886062  1
  S  S21  1  0.58712774  0.61066114  0.80221111  1
  S  S22  1  0.07383982  0.14767964  0.30886062  1
  S  S23  1  0.58712774  0.17425549  0.80221111  1
  S  S24  1  0.30268680  0.60537360  0.09193960  1
  S  S25  1  0.80882925  0.61765851  0.57351224  1
  S  S26  1  0.54345973  0.61729956  0.30886062  1
  S  S27  1  0.02353340  0.61066114  0.80221111  1
