# generated using pymatgen
data_CaBiSbO5
_symmetry_space_group_name_H-M   'P 1'
_cell_length_a   5.94312840
_cell_length_b   8.64102313
_cell_length_c   12.20179979
_cell_angle_alpha   90.00000000
_cell_angle_beta   90.00000000
_cell_angle_gamma   110.78974973
_symmetry_Int_Tables_number   1
_chemical_formula_structural   CaBiSbO5
_chemical_formula_sum   'Ca4 Bi4 Sb4 O20'
_cell_volume   585.82016083
_cell_formula_units_Z   4
loop_
 _symmetry_equiv_pos_site_id
 _symmetry_equiv_pos_as_xyz
  1  'x, y, z'
loop_
 _atom_site_type_symbol
 _atom_site_label
 _atom_site_symmetry_multiplicity
 _atom_site_fract_x
 _atom_site_fract_y
 _atom_site_fract_z
 _atom_site_occupancy
  Ca  Ca0  1  0.63281354  0.18338152  0.91412975  1
  Ca  Ca1  1  0.36718646  0.81661848  0.08587025  1
  Ca  Ca2  1  0.86718646  0.31661848  0.41412975  1
  Ca  Ca3  1  0.13281354  0.68338152  0.58587025  1
  Bi  Bi4  1  0.12431415  0.15747209  0.09257975  1
  Bi  Bi5  1  0.87568585  0.84252791  0.90742025  1
  Bi  Bi6  1  0.62431415  0.65747209  0.40742025  1
  Bi  Bi7  1  0.37568585  0.34252791  0.59257975  1
  Sb  Sb8  1  0.80610960  0.96816356  0.64412890  1
  Sb  Sb9  1  0.19389040  0.03183644  0.35587110  1
  Sb  Sb10  1  0.69389040  0.53183644  0.14412890  1
  Sb  Sb11  1  0.30610960  0.46816356  0.85587110  1
  O  O12  1  0.54422487  0.32696371  0.06866271  1
  O  O13  1  0.05341202  0.32385502  0.94469310  1
  O  O14  1  0.47207368  0.63223909  0.18919190  1
  O  O15  1  0.74001663  0.51312559  0.52393559  1
  O  O16  1  0.79988188  0.49776298  0.28763934  1
  O  O17  1  0.29988188  0.99776298  0.21236066  1
  O  O18  1  0.55341202  0.82385502  0.55530690  1
  O  O19  1  0.44658798  0.17614498  0.44469310  1
  O  O20  1  0.25998337  0.48687441  0.47606441  1
  O  O21  1  0.95577513  0.17303629  0.56866271  1
  O  O22  1  0.20011812  0.50223702  0.71236066  1
  O  O23  1  0.45577513  0.67303629  0.93133729  1
  O  O24  1  0.04422487  0.82696371  0.43133729  1
  O  O25  1  0.70011812  0.00223702  0.78763934  1
  O  O26  1  0.75998337  0.98687441  0.02393559  1
  O  O27  1  0.24001663  0.01312559  0.97606441  1
  O  O28  1  0.52792632  0.36776091  0.81080810  1
  O  O29  1  0.94658798  0.67614498  0.05530690  1
  O  O30  1  0.02792632  0.86776091  0.68919190  1
  O  O31  1  0.97207368  0.13223909  0.31080810  1
