# generated using pymatgen
data_CsBa3Ga5(Se5Cl)2
_symmetry_space_group_name_H-M   'P 1'
_cell_length_a   8.93509050
_cell_length_b   8.85477597
_cell_length_c   10.17559839
_cell_angle_alpha   64.00132057
_cell_angle_beta   63.73625492
_cell_angle_gamma   89.68093401
_symmetry_Int_Tables_number   1
_chemical_formula_structural   CsBa3Ga5(Se5Cl)2
_chemical_formula_sum   'Cs1 Ba3 Ga5 Se10 Cl2'
_cell_volume   630.92871570
_cell_formula_units_Z   1
loop_
 _symmetry_equiv_pos_site_id
 _symmetry_equiv_pos_as_xyz
  1  'x, y, z'
loop_
 _atom_site_type_symbol
 _atom_site_label
 _atom_site_symmetry_multiplicity
 _atom_site_fract_x
 _atom_site_fract_y
 _atom_site_fract_z
 _atom_site_occupancy
  Cs  Cs0  1  0.87190561  0.74152836  0.77401049  1
  Ba  Ba1  1  0.35128971  0.48058197  0.76990409  1
  Ba  Ba2  1  0.52122795  0.12226374  0.23003091  1
  Ba  Ba3  1  0.24664011  0.64431163  0.23056842  1
  Ga  Ga4  1  0.93134374  0.14272544  0.33364197  1
  Ga  Ga5  1  0.74062569  0.52607017  0.32922092  1
  Ga  Ga6  1  0.47500802  0.07154670  0.67169786  1
  Ga  Ga7  1  0.85826098  0.25960483  0.66983889  1
  Ga  Ga8  1  0.99982557  0.99593738  0.00095339  1
  Se  Se9  1  0.13525822  0.04975808  0.14527789  1
  Se  Se10  1  0.71673850  0.80900412  0.15494950  1
  Se  Se11  1  0.20333102  0.86054879  0.85917591  1
  Se  Se12  1  0.95147767  0.27911041  0.85492795  1
  Se  Se13  1  0.92641412  0.42567595  0.14276179  1
  Se  Se14  1  0.56930928  0.08067337  0.85804435  1
  Se  Se15  1  0.07779690  0.18852424  0.47051703  1
  Se  Se16  1  0.44915738  0.34929139  0.48288858  1
  Se  Se17  1  0.64942145  0.93927405  0.51015443  1
  Se  Se18  1  0.82816559  0.55040433  0.51587841  1
  Cl  Cl19  1  0.47141824  0.48194799  0.01529584  1
  Cl  Cl20  1  0.27538429  0.75121706  0.48026141  1
