# generated using pymatgen
data_Cs4Sn21Hg2
_symmetry_space_group_name_H-M   'P 1'
_cell_length_a   12.56149551
_cell_length_b   12.55062815
_cell_length_c   12.56149551
_cell_angle_alpha   90.00000000
_cell_angle_beta   90.01685180
_cell_angle_gamma   90.00000000
_symmetry_Int_Tables_number   1
_chemical_formula_structural   Cs4Sn21Hg2
_chemical_formula_sum   'Cs8 Sn42 Hg4'
_cell_volume   1980.37820612
_cell_formula_units_Z   2
loop_
 _symmetry_equiv_pos_site_id
 _symmetry_equiv_pos_as_xyz
  1  'x, y, z'
loop_
 _atom_site_type_symbol
 _atom_site_label
 _atom_site_symmetry_multiplicity
 _atom_site_fract_x
 _atom_site_fract_y
 _atom_site_fract_z
 _atom_site_occupancy
  Cs  Cs0  1  0.49986018  0.50000000  0.50003688  1
  Cs  Cs1  1  0.00003688  0.00000000  0.99986018  1
  Cs  Cs2  1  0.99903711  0.75000000  0.49903711  1
  Cs  Cs3  1  0.25112938  0.50000000  0.00098154  1
  Cs  Cs4  1  0.50098154  0.00000000  0.75112938  1
  Cs  Cs5  1  0.99903711  0.25000000  0.49903711  1
  Cs  Cs6  1  0.74891324  0.50000000  0.00101027  1
  Cs  Cs7  1  0.50101027  0.00000000  0.24891324  1
  Sn  Sn8  1  0.31730682  0.68301621  0.68403524  1
  Sn  Sn9  1  0.68149177  0.31806524  0.31822022  1
  Sn  Sn10  1  0.68142564  0.31681016  0.68297290  1
  Sn  Sn11  1  0.31734753  0.68192009  0.31704165  1
  Sn  Sn12  1  0.68149177  0.68193476  0.31822022  1
  Sn  Sn13  1  0.31730682  0.31698379  0.68403524  1
  Sn  Sn14  1  0.31734753  0.31807991  0.31704165  1
  Sn  Sn15  1  0.68142564  0.68318984  0.68297290  1
  Sn  Sn16  1  0.18297290  0.81681016  0.18142564  1
  Sn  Sn17  1  0.81704165  0.18192009  0.81734753  1
  Sn  Sn18  1  0.81822022  0.18193476  0.18149177  1
  Sn  Sn19  1  0.18403524  0.81698379  0.81730682  1
  Sn  Sn20  1  0.18403524  0.18301621  0.81730682  1
  Sn  Sn21  1  0.81822022  0.81806524  0.18149177  1
  Sn  Sn22  1  0.81704165  0.81807991  0.81734753  1
  Sn  Sn23  1  0.18297290  0.18318984  0.18142564  1
  Sn  Sn24  1  0.38233303  0.80500895  0.49963231  1
  Sn  Sn25  1  0.19456400  0.50000000  0.61727566  1
  Sn  Sn26  1  0.50022923  0.61948888  0.80882127  1
  Sn  Sn27  1  0.62150462  0.18953490  0.49977082  1
  Sn  Sn28  1  0.81065164  0.50000000  0.37916697  1
  Sn  Sn29  1  0.50027806  0.38064406  0.19132845  1
  Sn  Sn30  1  0.80512913  0.50000000  0.61735165  1
  Sn  Sn31  1  0.50022923  0.38051112  0.80882127  1
  Sn  Sn32  1  0.18918445  0.50000000  0.37909481  1
  Sn  Sn33  1  0.50027806  0.61935594  0.19132845  1
  Sn  Sn34  1  0.62150462  0.81046510  0.49977082  1
  Sn  Sn35  1  0.38233303  0.19499105  0.49963231  1
  Sn  Sn36  1  0.30882127  0.88051112  0.00022923  1
  Sn  Sn37  1  0.99977082  0.68953490  0.12150462  1
  Sn  Sn38  1  0.11735165  0.00000000  0.30512913  1
  Sn  Sn39  1  0.69132845  0.11935594  0.00027806  1
  Sn  Sn40  1  0.99963231  0.30500895  0.88233303  1
  Sn  Sn41  1  0.87909481  0.00000000  0.68918445  1
  Sn  Sn42  1  0.99977082  0.31046510  0.12150462  1
  Sn  Sn43  1  0.87916697  0.00000000  0.31065164  1
  Sn  Sn44  1  0.99963231  0.69499105  0.88233303  1
  Sn  Sn45  1  0.11727566  0.00000000  0.69456400  1
  Sn  Sn46  1  0.30882127  0.11948888  0.00022923  1
  Sn  Sn47  1  0.69132845  0.88064406  0.00027806  1
  Sn  Sn48  1  0.24980212  0.00000000  0.50028808  1
  Sn  Sn49  1  0.00028808  0.50000000  0.74980212  1
  Hg  Hg50  1  0.49981643  0.75000000  0.99981643  1
  Hg  Hg51  1  0.75017969  0.00000000  0.50019410  1
  Hg  Hg52  1  0.00019410  0.50000000  0.25017969  1
  Hg  Hg53  1  0.49981643  0.25000000  0.99981643  1
