# generated using pymatgen
data_Cu2SiS3
_symmetry_space_group_name_H-M   'P 1'
_cell_length_a   6.35271857
_cell_length_b   6.35271857
_cell_length_c   11.73281724
_cell_angle_alpha   79.42360125
_cell_angle_beta   100.57639875
_cell_angle_gamma   71.21504542
_symmetry_Int_Tables_number   1
_chemical_formula_structural   Cu2SiS3
_chemical_formula_sum   'Cu8 Si4 S12'
_cell_volume   425.42205945
_cell_formula_units_Z   4
loop_
 _symmetry_equiv_pos_site_id
 _symmetry_equiv_pos_as_xyz
  1  'x, y, z'
loop_
 _atom_site_type_symbol
 _atom_site_label
 _atom_site_symmetry_multiplicity
 _atom_site_fract_x
 _atom_site_fract_y
 _atom_site_fract_z
 _atom_site_occupancy
  Cu  Cu0  1  0.25604612  0.24813540  0.49725554  1
  Cu  Cu1  1  0.91264106  0.57930706  0.83333300  1
  Cu  Cu2  1  0.58146840  0.92271312  0.16941146  1
  Cu  Cu3  1  0.34212359  0.66205794  0.66941146  1
  Cu  Cu4  1  0.99539094  0.00879059  0.99725554  1
  Cu  Cu5  1  0.66264106  0.32930706  0.33333300  1
  Cu  Cu6  1  0.41776915  0.08443515  0.83333300  1
  Cu  Cu7  1  0.16776915  0.83443515  0.33333300  1
  Si  Si8  1  0.09884739  0.40181126  0.16732930  1
  Si  Si9  1  0.73514426  0.76551439  0.49933770  1
  Si  Si10  1  0.81913956  0.18151908  0.66732930  1
  Si  Si11  1  0.51485208  0.48580656  0.99933770  1
  S  S12  1  0.14010378  0.61798458  0.00449411  1
  S  S13  1  0.79562435  0.94173069  0.34502374  1
  S  S14  1  0.46864781  0.28399240  0.66527061  1
  S  S15  1  0.61732540  0.13531481  0.00139639  1
  S  S16  1  0.27506369  0.46229135  0.32164326  1
  S  S17  1  0.95131858  0.80676978  0.66217189  1
  S  S18  1  0.03393461  0.20342043  0.82164326  1
  S  S19  1  0.71894266  0.53914570  0.16217189  1
  S  S20  1  0.38671021  0.86593001  0.50139639  1
  S  S21  1  0.87247970  0.38560866  0.50449411  1
  S  S22  1  0.53675343  0.70060161  0.84502374  1
  S  S23  1  0.19926301  0.05337721  0.16527061  1
