# generated using pymatgen
data_Cu2NiSn3S8
_symmetry_space_group_name_H-M   'P 1'
_cell_length_a   7.31090788
_cell_length_b   7.37421784
_cell_length_c   7.31015692
_cell_angle_alpha   59.70968731
_cell_angle_beta   60.62555031
_cell_angle_gamma   90.00000000
_symmetry_Int_Tables_number   1
_chemical_formula_structural   Cu2NiSn3S8
_chemical_formula_sum   'Cu2 Ni1 Sn3 S8'
_cell_volume   280.06386956
_cell_formula_units_Z   1
loop_
 _symmetry_equiv_pos_site_id
 _symmetry_equiv_pos_as_xyz
  1  'x, y, z'
loop_
 _atom_site_type_symbol
 _atom_site_label
 _atom_site_symmetry_multiplicity
 _atom_site_fract_x
 _atom_site_fract_y
 _atom_site_fract_z
 _atom_site_occupancy
  Cu  Cu0  1  0.61786760  0.88236498  0.73527004  1
  Cu  Cu1  1  0.38213240  0.11763502  0.26472996  1
  Ni  Ni2  1  0.00000000  0.50000000  0.50000000  1
  Sn  Sn3  1  0.50000000  0.50000000  0.50000000  1
  Sn  Sn4  1  0.00000000  0.50000000  -0.00000000  1
  Sn  Sn5  1  0.00000000  -0.00000000  -0.00000000  1
  S  S6  1  0.76711914  0.26371925  0.97256151  1
  S  S7  1  0.25177749  0.24910366  0.00179269  1
  S  S8  1  0.76404627  0.26730349  0.49596114  1
  S  S9  1  0.76404627  0.73673537  0.49596114  1
  S  S10  1  0.23288086  0.73628075  0.02743849  1
  S  S11  1  0.74822251  0.75089634  0.99820731  1
  S  S12  1  0.23595373  0.73269651  0.50403886  1
  S  S13  1  0.23595373  0.26326463  0.50403886  1
