# generated using pymatgen
data_Cu2SnSe3
_symmetry_space_group_name_H-M   'P 1'
_cell_length_a   4.11580590
_cell_length_b   5.75281191
_cell_length_c   7.08207892
_cell_angle_alpha   113.96338936
_cell_angle_beta   106.89261415
_cell_angle_gamma   90.00000000
_symmetry_Int_Tables_number   1
_chemical_formula_structural   Cu2SnSe3
_chemical_formula_sum   'Cu2 Sn1 Se3'
_cell_volume   145.27845255
_cell_formula_units_Z   1
loop_
 _symmetry_equiv_pos_site_id
 _symmetry_equiv_pos_as_xyz
  1  'x, y, z'
loop_
 _atom_site_type_symbol
 _atom_site_label
 _atom_site_symmetry_multiplicity
 _atom_site_fract_x
 _atom_site_fract_y
 _atom_site_fract_z
 _atom_site_occupancy
  Cu  Cu0  1  0.00294825  0.99568103  0.00589649  1
  Cu  Cu1  1  0.66371875  0.65645154  0.32743651  1
  Sn  Sn2  1  0.33333300  0.35111908  0.66666700  1
  Se  Se3  1  0.51113575  0.77657705  0.02227150  1
  Se  Se4  1  0.15553125  0.42097255  0.31106150  1
  Se  Se5  1  0.83333300  0.04919874  0.66666700  1
