# generated using pymatgen
data_Eu2Mn3Sb3O14
_symmetry_space_group_name_H-M   'P 1'
_cell_length_a   7.35588742
_cell_length_b   7.35185896
_cell_length_c   7.27730441
_cell_angle_alpha   90.00000000
_cell_angle_beta   60.35276629
_cell_angle_gamma   120.97777496
_symmetry_Int_Tables_number   1
_chemical_formula_structural   Eu2Mn3Sb3O14
_chemical_formula_sum   'Eu2 Mn3 Sb3 O14'
_cell_volume   275.59675988
_cell_formula_units_Z   1
loop_
 _symmetry_equiv_pos_site_id
 _symmetry_equiv_pos_as_xyz
  1  'x, y, z'
loop_
 _atom_site_type_symbol
 _atom_site_label
 _atom_site_symmetry_multiplicity
 _atom_site_fract_x
 _atom_site_fract_y
 _atom_site_fract_z
 _atom_site_occupancy
  Eu  Eu0  1  0.50000000  0.50000000  -0.00000000  1
  Eu  Eu1  1  0.50000000  0.00000000  -0.00000000  1
  Mn  Mn2  1  0.00000000  0.00000000  0.50000000  1
  Mn  Mn3  1  0.00000000  0.00000000  -0.00000000  1
  Mn  Mn4  1  0.50000000  0.00000000  0.50000000  1
  Sb  Sb5  1  0.50000000  0.50000000  0.50000000  1
  Sb  Sb6  1  0.00000000  0.50000000  -0.00000000  1
  Sb  Sb7  1  0.00000000  0.50000000  0.50000000  1
  O  O8  1  0.22063097  0.10973229  0.13968451  1
  O  O9  1  0.77936903  0.89026771  0.86031549  1
  O  O10  1  0.64951502  0.82349010  0.42524249  1
  O  O11  1  0.83964528  0.41864527  0.83017736  1
  O  O12  1  0.25252782  0.82491471  0.82172177  1
  O  O13  1  0.24636758  0.42102861  0.42330092  1
  O  O14  1  0.24636758  0.42102861  0.83033150  1
  O  O15  1  0.25252782  0.82491471  0.42575042  1
  O  O16  1  0.35048498  0.17650990  0.57475751  1
  O  O17  1  0.16035472  0.58135473  0.16982264  1
  O  O18  1  0.74747218  0.17508529  0.17827823  1
  O  O19  1  0.75363242  0.57897139  0.57669908  1
  O  O20  1  0.75363242  0.57897139  0.16966850  1
  O  O21  1  0.74747218  0.17508529  0.57424958  1
