# generated using pymatgen
data_BiSbWO6
_symmetry_space_group_name_H-M   'P 1'
_cell_length_a   5.43845485
_cell_length_b   5.50072731
_cell_length_c   8.99978620
_cell_angle_alpha   72.20553848
_cell_angle_beta   89.23087839
_cell_angle_gamma   90.00000000
_symmetry_Int_Tables_number   1
_chemical_formula_structural   BiSbWO6
_chemical_formula_sum   'Bi2 Sb2 W2 O12'
_cell_volume   256.32686345
_cell_formula_units_Z   2
loop_
 _symmetry_equiv_pos_site_id
 _symmetry_equiv_pos_as_xyz
  1  'x, y, z'
loop_
 _atom_site_type_symbol
 _atom_site_label
 _atom_site_symmetry_multiplicity
 _atom_site_fract_x
 _atom_site_fract_y
 _atom_site_fract_z
 _atom_site_occupancy
  Bi  Bi0  1  0.97230782  0.37177840  0.34234497  1
  Bi  Bi1  1  0.02769218  0.71412336  0.65765503  1
  Sb  Sb2  1  0.54379682  0.86727893  0.35487293  1
  Sb  Sb3  1  0.45620318  0.22215186  0.64512707  1
  W  W4  1  0.50000000  0.47328674  0.00000000  1
  W  W5  1  0.00000000  0.97440865  0.00000000  1
  O  O6  1  0.78101642  0.00209558  0.48527831  1
  O  O7  1  0.21898358  0.48737389  0.51472169  1
  O  O8  1  0.71092439  0.50838899  0.49253471  1
  O  O9  1  0.28907561  0.00092370  0.50746529  1
  O  O10  1  0.75198819  0.72048886  0.95408211  1
  O  O11  1  0.24801181  0.67457097  0.04591789  1
  O  O12  1  0.75345149  0.22266439  0.95611076  1
  O  O13  1  0.24654851  0.17877516  0.04388924  1
  O  O14  1  0.59026986  0.31929890  0.21365679  1
  O  O15  1  0.40973014  0.53295569  0.78634321  1
  O  O16  1  0.90161300  0.82529903  0.21523789  1
  O  O17  1  0.09838700  0.04053692  0.78476211  1
