# generated using pymatgen
data_CdInAgTe3
_symmetry_space_group_name_H-M   'P 1'
_cell_length_a   4.64715297
_cell_length_b   6.60724493
_cell_length_c   8.07006767
_cell_angle_alpha   65.79664784
_cell_angle_beta   73.26620897
_cell_angle_gamma   90.00000000
_symmetry_Int_Tables_number   1
_chemical_formula_structural   CdInAgTe3
_chemical_formula_sum   'Cd1 In1 Ag1 Te3'
_cell_volume   214.45233395
_cell_formula_units_Z   1
loop_
 _symmetry_equiv_pos_site_id
 _symmetry_equiv_pos_as_xyz
  1  'x, y, z'
loop_
 _atom_site_type_symbol
 _atom_site_label
 _atom_site_symmetry_multiplicity
 _atom_site_fract_x
 _atom_site_fract_y
 _atom_site_fract_z
 _atom_site_occupancy
  Cd  Cd0  1  0.33584798  0.33608163  0.32830304  1
  In  In1  1  0.66485622  0.67443712  0.67028857  1
  Ag  Ag2  1  0.99936552  0.99332651  0.00126896  1
  Te  Te3  1  0.50040081  0.75520457  0.99919838  1
  Te  Te4  1  0.83545568  0.08016106  0.32908765  1
  Te  Te5  1  0.16407380  0.41078911  0.67185341  1
