# generated using pymatgen
data_BiSbPt2
_symmetry_space_group_name_H-M   'P 1'
_cell_length_a   4.31589024
_cell_length_b   4.31589024
_cell_length_c   5.60110954
_cell_angle_alpha   90.00000000
_cell_angle_beta   90.00000000
_cell_angle_gamma   120.02712450
_symmetry_Int_Tables_number   1
_chemical_formula_structural   BiSbPt2
_chemical_formula_sum   'Bi1 Sb1 Pt2'
_cell_volume   90.32889802
_cell_formula_units_Z   1
loop_
 _symmetry_equiv_pos_site_id
 _symmetry_equiv_pos_as_xyz
  1  'x, y, z'
loop_
 _atom_site_type_symbol
 _atom_site_label
 _atom_site_symmetry_multiplicity
 _atom_site_fract_x
 _atom_site_fract_y
 _atom_site_fract_z
 _atom_site_occupancy
  Bi  Bi0  1  0.33326735  0.66673265  0.25000000  1
  Sb  Sb1  1  0.66674036  0.33325964  0.75000000  1
  Pt  Pt2  1  0.99999615  0.00000385  0.50543569  1
  Pt  Pt3  1  0.99999615  0.00000385  0.99456431  1
