# generated using pymatgen
data_Ce2Ge3Rh
_symmetry_space_group_name_H-M   'P 1'
_cell_length_a   4.07788031
_cell_length_b   4.28112306
_cell_length_c   8.03464058
_cell_angle_alpha   74.54885631
_cell_angle_beta   75.29936398
_cell_angle_gamma   90.00000000
_symmetry_Int_Tables_number   1
_chemical_formula_structural   Ce2Ge3Rh
_chemical_formula_sum   'Ce2 Ge3 Rh1'
_cell_volume   130.42840927
_cell_formula_units_Z   1
loop_
 _symmetry_equiv_pos_site_id
 _symmetry_equiv_pos_as_xyz
  1  'x, y, z'
loop_
 _atom_site_type_symbol
 _atom_site_label
 _atom_site_symmetry_multiplicity
 _atom_site_fract_x
 _atom_site_fract_y
 _atom_site_fract_z
 _atom_site_occupancy
  Ce  Ce0  1  0.87706909  0.62706909  0.24586182  1
  Ce  Ce1  1  0.12132129  0.37132129  0.75735741  1
  Ge  Ge2  1  0.29618779  0.04618779  0.40762442  1
  Ge  Ge3  1  0.46081527  0.21081527  0.07836946  1
  Ge  Ge4  1  0.70361234  0.95361234  0.59277532  1
  Rh  Rh5  1  0.54099421  0.79099421  0.91801158  1
