# generated using pymatgen
data_Ca4Zn51
_symmetry_space_group_name_H-M   'P 1'
_cell_length_a   8.65611677
_cell_length_b   8.65611677
_cell_length_c   14.87655649
_cell_angle_alpha   73.08627295
_cell_angle_beta   90.00000000
_cell_angle_gamma   120.00000003
_symmetry_Int_Tables_number   1
_chemical_formula_structural   Ca4Zn51
_chemical_formula_sum   'Ca4 Zn51'
_cell_volume   909.23598655
_cell_formula_units_Z   1
loop_
 _symmetry_equiv_pos_site_id
 _symmetry_equiv_pos_as_xyz
  1  'x, y, z'
loop_
 _atom_site_type_symbol
 _atom_site_label
 _atom_site_symmetry_multiplicity
 _atom_site_fract_x
 _atom_site_fract_y
 _atom_site_fract_z
 _atom_site_occupancy
  Ca  Ca0  1  0.87500483  0.75000965  0.37498552  1
  Ca  Ca1  1  0.37450774  0.74901549  0.87647677  1
  Ca  Ca2  1  0.62499517  0.24999035  0.12501448  1
  Ca  Ca3  1  0.12549226  0.25098451  0.62352323  1
  Zn  Zn4  1  0.66727220  0.93768596  0.03007022  1
  Zn  Zn5  1  0.16877701  0.94024026  0.52861948  1
  Zn  Zn6  1  0.71107266  0.30253201  0.34831819  1
  Zn  Zn7  1  0.21056903  0.30047923  0.84988250  1
  Zn  Zn8  1  0.83272780  0.06231404  0.46992978  1
  Zn  Zn9  1  0.33122299  0.05975974  0.97138052  1
  Zn  Zn10  1  0.78892734  0.69746799  0.15168181  1
  Zn  Zn11  1  0.28943097  0.69952077  0.65011750  1
  Zn  Zn12  1  0.28138522  0.79417075  0.27895730  1
  Zn  Zn13  1  0.78262899  0.80300223  0.77938388  1
  Zn  Zn14  1  0.10489682  0.44075029  0.10353909  1
  Zn  Zn15  1  0.59881154  0.44073977  0.59837978  1
  Zn  Zn16  1  0.39510318  0.55924971  0.39646091  1
  Zn  Zn17  1  0.90118846  0.55926023  0.90162022  1
  Zn  Zn18  1  0.21861478  0.20582925  0.22104270  1
  Zn  Zn19  1  0.71737101  0.19699777  0.72061612  1
  Zn  Zn20  1  0.34914979  0.06022245  0.34831819  1
  Zn  Zn21  1  0.84963827  0.06020730  0.84988250  1
  Zn  Zn22  1  0.03224382  0.69951602  0.03007022  1
  Zn  Zn23  1  0.53114026  0.69991727  0.52861948  1
  Zn  Zn24  1  0.15085021  0.93977755  0.15168181  1
  Zn  Zn25  1  0.65036173  0.93979270  0.65011750  1
  Zn  Zn26  1  0.46775618  0.30048398  0.46992978  1
  Zn  Zn27  1  0.96885974  0.30008273  0.97138052  1
  Zn  Zn28  1  0.45571061  0.56060744  0.10353909  1
  Zn  Zn29  1  0.96088045  0.55969199  0.59837978  1
  Zn  Zn30  1  0.92687195  0.20825717  0.27895730  1
  Zn  Zn31  1  0.41761388  0.20024287  0.77938388  1
  Zn  Zn32  1  0.57312805  0.79174283  0.22104270  1
  Zn  Zn33  1  0.08238612  0.79975713  0.72061612  1
  Zn  Zn34  1  0.04428939  0.43939256  0.39646091  1
  Zn  Zn35  1  0.53911955  0.44030801  0.90162022  1
  Zn  Zn36  1  0.22958623  0.69734241  0.46992978  1
  Zn  Zn37  1  0.72853675  0.69739649  0.97138052  1
  Zn  Zn38  1  0.90854064  0.05939085  0.15168181  1
  Zn  Zn39  1  0.41008980  0.06045153  0.65011750  1
  Zn  Zn40  1  0.27041377  0.30265759  0.03007022  1
  Zn  Zn41  1  0.77146325  0.30260351  0.52861948  1
  Zn  Zn42  1  0.59145936  0.94060915  0.34831819  1
  Zn  Zn43  1  0.08991020  0.93954847  0.84988250  1
  Zn  Zn44  1  0.16414653  0.20843592  0.39646091  1
  Zn  Zn45  1  0.65807177  0.19719132  0.90162022  1
  Zn  Zn46  1  0.98721447  0.56034251  0.22104270  1
  Zn  Zn47  1  0.47962675  0.56201287  0.72061612  1
  Zn  Zn48  1  0.51278553  0.43965749  0.27895730  1
  Zn  Zn49  1  0.02037325  0.43798713  0.77938388  1
  Zn  Zn50  1  0.33585347  0.79156408  0.10353909  1
  Zn  Zn51  1  0.84192823  0.80280868  0.59837978  1
  Zn  Zn52  1  0.75000000  0.50000000  0.75000000  1
  Zn  Zn53  1  0.99985919  0.99971838  0.00042243  1
  Zn  Zn54  1  0.50014081  0.00028162  0.49957757  1
