# generated using pymatgen
data_CaYb3
_symmetry_space_group_name_H-M   'P 1'
_cell_length_a   5.47767336
_cell_length_b   5.54908778
_cell_length_c   6.61952896
_cell_angle_alpha   65.21937248
_cell_angle_beta   65.55930592
_cell_angle_gamma   90.00000000
_symmetry_Int_Tables_number   1
_chemical_formula_structural   CaYb3
_chemical_formula_sum   'Ca1 Yb3'
_cell_volume   162.60869038
_cell_formula_units_Z   1
loop_
 _symmetry_equiv_pos_site_id
 _symmetry_equiv_pos_as_xyz
  1  'x, y, z'
loop_
 _atom_site_type_symbol
 _atom_site_label
 _atom_site_symmetry_multiplicity
 _atom_site_fract_x
 _atom_site_fract_y
 _atom_site_fract_z
 _atom_site_occupancy
  Ca  Ca0  1  -0.00000000  0.00000000  -0.00000000  1
  Yb  Yb1  1  0.75013204  0.25013204  0.49973591  1
  Yb  Yb2  1  0.50000000  0.50000000  -0.00000000  1
  Yb  Yb3  1  0.24986796  0.74986796  0.50026409  1
