# generated using pymatgen
data_Cd5Si(PO6)2
_symmetry_space_group_name_H-M   'P 1'
_cell_length_a   6.83631287
_cell_length_b   10.32214074
_cell_length_c   15.17565792
_cell_angle_alpha   90.00000000
_cell_angle_beta   90.00000000
_cell_angle_gamma   90.00000000
_symmetry_Int_Tables_number   1
_chemical_formula_structural   Cd5Si(PO6)2
_chemical_formula_sum   'Cd20 Si4 P8 O48'
_cell_volume   1070.87612231
_cell_formula_units_Z   4
loop_
 _symmetry_equiv_pos_site_id
 _symmetry_equiv_pos_as_xyz
  1  'x, y, z'
loop_
 _atom_site_type_symbol
 _atom_site_label
 _atom_site_symmetry_multiplicity
 _atom_site_fract_x
 _atom_site_fract_y
 _atom_site_fract_z
 _atom_site_occupancy
  Cd  Cd0  1  0.44820817  0.71729477  0.74755945  1
  Cd  Cd1  1  0.94820817  0.78270523  0.75244055  1
  Cd  Cd2  1  0.55179183  0.28270523  0.24755945  1
  Cd  Cd3  1  0.05179183  0.21729477  0.25244055  1
  Cd  Cd4  1  0.14408217  0.56040876  0.91171809  1
  Cd  Cd5  1  0.64408217  0.93959124  0.58828191  1
  Cd  Cd6  1  0.85591783  0.43959124  0.41171809  1
  Cd  Cd7  1  0.35591783  0.06040876  0.08828191  1
  Cd  Cd8  1  0.85469919  0.44818211  0.09143036  1
  Cd  Cd9  1  0.35469919  0.05181789  0.40856964  1
  Cd  Cd10  1  0.14530081  0.55181789  0.59143036  1
  Cd  Cd11  1  0.64530081  0.94818211  0.90856964  1
  Cd  Cd12  1  0.33523194  0.66033154  0.10796647  1
  Cd  Cd13  1  0.83523194  0.83966846  0.39203353  1
  Cd  Cd14  1  0.66476806  0.33966846  0.60796647  1
  Cd  Cd15  1  0.16476806  0.16033154  0.89203353  1
  Cd  Cd16  1  0.64908577  0.33606304  0.89145844  1
  Cd  Cd17  1  0.14908577  0.16393696  0.60854156  1
  Cd  Cd18  1  0.35091423  0.66393696  0.39145844  1
  Cd  Cd19  1  0.85091423  0.83606304  0.10854156  1
  Si  Si20  1  0.14780646  0.86701694  0.92850417  1
  Si  Si21  1  0.64780646  0.63298306  0.57149583  1
  Si  Si22  1  0.85219354  0.13298306  0.42850417  1
  Si  Si23  1  0.35219354  0.36701694  0.07149583  1
  P  P24  1  0.49340901  0.08719024  0.74777265  1
  P  P25  1  0.99340901  0.41280976  0.75222735  1
  P  P26  1  0.50659099  0.91280976  0.24777265  1
  P  P27  1  0.00659099  0.58719024  0.25222735  1
  P  P28  1  0.85390371  0.13195896  0.07159535  1
  P  P29  1  0.35390371  0.36804104  0.42840465  1
  P  P30  1  0.14609629  0.86804104  0.57159535  1
  P  P31  1  0.64609629  0.63195896  0.92840465  1
  O  O32  1  0.20844410  0.76257212  0.84875475  1
  O  O33  1  0.70844410  0.73742788  0.65124525  1
  O  O34  1  0.79155590  0.23742788  0.34875475  1
  O  O35  1  0.29155590  0.26257212  0.15124525  1
  O  O36  1  0.79423364  0.22952518  0.14632032  1
  O  O37  1  0.29423364  0.27047482  0.35367968  1
  O  O38  1  0.20576636  0.77047482  0.64632032  1
  O  O39  1  0.70576636  0.72952518  0.85367968  1
  O  O40  1  0.32571124  0.97293725  0.94946302  1
  O  O41  1  0.82571124  0.52706275  0.55053698  1
  O  O42  1  0.67428876  0.02706275  0.44946302  1
  O  O43  1  0.17428876  0.47293725  0.05053698  1
  O  O44  1  0.68447164  0.03241370  0.05306697  1
  O  O45  1  0.18447164  0.46758630  0.44693303  1
  O  O46  1  0.31552836  0.96758630  0.55306697  1
  O  O47  1  0.81552836  0.53241370  0.94693303  1
  O  O48  1  0.09574441  0.77736232  0.01518634  1
  O  O49  1  0.59574441  0.72263768  0.48481366  1
  O  O50  1  0.90425559  0.22263768  0.51518634  1
  O  O51  1  0.40425559  0.27736232  0.98481366  1
  O  O52  1  0.90425967  0.21461720  0.98954579  1
  O  O53  1  0.40425967  0.28538280  0.51045421  1
  O  O54  1  0.09574033  0.78538280  0.48954579  1
  O  O55  1  0.59574033  0.71461720  0.01045421  1
  O  O56  1  0.26779724  0.10996499  0.74777481  1
  O  O57  1  0.76779724  0.39003501  0.75222519  1
  O  O58  1  0.73220276  0.89003501  0.24777481  1
  O  O59  1  0.23220276  0.60996499  0.25222519  1
  O  O60  1  0.96787250  0.95529293  0.88708188  1
  O  O61  1  0.46787250  0.54470707  0.61291812  1
  O  O62  1  0.03212750  0.04470707  0.38708188  1
  O  O63  1  0.53212750  0.45529293  0.11291812  1
  O  O64  1  0.02416786  0.04757988  0.10796487  1
  O  O65  1  0.52416786  0.45242012  0.39203513  1
  O  O66  1  0.97583214  0.95242012  0.60796487  1
  O  O67  1  0.47583214  0.54757988  0.89203513  1
  O  O68  1  0.58327990  0.14410192  0.83316896  1
  O  O69  1  0.08327990  0.35589808  0.66683104  1
  O  O70  1  0.41672010  0.85589808  0.33316896  1
  O  O71  1  0.91672010  0.64410192  0.16683104  1
  O  O72  1  0.41788235  0.85724565  0.16120673  1
  O  O73  1  0.91788235  0.64275435  0.33879327  1
  O  O74  1  0.58211765  0.14275435  0.66120673  1
  O  O75  1  0.08211765  0.35724565  0.83879327  1
  O  O76  1  0.54720127  0.94009979  0.74964917  1
  O  O77  1  0.04720127  0.55990021  0.75035083  1
  O  O78  1  0.45279873  0.05990021  0.24964917  1
  O  O79  1  0.95279873  0.44009979  0.25035083  1
