# generated using pymatgen
data_Ca4GaSn3
_symmetry_space_group_name_H-M   'P 1'
_cell_length_a   4.41692087
_cell_length_b   4.72347506
_cell_length_c   11.41759062
_cell_angle_alpha   90.00000000
_cell_angle_beta   90.00000000
_cell_angle_gamma   90.00000000
_symmetry_Int_Tables_number   1
_chemical_formula_structural   Ca4GaSn3
_chemical_formula_sum   'Ca4 Ga1 Sn3'
_cell_volume   238.20765441
_cell_formula_units_Z   1
loop_
 _symmetry_equiv_pos_site_id
 _symmetry_equiv_pos_as_xyz
  1  'x, y, z'
loop_
 _atom_site_type_symbol
 _atom_site_label
 _atom_site_symmetry_multiplicity
 _atom_site_fract_x
 _atom_site_fract_y
 _atom_site_fract_z
 _atom_site_occupancy
  Ca  Ca0  1  0.25000000  -0.00000000  0.36075071  1
  Ca  Ca1  1  0.25000000  0.50000000  0.86731890  1
  Ca  Ca2  1  0.75000000  0.50000000  0.13278453  1
  Ca  Ca3  1  0.75000000  -0.00000000  0.63636817  1
  Ga  Ga4  1  0.25000000  -0.00000000  0.07962099  1
  Sn  Sn5  1  0.25000000  0.50000000  0.58356394  1
  Sn  Sn6  1  0.75000000  0.50000000  0.41574231  1
  Sn  Sn7  1  0.75000000  0.00000000  0.92385044  1
