# generated using pymatgen
data_LaMgVFeO6
_symmetry_space_group_name_H-M   'P 1'
_cell_length_a   5.47827887
_cell_length_b   5.36637359
_cell_length_c   7.75401524
_cell_angle_alpha   89.92641095
_cell_angle_beta   90.00000000
_cell_angle_gamma   90.00000000
_symmetry_Int_Tables_number   1
_chemical_formula_structural   LaMgVFeO6
_chemical_formula_sum   'La2 Mg2 V2 Fe2 O12'
_cell_volume   227.95615956
_cell_formula_units_Z   2
loop_
 _symmetry_equiv_pos_site_id
 _symmetry_equiv_pos_as_xyz
  1  'x, y, z'
loop_
 _atom_site_type_symbol
 _atom_site_label
 _atom_site_symmetry_multiplicity
 _atom_site_fract_x
 _atom_site_fract_y
 _atom_site_fract_z
 _atom_site_occupancy
  La  La0  1  0.04092446  0.99400458  0.24955981  1
  La  La1  1  0.45907554  0.49400458  0.74955981  1
  Mg  Mg2  1  0.55478294  0.52480505  0.25505444  1
  Mg  Mg3  1  0.94521706  0.02480505  0.75505444  1
  V  V4  1  0.50576594  0.00164350  0.49926040  1
  V  V5  1  0.99423406  0.50164350  0.99926040  1
  Fe  Fe6  1  0.49960008  0.00161222  0.00102231  1
  Fe  Fe7  1  0.00039992  0.50161222  0.50102231  1
  O  O8  1  0.02066460  0.63289027  0.75163335  1
  O  O9  1  0.19680045  0.18925074  0.94063586  1
  O  O10  1  0.20727014  0.18040311  0.55875397  1
  O  O11  1  0.29272986  0.68040311  0.05875397  1
  O  O12  1  0.30319955  0.68925074  0.44063586  1
  O  O13  1  0.47933540  0.13289027  0.25163235  1
  O  O14  1  0.54736500  0.92077061  0.74721327  1
  O  O15  1  0.72472812  0.27275872  0.55417999  1
  O  O16  1  0.73767096  0.28186022  0.94268561  1
  O  O17  1  0.76232904  0.78186022  0.44268561  1
  O  O18  1  0.77527188  0.77275872  0.05417999  1
  O  O19  1  0.95263500  0.42077061  0.24721327  1
