# generated using pymatgen
data_Ca3HoMn4O12
_symmetry_space_group_name_H-M   'P 1'
_cell_length_a   5.34741408
_cell_length_b   5.46762965
_cell_length_c   7.57885726
_cell_angle_alpha   90.00000000
_cell_angle_beta   90.00000000
_cell_angle_gamma   90.01825420
_symmetry_Int_Tables_number   1
_chemical_formula_structural   Ca3HoMn4O12
_chemical_formula_sum   'Ca3 Ho1 Mn4 O12'
_cell_volume   221.58819033
_cell_formula_units_Z   1
loop_
 _symmetry_equiv_pos_site_id
 _symmetry_equiv_pos_as_xyz
  1  'x, y, z'
loop_
 _atom_site_type_symbol
 _atom_site_label
 _atom_site_symmetry_multiplicity
 _atom_site_fract_x
 _atom_site_fract_y
 _atom_site_fract_z
 _atom_site_occupancy
  Ca  Ca0  1  0.99114108  0.04920803  0.25000000  1
  Ca  Ca1  1  0.49108046  0.45508439  0.75000000  1
  Ca  Ca2  1  0.01004710  0.95256507  0.75000000  1
  Ho  Ho3  1  0.51294254  0.56076891  0.25000000  1
  Mn  Mn4  1  0.00204016  0.49914449  0.99911765  1
  Mn  Mn5  1  0.49821789  0.00385674  0.50110918  1
  Mn  Mn6  1  0.00204016  0.49914449  0.50088235  1
  Mn  Mn7  1  0.49821789  0.00385674  0.99889082  1
  O  O8  1  0.41920700  0.97283173  0.25000000  1
  O  O9  1  0.09420537  0.47970048  0.25000000  1
  O  O10  1  0.58221858  0.02341122  0.75000000  1
  O  O11  1  0.92105743  0.52457061  0.75000000  1
  O  O12  1  0.78638738  0.78467505  0.05032456  1
  O  O13  1  0.70040992  0.29793546  0.45104087  1
  O  O14  1  0.20121176  0.20369906  0.54036059  1
  O  O15  1  0.30078311  0.70161898  0.96556638  1
  O  O16  1  0.20121176  0.20369906  0.95963941  1
  O  O17  1  0.30078311  0.70161898  0.53443362  1
  O  O18  1  0.78638738  0.78467505  0.44967544  1
  O  O19  1  0.70040992  0.29793546  0.04895913  1
