# generated using pymatgen
data_BaSr2Er6O12
_symmetry_space_group_name_H-M   'P 1'
_cell_length_a   3.41831470
_cell_length_b   10.30823501
_cell_length_c   10.30812835
_cell_angle_alpha   119.99856727
_cell_angle_beta   90.00000000
_cell_angle_gamma   90.00000000
_symmetry_Int_Tables_number   1
_chemical_formula_structural   BaSr2Er6O12
_chemical_formula_sum   'Ba1 Sr2 Er6 O12'
_cell_volume   314.56693641
_cell_formula_units_Z   1
loop_
 _symmetry_equiv_pos_site_id
 _symmetry_equiv_pos_as_xyz
  1  'x, y, z'
loop_
 _atom_site_type_symbol
 _atom_site_label
 _atom_site_symmetry_multiplicity
 _atom_site_fract_x
 _atom_site_fract_y
 _atom_site_fract_z
 _atom_site_occupancy
  Ba  Ba0  1  0.75000000  0.00000675  0.00000815  1
  Sr  Sr1  1  0.75000000  0.66670367  0.33335156  1
  Sr  Sr2  1  0.25000000  0.33331546  0.66665699  1
  Er  Er3  1  0.25000000  0.34628147  0.00003596  1
  Er  Er4  1  0.25000000  -0.00002878  0.34625419  1
  Er  Er5  1  0.25000000  0.65374903  0.65371676  1
  Er  Er6  1  0.75000000  0.65115493  0.00047147  1
  Er  Er7  1  0.75000000  0.99952604  0.65069641  1
  Er  Er8  1  0.75000000  0.34930833  0.34883666  1
  O  O9  1  0.75000000  0.30532512  0.11277531  1
  O  O10  1  0.75000000  0.88721366  0.19256278  1
  O  O11  1  0.75000000  0.80744463  0.69465988  1
  O  O12  1  0.25000000  0.70944944  0.89461916  1
  O  O13  1  0.25000000  0.10537760  0.81482009  1
  O  O14  1  0.25000000  0.18517428  0.29054883  1
  O  O15  1  0.75000000  0.39593926  0.87432373  1
  O  O16  1  0.75000000  0.12566745  0.52160822  1
  O  O17  1  0.75000000  0.47838153  0.60405274  1
  O  O18  1  0.25000000  0.60209146  0.12321739  1
  O  O19  1  0.25000000  0.87678781  0.47887506  1
  O  O20  1  0.25000000  0.52113086  0.39790864  1
