# generated using pymatgen
data_BaH3IO6
_symmetry_space_group_name_H-M   'P 1'
_cell_length_a   5.12217160
_cell_length_b   5.07693760
_cell_length_c   5.08668051
_cell_angle_alpha   96.04896728
_cell_angle_beta   97.99410392
_cell_angle_gamma   99.96933956
_symmetry_Int_Tables_number   1
_chemical_formula_structural   BaH3IO6
_chemical_formula_sum   'Ba1 H3 I1 O6'
_cell_volume   127.87400215
_cell_formula_units_Z   1
loop_
 _symmetry_equiv_pos_site_id
 _symmetry_equiv_pos_as_xyz
  1  'x, y, z'
loop_
 _atom_site_type_symbol
 _atom_site_label
 _atom_site_symmetry_multiplicity
 _atom_site_fract_x
 _atom_site_fract_y
 _atom_site_fract_z
 _atom_site_occupancy
  Ba  Ba0  1  0.00351412  0.00224797  0.00297912  1
  H  H1  1  0.38162237  0.64979144  0.94294341  1
  H  H2  1  0.93510564  0.39902458  0.64636790  1
  H  H3  1  0.61206593  0.06248305  0.35387371  1
  I  I4  1  0.48808026  0.50777594  0.48821163  1
  O  O5  1  0.43926004  0.75879086  0.79528961  1
  O  O6  1  0.78438552  0.42036435  0.74991090  1
  O  O7  1  0.74824428  0.78949601  0.42814978  1
  O  O8  1  0.22352703  0.25576919  0.58410433  1
  O  O9  1  0.24826269  0.57085460  0.20299764  1
  O  O10  1  0.57593213  0.21340202  0.24517196  1
