# generated using pymatgen
data_BaSrCaWO6
_symmetry_space_group_name_H-M   'P 1'
_cell_length_a   5.93057079
_cell_length_b   5.93057079
_cell_length_c   5.97901194
_cell_angle_alpha   60.34916691
_cell_angle_beta   89.65274958
_cell_angle_gamma   119.67871482
_symmetry_Int_Tables_number   1
_chemical_formula_structural   BaSrCaWO6
_chemical_formula_sum   'Ba1 Sr1 Ca1 W1 O6'
_cell_volume   149.74986536
_cell_formula_units_Z   1
loop_
 _symmetry_equiv_pos_site_id
 _symmetry_equiv_pos_as_xyz
  1  'x, y, z'
loop_
 _atom_site_type_symbol
 _atom_site_label
 _atom_site_symmetry_multiplicity
 _atom_site_fract_x
 _atom_site_fract_y
 _atom_site_fract_z
 _atom_site_occupancy
  Ba  Ba0  1  0.24943117  0.99667611  0.75389272  1
  Sr  Sr1  1  0.75208773  0.01600351  0.23190875  1
  Ca  Ca2  1  0.99910293  0.50095086  0.49994621  1
  W  W3  1  0.49974156  0.49944976  0.00080868  1
  O  O4  1  0.21985586  0.47547344  0.82280452  1
  O  O5  1  0.31739739  0.04013390  0.19635372  1
  O  O6  1  0.76351238  0.48624889  0.19635372  1
  O  O7  1  0.70172204  0.95733962  0.82280452  1
  O  O8  1  0.72537974  0.58607528  0.68854498  1
  O  O9  1  0.27176919  0.44164863  0.28658218  1
