# generated using pymatgen
data_Ba3Mn2RuO9
_symmetry_space_group_name_H-M   'P 1'
_cell_length_a   5.83281647
_cell_length_b   5.83281628
_cell_length_c   8.02045414
_cell_angle_alpha   89.99999996
_cell_angle_beta   68.67723795
_cell_angle_gamma   120.00000438
_symmetry_Int_Tables_number   1
_chemical_formula_structural   Ba3Mn2RuO9
_chemical_formula_sum   'Ba3 Mn2 Ru1 O9'
_cell_volume   214.47283866
_cell_formula_units_Z   1
loop_
 _symmetry_equiv_pos_site_id
 _symmetry_equiv_pos_as_xyz
  1  'x, y, z'
loop_
 _atom_site_type_symbol
 _atom_site_label
 _atom_site_symmetry_multiplicity
 _atom_site_fract_x
 _atom_site_fract_y
 _atom_site_fract_z
 _atom_site_occupancy
  Ba  Ba0  1  0.99670835  0.99835417  0.00493748  1
  Ba  Ba1  1  0.43431993  0.21715996  0.34852011  1
  Ba  Ba2  1  0.56591135  0.78295568  0.65113297  1
  Mn  Mn3  1  0.23681352  0.61840676  0.14477972  1
  Mn  Mn4  1  0.00199270  0.50099635  0.49701094  1
  Ru  Ru5  1  0.76308984  0.38154492  0.85536524  1
  O  O6  1  0.96128043  0.70463370  0.33408587  1
  O  O7  1  0.40926739  0.70463370  0.33408587  1
  O  O8  1  0.96128043  0.25664674  0.33408587  1
  O  O9  1  0.03638794  0.29438017  0.66923189  1
  O  O10  1  0.58876035  0.29438017  0.66923189  1
  O  O11  1  0.03638794  0.74200776  0.66923189  1
  O  O12  1  0.99891932  0.49945966  0.99610008  1
  O  O13  1  0.50444026  0.00498060  0.99610008  1
  O  O14  1  0.50444026  0.49945966  0.99610008  1
