# generated using pymatgen
data_Ba8Y4Cu(WO8)3
_symmetry_space_group_name_H-M   'P 1'
_cell_length_a   8.49438812
_cell_length_b   8.49438812
_cell_length_c   10.53162503
_cell_angle_alpha   66.21661342
_cell_angle_beta   66.21661342
_cell_angle_gamma   90.00000000
_symmetry_Int_Tables_number   1
_chemical_formula_structural   Ba8Y4Cu(WO8)3
_chemical_formula_sum   'Ba8 Y4 Cu1 W3 O24'
_cell_volume   624.20143983
_cell_formula_units_Z   1
loop_
 _symmetry_equiv_pos_site_id
 _symmetry_equiv_pos_as_xyz
  1  'x, y, z'
loop_
 _atom_site_type_symbol
 _atom_site_label
 _atom_site_symmetry_multiplicity
 _atom_site_fract_x
 _atom_site_fract_y
 _atom_site_fract_z
 _atom_site_occupancy
  Ba  Ba0  1  0.34904115  0.34904115  0.76420980  1
  Ba  Ba1  1  0.65095885  0.11325095  0.23579020  1
  Ba  Ba2  1  0.88674905  0.88674905  0.76420980  1
  Ba  Ba3  1  0.11325095  0.65095885  0.23579020  1
  Ba  Ba4  1  0.65095885  0.65095885  0.23579020  1
  Ba  Ba5  1  0.88674905  0.34904115  0.76420980  1
  Ba  Ba6  1  0.11325095  0.11325095  0.23579020  1
  Ba  Ba7  1  0.34904115  0.88674905  0.76420980  1
  Y  Y8  1  0.50000000  -0.00000000  0.00000000  1
  Y  Y9  1  0.74298485  0.74298485  0.51403030  1
  Y  Y10  1  -0.00000000  0.50000000  0.00000000  1
  Y  Y11  1  0.25701515  0.25701515  0.48596970  1
  Cu  Cu12  1  -0.00000000  -0.00000000  0.00000000  1
  W  W13  1  0.25000000  0.75000000  0.50000000  1
  W  W14  1  0.50000000  0.50000000  0.00000000  1
  W  W15  1  0.75000000  0.25000000  0.50000000  1
  O  O16  1  0.24373958  0.00000000  1.00000000  1
  O  O17  1  0.47832176  0.74827694  0.50344611  1
  O  O18  1  0.73204509  0.50000000  0.00000000  1
  O  O19  1  0.98176787  0.25172306  0.49655389  1
  O  O20  1  0.36491026  0.86491026  0.27017949  1
  O  O21  1  0.61219903  0.61219903  0.77560194  1
  O  O22  1  0.86491026  0.36491026  0.27017949  1
  O  O23  1  0.13427960  0.13427960  0.73144080  1
  O  O24  1  0.50000000  0.73204509  0.00000000  1
  O  O25  1  0.74827694  0.47832176  0.50344611  1
  O  O26  1  0.00000000  0.24373958  1.00000000  1
  O  O27  1  0.25172306  0.98176787  0.49655389  1
  O  O28  1  0.75626042  1.00000000  0.00000000  1
  O  O29  1  0.01823213  0.74827694  0.50344611  1
  O  O30  1  0.26795491  0.50000000  1.00000000  1
  O  O31  1  0.52167824  0.25172306  0.49655389  1
  O  O32  1  0.63508974  0.13508974  0.72982051  1
  O  O33  1  0.86572040  0.86572040  0.26855920  1
  O  O34  1  0.13508974  0.63508974  0.72982051  1
  O  O35  1  0.38780097  0.38780097  0.22439806  1
  O  O36  1  0.50000000  0.26795491  1.00000000  1
  O  O37  1  0.74827694  0.01823213  0.50344611  1
  O  O38  1  1.00000000  0.75626042  0.00000000  1
  O  O39  1  0.25172306  0.52167824  0.49655389  1
