# generated using pymatgen
data_Ca3Ga2(Ge2O7)2
_symmetry_space_group_name_H-M   'P 1'
_cell_length_a   5.02832166
_cell_length_b   8.18069287
_cell_length_c   8.18457443
_cell_angle_alpha   120.01570026
_cell_angle_beta   90.00000006
_cell_angle_gamma   89.47443617
_symmetry_Int_Tables_number   1
_chemical_formula_structural   Ca3Ga2(Ge2O7)2
_chemical_formula_sum   'Ca3 Ga2 Ge4 O14'
_cell_volume   291.50551452
_cell_formula_units_Z   1
loop_
 _symmetry_equiv_pos_site_id
 _symmetry_equiv_pos_as_xyz
  1  'x, y, z'
loop_
 _atom_site_type_symbol
 _atom_site_label
 _atom_site_symmetry_multiplicity
 _atom_site_fract_x
 _atom_site_fract_y
 _atom_site_fract_z
 _atom_site_occupancy
  Ca  Ca0  1  0.99919574  0.57686672  0.57948120  1
  Ca  Ca1  1  0.00080426  0.42313328  0.00261448  1
  Ca  Ca2  1  1.00000000  1.00000000  0.41490962  1
  Ga  Ga3  1  0.50509639  0.23584273  0.23752805  1
  Ga  Ga4  1  0.49490361  0.76415727  0.00168532  1
  Ge  Ge5  1  0.50000000  1.00000000  0.76052581  1
  Ge  Ge6  1  0.00000000  0.00000000  0.00582574  1
  Ge  Ge7  1  0.53090245  0.33573693  0.66797351  1
  Ge  Ge8  1  0.46909755  0.66426307  0.33223658  1
  O  O9  1  0.75829381  0.86280652  0.78024737  1
  O  O10  1  0.77404702  0.21227861  0.07090575  1
  O  O11  1  0.76917869  0.92299393  0.13767097  1
  O  O12  1  0.24170619  0.13719348  0.91744085  1
  O  O13  1  0.23082131  0.07700607  0.21467704  1
  O  O14  1  0.22595298  0.78772139  0.85862714  1
  O  O15  1  0.18827352  0.33176354  0.66706341  1
  O  O16  1  0.81172648  0.66823646  0.33529986  1
  O  O17  1  0.31600453  0.85670920  0.54254470  1
  O  O18  1  0.30860003  0.46447050  0.31770013  1
  O  O19  1  0.30536625  0.68610397  0.15104065  1
  O  O20  1  0.68399547  0.14329080  0.68583551  1
  O  O21  1  0.69463375  0.31389603  0.46493668  1
  O  O22  1  0.69139997  0.53552950  0.85322963  1
