# generated using pymatgen
data_BaSc8Ni2O15
_symmetry_space_group_name_H-M   'P 1'
_cell_length_a   8.11844029
_cell_length_b   8.11844029
_cell_length_c   9.80846828
_cell_angle_alpha   90.00000000
_cell_angle_beta   90.00000000
_cell_angle_gamma   96.32331161
_symmetry_Int_Tables_number   1
_chemical_formula_structural   BaSc8Ni2O15
_chemical_formula_sum   'Ba2 Sc16 Ni4 O30'
_cell_volume   642.53408950
_cell_formula_units_Z   2
loop_
 _symmetry_equiv_pos_site_id
 _symmetry_equiv_pos_as_xyz
  1  'x, y, z'
loop_
 _atom_site_type_symbol
 _atom_site_label
 _atom_site_symmetry_multiplicity
 _atom_site_fract_x
 _atom_site_fract_y
 _atom_site_fract_z
 _atom_site_occupancy
  Ba  Ba0  1  0.51463492  0.51463492  0.51156607  1
  Ba  Ba1  1  0.98536508  0.98536508  0.01156607  1
  Sc  Sc2  1  0.18625060  0.18625060  0.63679021  1
  Sc  Sc3  1  0.81345536  0.81345536  0.36311580  1
  Sc  Sc4  1  0.31374940  0.31374940  0.13679021  1
  Sc  Sc5  1  0.68654464  0.68654464  0.86311580  1
  Sc  Sc6  1  0.04624225  0.78152189  0.64837228  1
  Sc  Sc7  1  0.21226166  0.95306272  0.35420412  1
  Sc  Sc8  1  0.71847811  0.45375775  0.14837228  1
  Sc  Sc9  1  0.54693728  0.28773834  0.85420412  1
  Sc  Sc10  1  0.95306272  0.21226166  0.35420412  1
  Sc  Sc11  1  0.78152189  0.04624225  0.64837228  1
  Sc  Sc12  1  0.28773834  0.54693728  0.85420412  1
  Sc  Sc13  1  0.45375775  0.71847811  0.14837228  1
  Sc  Sc14  1  0.40077970  0.92476857  0.88592376  1
  Sc  Sc15  1  0.57523143  0.09922030  0.38592376  1
  Sc  Sc16  1  0.92476857  0.40077970  0.88592376  1
  Sc  Sc17  1  0.09922030  0.57523143  0.38592376  1
  Ni  Ni18  1  0.08085468  0.59494949  0.11199396  1
  Ni  Ni19  1  0.90505051  0.41914532  0.61199396  1
  Ni  Ni20  1  0.59494949  0.08085468  0.11199396  1
  Ni  Ni21  1  0.41914532  0.90505051  0.61199396  1
  O  O22  1  0.60619030  0.86156182  0.00361817  1
  O  O23  1  0.14067886  0.39316975  0.99399547  1
  O  O24  1  0.63843818  0.89380970  0.50361817  1
  O  O25  1  0.10683025  0.35932114  0.49399547  1
  O  O26  1  0.39316975  0.14067886  0.99399547  1
  O  O27  1  0.86156182  0.60619030  0.00361817  1
  O  O28  1  0.35932114  0.10683025  0.49399547  1
  O  O29  1  0.89380970  0.63843818  0.50361817  1
  O  O30  1  0.85118441  0.85118441  0.76381485  1
  O  O31  1  0.14794659  0.14794659  0.23575232  1
  O  O32  1  0.64881559  0.64881559  0.26381485  1
  O  O33  1  0.35205341  0.35205341  0.73575232  1
  O  O34  1  0.07050274  0.56667796  0.75072381  1
  O  O35  1  0.42949726  0.93332204  0.25072381  1
  O  O36  1  0.93332204  0.42949726  0.25072381  1
  O  O37  1  0.56667796  0.07050274  0.75072381  1
  O  O38  1  0.25691955  0.74694952  0.99894424  1
  O  O39  1  0.75305048  0.24308045  0.49894424  1
  O  O40  1  0.74694952  0.25691955  0.99894424  1
  O  O41  1  0.24308045  0.75305048  0.49894424  1
  O  O42  1  0.71980681  0.46205871  0.75700014  1
  O  O43  1  0.53947935  0.28423332  0.24078694  1
  O  O44  1  0.03794129  0.78019319  0.25700014  1
  O  O45  1  0.21576668  0.96052065  0.74078694  1
  O  O46  1  0.28423332  0.53947935  0.24078694  1
  O  O47  1  0.46205871  0.71980681  0.75700014  1
  O  O48  1  0.96052065  0.21576668  0.74078694  1
  O  O49  1  0.78019319  0.03794129  0.25700014  1
  O  O50  1  0.49982709  0.49982709  0.99783497  1
  O  O51  1  0.00017291  0.00017291  0.49783497  1
