# generated using pymatgen
data_Al3CrO6
_symmetry_space_group_name_H-M   'P 1'
_cell_length_a   4.88863931
_cell_length_b   4.88863958
_cell_length_c   5.24741971
_cell_angle_alpha   62.23711368
_cell_angle_beta   117.76289240
_cell_angle_gamma   119.99999378
_symmetry_Int_Tables_number   1
_chemical_formula_structural   Al3CrO6
_chemical_formula_sum   'Al3 Cr1 O6'
_cell_volume   91.55723137
_cell_formula_units_Z   1
loop_
 _symmetry_equiv_pos_site_id
 _symmetry_equiv_pos_as_xyz
  1  'x, y, z'
loop_
 _atom_site_type_symbol
 _atom_site_label
 _atom_site_symmetry_multiplicity
 _atom_site_fract_x
 _atom_site_fract_y
 _atom_site_fract_z
 _atom_site_occupancy
  Al  Al0  1  0.14894743  0.85105257  0.44684228  1
  Al  Al1  1  0.64931903  0.35068097  0.94795709  1
  Al  Al2  1  0.85240747  0.14759253  0.55722241  1
  Cr  Cr3  1  0.35220472  0.64779528  0.05661415  1
  O  O4  1  0.25346969  0.44014427  0.74900907  1
  O  O5  1  0.93568365  0.74653031  0.74900907  1
  O  O6  1  0.55985573  0.06431635  0.74900907  1
  O  O7  1  0.04186866  0.22994872  0.25831229  1
  O  O8  1  0.44639234  0.95813134  0.25831229  1
  O  O9  1  0.77005128  0.55360766  0.25831229  1
