# generated using pymatgen
data_Ba10Pr5Nb4SnO30
_symmetry_space_group_name_H-M   'P 1'
_cell_length_a   8.74476285
_cell_length_b   10.68131086
_cell_length_c   10.67470726
_cell_angle_alpha   80.30961654
_cell_angle_beta   113.99353857
_cell_angle_gamma   113.95553706
_symmetry_Int_Tables_number   1
_chemical_formula_structural   Ba10Pr5Nb4SnO30
_chemical_formula_sum   'Ba10 Pr5 Nb4 Sn1 O30'
_cell_volume   832.44846936
_cell_formula_units_Z   1
loop_
 _symmetry_equiv_pos_site_id
 _symmetry_equiv_pos_as_xyz
  1  'x, y, z'
loop_
 _atom_site_type_symbol
 _atom_site_label
 _atom_site_symmetry_multiplicity
 _atom_site_fract_x
 _atom_site_fract_y
 _atom_site_fract_z
 _atom_site_occupancy
  Ba  Ba0  1  0.64815874  0.69932427  0.09958500  1
  Ba  Ba1  1  0.84907935  0.29846783  0.89792270  1
  Ba  Ba2  1  0.24606097  0.49757699  0.49953614  1
  Ba  Ba3  1  0.45089750  0.09934398  0.30133321  1
  Ba  Ba4  1  0.04702254  0.90105922  0.69902522  1
  Ba  Ba5  1  0.75297746  0.49894078  0.50097478  1
  Ba  Ba6  1  0.95092065  0.10153217  0.30207730  1
  Ba  Ba7  1  0.34910250  0.30065602  0.89866679  1
  Ba  Ba8  1  0.55393903  0.90242301  0.70046386  1
  Ba  Ba9  1  0.15184126  0.70067573  0.10041500  1
  Pr  Pr10  1  0.79939486  0.39983351  0.19919080  1
  Pr  Pr11  1  0.00060514  0.00016649  0.00080920  1
  Pr  Pr12  1  0.40000000  0.20000000  0.60000000  1
  Pr  Pr13  1  0.59984575  0.79931871  0.40048698  1
  Pr  Pr14  1  0.20015425  0.60068129  0.79951302  1
  Nb  Nb15  1  0.30003271  0.40001038  0.19997558  1
  Nb  Nb16  1  0.70028916  0.60004354  0.80028554  1
  Nb  Nb17  1  0.09971084  0.79995646  0.39971446  1
  Nb  Nb18  1  0.49996729  -0.00001038  0.00002442  1
  Sn  Sn19  1  0.90000000  0.20000000  0.60000000  1
  O  O20  1  0.92462891  0.61139759  0.77746955  1
  O  O21  1  0.13092257  0.21101608  0.57677185  1
  O  O22  1  0.52363266  0.41117127  0.17602020  1
  O  O23  1  0.72384881  0.00930539  0.97814145  1
  O  O24  1  0.32276636  0.80954241  0.37592914  1
  O  O25  1  0.56936652  0.40479880  0.73107341  1
  O  O26  1  0.76360491  0.99875331  0.52738420  1
  O  O27  1  0.16898325  0.20483990  0.13088777  1
  O  O28  1  0.36904322  0.80427731  0.93134385  1
  O  O29  1  0.96810587  0.60459285  0.32943217  1
  O  O30  1  0.47723364  0.59045759  0.82407086  1
  O  O31  1  0.66907743  0.18898392  0.62322815  1
  O  O32  1  0.07615119  0.39069461  0.22185855  1
  O  O33  1  0.27636734  0.98882873  0.02397980  1
  O  O34  1  0.87537109  0.78860241  0.42253045  1
  O  O35  1  0.83189413  0.79540715  0.87056783  1
  O  O36  1  0.03639509  0.40124669  0.67261580  1
  O  O37  1  0.43095678  0.59572269  0.26865615  1
  O  O38  1  0.63101675  0.19516010  0.06911223  1
  O  O39  1  0.23063348  0.99520120  0.46892659  1
  O  O40  1  0.80957738  0.27325834  0.39942824  1
  O  O41  1  0.21107470  0.47133253  0.00552262  1
  O  O42  1  0.61029302  0.66974461  0.60566757  1
  O  O43  1  0.00976567  0.86945172  0.20544864  1
  O  O44  1  0.41064501  0.06935128  0.80564296  1
  O  O45  1  0.99042262  0.12674166  0.80057176  1
  O  O46  1  0.38935499  0.33064872  0.39435704  1
  O  O47  1  0.79023433  0.53054828  0.99455136  1
  O  O48  1  0.18970698  0.73025539  0.59433243  1
  O  O49  1  0.58892530  0.92866747  0.19447738  1
