# generated using pymatgen
data_Ag4Hg5S5IBrCl2
_symmetry_space_group_name_H-M   'P 1'
_cell_length_a   4.38134686
_cell_length_b   12.53348012
_cell_length_c   17.65428951
_cell_angle_alpha   90.41077571
_cell_angle_beta   90.00000000
_cell_angle_gamma   90.00000000
_symmetry_Int_Tables_number   1
_chemical_formula_structural   Ag4Hg5S5IBrCl2
_chemical_formula_sum   'Ag8 Hg10 S10 I2 Br2 Cl4'
_cell_volume   969.43433181
_cell_formula_units_Z   2
loop_
 _symmetry_equiv_pos_site_id
 _symmetry_equiv_pos_as_xyz
  1  'x, y, z'
loop_
 _atom_site_type_symbol
 _atom_site_label
 _atom_site_symmetry_multiplicity
 _atom_site_fract_x
 _atom_site_fract_y
 _atom_site_fract_z
 _atom_site_occupancy
  Ag  Ag0  1  0.41866865  0.31305159  0.57822289  1
  Ag  Ag1  1  0.41866865  0.68694841  0.42177711  1
  Ag  Ag2  1  0.57406832  0.18703880  0.08115137  1
  Ag  Ag3  1  0.57406832  0.81296120  0.91884863  1
  Ag  Ag4  1  0.12978050  0.10486386  0.68720997  1
  Ag  Ag5  1  0.12978050  0.89513614  0.31279003  1
  Ag  Ag6  1  0.87528480  0.39243134  0.18634239  1
  Ag  Ag7  1  0.87528480  0.60756866  0.81365761  1
  Hg  Hg8  1  0.99636354  0.57998316  0.59247307  1
  Hg  Hg9  1  0.99636354  0.42001684  0.40752693  1
  Hg  Hg10  1  0.00286531  0.92222485  0.09177658  1
  Hg  Hg11  1  0.00286531  0.07777515  0.90822342  1
  Hg  Hg12  1  0.34605453  0.50000000  -0.00000000  1
  Hg  Hg13  1  0.65105275  0.00000000  0.50000000  1
  Hg  Hg14  1  0.37609274  0.32708992  0.84212830  1
  Hg  Hg15  1  0.37609274  0.67291008  0.15787170  1
  Hg  Hg16  1  0.62574257  0.17189839  0.33946555  1
  Hg  Hg17  1  0.62574257  0.82810161  0.66053445  1
  S  S18  1  0.62303100  0.64016501  0.68281059  1
  S  S19  1  0.62303100  0.35983499  0.31718941  1
  S  S20  1  0.37970998  0.86226021  0.18019784  1
  S  S21  1  0.37970998  0.13773979  0.81980216  1
  S  S22  1  0.36335075  0.51685160  0.86446372  1
  S  S23  1  0.36335075  0.48314840  0.13553628  1
  S  S24  1  0.63569048  0.98386770  0.36389202  1
  S  S25  1  0.63569048  0.01613230  0.63610798  1
  S  S26  1  0.33402983  0.50000000  0.50000000  1
  S  S27  1  0.66346408  0.00000000  -0.00000000  1
  I  I28  1  0.87903816  0.32849748  0.68425474  1
  I  I29  1  0.87903816  0.67150252  0.31574526  1
  Br  Br30  1  0.12750278  0.17509872  0.18051284  1
  Br  Br31  1  0.12750278  0.82490128  0.81948716  1
  Cl  Cl32  1  0.14502226  0.19240786  0.48116740  1
  Cl  Cl33  1  0.14502226  0.80759214  0.51883260  1
  Cl  Cl34  1  0.85048757  0.30508540  0.98478512  1
  Cl  Cl35  1  0.85048757  0.69491460  0.01521488  1
