# generated using pymatgen
data_Al9Si2BO19
_symmetry_space_group_name_H-M   'P 1'
_cell_length_a   5.79343095
_cell_length_b   7.67617038
_cell_length_c   8.12004986
_cell_angle_alpha   92.21022854
_cell_angle_beta   69.10011569
_cell_angle_gamma   89.99999983
_symmetry_Int_Tables_number   1
_chemical_formula_structural   Al9Si2BO19
_chemical_formula_sum   'Al9 Si2 B1 O19'
_cell_volume   337.06295916
_cell_formula_units_Z   1
loop_
 _symmetry_equiv_pos_site_id
 _symmetry_equiv_pos_as_xyz
  1  'x, y, z'
loop_
 _atom_site_type_symbol
 _atom_site_label
 _atom_site_symmetry_multiplicity
 _atom_site_fract_x
 _atom_site_fract_y
 _atom_site_fract_z
 _atom_site_occupancy
  Al  Al0  1  0.44930787  0.16717557  0.10138426  1
  Al  Al1  1  0.56179389  0.68569264  0.87641222  1
  Al  Al2  1  0.62135043  0.83610999  0.24363696  1
  Al  Al3  1  0.13501261  0.83610999  0.24363696  1
  Al  Al4  1  0.37086956  0.34991693  0.76489128  1
  Al  Al5  1  0.86423916  0.34991693  0.76489128  1
  Al  Al6  1  0.25321876  0.14718867  0.49356248  1
  Al  Al7  1  0.79558420  0.50741785  0.40883160  1
  Al  Al8  1  0.29710948  0.50319682  0.40578105  1
  Si  Si9  1  0.70446571  0.00362764  0.59106858  1
  Si  Si10  1  0.95075463  0.18111498  0.09849074  1
  B  B11  1  0.02348108  0.63666581  0.95303784  1
  O  O12  1  0.45095448  0.76298370  0.09809104  1
  O  O13  1  0.54445889  0.29026457  0.91108223  1
  O  O14  1  0.31419670  0.94432483  0.37160661  1
  O  O15  1  0.68118348  0.45384134  0.63763304  1
  O  O16  1  0.04933198  0.26413692  0.90133604  1
  O  O17  1  0.95022278  0.74788572  0.09955444  1
  O  O18  1  0.80812567  0.92688706  0.38374865  1
  O  O19  1  0.19434880  0.39219691  0.61130239  1
  O  O20  1  0.71607457  0.05505008  0.10611587  1
  O  O21  1  0.17780957  0.05505008  0.10611587  1
  O  O22  1  0.27061330  0.57949654  0.87798012  1
  O  O23  1  0.85140658  0.57949654  0.87798012  1
  O  O24  1  0.46083136  0.13310777  0.61799698  1
  O  O25  1  0.92117166  0.13310777  0.61799698  1
  O  O26  1  0.55907586  0.62819079  0.37397149  1
  O  O27  1  0.06695265  0.62819079  0.37397149  1
  O  O28  1  0.63511980  0.85312797  0.72976040  1
  O  O29  1  0.34868255  0.29071520  0.30263490  1
  O  O30  1  0.87455195  0.33341161  0.25089610  1
