# generated using pymatgen
data_Ba7Hg31
_symmetry_space_group_name_H-M   'P 1'
_cell_length_a   10.16955448
_cell_length_b   11.44310359
_cell_length_c   11.45170497
_cell_angle_alpha   60.02140822
_cell_angle_beta   90.00071478
_cell_angle_gamma   90.00140268
_symmetry_Int_Tables_number   1
_chemical_formula_structural   Ba7Hg31
_chemical_formula_sum   'Ba7 Hg31'
_cell_volume   1154.35712043
_cell_formula_units_Z   1
loop_
 _symmetry_equiv_pos_site_id
 _symmetry_equiv_pos_as_xyz
  1  'x, y, z'
loop_
 _atom_site_type_symbol
 _atom_site_label
 _atom_site_symmetry_multiplicity
 _atom_site_fract_x
 _atom_site_fract_y
 _atom_site_fract_z
 _atom_site_occupancy
  Ba  Ba0  1  0.00000097  0.33334265  0.33335099  1
  Ba  Ba1  1  0.99999601  0.66659289  0.66670627  1
  Ba  Ba2  1  0.50000441  0.50188008  0.50223563  1
  Ba  Ba3  1  0.49999262  0.50203297  0.99586100  1
  Ba  Ba4  1  0.50000872  0.99591666  0.50218526  1
  Ba  Ba5  1  0.21460329  0.00004099  0.99992115  1
  Ba  Ba6  1  0.78538641  0.00006681  0.99991006  1
  Hg  Hg7  1  0.00001177  0.26721556  0.73306506  1
  Hg  Hg8  1  0.00000722  0.73322207  0.99981375  1
  Hg  Hg9  1  0.00000810  0.99988294  0.26708061  1
  Hg  Hg10  1  0.00000611  0.73305159  0.26714176  1
  Hg  Hg11  1  0.99998524  0.26703646  0.99978723  1
  Hg  Hg12  1  0.99998442  0.99981903  0.73310357  1
  Hg  Hg13  1  0.16224676  0.50083661  0.50076446  1
  Hg  Hg14  1  0.16219009  0.50086909  0.99838765  1
  Hg  Hg15  1  0.16226805  0.99832483  0.50088046  1
  Hg  Hg16  1  0.83775219  0.50083371  0.50076745  1
  Hg  Hg17  1  0.83780445  0.50087412  0.99838658  1
  Hg  Hg18  1  0.83775916  0.99832178  0.50086718  1
  Hg  Hg19  1  0.35215180  0.33335162  0.33335665  1
  Hg  Hg20  1  0.35056125  0.66667326  0.66664104  1
  Hg  Hg21  1  0.64943596  0.66669822  0.66662567  1
  Hg  Hg22  1  0.64784973  0.33336644  0.33333798  1
  Hg  Hg23  1  0.26810784  0.18971252  0.62050699  1
  Hg  Hg24  1  0.26809067  0.62053531  0.18968738  1
  Hg  Hg25  1  0.26803453  0.18970182  0.18972040  1
  Hg  Hg26  1  0.28445469  0.36734626  0.81631997  1
  Hg  Hg27  1  0.28436531  0.81626543  0.36745775  1
  Hg  Hg28  1  0.28445008  0.81632452  0.81633196  1
  Hg  Hg29  1  0.71563420  0.81628814  0.36742379  1
  Hg  Hg30  1  0.71554135  0.36737352  0.81631685  1
  Hg  Hg31  1  0.71556234  0.81632990  0.81633019  1
  Hg  Hg32  1  0.73190218  0.62055676  0.18967806  1
  Hg  Hg33  1  0.73187655  0.18970696  0.62048998  1
  Hg  Hg34  1  0.73197139  0.18971336  0.18972020  1
  Hg  Hg35  1  0.49999716  0.09851707  0.80266150  1
  Hg  Hg36  1  0.49999142  0.80269684  0.09857482  1
  Hg  Hg37  1  0.50000556  0.09858122  0.09870270  1
