# generated using pymatgen
data_Ba3Sr2Ca4Mg3(SiO4)6
_symmetry_space_group_name_H-M   'P 1'
_cell_length_a   5.51744998
_cell_length_b   5.51746028
_cell_length_c   20.86068018
_cell_angle_alpha   89.99990042
_cell_angle_beta   89.99934473
_cell_angle_gamma   120.00002050
_symmetry_Int_Tables_number   1
_chemical_formula_structural   Ba3Sr2Ca4Mg3(SiO4)6
_chemical_formula_sum   'Ba3 Sr2 Ca4 Mg3 Si6 O24'
_cell_volume   549.96699458
_cell_formula_units_Z   1
loop_
 _symmetry_equiv_pos_site_id
 _symmetry_equiv_pos_as_xyz
  1  'x, y, z'
loop_
 _atom_site_type_symbol
 _atom_site_label
 _atom_site_symmetry_multiplicity
 _atom_site_fract_x
 _atom_site_fract_y
 _atom_site_fract_z
 _atom_site_occupancy
  Ba  Ba0  1  0.99998859  0.99999616  0.16508462  1
  Ba  Ba1  1  -0.00000005  0.99999854  0.50035555  1
  Ba  Ba2  1  0.00000472  0.00000229  0.83455817  1
  Sr  Sr3  1  0.33332107  0.66666086  0.27903290  1
  Sr  Sr4  1  0.33332356  0.66666221  0.61506996  1
  Ca  Ca5  1  0.33333342  0.66666661  0.94567336  1
  Ca  Ca6  1  0.66666716  0.33333257  0.05428037  1
  Ca  Ca7  1  0.66667436  0.33333355  0.38924737  1
  Ca  Ca8  1  0.66666567  0.33332821  0.72356130  1
  Mg  Mg9  1  0.99999927  0.00000017  0.99857395  1
  Mg  Mg10  1  0.99999716  0.99999859  0.33314646  1
  Mg  Mg11  1  0.99999906  0.00000025  0.66828477  1
  Si  Si12  1  0.33332931  0.66666468  0.08773984  1
  Si  Si13  1  0.33333424  0.66666688  0.42405984  1
  Si  Si14  1  0.33333472  0.66666775  0.76017890  1
  Si  Si15  1  0.66666501  0.33333300  0.24166687  1
  Si  Si16  1  0.66667189  0.33333619  0.57644381  1
  Si  Si17  1  0.66666865  0.33333356  0.90918538  1
  O  O18  1  0.33332847  0.66666071  0.16509363  1
  O  O19  1  0.33333048  0.66666154  0.50139817  1
  O  O20  1  0.33332849  0.66666184  0.83750740  1
  O  O21  1  0.66667281  0.33333933  0.16372300  1
  O  O22  1  0.66667442  0.33334106  0.49847200  1
  O  O23  1  0.66667423  0.33334073  0.83115943  1
  O  O24  1  0.64453967  0.88672623  0.05632797  1
  O  O25  1  0.64578428  0.88181148  0.39245998  1
  O  O26  1  0.64572840  0.88009692  0.72800751  1
  O  O27  1  0.11326818  0.75781880  0.05632857  1
  O  O28  1  0.11819358  0.76397664  0.39245922  1
  O  O29  1  0.11991026  0.76563386  0.72800589  1
  O  O30  1  0.24217407  0.35545766  0.05632687  1
  O  O31  1  0.23602616  0.35422162  0.39245831  1
  O  O32  1  0.23436976  0.35428107  0.72800496  1
  O  O33  1  0.34983449  0.15123609  0.27328796  1
  O  O34  1  0.35000144  0.15234581  0.60832124  1
  O  O35  1  0.35522669  0.11457156  0.94043140  1
  O  O36  1  0.84875917  0.19859366  0.27328742  1
  O  O37  1  0.84765823  0.19765400  0.60832006  1
  O  O38  1  0.88542863  0.24065315  0.94043157  1
  O  O39  1  0.80140452  0.65016119  0.27328933  1
  O  O40  1  0.80235329  0.64999932  0.60832132  1
  O  O41  1  0.75935246  0.64477366  0.94043335  1
