# generated using pymatgen
data_Ba4Nb25O40
_symmetry_space_group_name_H-M   'P 1'
_cell_length_a   4.15292287
_cell_length_b   6.70395309
_cell_length_c   33.53997370
_cell_angle_alpha   89.89911805
_cell_angle_beta   90.00000000
_cell_angle_gamma   90.00000000
_symmetry_Int_Tables_number   1
_chemical_formula_structural   Ba4Nb25O40
_chemical_formula_sum   'Ba4 Nb25 O40'
_cell_volume   933.78496440
_cell_formula_units_Z   1
loop_
 _symmetry_equiv_pos_site_id
 _symmetry_equiv_pos_as_xyz
  1  'x, y, z'
loop_
 _atom_site_type_symbol
 _atom_site_label
 _atom_site_symmetry_multiplicity
 _atom_site_fract_x
 _atom_site_fract_y
 _atom_site_fract_z
 _atom_site_occupancy
  Ba  Ba0  1  -0.00000000  0.99938204  0.99883401  1
  Ba  Ba1  1  0.00000000  0.99980824  0.19989656  1
  Ba  Ba2  1  -0.00000000  0.00019176  0.40010344  1
  Ba  Ba3  1  -0.00000000  0.00061796  0.60116599  1
  Nb  Nb4  1  0.00000000  0.49993939  0.10005508  1
  Nb  Nb5  1  0.00000000  0.50000000  0.30000000  1
  Nb  Nb6  1  -0.00000000  0.50006061  0.49994492  1
  Nb  Nb7  1  0.00000000  0.50126879  0.70038531  1
  Nb  Nb8  1  0.00000000  0.49873121  0.89961469  1
  Nb  Nb9  1  0.50000000  0.78875040  0.08031034  1
  Nb  Nb10  1  0.50000000  0.78850633  0.28059350  1
  Nb  Nb11  1  0.50000000  0.78889815  0.48060129  1
  Nb  Nb12  1  0.50000000  0.79124138  0.68004114  1
  Nb  Nb13  1  0.50000000  0.79532731  0.87623769  1
  Nb  Nb14  1  0.50000000  0.21110185  0.11939871  1
  Nb  Nb15  1  0.50000000  0.21149367  0.31940650  1
  Nb  Nb16  1  0.50000000  0.21124960  0.51968966  1
  Nb  Nb17  1  0.50000000  0.20467269  0.72376231  1
  Nb  Nb18  1  0.50000000  0.20875862  0.91995886  1
  Nb  Nb19  1  0.50000000  0.40314082  0.04180484  1
  Nb  Nb20  1  0.50000000  0.40241767  0.24219584  1
  Nb  Nb21  1  0.50000000  0.40278740  0.44224410  1
  Nb  Nb22  1  0.50000000  0.39875543  0.64291354  1
  Nb  Nb23  1  0.50000000  0.38314326  0.83987980  1
  Nb  Nb24  1  0.50000000  0.59721260  0.15775590  1
  Nb  Nb25  1  0.50000000  0.59758233  0.35780416  1
  Nb  Nb26  1  0.50000000  0.59685918  0.55819516  1
  Nb  Nb27  1  0.50000000  0.61685674  0.76012020  1
  Nb  Nb28  1  0.50000000  0.60124457  0.95708646  1
  O  O29  1  0.50000000  0.70080144  0.01993322  1
  O  O30  1  0.50000000  0.70013122  0.22005058  1
  O  O31  1  0.50000000  0.70029272  0.41994665  1
  O  O32  1  0.50000000  0.69717469  0.61959914  1
  O  O33  1  0.50000000  0.69091947  0.82101001  1
  O  O34  1  0.50000000  0.29970728  0.18005335  1
  O  O35  1  0.50000000  0.29986878  0.37994942  1
  O  O36  1  0.50000000  0.29919856  0.58006678  1
  O  O37  1  0.50000000  0.30908053  0.77898999  1
  O  O38  1  0.50000000  0.30282531  0.98040086  1
  O  O39  1  0.50000000  0.10038444  0.06009709  1
  O  O40  1  0.50000000  0.09973002  0.25998551  1
  O  O41  1  0.50000000  0.10025570  0.45997590  1
  O  O42  1  0.50000000  0.10144957  0.66043157  1
  O  O43  1  0.50000000  0.09978533  0.86182380  1
  O  O44  1  0.50000000  0.89974430  0.14002410  1
  O  O45  1  0.50000000  0.90026998  0.34001449  1
  O  O46  1  0.50000000  0.89961556  0.53990291  1
  O  O47  1  0.50000000  0.90021467  0.73817620  1
  O  O48  1  0.50000000  0.89855043  0.93956843  1
  O  O49  1  -0.00000000  0.79627503  0.07795610  1
  O  O50  1  -0.00000000  0.79628803  0.27783732  1
  O  O51  1  -0.00000000  0.79630792  0.47775348  1
  O  O52  1  -0.00000000  0.79523995  0.67686871  1
  O  O53  1  0.00000000  0.79494017  0.87903980  1
  O  O54  1  -0.00000000  0.20369208  0.12224652  1
  O  O55  1  -0.00000000  0.20371197  0.32216268  1
  O  O56  1  -0.00000000  0.20372497  0.52204390  1
  O  O57  1  0.00000000  0.20505983  0.72096020  1
  O  O58  1  0.00000000  0.20476005  0.92313129  1
  O  O59  1  0.00000000  0.38929985  0.04080935  1
  O  O60  1  -0.00000000  0.38936929  0.24071199  1
  O  O61  1  0.00000000  0.38945744  0.44064440  1
  O  O62  1  0.00000000  0.38876406  0.64093971  1
  O  O63  1  0.00000000  0.39201296  0.84087626  1
  O  O64  1  0.00000000  0.61054256  0.15935560  1
  O  O65  1  0.00000000  0.61063071  0.35928801  1
  O  O66  1  -0.00000000  0.61070015  0.55919065  1
  O  O67  1  -0.00000000  0.60798704  0.75912374  1
  O  O68  1  -0.00000000  0.61123594  0.95906029  1
