# generated using pymatgen
data_LaFeMoO6
_symmetry_space_group_name_H-M   'P 1'
_cell_length_a   5.56540133
_cell_length_b   5.51675537
_cell_length_c   7.83304916
_cell_angle_alpha   90.04199673
_cell_angle_beta   90.00005832
_cell_angle_gamma   90.00009862
_symmetry_Int_Tables_number   1
_chemical_formula_structural   LaFeMoO6
_chemical_formula_sum   'La2 Fe2 Mo2 O12'
_cell_volume   240.49771224
_cell_formula_units_Z   2
loop_
 _symmetry_equiv_pos_site_id
 _symmetry_equiv_pos_as_xyz
  1  'x, y, z'
loop_
 _atom_site_type_symbol
 _atom_site_label
 _atom_site_symmetry_multiplicity
 _atom_site_fract_x
 _atom_site_fract_y
 _atom_site_fract_z
 _atom_site_occupancy
  La  La0  1  0.03043025  0.99358526  0.24752872  1
  La  La1  1  0.46956541  0.49357882  0.74753415  1
  Fe  Fe2  1  0.50452071  0.99636906  0.99802383  1
  Fe  Fe3  1  0.99549258  0.49637528  0.49803494  1
  Mo  Mo4  1  0.50672936  0.99826880  0.49795578  1
  Mo  Mo5  1  0.99326977  0.49826747  0.99795641  1
  O  O6  1  0.00929645  0.54209338  0.75564842  1
  O  O7  1  0.22479669  0.23612085  0.97736568  1
  O  O8  1  0.23897488  0.22731802  0.52626110  1
  O  O9  1  0.26102195  0.72731891  0.02626241  1
  O  O10  1  0.27520373  0.73611950  0.47736786  1
  O  O11  1  0.49070150  0.04209419  0.25564755  1
  O  O12  1  0.50796466  0.93079647  0.74525558  1
  O  O13  1  0.71367159  0.27621807  0.53403706  1
  O  O14  1  0.71954209  0.28883633  0.96810380  1
  O  O15  1  0.78045837  0.78883961  0.46810230  1
  O  O16  1  0.78632586  0.77621398  0.03403509  1
  O  O17  1  0.99203514  0.43079100  0.24525531  1
