# generated using pymatgen
data_Ba10Zn4Cu(WO6)5
_symmetry_space_group_name_H-M   'P 1'
_cell_length_a   5.83284690
_cell_length_b   13.04708410
_cell_length_c   10.10377354
_cell_angle_alpha   104.97284098
_cell_angle_beta   106.77696844
_cell_angle_gamma   77.08350868
_symmetry_Int_Tables_number   1
_chemical_formula_structural   Ba10Zn4Cu(WO6)5
_chemical_formula_sum   'Ba10 Zn4 Cu1 W5 O30'
_cell_volume   701.90759116
_cell_formula_units_Z   1
loop_
 _symmetry_equiv_pos_site_id
 _symmetry_equiv_pos_as_xyz
  1  'x, y, z'
loop_
 _atom_site_type_symbol
 _atom_site_label
 _atom_site_symmetry_multiplicity
 _atom_site_fract_x
 _atom_site_fract_y
 _atom_site_fract_z
 _atom_site_occupancy
  Ba  Ba0  1  0.60000339  0.34997417  0.54998095  1
  Ba  Ba1  1  0.00000470  0.75039945  0.75040885  1
  Ba  Ba2  1  0.40031174  0.14953591  0.95015938  1
  Ba  Ba3  1  0.79998085  0.55001260  0.14997430  1
  Ba  Ba4  1  0.19969302  0.95008616  0.34947220  1
  Ba  Ba5  1  0.39999661  0.65002583  0.45001905  1
  Ba  Ba6  1  0.80030698  0.04991384  0.65052780  1
  Ba  Ba7  1  0.20001915  0.44998740  0.85002570  1
  Ba  Ba8  1  0.59968826  0.85046409  0.04984062  1
  Ba  Ba9  1  0.99999530  0.24960055  0.24959115  1
  Zn  Zn10  1  0.40003043  0.39996059  0.20002145  1
  Zn  Zn11  1  0.79996583  0.79995340  0.39988506  1
  Zn  Zn12  1  0.20003417  0.20004660  0.60011494  1
  Zn  Zn13  1  0.59996957  0.60003941  0.79997855  1
  Cu  Cu14  1  -0.00000000  -0.00000000  0.00000000  1
  W  W15  1  -0.00000000  0.50000000  0.50000000  1
  W  W16  1  0.40013062  0.90015018  0.70041143  1
  W  W17  1  0.80017443  0.29973750  0.90008637  1
  W  W18  1  0.19982557  0.70026250  0.09991363  1
  W  W19  1  0.59986938  0.09984982  0.29958857  1
  O  O20  1  0.09516374  0.35724277  0.54757026  1
  O  O21  1  0.49518159  0.75720323  0.74756640  1
  O  O22  1  0.89524137  0.15714483  0.94762758  1
  O  O23  1  0.29507136  0.55739616  0.14753889  1
  O  O24  1  0.69519457  0.95722477  0.34761390  1
  O  O25  1  0.28563012  0.54757062  0.64279922  1
  O  O26  1  0.68567165  0.94762975  0.84288278  1
  O  O27  1  0.08560766  0.34762115  0.04279689  1
  O  O28  1  0.48567304  0.74761153  0.24287168  1
  O  O29  1  0.88556563  0.14756189  0.44263268  1
  O  O30  1  0.19040152  0.45242938  0.35720078  1
  O  O31  1  0.59049484  0.85243811  0.55736732  1
  O  O32  1  0.99041289  0.25238847  0.75712832  1
  O  O33  1  0.39043192  0.65237885  0.95720311  1
  O  O34  1  0.79041862  0.05237025  0.15711722  1
  O  O35  1  0.90483626  0.64275723  0.45242974  1
  O  O36  1  0.30480543  0.04277523  0.65238610  1
  O  O37  1  0.70492864  0.44260384  0.85246111  1
  O  O38  1  0.10475863  0.84285517  0.05237242  1
  O  O39  1  0.50481841  0.24279677  0.25243360  1
  O  O40  1  0.71436988  0.45242938  0.35720078  1
  O  O41  1  0.11443437  0.85243811  0.55736732  1
  O  O42  1  0.51432696  0.25238847  0.75712832  1
  O  O43  1  0.91439234  0.65237885  0.95720311  1
  O  O44  1  0.31432835  0.05237025  0.15711722  1
  O  O45  1  0.80959848  0.54757062  0.64279922  1
  O  O46  1  0.20958138  0.94762975  0.84288278  1
  O  O47  1  0.60956808  0.34762115  0.04279689  1
  O  O48  1  0.00958711  0.74761153  0.24287168  1
  O  O49  1  0.40950516  0.14756189  0.44263268  1
