# generated using pymatgen
data_Ba4Eu2Cu6O13
_symmetry_space_group_name_H-M   'P 1'
_cell_length_a   5.54240005
_cell_length_b   5.54240005
_cell_length_c   12.70034977
_cell_angle_alpha   77.15947729
_cell_angle_beta   77.15947729
_cell_angle_gamma   88.93925125
_symmetry_Int_Tables_number   1
_chemical_formula_structural   Ba4Eu2Cu6O13
_chemical_formula_sum   'Ba4 Eu2 Cu6 O13'
_cell_volume   370.66764419
_cell_formula_units_Z   1
loop_
 _symmetry_equiv_pos_site_id
 _symmetry_equiv_pos_as_xyz
  1  'x, y, z'
loop_
 _atom_site_type_symbol
 _atom_site_label
 _atom_site_symmetry_multiplicity
 _atom_site_fract_x
 _atom_site_fract_y
 _atom_site_fract_z
 _atom_site_occupancy
  Ba  Ba0  1  0.08815149  0.60220349  0.80964502  1
  Ba  Ba1  1  0.60220349  0.08815149  0.80964502  1
  Ba  Ba2  1  0.41184851  0.89779651  0.19035498  1
  Ba  Ba3  1  0.89779651  0.41184851  0.19035498  1
  Eu  Eu4  1  0.75000000  0.25000000  0.50000000  1
  Eu  Eu5  1  0.25000000  0.75000000  0.50000000  1
  Cu  Cu6  1  0.17945856  0.17945856  0.64328583  1
  Cu  Cu7  1  0.67725561  0.67725561  0.64328583  1
  Cu  Cu8  1  0.32054144  0.32054144  0.35671417  1
  Cu  Cu9  1  0.82274439  0.82274439  0.35671417  1
  Cu  Cu10  1  0.51123696  0.51123696  -0.00000000  1
  Cu  Cu11  1  0.98876304  0.98876304  -0.00000000  1
  O  O12  1  0.09619605  0.09619605  0.85011392  1
  O  O13  1  0.55369003  0.55369003  0.85011392  1
  O  O14  1  0.40380395  0.40380395  0.14988608  1
  O  O15  1  0.94630997  0.94630997  0.14988608  1
  O  O16  1  0.43666588  0.93666588  0.62666823  1
  O  O17  1  0.93666588  0.43666588  0.62666823  1
  O  O18  1  0.56333412  0.06333412  0.37333177  1
  O  O19  1  0.06333412  0.56333412  0.37333177  1
  O  O20  1  0.93484412  0.93484412  0.63031176  1
  O  O21  1  0.43677349  0.43677349  0.62645301  1
  O  O22  1  0.06322651  0.06322651  0.37354699  1
  O  O23  1  0.56515588  0.56515588  0.36968824  1
  O  O24  1  0.75000000  0.75000000  -0.00000000  1
