# generated using pymatgen
data_LiSbS2
_symmetry_space_group_name_H-M   'P 1'
_cell_length_a   8.70349691
_cell_length_b   8.70349691
_cell_length_c   8.70349690
_cell_angle_alpha   107.71256546
_cell_angle_beta   107.71256547
_cell_angle_gamma   107.71256545
_symmetry_Int_Tables_number   1
_chemical_formula_structural   LiSbS2
_chemical_formula_sum   'Li6 Sb6 S12'
_cell_volume   538.03966332
_cell_formula_units_Z   6
loop_
 _symmetry_equiv_pos_site_id
 _symmetry_equiv_pos_as_xyz
  1  'x, y, z'
loop_
 _atom_site_type_symbol
 _atom_site_label
 _atom_site_symmetry_multiplicity
 _atom_site_fract_x
 _atom_site_fract_y
 _atom_site_fract_z
 _atom_site_occupancy
  Li  Li0  1  0.25338368  0.08660470  0.68986526  1
  Li  Li1  1  0.74661632  0.91339530  0.31013474  1
  Li  Li2  1  0.91339530  0.31013474  0.74661632  1
  Li  Li3  1  0.31013474  0.74661632  0.91339530  1
  Li  Li4  1  0.08660470  0.68986526  0.25338368  1
  Li  Li5  1  0.68986526  0.25338368  0.08660470  1
  S  S6  1  0.74093468  0.58802202  0.15795609  1
  S  S7  1  0.15795609  0.74093468  0.58802202  1
  S  S8  1  0.41197798  0.84204391  0.25906532  1
  S  S9  1  0.58802202  0.15795609  0.74093468  1
  S  S10  1  0.25906532  0.41197798  0.84204391  1
  S  S11  1  0.84204391  0.25906532  0.41197798  1
  S  S12  1  0.63613636  0.86263777  0.94348835  1
  S  S13  1  0.94348835  0.63613636  0.86263777  1
  S  S14  1  0.86263777  0.94348835  0.63613636  1
  S  S15  1  0.36386364  0.13736223  0.05651165  1
  S  S16  1  0.05651165  0.36386364  0.13736223  1
  S  S17  1  0.13736223  0.05651165  0.36386364  1
  Sb  Sb18  1  0.44191376  0.14722973  0.37354733  1
  Sb  Sb19  1  0.14722973  0.37354733  0.44191376  1
  Sb  Sb20  1  0.37354733  0.44191376  0.14722973  1
  Sb  Sb21  1  0.55808624  0.85277027  0.62645267  1
  Sb  Sb22  1  0.85277027  0.62645267  0.55808624  1
  Sb  Sb23  1  0.62645267  0.55808624  0.85277027  1
