# generated using pymatgen
data_Ti(TlS2)2
_symmetry_space_group_name_H-M   'P 1'
_cell_length_a   6.49283922
_cell_length_b   9.58756054
_cell_length_c   23.11507289
_cell_angle_alpha   90.00000000
_cell_angle_beta   90.00000000
_cell_angle_gamma   90.00000000
_symmetry_Int_Tables_number   1
_chemical_formula_structural   Ti(TlS2)2
_chemical_formula_sum   'Ti8 Tl16 S32'
_cell_volume   1438.92459294
_cell_formula_units_Z   8
loop_
 _symmetry_equiv_pos_site_id
 _symmetry_equiv_pos_as_xyz
  1  'x, y, z'
loop_
 _atom_site_type_symbol
 _atom_site_label
 _atom_site_symmetry_multiplicity
 _atom_site_fract_x
 _atom_site_fract_y
 _atom_site_fract_z
 _atom_site_occupancy
  S  S0  1  0.60440497  0.03823113  0.91214949  1
  S  S1  1  0.10440497  0.96176887  0.58785051  1
  S  S2  1  0.89559503  0.53823113  0.08785051  1
  S  S3  1  0.39559503  0.46176887  0.41214949  1
  S  S4  1  0.39559503  0.96176887  0.08785051  1
  S  S5  1  0.89559503  0.03823113  0.41214949  1
  S  S6  1  0.10440497  0.46176887  0.91214949  1
  S  S7  1  0.60440497  0.53823113  0.58785051  1
  S  S8  1  0.16172869  0.81604122  0.93805241  1
  S  S9  1  0.66172869  0.18395878  0.56194759  1
  S  S10  1  0.33827131  0.31604122  0.06194759  1
  S  S11  1  0.83827131  0.68395878  0.43805241  1
  S  S12  1  0.83827131  0.18395878  0.06194759  1
  S  S13  1  0.33827131  0.81604122  0.43805241  1
  S  S14  1  0.66172869  0.68395878  0.93805241  1
  S  S15  1  0.16172869  0.31604122  0.56194759  1
  S  S16  1  0.22069437  0.72973584  0.80264377  1
  S  S17  1  0.72069437  0.27026416  0.69735623  1
  S  S18  1  0.27930563  0.22973584  0.19735623  1
  S  S19  1  0.77930563  0.77026416  0.30264377  1
  S  S20  1  0.77930563  0.27026416  0.19735623  1
  S  S21  1  0.27930563  0.72973584  0.30264377  1
  S  S22  1  0.72069437  0.77026416  0.80264377  1
  S  S23  1  0.22069437  0.22973584  0.69735623  1
  S  S24  1  0.42011941  0.56640356  0.66076896  1
  S  S25  1  0.92011941  0.43359644  0.83923104  1
  S  S26  1  0.07988059  0.06640356  0.33923104  1
  S  S27  1  0.57988059  0.93359644  0.16076896  1
  S  S28  1  0.57988059  0.43359644  0.33923104  1
  S  S29  1  0.07988059  0.56640356  0.16076896  1
  S  S30  1  0.92011941  0.93359644  0.66076896  1
  S  S31  1  0.42011941  0.06640356  0.83923104  1
  Ti  Ti32  1  0.46312688  0.82229062  0.87299551  1
  Ti  Ti33  1  0.96312688  0.17770938  0.62700449  1
  Ti  Ti34  1  0.03687312  0.32229062  0.12700449  1
  Ti  Ti35  1  0.53687312  0.67770938  0.37299551  1
  Ti  Ti36  1  0.53687312  0.17770938  0.12700449  1
  Ti  Ti37  1  0.03687312  0.82229062  0.37299551  1
  Ti  Ti38  1  0.96312688  0.67770938  0.87299551  1
  Ti  Ti39  1  0.46312688  0.32229062  0.62700449  1
  Tl  Tl40  1  0.17394776  0.13787362  0.96033121  1
  Tl  Tl41  1  0.67394776  0.86212638  0.53966879  1
  Tl  Tl42  1  0.32605224  0.63787362  0.03966879  1
  Tl  Tl43  1  0.82605224  0.36212638  0.46033121  1
  Tl  Tl44  1  0.82605224  0.86212638  0.03966879  1
  Tl  Tl45  1  0.32605224  0.13787362  0.46033121  1
  Tl  Tl46  1  0.67394776  0.36212638  0.96033121  1
  Tl  Tl47  1  0.17394776  0.63787362  0.53966879  1
  Tl  Tl48  1  0.89675294  0.06896511  0.79932805  1
  Tl  Tl49  1  0.39675294  0.93103489  0.70067195  1
  Tl  Tl50  1  0.60324706  0.56896511  0.20067195  1
  Tl  Tl51  1  0.10324706  0.43103489  0.29932805  1
  Tl  Tl52  1  0.10324706  0.93103489  0.20067195  1
  Tl  Tl53  1  0.60324706  0.06896511  0.29932805  1
  Tl  Tl54  1  0.39675294  0.43103489  0.79932805  1
  Tl  Tl55  1  0.89675294  0.56896511  0.70067195  1
