# generated using pymatgen
data_Na2Cu4S3
_symmetry_space_group_name_H-M   'P 1'
_cell_length_a   3.82092643
_cell_length_b   8.25062266
_cell_length_c   10.27452524
_cell_angle_alpha   107.57316332
_cell_angle_beta   90.00000000
_cell_angle_gamma   103.38856901
_symmetry_Int_Tables_number   1
_chemical_formula_structural   Na2Cu4S3
_chemical_formula_sum   'Na4 Cu8 S6'
_cell_volume   299.54176276
_cell_formula_units_Z   2
loop_
 _symmetry_equiv_pos_site_id
 _symmetry_equiv_pos_as_xyz
  1  'x, y, z'
loop_
 _atom_site_type_symbol
 _atom_site_label
 _atom_site_symmetry_multiplicity
 _atom_site_fract_x
 _atom_site_fract_y
 _atom_site_fract_z
 _atom_site_occupancy
  Na  Na0  1  0.83192422  0.66384845  0.15833355  1
  Na  Na1  1  0.16807578  0.33615155  0.84166645  1
  Na  Na2  1  0.68728094  0.37456189  0.34305527  1
  Na  Na3  1  0.31271906  0.62543811  0.65694473  1
  S  S4  1  0.65012498  0.30024995  0.04575774  1
  S  S5  1  0.02802682  0.05605364  0.27180094  1
  S  S6  1  0.97197318  0.94394636  0.72819906  1
  S  S7  1  0.66475207  0.32950414  0.61394713  1
  S  S8  1  0.33524793  0.67049586  0.38605287  1
  S  S9  1  0.34987502  0.69975005  0.95424226  1
  Cu  Cu10  1  0.51691167  0.03382334  0.88257183  1
  Cu  Cu11  1  0.48308833  0.96617666  0.11742817  1
  Cu  Cu12  1  0.09092662  0.18185324  0.50783487  1
  Cu  Cu13  1  0.08756421  0.17512843  0.08788713  1
  Cu  Cu14  1  0.91243579  0.82487157  0.91211287  1
  Cu  Cu15  1  0.47444985  0.94889970  0.36667273  1
  Cu  Cu16  1  0.52555015  0.05110030  0.63332727  1
  Cu  Cu17  1  0.90907338  0.81814676  0.49216513  1
