# generated using pymatgen
data_NaEr(PO3)4
_symmetry_space_group_name_H-M   'P 1'
_cell_length_a   7.25063651
_cell_length_b   9.76571598
_cell_length_c   13.20063267
_cell_angle_alpha   90.00000000
_cell_angle_beta   90.00000000
_cell_angle_gamma   90.51719836
_symmetry_Int_Tables_number   1
_chemical_formula_structural   NaEr(PO3)4
_chemical_formula_sum   'Na4 Er4 P16 O48'
_cell_volume   934.66778720
_cell_formula_units_Z   4
loop_
 _symmetry_equiv_pos_site_id
 _symmetry_equiv_pos_as_xyz
  1  'x, y, z'
loop_
 _atom_site_type_symbol
 _atom_site_label
 _atom_site_symmetry_multiplicity
 _atom_site_fract_x
 _atom_site_fract_y
 _atom_site_fract_z
 _atom_site_occupancy
  O  O0  1  0.20773039  0.60322161  0.34934502  1
  O  O1  1  0.29226961  0.89677839  0.84934502  1
  O  O2  1  0.79226961  0.39677839  0.65065498  1
  O  O3  1  0.70773039  0.10322161  0.15065498  1
  O  O4  1  0.76300186  0.91182537  0.33629014  1
  O  O5  1  0.73699814  0.58817463  0.83629014  1
  O  O6  1  0.23699814  0.08817463  0.66370986  1
  O  O7  1  0.26300186  0.41182537  0.16370986  1
  O  O8  1  0.40683189  0.69854143  0.16637073  1
  O  O9  1  0.09316811  0.80145857  0.66637073  1
  O  O10  1  0.59316811  0.30145857  0.83362927  1
  O  O11  1  0.90683189  0.19854143  0.33362927  1
  O  O12  1  0.21504313  0.90611629  0.11497684  1
  O  O13  1  0.28495687  0.59388371  0.61497684  1
  O  O14  1  0.78495687  0.09388371  0.88502316  1
  O  O15  1  0.71504313  0.40611629  0.38502316  1
  O  O16  1  0.57516734  0.69686202  0.38526853  1
  O  O17  1  0.77378098  0.60675307  0.20735346  1
  O  O18  1  0.92483266  0.80313798  0.88526853  1
  O  O19  1  0.07516734  0.19686202  0.11473147  1
  O  O20  1  0.82992911  0.85082757  0.13420062  1
  O  O21  1  0.67007089  0.64917243  0.63420062  1
  O  O22  1  0.17007089  0.14917243  0.86579938  1
  O  O23  1  0.32992911  0.35082757  0.36579938  1
  O  O24  1  0.28456924  0.14202964  0.48106112  1
  O  O25  1  0.21543076  0.35797036  0.98106112  1
  O  O26  1  0.71543076  0.85797036  0.51893888  1
  O  O27  1  0.78456924  0.64202964  0.01893888  1
  O  O28  1  0.71847054  0.28792684  0.01200499  1
  O  O29  1  0.78152946  0.21207316  0.51200499  1
  O  O30  1  0.28152946  0.71207316  0.98799501  1
  O  O31  1  0.21847054  0.78792684  0.48799501  1
  O  O32  1  0.57043787  0.16284586  0.37396345  1
  O  O33  1  0.92956213  0.33715414  0.87396345  1
  O  O34  1  0.42956213  0.83715414  0.62603655  1
  O  O35  1  0.07043787  0.66284586  0.12603655  1
  O  O36  1  0.41688502  0.20113685  0.08183506  1
  O  O37  1  0.08311498  0.29886315  0.58183506  1
  O  O38  1  0.58311498  0.79886315  0.91816494  1
  O  O39  1  0.91688502  0.70113685  0.41816494  1
  O  O40  1  0.63121610  0.35494095  0.18589264  1
  O  O41  1  0.86878390  0.14505905  0.68589264  1
  O  O42  1  0.36878390  0.64505905  0.81410736  1
  O  O43  1  0.13121610  0.85494095  0.31410736  1
  O  O44  1  0.27378098  0.10675307  0.29264654  1
  O  O45  1  0.22621902  0.39324693  0.79264654  1
  O  O46  1  0.72621902  0.89324693  0.70735346  1
  O  O47  1  0.42483266  0.30313798  0.61473147  1
  Na  Na48  1  0.49959392  0.06050103  0.77645758  1
  Na  Na49  1  0.99959392  0.56050103  0.72354242  1
  Na  Na50  1  0.50040608  0.93949897  0.22354242  1
  Na  Na51  1  0.00040608  0.43949897  0.27645758  1
  P  P52  1  0.37335860  0.76445805  0.88498641  1
  P  P53  1  0.24946397  0.74475738  0.60398519  1
  P  P54  1  0.74946397  0.24475738  0.89601481  1
  P  P55  1  0.75053603  0.25524262  0.39601481  1
  P  P56  1  0.12664140  0.73554195  0.38498641  1
  P  P57  1  0.25053603  0.75524262  0.10398519  1
  P  P58  1  0.87335860  0.26445805  0.61501359  1
  P  P59  1  0.62664140  0.23554195  0.11501359  1
  P  P60  1  0.35333633  0.19881365  0.37282119  1
  P  P61  1  0.76672899  0.70706802  0.90668315  1
  P  P62  1  0.26672899  0.20706802  0.59331685  1
  P  P63  1  0.23327101  0.29293198  0.09331685  1
  P  P64  1  0.14666367  0.30118635  0.87282119  1
  P  P65  1  0.64666367  0.80118635  0.62717881  1
  P  P66  1  0.85333633  0.69881365  0.12717881  1
  P  P67  1  0.73327101  0.79293198  0.40668315  1
  Er  Er68  1  0.48846375  0.52168481  0.27786678  1
  Er  Er69  1  0.01153625  0.97831519  0.77786678  1
  Er  Er70  1  0.51153625  0.47831519  0.72213322  1
  Er  Er71  1  0.98846375  0.02168481  0.22213322  1
