# generated using pymatgen
data_Sb3O7
_symmetry_space_group_name_H-M   'P 1'
_cell_length_a   6.60819372
_cell_length_b   11.39531847
_cell_length_c   7.63505895
_cell_angle_alpha   90.00000000
_cell_angle_beta   90.00000000
_cell_angle_gamma   90.00000000
_symmetry_Int_Tables_number   1
_chemical_formula_structural   Sb3O7
_chemical_formula_sum   'Sb12 O28'
_cell_volume   574.93881243
_cell_formula_units_Z   4
loop_
 _symmetry_equiv_pos_site_id
 _symmetry_equiv_pos_as_xyz
  1  'x, y, z'
loop_
 _atom_site_type_symbol
 _atom_site_label
 _atom_site_symmetry_multiplicity
 _atom_site_fract_x
 _atom_site_fract_y
 _atom_site_fract_z
 _atom_site_occupancy
  Sb  Sb0  1  0.24815010  0.03543969  0.24919675  1
  Sb  Sb1  1  0.74815010  0.96456031  0.25080325  1
  Sb  Sb2  1  0.75184990  0.53543969  0.75080325  1
  Sb  Sb3  1  0.25184990  0.46456031  0.74919675  1
  Sb  Sb4  1  0.24874496  0.75000000  0.25317402  1
  Sb  Sb5  1  0.74874496  0.25000000  0.24682598  1
  Sb  Sb6  1  0.75125504  0.25000000  0.74682598  1
  Sb  Sb7  1  0.25125504  0.75000000  0.75317402  1
  Sb  Sb8  1  0.74815010  0.53543969  0.25080325  1
  Sb  Sb9  1  0.24815010  0.46456031  0.24919675  1
  Sb  Sb10  1  0.25184990  0.03543969  0.74919675  1
  Sb  Sb11  1  0.75184990  0.96456031  0.75080325  1
  O  O12  1  0.94598133  0.10852334  0.72559710  1
  O  O13  1  0.44598133  0.89147666  0.77440290  1
  O  O14  1  0.05401867  0.60852334  0.27440290  1
  O  O15  1  0.55401867  0.39147666  0.22559710  1
  O  O16  1  0.05401867  0.89147666  0.27440290  1
  O  O17  1  0.55401867  0.10852334  0.22559710  1
  O  O18  1  0.94598133  0.39147666  0.72559710  1
  O  O19  1  0.44598133  0.60852334  0.77440290  1
  O  O20  1  0.55651920  0.10845598  0.77088999  1
  O  O21  1  0.05651920  0.89154402  0.72911001  1
  O  O22  1  0.44348080  0.60845598  0.22911001  1
  O  O23  1  0.94348080  0.39154402  0.27088999  1
  O  O24  1  0.44348080  0.89154402  0.22911001  1
  O  O25  1  0.94348080  0.10845598  0.27088999  1
  O  O26  1  0.55651920  0.39154402  0.77088999  1
  O  O27  1  0.05651920  0.60845598  0.72911001  1
  O  O28  1  0.30558020  0.75000000  0.50254184  1
  O  O29  1  0.80558020  0.25000000  0.99745816  1
  O  O30  1  0.69441980  0.25000000  0.49745816  1
  O  O31  1  0.19441980  0.75000000  0.00254184  1
  O  O32  1  0.21706143  0.42595017  0.99902889  1
  O  O33  1  0.71706143  0.57404983  0.50097111  1
  O  O34  1  0.78293857  0.92595017  0.00097111  1
  O  O35  1  0.28293857  0.07404983  0.49902889  1
  O  O36  1  0.78293857  0.57404983  0.00097111  1
  O  O37  1  0.28293857  0.42595017  0.49902889  1
  O  O38  1  0.21706143  0.07404983  0.99902889  1
  O  O39  1  0.71706143  0.92595017  0.50097111  1
