# generated using pymatgen
data_AlF3
_symmetry_space_group_name_H-M   'P 1'
_cell_length_a   7.27578749
_cell_length_b   10.32658372
_cell_length_c   10.32658372
_cell_angle_alpha   90.00000000
_cell_angle_beta   90.00000000
_cell_angle_gamma   90.00000000
_symmetry_Int_Tables_number   1
_chemical_formula_structural   AlF3
_chemical_formula_sum   'Al16 F48'
_cell_volume   775.87783702
_cell_formula_units_Z   16
loop_
 _symmetry_equiv_pos_site_id
 _symmetry_equiv_pos_as_xyz
  1  'x, y, z'
loop_
 _atom_site_type_symbol
 _atom_site_label
 _atom_site_symmetry_multiplicity
 _atom_site_fract_x
 _atom_site_fract_y
 _atom_site_fract_z
 _atom_site_occupancy
  F  F0  1  0.75506333  0.25000000  0.75000000  1
  F  F1  1  0.75506333  0.75000000  0.25000000  1
  F  F2  1  0.24493667  0.75000000  0.25000000  1
  F  F3  1  0.24493667  0.25000000  0.75000000  1
  F  F4  1  0.50000000  0.62656828  0.37343172  1
  F  F5  1  0.50000000  0.12656828  0.62656828  1
  F  F6  1  0.50000000  0.37343172  0.87343172  1
  F  F7  1  0.50000000  0.87343172  0.12656828  1
  F  F8  1  0.50000000  0.37343172  0.62656828  1
  F  F9  1  0.50000000  0.87343172  0.37343172  1
  F  F10  1  0.50000000  0.62656828  0.12656828  1
  F  F11  1  0.50000000  0.12656828  0.87343172  1
  F  F12  1  0.58919473  0.92359437  0.75000000  1
  F  F13  1  0.58919473  0.57640563  0.75000000  1
  F  F14  1  0.58919473  0.75000000  0.57640563  1
  F  F15  1  0.41080527  0.25000000  0.42359437  1
  F  F16  1  0.58919473  0.75000000  0.92359437  1
  F  F17  1  0.90925424  0.37874925  0.12125075  1
  F  F18  1  0.90925424  0.12125075  0.37874925  1
  F  F19  1  0.90925424  0.37874925  0.37874925  1
  F  F20  1  0.09074576  0.62125075  0.87874925  1
  F  F21  1  0.09074576  0.87874925  0.62125075  1
  F  F22  1  0.09074576  0.62125075  0.62125075  1
  F  F23  1  0.09074576  0.87874925  0.87874925  1
  F  F24  1  0.16298733  0.12221097  0.94806267  1
  F  F25  1  0.16298733  0.55193733  0.12221097  1
  F  F26  1  0.16298733  0.94806267  0.37778903  1
  F  F27  1  0.16298733  0.37778903  0.55193733  1
  F  F28  1  0.83701267  0.62221097  0.05193733  1
  F  F29  1  0.83701267  0.87778903  0.44806267  1
  F  F30  1  0.83701267  0.44806267  0.62221097  1
  F  F31  1  0.83701267  0.05193733  0.87778903  1
  F  F32  1  0.83701267  0.87778903  0.05193733  1
  F  F33  1  0.83701267  0.44806267  0.87778903  1
  F  F34  1  0.83701267  0.05193733  0.62221097  1
  F  F35  1  0.83701267  0.62221097  0.44806267  1
  F  F36  1  0.16298733  0.37778903  0.94806267  1
  F  F37  1  0.16298733  0.12221097  0.55193733  1
  F  F38  1  0.16298733  0.55193733  0.37778903  1
  F  F39  1  0.16298733  0.94806267  0.12221097  1
  F  F40  1  0.15861279  0.25000000  0.25000000  1
  F  F41  1  0.84138721  0.75000000  0.75000000  1
  F  F42  1  0.66210962  0.25000000  0.25000000  1
  F  F43  1  0.33789038  0.75000000  0.75000000  1
  F  F44  1  0.41080527  0.25000000  0.07640563  1
  F  F45  1  0.41080527  0.42359437  0.25000000  1
  F  F46  1  0.41080527  0.07640563  0.25000000  1
  F  F47  1  0.90925424  0.12125075  0.12125075  1
  Al  Al48  1  0.67159721  0.08644402  0.75000000  1
  Al  Al49  1  0.67159721  0.41355598  0.75000000  1
  Al  Al50  1  0.67159721  0.75000000  0.41355598  1
  Al  Al51  1  0.67159721  0.75000000  0.08644402  1
  Al  Al52  1  0.32840279  0.25000000  0.58644402  1
  Al  Al53  1  0.32840279  0.91355598  0.25000000  1
  Al  Al54  1  0.32840279  0.58644402  0.25000000  1
  Al  Al55  1  0.32840279  0.25000000  0.91355598  1
  Al  Al56  1  0.58773403  0.75000000  0.75000000  1
  Al  Al57  1  0.41226597  0.25000000  0.25000000  1
  Al  Al58  1  0.09069871  0.75000000  0.75000000  1
  Al  Al59  1  0.90930129  0.25000000  0.25000000  1
  Al  Al60  1  0.00000000  0.50000000  0.50000000  1
  Al  Al61  1  0.00000000  0.00000000  0.50000000  1
  Al  Al62  1  0.00000000  0.50000000  0.00000000  1
  Al  Al63  1  0.00000000  0.00000000  0.00000000  1
