# generated using pymatgen
data_Cd4SiSe6
_symmetry_space_group_name_H-M   'P 1'
_cell_length_a   7.54078492
_cell_length_b   7.57601101
_cell_length_c   13.04774637
_cell_angle_alpha   73.84580196
_cell_angle_beta   73.20376641
_cell_angle_gamma   60.15369162
_symmetry_Int_Tables_number   1
_chemical_formula_structural   Cd4SiSe6
_chemical_formula_sum   'Cd8 Si2 Se12'
_cell_volume   610.79258850
_cell_formula_units_Z   2
loop_
 _symmetry_equiv_pos_site_id
 _symmetry_equiv_pos_as_xyz
  1  'x, y, z'
loop_
 _atom_site_type_symbol
 _atom_site_label
 _atom_site_symmetry_multiplicity
 _atom_site_fract_x
 _atom_site_fract_y
 _atom_site_fract_z
 _atom_site_occupancy
  Si  Si0  1  0.68189301  0.78201759  0.39576466  1
  Si  Si1  1  0.14032473  0.28201759  0.89576466  1
  Se  Se2  1  0.55754948  0.65226894  0.76617129  1
  Se  Se3  1  0.02401029  0.15226894  0.26617129  1
  Se  Se4  1  0.99851829  0.58783569  0.44672650  1
  Se  Se5  1  0.96691952  0.08783569  0.94672650  1
  Se  Se6  1  0.96988579  0.60009844  0.94698967  1
  Se  Se7  1  0.48302610  0.10009844  0.44698967  1
  Se  Se8  1  0.71333844  0.82081132  0.21177826  1
  Se  Se9  1  0.25407198  0.32081132  0.71177826  1
  Se  Se10  1  0.41567338  0.52402213  0.14486900  1
  Se  Se11  1  0.91543550  0.02402213  0.64486900  1
  Se  Se12  1  0.48086088  0.61256560  0.47571581  1
  Se  Se13  1  0.43085770  0.11256560  0.97571581  1
  Cd  Cd14  1  0.27382559  0.74007156  0.30916693  1
  Cd  Cd15  1  0.67693592  0.24007156  0.80916693  1
  Cd  Cd16  1  0.77234530  0.16302946  0.15277922  1
  Cd  Cd17  1  0.91184602  0.66302946  0.65277922  1
  Cd  Cd18  1  0.55525729  0.71840912  0.95816220  1
  Cd  Cd19  1  0.76817140  0.21840912  0.45816220  1
  Cd  Cd20  1  0.07967444  0.48507016  0.14607645  1
  Cd  Cd21  1  0.28917894  0.98507016  0.64607645  1
