# generated using pymatgen
data_ZnNiP2WO9
_symmetry_space_group_name_H-M   'P 1'
_cell_length_a   6.46817173
_cell_length_b   7.68592368
_cell_length_c   14.51003753
_cell_angle_alpha   90.01590198
_cell_angle_beta   90.01928345
_cell_angle_gamma   90.24447546
_symmetry_Int_Tables_number   1
_chemical_formula_structural   ZnNiP2WO9
_chemical_formula_sum   'Zn4 Ni4 P8 W4 O36'
_cell_volume   721.34354562
_cell_formula_units_Z   4
loop_
 _symmetry_equiv_pos_site_id
 _symmetry_equiv_pos_as_xyz
  1  'x, y, z'
loop_
 _atom_site_type_symbol
 _atom_site_label
 _atom_site_symmetry_multiplicity
 _atom_site_fract_x
 _atom_site_fract_y
 _atom_site_fract_z
 _atom_site_occupancy
  Zn  Zn0  1  0.74697128  0.97002557  0.81612088  1
  Zn  Zn1  1  0.75122156  0.52974802  0.31676675  1
  Zn  Zn2  1  0.24574463  0.03007335  0.18352994  1
  Zn  Zn3  1  0.25203163  0.47003163  0.68381501  1
  Ni  Ni4  1  0.49762279  0.00036153  0.00010646  1
  Ni  Ni5  1  0.50012660  0.50027975  0.50045261  1
  Ni  Ni6  1  0.00026171  0.49956658  0.49973342  1
  Ni  Ni7  1  0.99764179  0.99977585  0.99970876  1
  P  P8  1  0.25206252  0.34782619  0.92853467  1
  P  P9  1  0.75127961  0.65236020  0.07138166  1
  P  P10  1  0.74966799  0.84755828  0.57140684  1
  P  P11  1  0.24918591  0.15240285  0.42864459  1
  P  P12  1  0.75086395  0.37686789  0.69022868  1
  P  P13  1  0.25036955  0.62302569  0.30969745  1
  P  P14  1  0.24835644  0.87619944  0.81004859  1
  P  P15  1  0.74839124  0.12393692  0.18995926  1
  W  W16  1  0.75109183  0.36371767  0.88245292  1
  W  W17  1  0.25316245  0.63660039  0.11761944  1
  W  W18  1  0.24949039  0.86368799  0.61770511  1
  W  W19  1  0.74926016  0.13607999  0.38235719  1
  O  O20  1  0.04763307  0.61773419  0.36779778  1
  O  O21  1  0.54734942  0.38390757  0.63271419  1
  O  O22  1  0.95140747  0.11757962  0.13217828  1
  O  O23  1  0.45107551  0.88281273  0.86808215  1
  O  O24  1  0.95406269  0.38414368  0.63258873  1
  O  O25  1  0.45415901  0.61390555  0.36693982  1
  O  O26  1  0.04427001  0.88349346  0.86696752  1
  O  O27  1  0.54477582  0.11635594  0.13263946  1
  O  O28  1  0.24965979  0.33572136  0.47293557  1
  O  O29  1  0.75062727  0.66430097  0.52713883  1
  O  O30  1  0.74597563  0.83546809  0.02711346  1
  O  O31  1  0.24947584  0.16467523  0.97299146  1
  O  O32  1  0.74760501  0.12199173  0.93488092  1
  O  O33  1  0.24380836  0.87797352  0.06499663  1
  O  O34  1  0.25424393  0.62214407  0.56506004  1
  O  O35  1  0.75330444  0.37756198  0.43520883  1
  O  O36  1  0.75059633  0.20914168  0.75371531  1
  O  O37  1  0.25414340  0.79085263  0.24625019  1
  O  O38  1  0.24811157  0.70876573  0.74626693  1
  O  O39  1  0.74885502  0.29129103  0.25379943  1
  O  O40  1  0.43387959  0.12316591  0.36503607  1
  O  O41  1  0.93452088  0.87821546  0.63504816  1
  O  O42  1  0.56764113  0.61864495  0.13561133  1
  O  O43  1  0.06645960  0.37863968  0.86552209  1
  O  O44  1  0.56655308  0.87531389  0.63610359  1
  O  O45  1  0.06599250  0.12325973  0.36402878  1
  O  O46  1  0.43441277  0.37430435  0.86296117  1
  O  O47  1  0.93598995  0.62813530  0.13548896  1
  O  O48  1  0.75032085  0.97788534  0.26470367  1
  O  O49  1  0.25236163  0.02217774  0.73526061  1
  O  O50  1  0.24455196  0.47734055  0.23482105  1
  O  O51  1  0.75099835  0.52251022  0.76511661  1
  O  O52  1  0.74767129  0.98248866  0.49222709  1
  O  O53  1  0.24779148  0.01744957  0.50788184  1
  O  O54  1  0.25968382  0.48336699  0.00726191  1
  O  O55  1  0.75522845  0.51715510  0.99239029  1
