# generated using pymatgen
data_VFeMoO7
_symmetry_space_group_name_H-M   'P 1'
_cell_length_a   5.65362638
_cell_length_b   6.81231268
_cell_length_c   8.05014997
_cell_angle_alpha   95.73877440
_cell_angle_beta   90.17631595
_cell_angle_gamma   101.41300823
_symmetry_Int_Tables_number   1
_chemical_formula_structural   VFeMoO7
_chemical_formula_sum   'V2 Fe2 Mo2 O14'
_cell_volume   302.30861230
_cell_formula_units_Z   2
loop_
 _symmetry_equiv_pos_site_id
 _symmetry_equiv_pos_as_xyz
  1  'x, y, z'
loop_
 _atom_site_type_symbol
 _atom_site_label
 _atom_site_symmetry_multiplicity
 _atom_site_fract_x
 _atom_site_fract_y
 _atom_site_fract_z
 _atom_site_occupancy
  O  O0  1  0.77848589  0.04528946  0.89617972  1
  O  O1  1  0.22151419  0.95471028  0.10382088  1
  O  O2  1  0.42796978  0.70369240  0.76915295  1
  O  O3  1  0.57203030  0.29630734  0.23084765  1
  O  O4  1  0.93258998  0.68320475  0.78153672  1
  O  O5  1  0.06741011  0.31679499  0.21846261  1
  O  O6  1  0.20432485  0.99001048  0.61282135  1
  O  O7  1  0.79567523  0.00998926  0.38717925  1
  O  O8  1  0.10754987  0.37584542  0.57648721  1
  O  O9  1  0.89245059  0.62415590  0.42351354  1
  O  O10  1  0.41528818  0.69448321  0.41759372  1
  O  O11  1  0.66519282  0.70760908  0.10892765  1
  O  O12  1  0.58471228  0.30551811  0.58240702  1
  O  O13  1  0.33480543  0.29239065  0.89107295  1
  V  V14  1  0.69199265  0.76096618  0.33583523  1
  V  V15  1  0.30800745  0.23903357  0.66416410  1
  Fe  Fe16  1  0.17187227  0.69157963  0.59551259  1
  Fe  Fe17  1  0.82812783  0.30842011  0.40448674  1
  Mo  Mo18  1  0.70325223  0.78618683  0.89055493  1
  Mo  Mo19  1  0.29674603  0.21381291  0.10944567  1
