# generated using pymatgen
data_Y5Mg24
_symmetry_space_group_name_H-M   'P 1'
_cell_length_a   9.76658646
_cell_length_b   9.76658646
_cell_length_c   9.76658646
_cell_angle_alpha   109.47122064
_cell_angle_beta   109.47122063
_cell_angle_gamma   109.47122064
_symmetry_Int_Tables_number   1
_chemical_formula_structural   Y5Mg24
_chemical_formula_sum   'Y5 Mg24'
_cell_volume   717.14422643
_cell_formula_units_Z   1
loop_
 _symmetry_equiv_pos_site_id
 _symmetry_equiv_pos_as_xyz
  1  'x, y, z'
loop_
 _atom_site_type_symbol
 _atom_site_label
 _atom_site_symmetry_multiplicity
 _atom_site_fract_x
 _atom_site_fract_y
 _atom_site_fract_z
 _atom_site_occupancy
  Mg  Mg0  1  0.19086770  0.19086770  0.82004837  1
  Mg  Mg1  1  0.37081933  0.17995163  0.37081933  1
  Mg  Mg2  1  0.17995163  0.37081933  0.37081933  1
  Mg  Mg3  1  0.00000000  0.62918067  0.80913230  1
  Mg  Mg4  1  0.62918067  0.00000000  0.80913230  1
  Mg  Mg5  1  0.38810252  0.38810252  0.71232316  1
  Mg  Mg6  1  0.61189748  0.32422064  0.00000000  1
  Mg  Mg7  1  0.32422064  0.61189748  0.00000000  1
  Mg  Mg8  1  0.00000000  0.32422064  0.61189748  1
  Mg  Mg9  1  0.28767684  0.67577936  0.67577936  1
  Mg  Mg10  1  0.67577936  0.28767684  0.67577936  1
  Mg  Mg11  1  0.32422064  0.00000000  0.61189748  1
  Mg  Mg12  1  0.61189748  0.00000000  0.32422064  1
  Mg  Mg13  1  0.00000000  0.61189748  0.32422064  1
  Mg  Mg14  1  0.71232316  0.38810252  0.38810252  1
  Mg  Mg15  1  0.38810252  0.71232316  0.38810252  1
  Mg  Mg16  1  0.67577936  0.67577936  0.28767684  1
  Mg  Mg17  1  0.37081933  0.37081933  0.17995163  1
  Mg  Mg18  1  0.62918067  0.80913230  0.00000000  1
  Mg  Mg19  1  0.80913230  0.62918067  0.00000000  1
  Mg  Mg20  1  0.00000000  0.80913230  0.62918067  1
  Mg  Mg21  1  0.82004837  0.19086770  0.19086770  1
  Mg  Mg22  1  0.19086770  0.82004837  0.19086770  1
  Mg  Mg23  1  0.80913230  0.00000000  0.62918067  1
  Y  Y24  1  0.00000000  0.00000000  0.37611968  1
  Y  Y25  1  0.00000000  0.37611968  0.00000000  1
  Y  Y26  1  0.37611968  0.00000000  0.00000000  1
  Y  Y27  1  0.62388032  0.62388032  0.62388032  1
  Y  Y28  1  0.00000000  0.00000000  0.00000000  1
