# generated using pymatgen
data_Si(Hg2S3)2
_symmetry_space_group_name_H-M   'P 1'
_cell_length_a   7.30529705
_cell_length_b   7.30529705
_cell_length_c   12.58337093
_cell_angle_alpha   90.63490447
_cell_angle_beta   106.08395221
_cell_angle_gamma   120.24524293
_symmetry_Int_Tables_number   1
_chemical_formula_structural   Si(Hg2S3)2
_chemical_formula_sum   'Si2 Hg8 S12'
_cell_volume   548.16631682
_cell_formula_units_Z   2
loop_
 _symmetry_equiv_pos_site_id
 _symmetry_equiv_pos_as_xyz
  1  'x, y, z'
loop_
 _atom_site_type_symbol
 _atom_site_label
 _atom_site_symmetry_multiplicity
 _atom_site_fract_x
 _atom_site_fract_y
 _atom_site_fract_z
 _atom_site_occupancy
  Si  Si0  1  0.47048543  0.67669327  0.60316017  1
  Si  Si1  1  0.42646690  0.13267474  0.10316017  1
  S  S2  1  0.21080757  0.54691642  0.23378164  1
  S  S3  1  0.18686522  0.02297407  0.73378164  1
  S  S4  1  0.59221672  0.98419351  0.55539961  1
  S  S5  1  0.07120611  0.96318289  0.05539961  1
  S  S6  1  0.56515804  0.96607529  0.05070885  1
  S  S7  1  0.58463356  0.48555081  0.55070885  1
  S  S8  1  0.54325665  0.70962795  0.78203482  1
  S  S9  1  0.57240687  0.23877817  0.28203482  1
  S  S10  1  0.94693826  0.41575114  0.85428149  1
  S  S11  1  0.93853035  0.90734323  0.35428149  1
  S  S12  1  0.10920678  0.48503078  0.52969529  1
  S  S13  1  0.54466451  0.42048851  0.02969529  1
  Hg  Hg14  1  0.03102712  0.27914957  0.69496328  1
  Hg  Hg15  1  0.91581371  0.66393616  0.19496328  1
  Hg  Hg16  1  0.94733926  0.78220634  0.84852540  1
  Hg  Hg17  1  0.56631906  0.90118614  0.34852540  1
  Hg  Hg18  1  0.26803127  0.53889848  0.04232421  1
  Hg  Hg19  1  0.00342573  0.77429294  0.54232421  1
  Hg  Hg20  1  0.58023782  0.07986218  0.85442525  1
  Hg  Hg21  1  0.27456306  0.27418742  0.35442525  1
