# generated using pymatgen
data_TlCu7S4
_symmetry_space_group_name_H-M   'P 1'
_cell_length_a   7.57818010
_cell_length_b   10.21747340
_cell_length_c   10.21747340
_cell_angle_alpha   90.00000000
_cell_angle_beta   90.00000000
_cell_angle_gamma   90.00000000
_symmetry_Int_Tables_number   1
_chemical_formula_structural   TlCu7S4
_chemical_formula_sum   'Tl4 Cu28 S16'
_cell_volume   791.13746944
_cell_formula_units_Z   4
loop_
 _symmetry_equiv_pos_site_id
 _symmetry_equiv_pos_as_xyz
  1  'x, y, z'
loop_
 _atom_site_type_symbol
 _atom_site_label
 _atom_site_symmetry_multiplicity
 _atom_site_fract_x
 _atom_site_fract_y
 _atom_site_fract_z
 _atom_site_occupancy
  S  S0  1  0.13323138  0.98928029  0.18989767  1
  S  S1  1  0.13323138  0.31010233  0.98928029  1
  S  S2  1  0.13323138  0.18989767  0.51071971  1
  S  S3  1  0.13323138  0.51071971  0.31010233  1
  S  S4  1  0.86676862  0.01071971  0.81010233  1
  S  S5  1  0.86676862  0.68989767  0.01071971  1
  S  S6  1  0.86676862  0.81010233  0.48928029  1
  S  S7  1  0.86676862  0.48928029  0.68989767  1
  S  S8  1  0.36889355  0.00969831  0.81186110  1
  S  S9  1  0.36889355  0.68813890  0.00969831  1
  S  S10  1  0.36889355  0.81186110  0.49030169  1
  S  S11  1  0.36889355  0.49030169  0.68813890  1
  S  S12  1  0.63110645  0.99030169  0.18813890  1
  S  S13  1  0.63110645  0.31186110  0.99030169  1
  S  S14  1  0.63110645  0.18813890  0.50969831  1
  S  S15  1  0.63110645  0.50969831  0.31186110  1
  Cu  Cu16  1  0.00000000  0.00000000  0.00000000  1
  Cu  Cu17  1  0.00000000  0.50000000  0.00000000  1
  Cu  Cu18  1  0.00000000  0.00000000  0.50000000  1
  Cu  Cu19  1  0.00000000  0.50000000  0.50000000  1
  Cu  Cu20  1  0.34474272  0.47647482  0.94736886  1
  Cu  Cu21  1  0.34474272  0.55263114  0.47647482  1
  Cu  Cu22  1  0.34474272  0.94736886  0.02352518  1
  Cu  Cu23  1  0.34474272  0.02352518  0.55263114  1
  Cu  Cu24  1  0.65525728  0.52352518  0.05263114  1
  Cu  Cu25  1  0.65525728  0.44736886  0.52352518  1
  Cu  Cu26  1  0.65525728  0.05263114  0.97647482  1
  Cu  Cu27  1  0.65525728  0.97647482  0.44736886  1
  Cu  Cu28  1  0.11941552  0.72867362  0.38246223  1
  Cu  Cu29  1  0.11941552  0.11753777  0.72867362  1
  Cu  Cu30  1  0.11941552  0.38246223  0.77132638  1
  Cu  Cu31  1  0.11941552  0.77132638  0.11753777  1
  Cu  Cu32  1  0.88058448  0.27132638  0.61753777  1
  Cu  Cu33  1  0.88058448  0.88246223  0.27132638  1
  Cu  Cu34  1  0.88058448  0.61753777  0.22867362  1
  Cu  Cu35  1  0.88058448  0.22867362  0.88246223  1
  Cu  Cu36  1  0.38706499  0.28246305  0.60993649  1
  Cu  Cu37  1  0.38706499  0.89006351  0.28246305  1
  Cu  Cu38  1  0.38706499  0.60993649  0.21753695  1
  Cu  Cu39  1  0.38706499  0.21753695  0.89006351  1
  Cu  Cu40  1  0.61293501  0.71753695  0.39006351  1
  Cu  Cu41  1  0.61293501  0.10993649  0.71753695  1
  Cu  Cu42  1  0.61293501  0.39006351  0.78246305  1
  Cu  Cu43  1  0.61293501  0.78246305  0.10993649  1
  Tl  Tl44  1  0.37819813  0.25000000  0.25000000  1
  Tl  Tl45  1  0.62180187  0.75000000  0.75000000  1
  Tl  Tl46  1  0.88334064  0.25000000  0.25000000  1
  Tl  Tl47  1  0.11665936  0.75000000  0.75000000  1
