# generated using pymatgen
data_In9Pb4S17
_symmetry_space_group_name_H-M   'P 1'
_cell_length_a   3.90496495
_cell_length_b   15.48829082
_cell_length_c   23.02619294
_cell_angle_alpha   90.00000000
_cell_angle_beta   90.00000000
_cell_angle_gamma   90.00000000
_symmetry_Int_Tables_number   1
_chemical_formula_structural   In9Pb4S17
_chemical_formula_sum   'In18 Pb8 S34'
_cell_volume   1392.65253541
_cell_formula_units_Z   2
loop_
 _symmetry_equiv_pos_site_id
 _symmetry_equiv_pos_as_xyz
  1  'x, y, z'
loop_
 _atom_site_type_symbol
 _atom_site_label
 _atom_site_symmetry_multiplicity
 _atom_site_fract_x
 _atom_site_fract_y
 _atom_site_fract_z
 _atom_site_occupancy
  S  S0  1  0.50000000  0.06738232  0.06675599  1
  S  S1  1  0.50000000  0.93261768  0.93324401  1
  S  S2  1  0.50000000  0.56738232  0.43324401  1
  S  S3  1  0.50000000  0.43261768  0.56675599  1
  S  S4  1  0.50000000  0.50000000  0.00000000  1
  S  S5  1  0.50000000  0.00000000  0.50000000  1
  S  S6  1  0.00000000  0.21293244  0.54040580  1
  S  S7  1  0.00000000  0.78706756  0.45959420  1
  S  S8  1  0.00000000  0.71293244  0.95959420  1
  S  S9  1  0.00000000  0.28706756  0.04040580  1
  S  S10  1  0.00000000  0.02089402  0.79001847  1
  S  S11  1  0.00000000  0.97910598  0.20998153  1
  S  S12  1  0.00000000  0.52089402  0.70998153  1
  S  S13  1  0.00000000  0.47910598  0.29001847  1
  S  S14  1  0.00000000  0.30849521  0.68208511  1
  S  S15  1  0.50000000  0.10410489  0.65689526  1
  S  S16  1  0.50000000  0.60410489  0.84310474  1
  S  S17  1  0.50000000  0.39589511  0.15689526  1
  S  S18  1  0.50000000  0.21929619  0.80632137  1
  S  S19  1  0.50000000  0.78070381  0.19367863  1
  S  S20  1  0.50000000  0.71929619  0.69367863  1
  S  S21  1  0.50000000  0.28070381  0.30632137  1
  S  S22  1  0.00000000  0.13152077  0.92904272  1
  S  S23  1  0.00000000  0.86847923  0.07095728  1
  S  S24  1  0.00000000  0.63152077  0.57095728  1
  S  S25  1  0.00000000  0.36847923  0.42904272  1
  S  S26  1  0.00000000  0.10208037  0.37265206  1
  S  S27  1  0.00000000  0.89791963  0.62734794  1
  S  S28  1  0.00000000  0.60208037  0.12734794  1
  S  S29  1  0.00000000  0.39791963  0.87265206  1
  S  S30  1  0.00000000  0.19150479  0.18208511  1
  S  S31  1  0.00000000  0.80849521  0.81791489  1
  S  S32  1  0.00000000  0.69150479  0.31791489  1
  S  S33  1  0.50000000  0.89589511  0.34310474  1
  In  In34  1  0.50000000  0.06704614  0.86410209  1
  In  In35  1  0.50000000  0.93295386  0.13589791  1
  In  In36  1  0.50000000  0.56704614  0.63589791  1
  In  In37  1  0.50000000  0.43295386  0.36410209  1
  In  In38  1  0.50000000  0.26933824  0.61010041  1
  In  In39  1  0.50000000  0.73066176  0.38989959  1
  In  In40  1  0.50000000  0.76933824  0.88989959  1
  In  In41  1  0.50000000  0.23066176  0.11010041  1
  In  In42  1  0.00000000  0.16759270  0.73907217  1
  In  In43  1  0.00000000  0.83240730  0.26092783  1
  In  In44  1  0.00000000  0.66759270  0.76092783  1
  In  In45  1  0.00000000  0.33240730  0.23907217  1
  In  In46  1  0.00000000  0.50000000  0.50000000  1
  In  In47  1  0.00000000  0.00000000  0.00000000  1
  In  In48  1  0.00000000  0.05126195  0.57795427  1
  In  In49  1  0.00000000  0.94873805  0.42204573  1
  In  In50  1  0.00000000  0.55126195  0.92204573  1
  In  In51  1  0.00000000  0.44873805  0.07795427  1
  Pb  Pb52  1  0.50000000  0.29492514  0.93617410  1
  Pb  Pb53  1  0.50000000  0.70507486  0.06382590  1
  Pb  Pb54  1  0.50000000  0.79492514  0.56382590  1
  Pb  Pb55  1  0.50000000  0.20507486  0.43617410  1
  Pb  Pb56  1  0.50000000  0.40816465  0.78110305  1
  Pb  Pb57  1  0.50000000  0.59183535  0.21889695  1
  Pb  Pb58  1  0.50000000  0.90816465  0.71889695  1
  Pb  Pb59  1  0.50000000  0.09183535  0.28110305  1
