# generated using pymatgen
data_Na3TiP3NO9
_symmetry_space_group_name_H-M   'P 1'
_cell_length_a   9.62969704
_cell_length_b   9.62969704
_cell_length_c   9.62969704
_cell_angle_alpha   90.00000000
_cell_angle_beta   90.00000000
_cell_angle_gamma   90.00000000
_symmetry_Int_Tables_number   1
_chemical_formula_structural   Na3TiP3NO9
_chemical_formula_sum   'Na12 Ti4 P12 N4 O36'
_cell_volume   892.97206294
_cell_formula_units_Z   4
loop_
 _symmetry_equiv_pos_site_id
 _symmetry_equiv_pos_as_xyz
  1  'x, y, z'
loop_
 _atom_site_type_symbol
 _atom_site_label
 _atom_site_symmetry_multiplicity
 _atom_site_fract_x
 _atom_site_fract_y
 _atom_site_fract_z
 _atom_site_occupancy
  N  N0  1  0.05072612  0.94927388  0.44927388  1
  N  N1  1  0.55072612  0.55072612  0.55072612  1
  N  N2  1  0.94927388  0.44927388  0.05072612  1
  N  N3  1  0.44927388  0.05072612  0.94927388  1
  O  O4  1  0.12431513  0.36310740  0.24276529  1
  O  O5  1  0.80003483  0.06231237  0.41836420  1
  O  O6  1  0.08163580  0.19996517  0.56231237  1
  O  O7  1  0.19996517  0.56231237  0.08163580  1
  O  O8  1  0.58163580  0.30003483  0.43768763  1
  O  O9  1  0.91836420  0.69996517  0.93768763  1
  O  O10  1  0.69996517  0.93768763  0.91836420  1
  O  O11  1  0.93768763  0.91836420  0.69996517  1
  O  O12  1  0.36310740  0.24276529  0.12431513  1
  O  O13  1  0.86310740  0.25723471  0.87568487  1
  O  O14  1  0.63689260  0.74276529  0.37568487  1
  O  O15  1  0.25723471  0.87568487  0.86310740  1
  O  O16  1  0.47803319  0.40080252  0.77066508  1
  O  O17  1  0.87568487  0.86310740  0.25723471  1
  O  O18  1  0.24276529  0.12431513  0.36310740  1
  O  O19  1  0.30003483  0.43768763  0.58163580  1
  O  O20  1  0.74276529  0.37568487  0.63689260  1
  O  O21  1  0.75723471  0.62431513  0.13689260  1
  O  O22  1  0.62431513  0.13689260  0.75723471  1
  O  O23  1  0.13689260  0.75723471  0.62431513  1
  O  O24  1  0.59919748  0.27066508  0.02196681  1
  O  O25  1  0.09919748  0.22933492  0.97803319  1
  O  O26  1  0.40080252  0.77066508  0.47803319  1
  O  O27  1  0.22933492  0.97803319  0.09919748  1
  O  O28  1  0.56231237  0.08163580  0.19996517  1
  O  O29  1  0.41836420  0.80003483  0.06231237  1
  O  O30  1  0.43768763  0.58163580  0.30003483  1
  O  O31  1  0.06231237  0.41836420  0.80003483  1
  O  O32  1  0.90080252  0.72933492  0.52196681  1
  O  O33  1  0.52196681  0.90080252  0.72933492  1
  O  O34  1  0.72933492  0.52196681  0.90080252  1
  O  O35  1  0.77066508  0.47803319  0.40080252  1
  O  O36  1  0.02196681  0.59919748  0.27066508  1
  O  O37  1  0.27066508  0.02196681  0.59919748  1
  O  O38  1  0.97803319  0.09919748  0.22933492  1
  O  O39  1  0.37568487  0.63689260  0.74276529  1
  Na  Na40  1  0.74131194  0.74131194  0.74131194  1
  Na  Na41  1  0.64242893  0.85757107  0.14242893  1
  Na  Na42  1  0.35757107  0.35757107  0.35757107  1
  Na  Na43  1  0.94442147  0.94442147  0.94442147  1
  Na  Na44  1  0.55557853  0.05557853  0.44442147  1
  Na  Na45  1  0.44442147  0.55557853  0.05557853  1
  Na  Na46  1  0.05557853  0.44442147  0.55557853  1
  Na  Na47  1  0.25868806  0.24131194  0.75868806  1
  Na  Na48  1  0.14242893  0.64242893  0.85757107  1
  Na  Na49  1  0.24131194  0.75868806  0.25868806  1
  Na  Na50  1  0.75868806  0.25868806  0.24131194  1
  Na  Na51  1  0.85757107  0.14242893  0.64242893  1
  P  P52  1  0.58300595  0.00403080  0.83635608  1
  P  P53  1  0.83635608  0.58300595  0.00403080  1
  P  P54  1  0.66364392  0.41699405  0.50403080  1
  P  P55  1  0.08300595  0.49596920  0.16364392  1
  P  P56  1  0.16364392  0.08300595  0.49596920  1
  P  P57  1  0.91699405  0.99596920  0.33635608  1
  P  P58  1  0.41699405  0.50403080  0.66364392  1
  P  P59  1  0.33635608  0.91699405  0.99596920  1
  P  P60  1  0.50403080  0.66364392  0.41699405  1
  P  P61  1  0.99596920  0.33635608  0.91699405  1
  P  P62  1  0.00403080  0.83635608  0.58300595  1
  P  P63  1  0.49596920  0.16364392  0.08300595  1
  Ti  Ti64  1  0.33117692  0.83117692  0.66882308  1
  Ti  Ti65  1  0.83117692  0.66882308  0.33117692  1
  Ti  Ti66  1  0.16882308  0.16882308  0.16882308  1
  Ti  Ti67  1  0.66882308  0.33117692  0.83117692  1
