# generated using pymatgen
data_Mn(GeO3)2
_symmetry_space_group_name_H-M   'P 1'
_cell_length_a   5.41772932
_cell_length_b   8.86951731
_cell_length_c   9.98725214
_cell_angle_alpha   90.00000000
_cell_angle_beta   104.69929934
_cell_angle_gamma   90.00000000
_symmetry_Int_Tables_number   1
_chemical_formula_structural   Mn(GeO3)2
_chemical_formula_sum   'Mn4 Ge8 O24'
_cell_volume   464.20670094
_cell_formula_units_Z   4
loop_
 _symmetry_equiv_pos_site_id
 _symmetry_equiv_pos_as_xyz
  1  'x, y, z'
loop_
 _atom_site_type_symbol
 _atom_site_label
 _atom_site_symmetry_multiplicity
 _atom_site_fract_x
 _atom_site_fract_y
 _atom_site_fract_z
 _atom_site_occupancy
  Mn  Mn0  1  0.97432248  0.65957316  0.24045560  1
  Mn  Mn1  1  0.52567752  0.15957316  0.75954440  1
  Mn  Mn2  1  0.02567752  0.34042684  0.75954440  1
  Mn  Mn3  1  0.47432248  0.84042684  0.24045560  1
  Ge  Ge4  1  0.84648975  0.34024012  0.05331420  1
  Ge  Ge5  1  0.65351025  0.84024012  0.94668580  1
  Ge  Ge6  1  0.15351025  0.65975988  0.94668580  1
  Ge  Ge7  1  0.34648975  0.15975988  0.05331420  1
  Ge  Ge8  1  0.12003530  0.34521058  0.47305494  1
  Ge  Ge9  1  0.37996470  0.84521058  0.52694506  1
  Ge  Ge10  1  0.87996470  0.65478942  0.52694506  1
  Ge  Ge11  1  0.62003530  0.15478942  0.47305494  1
  O  O12  1  0.36673986  0.27654723  0.40020467  1
  O  O13  1  0.13326014  0.77654723  0.59979533  1
  O  O14  1  0.63326014  0.72345277  0.59979533  1
  O  O15  1  0.86673986  0.22345277  0.40020467  1
  O  O16  1  0.17267737  0.30038126  0.11282479  1
  O  O17  1  0.32732263  0.80038126  0.88717521  1
  O  O18  1  0.82732263  0.69961874  0.88717621  1
  O  O19  1  0.67267737  0.19961874  0.11282379  1
  O  O20  1  0.60461615  0.96254435  0.40636338  1
  O  O21  1  0.89538385  0.46254435  0.59363662  1
  O  O22  1  0.39538385  0.03745565  0.59363662  1
  O  O23  1  0.10461615  0.53745565  0.40636338  1
  O  O24  1  0.28895337  0.98380757  0.11924899  1
  O  O25  1  0.21104663  0.48380757  0.88075101  1
  O  O26  1  0.71104663  0.01619243  0.88075101  1
  O  O27  1  0.78895337  0.51619243  0.11924899  1
  O  O28  1  0.75639446  0.32772136  0.86426716  1
  O  O29  1  0.74360554  0.82772136  0.13573284  1
  O  O30  1  0.24360554  0.67227864  0.13573284  1
  O  O31  1  0.25639446  0.17227864  0.86426716  1
  O  O32  1  0.28581784  0.31551883  0.65817352  1
  O  O33  1  0.21418216  0.81551883  0.34182648  1
  O  O34  1  0.71418216  0.68448117  0.34182648  1
  O  O35  1  0.78581784  0.18448117  0.65817352  1
