# generated using pymatgen
data_NdSnPt
_symmetry_space_group_name_H-M   'P 1'
_cell_length_a   4.64940615
_cell_length_b   7.48278450
_cell_length_c   8.12886485
_cell_angle_alpha   90.00000000
_cell_angle_beta   90.00000000
_cell_angle_gamma   90.00000000
_symmetry_Int_Tables_number   1
_chemical_formula_structural   NdSnPt
_chemical_formula_sum   'Nd4 Sn4 Pt4'
_cell_volume   282.80730730
_cell_formula_units_Z   4
loop_
 _symmetry_equiv_pos_site_id
 _symmetry_equiv_pos_as_xyz
  1  'x, y, z'
loop_
 _atom_site_type_symbol
 _atom_site_label
 _atom_site_symmetry_multiplicity
 _atom_site_fract_x
 _atom_site_fract_y
 _atom_site_fract_z
 _atom_site_occupancy
  Sn  Sn0  1  0.25000000  0.67711191  0.41602273  1
  Sn  Sn1  1  0.25000000  0.17711191  0.08397727  1
  Sn  Sn2  1  0.75000000  0.32288809  0.58397727  1
  Sn  Sn3  1  0.75000000  0.82288809  0.91602273  1
  Nd  Nd4  1  0.75000000  0.48812237  0.19536924  1
  Nd  Nd5  1  0.25000000  0.01187763  0.69536924  1
  Nd  Nd6  1  0.75000000  0.98812237  0.30463076  1
  Nd  Nd7  1  0.25000000  0.51187763  0.80463076  1
  Pt  Pt8  1  0.25000000  0.78929590  0.09104425  1
  Pt  Pt9  1  0.25000000  0.28929590  0.40895575  1
  Pt  Pt10  1  0.75000000  0.71070410  0.59104425  1
  Pt  Pt11  1  0.75000000  0.21070410  0.90895575  1
