# generated using pymatgen
data_CuHgSCl
_symmetry_space_group_name_H-M   'P 1'
_cell_length_a   4.05619674
_cell_length_b   9.98551717
_cell_length_c   18.39898074
_cell_angle_alpha   90.00000000
_cell_angle_beta   90.00000000
_cell_angle_gamma   90.00000000
_symmetry_Int_Tables_number   1
_chemical_formula_structural   CuHgSCl
_chemical_formula_sum   'Cu8 Hg8 S8 Cl8'
_cell_volume   745.21800502
_cell_formula_units_Z   8
loop_
 _symmetry_equiv_pos_site_id
 _symmetry_equiv_pos_as_xyz
  1  'x, y, z'
loop_
 _atom_site_type_symbol
 _atom_site_label
 _atom_site_symmetry_multiplicity
 _atom_site_fract_x
 _atom_site_fract_y
 _atom_site_fract_z
 _atom_site_occupancy
  Cu  Cu0  1  0.00000000  0.90126553  0.62273002  1
  Cu  Cu1  1  0.00000000  0.09873447  0.37726998  1
  Cu  Cu2  1  0.00000000  0.40126553  0.87726998  1
  Cu  Cu3  1  0.00000000  0.43618167  0.42773032  1
  Cu  Cu4  1  0.00000000  0.93618167  0.07226968  1
  Cu  Cu5  1  0.00000000  0.06381833  0.92773032  1
  Cu  Cu6  1  0.00000000  0.56381833  0.57226968  1
  Cu  Cu7  1  0.00000000  0.59873447  0.12273002  1
  Hg  Hg8  1  0.50000000  0.25761256  0.10789116  1
  Hg  Hg9  1  0.50000000  0.97542096  0.23539499  1
  Hg  Hg10  1  0.50000000  0.02457904  0.76460501  1
  Hg  Hg11  1  0.50000000  0.75761256  0.39210884  1
  Hg  Hg12  1  0.50000000  0.52457904  0.73539499  1
  Hg  Hg13  1  0.50000000  0.24238744  0.60789116  1
  Hg  Hg14  1  0.50000000  0.74238744  0.89210884  1
  Hg  Hg15  1  0.50000000  0.47542096  0.26460501  1
  S  S16  1  0.50000000  0.48710786  0.60414612  1
  S  S17  1  0.50000000  0.50372632  0.86699568  1
  S  S18  1  0.50000000  0.49627368  0.13300432  1
  S  S19  1  0.50000000  0.00372632  0.63300432  1
  S  S20  1  0.50000000  0.99627368  0.36699568  1
  S  S21  1  0.50000000  0.01289214  0.10414612  1
  S  S22  1  0.50000000  0.51289214  0.39585388  1
  S  S23  1  0.50000000  0.98710786  0.89585388  1
  Cl  Cl24  1  0.00000000  0.26774259  0.98354856  1
  Cl  Cl25  1  0.00000000  0.76774259  0.51645144  1
  Cl  Cl26  1  0.00000000  0.74972278  0.22530474  1
  Cl  Cl27  1  0.00000000  0.24972278  0.27469526  1
  Cl  Cl28  1  0.00000000  0.73225741  0.01645144  1
  Cl  Cl29  1  0.00000000  0.23225741  0.48354856  1
  Cl  Cl30  1  0.00000000  0.75027722  0.72530474  1
  Cl  Cl31  1  0.00000000  0.25027722  0.77469526  1
