# generated using pymatgen
data_TeI
_symmetry_space_group_name_H-M   'P 1'
_cell_length_a   8.82415870
_cell_length_b   8.41460974
_cell_length_c   10.18074361
_cell_angle_alpha   89.87204038
_cell_angle_beta   103.28084815
_cell_angle_gamma   104.02203512
_symmetry_Int_Tables_number   1
_chemical_formula_structural   TeI
_chemical_formula_sum   'Te8 I8'
_cell_volume   712.65588867
_cell_formula_units_Z   8
loop_
 _symmetry_equiv_pos_site_id
 _symmetry_equiv_pos_as_xyz
  1  'x, y, z'
loop_
 _atom_site_type_symbol
 _atom_site_label
 _atom_site_symmetry_multiplicity
 _atom_site_fract_x
 _atom_site_fract_y
 _atom_site_fract_z
 _atom_site_occupancy
  Te  Te0  1  0.24108619  0.80987741  0.81865889  1
  Te  Te1  1  0.75891381  0.19012259  0.18134111  1
  Te  Te2  1  0.99466728  0.51179507  0.80153625  1
  Te  Te3  1  0.00533272  0.48820493  0.19846375  1
  Te  Te4  1  0.74926888  0.68588619  0.71976840  1
  Te  Te5  1  0.25073112  0.31411381  0.28023160  1
  Te  Te6  1  0.99574989  0.98690312  0.80295687  1
  Te  Te7  1  0.00425011  0.01309688  0.19704313  1
  I  I8  1  0.29254827  0.82057317  0.55878424  1
  I  I9  1  0.70745173  0.17942683  0.44121576  1
  I  I10  1  0.71204442  0.68066019  0.44088331  1
  I  I11  1  0.28795558  0.31933981  0.55911669  1
  I  I12  1  0.72736140  0.17641027  0.81341079  1
  I  I13  1  0.27263860  0.82358973  0.18658921  1
  I  I14  1  0.26950373  0.31433288  0.91344258  1
  I  I15  1  0.73049627  0.68566712  0.08655742  1
