# generated using pymatgen
data_SiCl2O
_symmetry_space_group_name_H-M   'P 1'
_cell_length_a   6.43851580
_cell_length_b   8.53825236
_cell_length_c   8.57568850
_cell_angle_alpha   77.12432116
_cell_angle_beta   81.96748912
_cell_angle_gamma   74.02587968
_symmetry_Int_Tables_number   1
_chemical_formula_structural   SiCl2O
_chemical_formula_sum   'Si4 Cl8 O4'
_cell_volume   440.28789701
_cell_formula_units_Z   4
loop_
 _symmetry_equiv_pos_site_id
 _symmetry_equiv_pos_as_xyz
  1  'x, y, z'
loop_
 _atom_site_type_symbol
 _atom_site_label
 _atom_site_symmetry_multiplicity
 _atom_site_fract_x
 _atom_site_fract_y
 _atom_site_fract_z
 _atom_site_occupancy
  O  O0  1  0.95368588  0.30668227  0.07390408  1
  O  O1  1  0.04631412  0.69331773  0.92609592  1
  O  O2  1  0.90352363  0.50034935  0.78441826  1
  O  O3  1  0.09647637  0.49965065  0.21558174  1
  Si  Si4  1  0.10376918  0.68077112  0.10720526  1
  Si  Si5  1  0.89623082  0.31922888  0.89279474  1
  Si  Si6  1  0.97996617  0.67174559  0.75786777  1
  Si  Si7  1  0.02003383  0.32825441  0.24213223  1
  Cl  Cl8  1  0.75980488  0.33626619  0.40671812  1
  Cl  Cl9  1  0.24019512  0.66373381  0.59328188  1
  Cl  Cl10  1  0.73123076  0.86549335  0.67833234  1
  Cl  Cl11  1  0.26876924  0.13450665  0.32166766  1
  Cl  Cl12  1  0.11551297  0.13992708  0.79297939  1
  Cl  Cl13  1  0.88448703  0.86007292  0.20702061  1
  Cl  Cl14  1  0.59445017  0.28644781  0.89834060  1
  Cl  Cl15  1  0.40554983  0.71355219  0.10165940  1
