# generated using pymatgen
data_Cs3Np(Cl2O)2
_symmetry_space_group_name_H-M   'P 1'
_cell_length_a   7.44615114
_cell_length_b   8.67541991
_cell_length_c   12.32886360
_cell_angle_alpha   74.42399059
_cell_angle_beta   72.42340857
_cell_angle_gamma   64.58623110
_symmetry_Int_Tables_number   1
_chemical_formula_structural   Cs3Np(Cl2O)2
_chemical_formula_sum   'Cs6 Np2 Cl8 O4'
_cell_volume   676.78971746
_cell_formula_units_Z   2
loop_
 _symmetry_equiv_pos_site_id
 _symmetry_equiv_pos_as_xyz
  1  'x, y, z'
loop_
 _atom_site_type_symbol
 _atom_site_label
 _atom_site_symmetry_multiplicity
 _atom_site_fract_x
 _atom_site_fract_y
 _atom_site_fract_z
 _atom_site_occupancy
  O  O0  1  0.30781541  0.97397636  0.63199223  1
  O  O1  1  0.91378399  0.52602364  0.86800777  1
  O  O2  1  0.69218459  0.02602364  0.36800777  1
  O  O3  1  0.08621601  0.47397636  0.13199223  1
  Cl  Cl4  1  0.39372887  0.44019282  0.87065709  1
  Cl  Cl5  1  0.70457878  0.05980718  0.62934291  1
  Cl  Cl6  1  0.60627113  0.55980718  0.12934291  1
  Cl  Cl7  1  0.29542122  0.94019282  0.37065709  1
  Cl  Cl8  1  0.08400705  0.14656570  0.04727431  1
  Cl  Cl9  1  0.27784706  0.35343430  0.45272569  1
  Cl  Cl10  1  0.91599295  0.85343430  0.95272569  1
  Cl  Cl11  1  0.72215294  0.64656570  0.54727431  1
  Cs  Cs12  1  0.46575432  0.82654054  0.86911893  1
  Cs  Cs13  1  0.16141379  0.67345946  0.63088107  1
  Cs  Cs14  1  0.53424568  0.17345946  0.13088107  1
  Cs  Cs15  1  0.83858621  0.32654054  0.36911893  1
  Cs  Cs16  1  0.91260661  0.25000000  0.75000000  1
  Cs  Cs17  1  0.08739339  0.75000000  0.25000000  1
  Np  Np18  1  0.50000000  0.00000000  0.50000000  1
  Np  Np19  1  0.00000000  0.50000000  0.00000000  1
