# generated using pymatgen
data_Mg5In2
_symmetry_space_group_name_H-M   'P 1'
_cell_length_a   6.21399013
_cell_length_b   7.41797811
_cell_length_c   8.63178238
_cell_angle_alpha   115.46875186
_cell_angle_beta   111.09701860
_cell_angle_gamma   90.00000002
_symmetry_Int_Tables_number   1
_chemical_formula_structural   Mg5In2
_chemical_formula_sum   'Mg10 In4'
_cell_volume   329.43292505
_cell_formula_units_Z   2
loop_
 _symmetry_equiv_pos_site_id
 _symmetry_equiv_pos_as_xyz
  1  'x, y, z'
loop_
 _atom_site_type_symbol
 _atom_site_label
 _atom_site_symmetry_multiplicity
 _atom_site_fract_x
 _atom_site_fract_y
 _atom_site_fract_z
 _atom_site_occupancy
  Mg  Mg0  1  0.41394928  0.07502811  0.82789857  1
  Mg  Mg1  1  0.58605072  0.92497189  0.17210143  1
  Mg  Mg2  1  0.08596844  0.24685750  0.17193689  1
  Mg  Mg3  1  0.91403156  0.75314250  0.82806311  1
  Mg  Mg4  1  0.25004434  0.50000000  0.00000000  1
  Mg  Mg5  1  0.74995566  0.50000000  0.00000000  1
  Mg  Mg6  1  0.48354284  0.73334669  0.46689708  1
  Mg  Mg7  1  0.01664575  0.26665331  0.53310292  1
  Mg  Mg8  1  0.51645716  0.26665331  0.53310292  1
  Mg  Mg9  1  0.98335425  0.73334669  0.46689708  1
  In  In10  1  0.37731230  0.64382469  0.75462459  1
  In  In11  1  0.62268770  0.35617531  0.24537541  1
  In  In12  1  0.12281585  0.88900217  0.24563170  1
  In  In13  1  0.87718415  0.11099783  0.75436830  1
