# generated using pymatgen
data_Ba2Ca2Cu3HgO8
_symmetry_space_group_name_H-M   'P 1'
_cell_length_a   3.89268177
_cell_length_b   3.89268177
_cell_length_c   16.24844385
_cell_angle_alpha   90.00000000
_cell_angle_beta   90.00000000
_cell_angle_gamma   90.00000000
_symmetry_Int_Tables_number   1
_chemical_formula_structural   Ba2Ca2Cu3HgO8
_chemical_formula_sum   'Ba2 Ca2 Cu3 Hg1 O8'
_cell_volume   246.21220434
_cell_formula_units_Z   1
loop_
 _symmetry_equiv_pos_site_id
 _symmetry_equiv_pos_as_xyz
  1  'x, y, z'
loop_
 _atom_site_type_symbol
 _atom_site_label
 _atom_site_symmetry_multiplicity
 _atom_site_fract_x
 _atom_site_fract_y
 _atom_site_fract_z
 _atom_site_occupancy
  O  O0  1  0.50000000  0.00000000  0.50000000  1
  O  O1  1  0.00000000  0.50000000  0.50000000  1
  O  O2  1  0.00000000  0.00000000  0.87627063  1
  O  O3  1  0.00000000  0.00000000  0.12372937  1
  O  O4  1  0.50000000  0.00000000  0.30369486  1
  O  O5  1  0.50000000  0.00000000  0.69630514  1
  O  O6  1  0.00000000  0.50000000  0.30369486  1
  O  O7  1  0.00000000  0.50000000  0.69630514  1
  Ca  Ca8  1  0.50000000  0.50000000  0.59907084  1
  Ca  Ca9  1  0.50000000  0.50000000  0.40092916  1
  Cu  Cu10  1  0.00000000  0.00000000  0.69191772  1
  Cu  Cu11  1  0.00000000  0.00000000  0.30808228  1
  Cu  Cu12  1  0.00000000  0.00000000  0.50000000  1
  Ba  Ba13  1  0.50000000  0.50000000  0.81608274  1
  Ba  Ba14  1  0.50000000  0.50000000  0.18391726  1
  Hg  Hg15  1  0.00000000  0.00000000  0.00000000  1
