# generated using pymatgen
data_SrP2(HO)4
_symmetry_space_group_name_H-M   'P 1'
_cell_length_a   6.00066187
_cell_length_b   6.00535392
_cell_length_c   8.58903949
_cell_angle_alpha   110.46248643
_cell_angle_beta   93.77177843
_cell_angle_gamma   89.99999995
_symmetry_Int_Tables_number   1
_chemical_formula_structural   SrP2(HO)4
_chemical_formula_sum   'Sr2 P4 H8 O8'
_cell_volume   289.26976894
_cell_formula_units_Z   2
loop_
 _symmetry_equiv_pos_site_id
 _symmetry_equiv_pos_as_xyz
  1  'x, y, z'
loop_
 _atom_site_type_symbol
 _atom_site_label
 _atom_site_symmetry_multiplicity
 _atom_site_fract_x
 _atom_site_fract_y
 _atom_site_fract_z
 _atom_site_occupancy
  H  H0  1  0.34365911  0.18035996  0.61504037  1
  H  H1  1  0.65634089  0.81964004  0.38495963  1
  H  H2  1  0.84365911  0.43468040  0.61504037  1
  H  H3  1  0.15634089  0.56531960  0.38495963  1
  H  H4  1  0.91526429  0.07655083  0.37880262  1
  H  H5  1  0.58473571  0.69774821  0.62119738  1
  H  H6  1  0.41526429  0.30225179  0.37880262  1
  H  H7  1  0.08473571  0.92344917  0.62119738  1
  O  O8  1  0.88770723  0.81790759  0.83137176  1
  O  O9  1  0.61229277  0.98653582  0.16862824  1
  O  O10  1  0.42006093  0.49168956  0.17480456  1
  O  O11  1  0.92006093  0.68311500  0.17480456  1
  O  O12  1  0.07993907  0.31688500  0.82519544  1
  O  O13  1  0.57993907  0.50831044  0.82519544  1
  O  O14  1  0.11229277  0.18209241  0.16862824  1
  O  O15  1  0.38770723  0.01346418  0.83137176  1
  P  P16  1  0.77540827  0.88803418  0.27108430  1
  P  P17  1  0.72459173  0.61694988  0.72891570  1
  P  P18  1  0.22459173  0.11196582  0.72891570  1
  P  P19  1  0.27540827  0.38305012  0.27108430  1
  Sr  Sr20  1  0.75000000  0.25162428  0.00000000  1
  Sr  Sr21  1  0.25000000  0.74837572  0.00000000  1
