# generated using pymatgen
data_MnO2
_symmetry_space_group_name_H-M   'P 1'
_cell_length_a   2.92771214
_cell_length_b   2.92778443
_cell_length_c   5.01128151
_cell_angle_alpha   90.00267469
_cell_angle_beta   89.99521224
_cell_angle_gamma   120.00021794
_symmetry_Int_Tables_number   1
_chemical_formula_structural   MnO2
_chemical_formula_sum   'Mn1 O2'
_cell_volume   37.20025751
_cell_formula_units_Z   1
loop_
 _symmetry_equiv_pos_site_id
 _symmetry_equiv_pos_as_xyz
  1  'x, y, z'
loop_
 _atom_site_type_symbol
 _atom_site_label
 _atom_site_symmetry_multiplicity
 _atom_site_fract_x
 _atom_site_fract_y
 _atom_site_fract_z
 _atom_site_occupancy
  O  O0  1  0.66662436  0.33332790  0.80866395  1
  O  O1  1  0.33326845  0.66667785  0.19146091  1
  Mn  Mn2  1  0.00000657  0.99999246  0.99987592  1
