# generated using pymatgen
data_MgFe2P2(HO)18
_symmetry_space_group_name_H-M   'P 1'
_cell_length_a   5.39630684
_cell_length_b   7.33944831
_cell_length_c   10.33623663
_cell_angle_alpha   73.93514772
_cell_angle_beta   78.66479648
_cell_angle_gamma   67.72456997
_symmetry_Int_Tables_number   1
_chemical_formula_structural   MgFe2P2(HO)18
_chemical_formula_sum   'Mg1 Fe2 P2 H18 O18'
_cell_volume   362.09307398
_cell_formula_units_Z   1
loop_
 _symmetry_equiv_pos_site_id
 _symmetry_equiv_pos_as_xyz
  1  'x, y, z'
loop_
 _atom_site_type_symbol
 _atom_site_label
 _atom_site_symmetry_multiplicity
 _atom_site_fract_x
 _atom_site_fract_y
 _atom_site_fract_z
 _atom_site_occupancy
  H  H0  1  0.52169773  0.57422072  0.73350989  1
  H  H1  1  0.47830227  0.42577928  0.26649011  1
  H  H2  1  0.57115492  0.35139910  0.81730630  1
  H  H3  1  0.42884508  0.64860090  0.18269370  1
  H  H4  1  0.47476277  0.98724244  0.12106839  1
  H  H5  1  0.35269399  0.96132994  0.79617842  1
  H  H6  1  0.22096158  0.61386858  0.94540330  1
  H  H7  1  0.77903842  0.38613142  0.05459670  1
  H  H8  1  0.07922908  0.59830205  0.09480683  1
  H  H9  1  0.92077092  0.40169795  0.90519317  1
  H  H10  1  0.82050421  0.48739076  0.26826657  1
  H  H11  1  0.17949579  0.51260924  0.73173343  1
  H  H12  1  0.08615884  0.30381522  0.31595715  1
  H  H13  1  0.91384116  0.69618478  0.68404285  1
  H  H14  1  0.48087249  0.67550925  0.48230092  1
  H  H15  1  0.51912751  0.32449075  0.51769908  1
  H  H16  1  0.52523723  0.01275756  0.87893161  1
  H  H17  1  0.64730601  0.03867006  0.20382158  1
  O  O18  1  0.07664041  0.68978814  0.00546334  1
  O  O19  1  0.36786567  0.97034637  0.88827729  1
  O  O20  1  0.63213433  0.02965363  0.11172271  1
  O  O21  1  0.56426915  0.50918846  0.19540070  1
  O  O22  1  0.43573085  0.49081154  0.80459930  1
  O  O23  1  0.00048661  0.54463327  0.69780087  1
  O  O24  1  0.63032882  0.70166961  0.50766897  1
  O  O25  1  0.36967118  0.29833039  0.49233103  1
  O  O26  1  0.23573954  0.05200717  0.36414813  1
  O  O27  1  0.76426046  0.94799283  0.63585187  1
  O  O28  1  0.81011556  0.09483998  0.82124234  1
  O  O29  1  0.18988444  0.90516002  0.17875766  1
  O  O30  1  0.83035735  0.28603527  0.57603988  1
  O  O31  1  0.16964265  0.71396473  0.42396012  1
  O  O32  1  0.21744844  0.96158982  0.65883538  1
  O  O33  1  0.78255156  0.03841018  0.34116462  1
  O  O34  1  0.92335959  0.31021186  0.99453666  1
  O  O35  1  0.99951339  0.45536673  0.30219913  1
  Mg  Mg36  1  0.00000000  0.00000000  0.00000000  1
  P  P37  1  0.09215916  0.92710146  0.32679417  1
  P  P38  1  0.90784084  0.07289854  0.67320583  1
  Fe  Fe39  1  0.50000000  0.00000000  0.50000000  1
  Fe  Fe40  1  0.00000000  0.50000000  0.50000000  1
