# generated using pymatgen
data_Cs(WO3)2
_symmetry_space_group_name_H-M   'P 1'
_cell_length_a   7.44280556
_cell_length_b   7.44280556
_cell_length_c   7.44280556
_cell_angle_alpha   60.00000000
_cell_angle_beta   60.00000000
_cell_angle_gamma   59.99999997
_symmetry_Int_Tables_number   1
_chemical_formula_structural   Cs(WO3)2
_chemical_formula_sum   'Cs2 W4 O12'
_cell_volume   291.53790067
_cell_formula_units_Z   2
loop_
 _symmetry_equiv_pos_site_id
 _symmetry_equiv_pos_as_xyz
  1  'x, y, z'
loop_
 _atom_site_type_symbol
 _atom_site_label
 _atom_site_symmetry_multiplicity
 _atom_site_fract_x
 _atom_site_fract_y
 _atom_site_fract_z
 _atom_site_occupancy
  O  O0  1  0.31041594  0.93958406  0.93958406  1
  O  O1  1  0.06041594  0.68958406  0.68958406  1
  O  O2  1  0.93958406  0.31041594  0.93958406  1
  O  O3  1  0.93958406  0.93958406  0.31041594  1
  O  O4  1  0.31041594  0.31041594  0.93958406  1
  O  O5  1  0.31041594  0.93958406  0.31041594  1
  O  O6  1  0.93958406  0.31041594  0.31041594  1
  O  O7  1  0.68958406  0.68958406  0.06041594  1
  O  O8  1  0.06041594  0.06041594  0.68958406  1
  O  O9  1  0.68958406  0.06041594  0.06041594  1
  O  O10  1  0.68958406  0.06041594  0.68958406  1
  O  O11  1  0.06041594  0.68958406  0.06041594  1
  Cs  Cs12  1  0.37500000  0.37500000  0.37500000  1
  Cs  Cs13  1  0.62500000  0.62500000  0.62500000  1
  W  W14  1  0.00000000  0.00000000  0.50000000  1
  W  W15  1  0.00000000  0.00000000  0.00000000  1
  W  W16  1  0.50000000  0.00000000  0.00000000  1
  W  W17  1  0.00000000  0.50000000  0.00000000  1
