# generated using pymatgen
data_Pr(MoO3)2
_symmetry_space_group_name_H-M   'P 1'
_cell_length_a   5.54786984
_cell_length_b   5.66534885
_cell_length_c   7.96755836
_cell_angle_alpha   89.76633026
_cell_angle_beta   90.13105861
_cell_angle_gamma   89.87234117
_symmetry_Int_Tables_number   1
_chemical_formula_structural   Pr(MoO3)2
_chemical_formula_sum   'Pr2 Mo4 O12'
_cell_volume   250.42191872
_cell_formula_units_Z   2
loop_
 _symmetry_equiv_pos_site_id
 _symmetry_equiv_pos_as_xyz
  1  'x, y, z'
loop_
 _atom_site_type_symbol
 _atom_site_label
 _atom_site_symmetry_multiplicity
 _atom_site_fract_x
 _atom_site_fract_y
 _atom_site_fract_z
 _atom_site_occupancy
  Pr  Pr0  1  0.01763372  0.95654531  0.75045584  1
  Pr  Pr1  1  0.50709187  0.55310133  0.24694263  1
  Mo  Mo2  1  -0.00027308  0.49253202  0.99722722  1
  Mo  Mo3  1  0.00215976  0.49195607  0.49883880  1
  Mo  Mo4  1  0.50589424  0.00588574  0.50100817  1
  Mo  Mo5  1  0.50486129  0.00865669  0.00044856  1
  O  O6  1  0.07593530  0.48590038  0.24436660  1
  O  O7  1  0.20749314  0.21050241  0.95776679  1
  O  O8  1  0.20585762  0.20932256  0.54309840  1
  O  O9  1  0.28275945  0.73720694  0.53610412  1
  O  O10  1  0.27256737  0.72669404  0.96797038  1
  O  O11  1  0.43799085  0.97050507  0.25546090  1
  O  O12  1  0.59896940  0.01267230  0.74473358  1
  O  O13  1  0.71051814  0.29430834  0.04287043  1
  O  O14  1  0.69391956  0.28334925  0.45496060  1
  O  O15  1  0.77380803  0.77161040  0.03339343  1
  O  O16  1  0.77611542  0.77037817  0.46822516  1
  O  O17  1  0.94756792  0.51887395  0.75612841  1
