# generated using pymatgen
data_TmFeO3
_symmetry_space_group_name_H-M   'P 1'
_cell_length_a   5.27579457
_cell_length_b   5.60773820
_cell_length_c   7.67688689
_cell_angle_alpha   90.00000000
_cell_angle_beta   90.00000000
_cell_angle_gamma   90.00000000
_symmetry_Int_Tables_number   1
_chemical_formula_structural   TmFeO3
_chemical_formula_sum   'Tm4 Fe4 O12'
_cell_volume   227.12280783
_cell_formula_units_Z   4
loop_
 _symmetry_equiv_pos_site_id
 _symmetry_equiv_pos_as_xyz
  1  'x, y, z'
loop_
 _atom_site_type_symbol
 _atom_site_label
 _atom_site_symmetry_multiplicity
 _atom_site_fract_x
 _atom_site_fract_y
 _atom_site_fract_z
 _atom_site_occupancy
  O  O0  1  0.68973434  0.30735586  0.43607376  1
  O  O1  1  0.18973365  0.19264444  0.56392566  1
  O  O2  1  0.81026579  0.80735616  0.06392662  1
  O  O3  1  0.31026703  0.69264474  0.93607414  1
  O  O4  1  0.31026703  0.69264474  0.56392566  1
  O  O5  1  0.81026579  0.80735616  0.43607376  1
  O  O6  1  0.18973365  0.19264444  0.93607414  1
  O  O7  1  0.68973434  0.30735586  0.06392662  1
  O  O8  1  0.12539651  0.45055578  0.25000019  1
  O  O9  1  0.62539720  0.04944452  0.75000057  1
  O  O10  1  0.87460293  0.54944306  0.75000057  1
  O  O11  1  0.37460224  0.95055609  0.25000019  1
  Fe  Fe12  1  0.00000000  0.50000030  0.50000038  1
  Fe  Fe13  1  0.50000069  0.00000000  0.50000038  1
  Fe  Fe14  1  0.50000069  0.00000000  0.00000000  1
  Fe  Fe15  1  0.00000000  0.50000030  0.00000000  1
  Tm  Tm16  1  0.02121874  0.92916783  0.75000057  1
  Tm  Tm17  1  0.52121943  0.57083132  0.25000019  1
  Tm  Tm18  1  0.47878001  0.42916753  0.75000057  1
  Tm  Tm19  1  0.97878070  0.07083101  0.25000019  1
