# generated using pymatgen
data_Hg6S4IBr2Cl
_symmetry_space_group_name_H-M   'P 1'
_cell_length_a   9.70192414
_cell_length_b   13.24384094
_cell_length_c   13.33467471
_cell_angle_alpha   90.00000000
_cell_angle_beta   90.00000000
_cell_angle_gamma   90.00000000
_symmetry_Int_Tables_number   1
_chemical_formula_structural   Hg6S4IBr2Cl
_chemical_formula_sum   'Hg24 S16 I4 Br8 Cl4'
_cell_volume   1713.38222278
_cell_formula_units_Z   4
loop_
 _symmetry_equiv_pos_site_id
 _symmetry_equiv_pos_as_xyz
  1  'x, y, z'
loop_
 _atom_site_type_symbol
 _atom_site_label
 _atom_site_symmetry_multiplicity
 _atom_site_fract_x
 _atom_site_fract_y
 _atom_site_fract_z
 _atom_site_occupancy
  S  S0  1  -0.00274485  0.03340710  0.75653856  1
  S  S1  1  0.49725515  0.96659290  0.24346144  1
  S  S2  1  0.50274485  0.46659290  0.25653856  1
  S  S3  1  0.49725515  0.53340710  0.74346144  1
  S  S4  1  -0.00274485  0.46659290  0.25653856  1
  S  S5  1  0.50274485  0.03340710  0.75653856  1
  S  S6  1  1.00274485  0.96659290  0.24346144  1
  S  S7  1  1.00112719  0.25904077  0.46683965  1
  S  S8  1  0.50112719  0.74095923  0.53316035  1
  S  S9  1  -0.00112719  0.75904077  0.03316035  1
  S  S10  1  0.49887281  0.24095923  0.96683965  1
  S  S11  1  -0.00112719  0.74095923  0.53316035  1
  S  S12  1  0.49887281  0.25904077  0.46683965  1
  S  S13  1  1.00112719  0.24095923  0.96683965  1
  S  S14  1  0.50112719  0.75904077  0.03316035  1
  S  S15  1  1.00274485  0.53340710  0.74346144  1
  Cl  Cl16  1  0.25000000  0.99882560  0.99716361  1
  Cl  Cl17  1  0.25000000  0.50117440  0.49716361  1
  Cl  Cl18  1  0.75000000  0.49882560  0.50283639  1
  Cl  Cl19  1  0.75000000  0.00117440  0.00283639  1
  Br  Br20  1  0.25000000  0.72880687  0.27012700  1
  Br  Br21  1  0.75000000  0.78221391  0.78432468  1
  Br  Br22  1  0.75000000  0.27119313  0.72987300  1
  Br  Br23  1  0.75000000  0.71778609  0.28432468  1
  Br  Br24  1  0.75000000  0.22880687  0.22987300  1
  Br  Br25  1  0.25000000  0.28221391  0.71567532  1
  Br  Br26  1  0.25000000  0.21778609  0.21567532  1
  Br  Br27  1  0.25000000  0.77119313  0.77012700  1
  I  I28  1  0.75000000  0.49256609  0.99169136  1
  I  I29  1  0.25000000  0.50743391  0.00830864  1
  I  I30  1  0.75000000  0.00743391  0.49169136  1
  I  I31  1  0.25000000  0.99256609  0.50830864  1
  Hg  Hg32  1  0.48553174  0.65345364  0.88268744  1
  Hg  Hg33  1  0.98553174  0.34654636  0.11731256  1
  Hg  Hg34  1  0.51446826  0.15345364  0.61731256  1
  Hg  Hg35  1  0.01446826  0.84654636  0.38268744  1
  Hg  Hg36  1  0.51446826  0.34654636  0.11731256  1
  Hg  Hg37  1  0.01446826  0.65345364  0.88268744  1
  Hg  Hg38  1  0.48553174  0.84654636  0.38268744  1
  Hg  Hg39  1  0.98553174  0.15345364  0.61731256  1
  Hg  Hg40  1  0.25000000  0.52772469  0.69192143  1
  Hg  Hg41  1  0.75000000  0.47227531  0.30807857  1
  Hg  Hg42  1  0.75000000  0.02772469  0.80807857  1
  Hg  Hg43  1  0.25000000  0.97227531  0.19192143  1
  Hg  Hg44  1  0.49272120  0.61983761  0.15434741  1
  Hg  Hg45  1  0.99272120  0.38016239  0.84565259  1
  Hg  Hg46  1  0.50727880  0.11983761  0.34565259  1
  Hg  Hg47  1  0.00727880  0.88016239  0.65434741  1
  Hg  Hg48  1  0.50727880  0.38016239  0.84565259  1
  Hg  Hg49  1  0.00727880  0.61983761  0.15434741  1
  Hg  Hg50  1  0.49272120  0.88016239  0.65434741  1
  Hg  Hg51  1  0.99272120  0.11983761  0.34565259  1
  Hg  Hg52  1  0.25000000  0.19969218  0.97640714  1
  Hg  Hg53  1  0.75000000  0.80030782  0.02359286  1
  Hg  Hg54  1  0.75000000  0.69969218  0.52359286  1
  Hg  Hg55  1  0.25000000  0.30030782  0.47640714  1
