# generated using pymatgen
data_U(PO3)4
_symmetry_space_group_name_H-M   'P 1'
_cell_length_a   8.44062688
_cell_length_b   8.48707675
_cell_length_c   8.85756944
_cell_angle_alpha   118.42314031
_cell_angle_beta   118.22883603
_cell_angle_gamma   90.45154352
_symmetry_Int_Tables_number   1
_chemical_formula_structural   U(PO3)4
_chemical_formula_sum   'U2 P8 O24'
_cell_volume   468.90754488
_cell_formula_units_Z   2
loop_
 _symmetry_equiv_pos_site_id
 _symmetry_equiv_pos_as_xyz
  1  'x, y, z'
loop_
 _atom_site_type_symbol
 _atom_site_label
 _atom_site_symmetry_multiplicity
 _atom_site_fract_x
 _atom_site_fract_y
 _atom_site_fract_z
 _atom_site_occupancy
  O  O0  1  0.09139242  0.78079037  0.90635054  1
  O  O1  1  0.78567074  0.90158943  0.89493080  1
  O  O2  1  0.43899199  0.70194381  0.65450594  1
  O  O3  1  0.23606951  0.73018323  0.35586796  1
  O  O4  1  0.80488693  0.50396083  0.02816670  1
  O  O5  1  0.34166313  0.62708052  0.02887544  1
  O  O6  1  0.22074962  0.08537852  0.89336067  1
  O  O7  1  0.54631921  0.66360438  0.41603461  1
  O  O8  1  0.00527562  0.47774256  0.88120911  1
  O  O9  1  0.98188788  0.84857045  0.41514331  1
  O  O10  1  0.14446477  0.98637285  0.30323829  1
  O  O11  1  0.43209348  0.13225796  0.28091735  1
  O  O12  1  0.53563506  0.02864907  0.95433580  1
  O  O13  1  0.62124405  0.77215929  0.01025548  1
  O  O14  1  0.96856832  0.25486623  0.28168663  1
  O  O15  1  0.32620488  0.05338791  0.65571476  1
  O  O16  1  0.66706253  0.28519331  0.65446126  1
  O  O17  1  0.66506691  0.96491032  0.40710133  1
  O  O18  1  0.10403356  0.47313137  0.65546173  1
  O  O19  1  0.26566783  0.41730131  0.29754811  1
  O  O20  1  0.84120701  0.53114610  0.40550038  1
  O  O21  1  0.49584800  0.33779279  0.00964628  1
  O  O22  1  0.77980082  0.25186435  0.42883802  1
  O  O23  1  0.91193818  0.21084492  0.90062733  1
  P  P24  1  0.38729401  0.13496266  0.88684617  1
  P  P25  1  0.61051121  0.84968036  0.88657246  1
  P  P26  1  0.85029728  0.36912722  0.88061702  1
  P  P27  1  0.14450545  0.60578295  0.88193298  1
  P  P28  1  0.15633712  0.90483439  0.42395893  1
  P  P29  1  0.62448680  0.14385300  0.42831943  1
  P  P30  1  0.91834189  0.37997360  0.42886908  1
  P  P31  1  0.37886148  0.61886310  0.42290391  1
  U  U32  1  0.66505187  0.65792116  0.21882150  1
  U  U33  1  0.10127046  0.09427969  0.09118070  1
