# generated using pymatgen
data_Tl2SnTe5
_symmetry_space_group_name_H-M   'P 1'
_cell_length_a   8.54814862
_cell_length_b   8.54797278
_cell_length_c   9.76269704
_cell_angle_alpha   115.95396228
_cell_angle_beta   115.96337159
_cell_angle_gamma   89.99999997
_symmetry_Int_Tables_number   1
_chemical_formula_structural   Tl2SnTe5
_chemical_formula_sum   'Tl4 Sn2 Te10'
_cell_volume   560.24295343
_cell_formula_units_Z   2
loop_
 _symmetry_equiv_pos_site_id
 _symmetry_equiv_pos_as_xyz
  1  'x, y, z'
loop_
 _atom_site_type_symbol
 _atom_site_label
 _atom_site_symmetry_multiplicity
 _atom_site_fract_x
 _atom_site_fract_y
 _atom_site_fract_z
 _atom_site_occupancy
  Sn  Sn0  1  0.24995700  0.75000000  0.50000000  1
  Sn  Sn1  1  0.75004300  0.25000000  0.50000000  1
  Te  Te2  1  0.50000000  0.00000000  0.00000000  1
  Te  Te3  1  0.00000000  0.50000000  0.00000000  1
  Te  Te4  1  0.31864679  0.81871150  0.26997935  1
  Te  Te5  1  0.45133256  0.31871150  0.26997935  1
  Te  Te6  1  0.81866632  0.95139215  0.26999830  1
  Te  Te7  1  0.54866744  0.68128850  0.73002065  1
  Te  Te8  1  0.18133368  0.04860785  0.73000170  1
  Te  Te9  1  0.04866802  0.54860785  0.73000170  1
  Te  Te10  1  0.68135321  0.18128850  0.73002065  1
  Te  Te11  1  0.95133198  0.45139215  0.26999830  1
  Tl  Tl12  1  0.00000000  0.00000000  0.00000000  1
  Tl  Tl13  1  0.50000000  0.50000000  0.00000000  1
  Tl  Tl14  1  0.24998545  0.25000000  0.50000000  1
  Tl  Tl15  1  0.75001455  0.75000000  0.50000000  1
