# generated using pymatgen
data_Te3Cl2
_symmetry_space_group_name_H-M   'P 1'
_cell_length_a   7.55247341
_cell_length_b   8.74093944
_cell_length_c   10.54929518
_cell_angle_alpha   90.00000000
_cell_angle_beta   97.37312986
_cell_angle_gamma   90.00000000
_symmetry_Int_Tables_number   1
_chemical_formula_structural   Te3Cl2
_chemical_formula_sum   'Te12 Cl8'
_cell_volume   690.66086606
_cell_formula_units_Z   4
loop_
 _symmetry_equiv_pos_site_id
 _symmetry_equiv_pos_as_xyz
  1  'x, y, z'
loop_
 _atom_site_type_symbol
 _atom_site_label
 _atom_site_symmetry_multiplicity
 _atom_site_fract_x
 _atom_site_fract_y
 _atom_site_fract_z
 _atom_site_occupancy
  Cl  Cl0  1  0.54588046  0.51475202  0.33050753  1
  Cl  Cl1  1  0.95411954  0.01475202  0.16949247  1
  Cl  Cl2  1  0.45411954  0.48524798  0.66949247  1
  Cl  Cl3  1  0.04588046  0.98524798  0.83050753  1
  Cl  Cl4  1  0.25100977  0.99372577  0.47871297  1
  Cl  Cl5  1  0.24899023  0.49372577  0.02128703  1
  Cl  Cl6  1  0.74899023  0.00627423  0.52128703  1
  Cl  Cl7  1  0.75100977  0.50627423  0.97871297  1
  Te  Te8  1  0.94655013  0.65821650  0.64498429  1
  Te  Te9  1  0.55344987  0.15821650  0.85501571  1
  Te  Te10  1  0.05344987  0.34178350  0.35501571  1
  Te  Te11  1  0.44655013  0.84178350  0.14498429  1
  Te  Te12  1  0.04023222  0.64892208  0.33914871  1
  Te  Te13  1  0.45976778  0.14892208  0.16085129  1
  Te  Te14  1  0.95976778  0.35107792  0.66085129  1
  Te  Te15  1  0.54023222  0.85107792  0.83914871  1
  Te  Te16  1  0.40342740  0.75493485  0.40849987  1
  Te  Te17  1  0.09657260  0.25493485  0.09150013  1
  Te  Te18  1  0.59657260  0.24506515  0.59150013  1
  Te  Te19  1  0.90342740  0.74506515  0.90849987  1
