# generated using pymatgen
data_Li2MnBr4
_symmetry_space_group_name_H-M   'P 1'
_cell_length_a   3.90197198
_cell_length_b   6.82735449
_cell_length_c   6.82735454
_cell_angle_alpha   109.80180454
_cell_angle_beta   90.00000000
_cell_angle_gamma   90.00000000
_symmetry_Int_Tables_number   1
_chemical_formula_structural   Li2MnBr4
_chemical_formula_sum   'Li2 Mn1 Br4'
_cell_volume   171.12707321
_cell_formula_units_Z   1
loop_
 _symmetry_equiv_pos_site_id
 _symmetry_equiv_pos_as_xyz
  1  'x, y, z'
loop_
 _atom_site_type_symbol
 _atom_site_label
 _atom_site_symmetry_multiplicity
 _atom_site_fract_x
 _atom_site_fract_y
 _atom_site_fract_z
 _atom_site_occupancy
  Li  Li0  1  0.50000000  0.50000000  -0.00000000  1
  Li  Li1  1  0.50000000  -0.00000000  0.50000000  1
  Mn  Mn2  1  0.00000000  -0.00000000  -0.00000000  1
  Br  Br3  1  0.50000000  0.76025348  0.76025348  1
  Br  Br4  1  0.50000000  0.23974652  0.23974652  1
  Br  Br5  1  -0.00000000  0.75804870  0.24195130  1
  Br  Br6  1  0.00000000  0.24195130  0.75804870  1
