# generated using pymatgen
data_RbNb4Cl11
_symmetry_space_group_name_H-M   'P 1'
_cell_length_a   6.99721823
_cell_length_b   7.03304565
_cell_length_c   16.30124187
_cell_angle_alpha   90.00000000
_cell_angle_beta   90.00000000
_cell_angle_gamma   90.00000000
_symmetry_Int_Tables_number   1
_chemical_formula_structural   RbNb4Cl11
_chemical_formula_sum   'Rb2 Nb8 Cl22'
_cell_volume   802.21272493
_cell_formula_units_Z   2
loop_
 _symmetry_equiv_pos_site_id
 _symmetry_equiv_pos_as_xyz
  1  'x, y, z'
loop_
 _atom_site_type_symbol
 _atom_site_label
 _atom_site_symmetry_multiplicity
 _atom_site_fract_x
 _atom_site_fract_y
 _atom_site_fract_z
 _atom_site_occupancy
  Cl  Cl0  1  0.51748714  0.76912506  0.25000000  1
  Cl  Cl1  1  0.51748714  0.23087494  0.25000000  1
  Cl  Cl2  1  0.48251286  0.76912506  0.75000000  1
  Cl  Cl3  1  0.48251286  0.23087494  0.75000000  1
  Cl  Cl4  1  0.10417122  0.00000000  0.25000000  1
  Cl  Cl5  1  0.89582878  0.00000000  0.75000000  1
  Cl  Cl6  1  0.36411230  0.50000000  0.91753556  1
  Cl  Cl7  1  0.36411230  0.50000000  0.58246444  1
  Cl  Cl8  1  0.63588770  0.50000000  0.08246444  1
  Cl  Cl9  1  0.63588770  0.50000000  0.41753556  1
  Cl  Cl10  1  0.29210191  0.00000000  0.58482367  1
  Cl  Cl11  1  0.29210191  0.00000000  0.91517633  1
  Cl  Cl12  1  0.70789809  0.00000000  0.41517633  1
  Cl  Cl13  1  0.70789809  0.00000000  0.08482367  1
  Cl  Cl14  1  0.80740529  0.74900668  0.57886618  1
  Cl  Cl15  1  0.80740529  0.25099332  0.92113382  1
  Cl  Cl16  1  0.19259471  0.74900668  0.42113382  1
  Cl  Cl17  1  0.19259471  0.25099332  0.07886618  1
  Cl  Cl18  1  0.19259471  0.25099332  0.42113382  1
  Cl  Cl19  1  0.19259471  0.74900668  0.07886618  1
  Cl  Cl20  1  0.80740529  0.25099332  0.57886618  1
  Cl  Cl21  1  0.80740529  0.74900668  0.92113382  1
  Rb  Rb22  1  0.98610516  0.50000000  0.25000000  1
  Rb  Rb23  1  0.01389484  0.50000000  0.75000000  1
  Nb  Nb24  1  0.50000000  0.78569895  0.00000000  1
  Nb  Nb25  1  0.50000000  0.21430105  0.50000000  1
  Nb  Nb26  1  0.50000000  0.21430105  0.00000000  1
  Nb  Nb27  1  0.50000000  0.78569895  0.50000000  1
  Nb  Nb28  1  0.38253338  0.00000000  0.14131680  1
  Nb  Nb29  1  0.38253338  0.00000000  0.35868320  1
  Nb  Nb30  1  0.61746662  0.00000000  0.85868320  1
  Nb  Nb31  1  0.61746662  0.00000000  0.64131680  1
