# generated using pymatgen
data_Tl5(Cu7Se5)2
_symmetry_space_group_name_H-M   'P 1'
_cell_length_a   3.93022503
_cell_length_b   9.41849414
_cell_length_c   16.41029439
_cell_angle_alpha   86.76575891
_cell_angle_beta   83.12239657
_cell_angle_gamma   77.95709961
_symmetry_Int_Tables_number   1
_chemical_formula_structural   Tl5(Cu7Se5)2
_chemical_formula_sum   'Tl5 Cu14 Se10'
_cell_volume   589.50341525
_cell_formula_units_Z   1
loop_
 _symmetry_equiv_pos_site_id
 _symmetry_equiv_pos_as_xyz
  1  'x, y, z'
loop_
 _atom_site_type_symbol
 _atom_site_label
 _atom_site_symmetry_multiplicity
 _atom_site_fract_x
 _atom_site_fract_y
 _atom_site_fract_z
 _atom_site_occupancy
  Cu  Cu0  1  0.02421383  0.16768560  0.78388674  1
  Cu  Cu1  1  0.09005308  0.20030280  0.61959104  1
  Cu  Cu2  1  0.90994692  0.79969720  0.38040896  1
  Cu  Cu3  1  0.63580789  0.04264833  0.68573590  1
  Cu  Cu4  1  0.36419211  0.95735167  0.31426410  1
  Cu  Cu5  1  0.58069818  0.71073601  0.12786763  1
  Cu  Cu6  1  0.41930182  0.28926399  0.87213237  1
  Cu  Cu7  1  0.69572145  0.07810151  0.53045559  1
  Cu  Cu8  1  0.30427855  0.92189849  0.46954441  1
  Cu  Cu9  1  0.80921007  0.42956547  0.95201439  1
  Cu  Cu10  1  0.19078993  0.57043453  0.04798561  1
  Cu  Cu11  1  0.52354196  0.67064332  0.28227276  1
  Cu  Cu12  1  0.47645804  0.32935668  0.71772724  1
  Cu  Cu13  1  0.97578617  0.83231440  0.21611326  1
  Se  Se14  1  0.45548781  0.65952494  0.42949944  1
  Se  Se15  1  0.22730410  0.92840855  0.61698326  1
  Se  Se16  1  0.42974921  0.97257421  0.16792738  1
  Se  Se17  1  0.57025079  0.02742579  0.83207262  1
  Se  Se18  1  0.54451219  0.34047506  0.57050056  1
  Se  Se19  1  0.88453594  0.43725425  0.79367386  1
  Se  Se20  1  0.11546406  0.56274575  0.20632614  1
  Se  Se21  1  0.66314851  0.69260740  0.98109557  1
  Se  Se22  1  0.33685149  0.30739260  0.01890443  1
  Se  Se23  1  0.77269590  0.07159145  0.38301674  1
  Tl  Tl24  1  0.22273192  0.73316323  0.82137293  1
  Tl  Tl25  1  0.77726808  0.26683677  0.17862707  1
  Tl  Tl26  1  0.88694010  0.62727861  0.59884120  1
  Tl  Tl27  1  0.11305990  0.37272139  0.40115880  1
  Tl  Tl28  1  0.00000000  0.00000000  0.00000000  1
