# generated using pymatgen
data_Na2MgCl4
_symmetry_space_group_name_H-M   'P 1'
_cell_length_a   3.84902391
_cell_length_b   6.98189150
_cell_length_c   12.00174252
_cell_angle_alpha   90.00000000
_cell_angle_beta   90.00000000
_cell_angle_gamma   90.00000000
_symmetry_Int_Tables_number   1
_chemical_formula_structural   Na2MgCl4
_chemical_formula_sum   'Na4 Mg2 Cl8'
_cell_volume   322.52843540
_cell_formula_units_Z   2
loop_
 _symmetry_equiv_pos_site_id
 _symmetry_equiv_pos_as_xyz
  1  'x, y, z'
loop_
 _atom_site_type_symbol
 _atom_site_label
 _atom_site_symmetry_multiplicity
 _atom_site_fract_x
 _atom_site_fract_y
 _atom_site_fract_z
 _atom_site_occupancy
  Na  Na0  1  0.50000000  0.08728111  0.68200728  1
  Na  Na1  1  0.50000000  0.91271889  0.31799272  1
  Na  Na2  1  0.50000000  0.41271889  0.18200728  1
  Na  Na3  1  0.50000000  0.58728111  0.81799272  1
  Mg  Mg4  1  0.00000000  0.50000000  0.50000000  1
  Mg  Mg5  1  0.00000000  0.00000000  0.00000000  1
  Cl  Cl6  1  0.00000000  0.11888405  0.19538108  1
  Cl  Cl7  1  0.00000000  0.88111595  0.80461892  1
  Cl  Cl8  1  0.00000000  0.61888405  0.30461892  1
  Cl  Cl9  1  0.00000000  0.38111595  0.69538108  1
  Cl  Cl10  1  0.50000000  0.23525467  0.95706672  1
  Cl  Cl11  1  0.50000000  0.76474533  0.04293328  1
  Cl  Cl12  1  0.50000000  0.73525467  0.54293328  1
  Cl  Cl13  1  0.50000000  0.26474533  0.45706672  1
