# generated using pymatgen
data_Bi3BrO4
_symmetry_space_group_name_H-M   'P 1'
_cell_length_a   5.84069091
_cell_length_b   5.81917154
_cell_length_c   19.30941536
_cell_angle_alpha   90.00000000
_cell_angle_beta   90.00000000
_cell_angle_gamma   90.00000000
_symmetry_Int_Tables_number   1
_chemical_formula_structural   Bi3BrO4
_chemical_formula_sum   'Bi12 Br4 O16'
_cell_volume   656.28806782
_cell_formula_units_Z   4
loop_
 _symmetry_equiv_pos_site_id
 _symmetry_equiv_pos_as_xyz
  1  'x, y, z'
loop_
 _atom_site_type_symbol
 _atom_site_label
 _atom_site_symmetry_multiplicity
 _atom_site_fract_x
 _atom_site_fract_y
 _atom_site_fract_z
 _atom_site_occupancy
  O  O0  1  0.06807031  0.92768234  0.43601385  1
  O  O1  1  0.06807031  0.57231766  0.56398615  1
  O  O2  1  0.43192969  0.92768234  0.06398615  1
  O  O3  1  0.43192969  0.57231766  0.93601385  1
  O  O4  1  0.93192969  0.07231766  0.56398615  1
  O  O5  1  0.93192969  0.42768234  0.43601385  1
  O  O6  1  0.56807031  0.07231766  0.93601385  1
  O  O7  1  0.56807031  0.42768234  0.06398615  1
  O  O8  1  0.54269414  0.01616604  0.41209062  1
  O  O9  1  0.04269414  0.51616604  0.08790938  1
  O  O10  1  0.95730586  0.01616604  0.08790938  1
  O  O11  1  0.95730586  0.48383396  0.91209062  1
  O  O12  1  0.45730586  0.98383396  0.58790938  1
  O  O13  1  0.45730586  0.51616604  0.41209062  1
  O  O14  1  0.04269414  0.98383396  0.91209062  1
  O  O15  1  0.54269414  0.48383396  0.58790938  1
  Br  Br16  1  0.25000000  0.27110679  0.25000000  1
  Br  Br17  1  0.75000000  0.72889321  0.75000000  1
  Br  Br18  1  0.25000000  0.22889321  0.75000000  1
  Br  Br19  1  0.75000000  0.77110679  0.25000000  1
  Bi  Bi20  1  0.29817792  0.70021184  0.64070876  1
  Bi  Bi21  1  0.70182208  0.20021184  0.64070876  1
  Bi  Bi22  1  0.79817792  0.29978816  0.14070876  1
  Bi  Bi23  1  0.79817792  0.20021184  0.85929124  1
  Bi  Bi24  1  0.70182208  0.29978816  0.35929124  1
  Bi  Bi25  1  0.29817792  0.79978816  0.35929124  1
  Bi  Bi26  1  0.20182208  0.70021184  0.85929124  1
  Bi  Bi27  1  0.20182208  0.79978816  0.14070876  1
  Bi  Bi28  1  0.20131181  0.25000000  0.50000000  1
  Bi  Bi29  1  0.29868819  0.25000000  0.00000000  1
  Bi  Bi30  1  0.79868819  0.75000000  0.50000000  1
  Bi  Bi31  1  0.70131181  0.75000000  0.00000000  1
