# generated using pymatgen
data_Sb2P2O9
_symmetry_space_group_name_H-M   'P 1'
_cell_length_a   6.63705139
_cell_length_b   8.41639831
_cell_length_c   14.67202448
_cell_angle_alpha   90.01271387
_cell_angle_beta   89.99983785
_cell_angle_gamma   90.00005529
_symmetry_Int_Tables_number   1
_chemical_formula_structural   Sb2P2O9
_chemical_formula_sum   'Sb8 P8 O36'
_cell_volume   819.58026614
_cell_formula_units_Z   4
loop_
 _symmetry_equiv_pos_site_id
 _symmetry_equiv_pos_as_xyz
  1  'x, y, z'
loop_
 _atom_site_type_symbol
 _atom_site_label
 _atom_site_symmetry_multiplicity
 _atom_site_fract_x
 _atom_site_fract_y
 _atom_site_fract_z
 _atom_site_occupancy
  Sb  Sb0  1  0.75000298  0.36096966  0.87890779  1
  Sb  Sb1  1  0.24999971  0.63902508  0.12109203  1
  Sb  Sb2  1  0.24999577  0.86104721  0.62108186  1
  Sb  Sb3  1  0.75000029  0.13893881  0.37891862  1
  Sb  Sb4  1  0.50000057  0.99999906  0.99998752  1
  Sb  Sb5  1  0.50000060  0.49998869  0.50001336  1
  Sb  Sb6  1  0.00000554  0.50000053  0.50001521  1
  Sb  Sb7  1  -0.00000178  0.00000518  0.99998608  1
  P  P8  1  0.25000077  0.36268014  0.93945530  1
  P  P9  1  0.74999974  0.63731754  0.06051156  1
  P  P10  1  0.74999564  0.86272742  0.56054403  1
  P  P11  1  0.25000109  0.13725271  0.43948607  1
  P  P12  1  0.75000376  0.39289613  0.69647055  1
  P  P13  1  0.75000177  0.10721979  0.19644399  1
  P  P14  1  0.24999930  0.89281688  0.80353544  1
  P  P15  1  0.24999967  0.60713788  0.30355351  1
  O  O16  1  0.05850573  0.59421307  0.36081787  1
  O  O17  1  0.55849938  0.40581348  0.63921154  1
  O  O18  1  0.94149716  0.09433962  0.13917340  1
  O  O19  1  0.44150512  0.90569198  0.86079903  1
  O  O20  1  0.94150798  0.40581670  0.63921232  1
  O  O21  1  0.44149427  0.59420909  0.36081834  1
  O  O22  1  0.05849356  0.90569159  0.86079939  1
  O  O23  1  0.55850650  0.09433820  0.13917323  1
  O  O24  1  0.25000303  0.30544917  0.48572872  1
  O  O25  1  0.75000500  0.69450741  0.51432536  1
  O  O26  1  0.74999753  0.80545873  0.01424296  1
  O  O27  1  0.24999780  0.19451821  0.98570037  1
  O  O28  1  0.75000570  0.16586367  0.95014123  1
  O  O29  1  0.25000349  0.83415190  0.04988219  1
  O  O30  1  0.24999085  0.66593321  0.54980788  1
  O  O31  1  0.74999575  0.33406736  0.45017486  1
  O  O32  1  0.75000320  0.23791206  0.75924756  1
  O  O33  1  0.25000171  0.76210225  0.24075819  1
  O  O34  1  0.24999887  0.73789114  0.74067890  1
  O  O35  1  0.75000146  0.26212218  0.25931834  1
  O  O36  1  0.43934398  0.12143775  0.37907329  1
  O  O37  1  0.93933558  0.87853136  0.62096329  1
  O  O38  1  0.56065958  0.62158354  0.12092636  1
  O  O39  1  0.06066685  0.37839460  0.87903135  1
  O  O40  1  0.56065649  0.87852251  0.62096170  1
  O  O41  1  0.06065703  0.12143582  0.37907493  1
  O  O42  1  0.43933966  0.37839162  0.87903390  1
  O  O43  1  0.93933945  0.62158698  0.12092705  1
  O  O44  1  0.75000414  0.50680131  0.98660959  1
  O  O45  1  0.24999883  0.02242340  0.72111751  1
  O  O46  1  0.24999880  0.47759611  0.22105904  1
  O  O47  1  0.75000147  0.52242413  0.77895584  1
  O  O48  1  0.74999492  0.99311826  0.48660774  1
  O  O49  1  0.25000264  0.00685169  0.51341488  1
  O  O50  1  0.24999963  0.49318762  0.01336074  1
  O  O51  1  0.75000147  0.97759754  0.27886423  1
