# generated using pymatgen
data_Mn4Al19
_symmetry_space_group_name_H-M   'P 1'
_cell_length_a   12.71267601
_cell_length_b   12.71267601
_cell_length_c   12.71267601
_cell_angle_alpha   90.00000000
_cell_angle_beta   90.00000000
_cell_angle_gamma   90.00000000
_symmetry_Int_Tables_number   1
_chemical_formula_structural   Mn4Al19
_chemical_formula_sum   'Mn24 Al114'
_cell_volume   2054.52266495
_cell_formula_units_Z   6
loop_
 _symmetry_equiv_pos_site_id
 _symmetry_equiv_pos_as_xyz
  1  'x, y, z'
loop_
 _atom_site_type_symbol
 _atom_site_label
 _atom_site_symmetry_multiplicity
 _atom_site_fract_x
 _atom_site_fract_y
 _atom_site_fract_z
 _atom_site_occupancy
  Al  Al0  1  0.36252219  0.00000000  0.00000000  1
  Al  Al1  1  0.00000000  0.36252219  0.00000000  1
  Al  Al2  1  0.00000000  0.00000000  0.36252219  1
  Al  Al3  1  0.00000000  0.63747781  0.00000000  1
  Al  Al4  1  0.00000000  0.00000000  0.63747781  1
  Al  Al5  1  0.63747781  0.00000000  0.00000000  1
  Al  Al6  1  0.11854557  0.50000000  0.50000000  1
  Al  Al7  1  0.50000000  0.11854557  0.50000000  1
  Al  Al8  1  0.50000000  0.50000000  0.11854557  1
  Al  Al9  1  0.50000000  0.88145443  0.50000000  1
  Al  Al10  1  0.50000000  0.50000000  0.88145443  1
  Al  Al11  1  0.88145443  0.50000000  0.50000000  1
  Al  Al12  1  0.30118004  0.00000000  0.50000000  1
  Al  Al13  1  0.50000000  0.30118004  0.00000000  1
  Al  Al14  1  0.00000000  0.50000000  0.30118004  1
  Al  Al15  1  0.50000000  0.69881996  0.00000000  1
  Al  Al16  1  0.00000000  0.50000000  0.69881996  1
  Al  Al17  1  0.69881996  0.00000000  0.50000000  1
  Al  Al18  1  0.16876315  0.10502729  0.00000000  1
  Al  Al19  1  0.00000000  0.16876315  0.10502729  1
  Al  Al20  1  0.10502729  0.00000000  0.16876315  1
  Al  Al21  1  0.89497271  0.00000000  0.16876315  1
  Al  Al22  1  0.00000000  0.83123685  0.89497271  1
  Al  Al23  1  0.89497271  0.00000000  0.83123685  1
  Al  Al24  1  0.00000000  0.83123685  0.10502729  1
  Al  Al25  1  0.00000000  0.16876315  0.89497271  1
  Al  Al26  1  0.10502729  0.00000000  0.83123685  1
  Al  Al27  1  0.16876315  0.89497271  0.00000000  1
  Al  Al28  1  0.83123685  0.10502729  0.00000000  1
  Al  Al29  1  0.83123685  0.89497271  0.00000000  1
  Al  Al30  1  0.32907627  0.39569030  0.50000000  1
  Al  Al31  1  0.50000000  0.32907627  0.39569030  1
  Al  Al32  1  0.39569030  0.50000000  0.32907627  1
  Al  Al33  1  0.60430970  0.50000000  0.32907627  1
  Al  Al34  1  0.50000000  0.67092373  0.60430970  1
  Al  Al35  1  0.60430970  0.50000000  0.67092373  1
  Al  Al36  1  0.50000000  0.67092373  0.39569030  1
  Al  Al37  1  0.50000000  0.32907627  0.60430970  1
  Al  Al38  1  0.39569030  0.50000000  0.67092373  1
  Al  Al39  1  0.32907627  0.60430970  0.50000000  1
  Al  Al40  1  0.67092373  0.39569030  0.50000000  1
  Al  Al41  1  0.67092373  0.60430970  0.50000000  1
  Al  Al42  1  0.32162994  0.40318473  0.00000000  1
  Al  Al43  1  0.00000000  0.32162994  0.40318473  1
  Al  Al44  1  0.40318473  0.00000000  0.32162994  1
  Al  Al45  1  0.59681527  0.00000000  0.32162994  1
  Al  Al46  1  0.00000000  0.67837006  0.59681527  1
  Al  Al47  1  0.59681527  0.00000000  0.67837006  1
  Al  Al48  1  0.00000000  0.67837006  0.40318473  1
  Al  Al49  1  0.00000000  0.32162994  0.59681527  1
  Al  Al50  1  0.40318473  0.00000000  0.67837006  1
  Al  Al51  1  0.32162994  0.59681527  0.00000000  1
  Al  Al52  1  0.67837006  0.40318473  0.00000000  1
  Al  Al53  1  0.67837006  0.59681527  0.00000000  1
  Al  Al54  1  0.12620629  0.11011918  0.50000000  1
  Al  Al55  1  0.50000000  0.12620629  0.11011918  1
  Al  Al56  1  0.11011918  0.50000000  0.12620629  1
  Al  Al57  1  0.88988082  0.50000000  0.12620629  1
  Al  Al58  1  0.50000000  0.87379371  0.88988082  1
  Al  Al59  1  0.88988082  0.50000000  0.87379371  1
  Al  Al60  1  0.50000000  0.87379371  0.11011918  1
  Al  Al61  1  0.50000000  0.12620629  0.88988082  1
  Al  Al62  1  0.11011918  0.50000000  0.87379371  1
  Al  Al63  1  0.12620629  0.88988082  0.50000000  1
  Al  Al64  1  0.87379371  0.11011918  0.50000000  1
  Al  Al65  1  0.87379371  0.88988082  0.50000000  1
  Al  Al66  1  0.11883804  0.18584076  0.30038997  1
  Al  Al67  1  0.30038997  0.11883804  0.18584076  1
  Al  Al68  1  0.18584076  0.30038997  0.11883804  1
  Al  Al69  1  0.81415924  0.69961003  0.11883804  1
  Al  Al70  1  0.30038997  0.88116196  0.81415924  1
  Al  Al71  1  0.81415924  0.30038997  0.88116196  1
  Al  Al72  1  0.69961003  0.88116196  0.18584076  1
  Al  Al73  1  0.69961003  0.11883804  0.81415924  1
  Al  Al74  1  0.18584076  0.69961003  0.88116196  1
  Al  Al75  1  0.11883804  0.81415924  0.69961003  1
  Al  Al76  1  0.88116196  0.18584076  0.69961003  1
  Al  Al77  1  0.88116196  0.81415924  0.30038997  1
  Al  Al78  1  0.88116196  0.81415924  0.69961003  1
  Al  Al79  1  0.69961003  0.88116196  0.81415924  1
  Al  Al80  1  0.81415924  0.69961003  0.88116196  1
  Al  Al81  1  0.18584076  0.30038997  0.88116196  1
  Al  Al82  1  0.69961003  0.11883804  0.18584076  1
  Al  Al83  1  0.18584076  0.69961003  0.11883804  1
  Al  Al84  1  0.30038997  0.11883804  0.81415924  1
  Al  Al85  1  0.30038997  0.88116196  0.18584076  1
  Al  Al86  1  0.81415924  0.30038997  0.11883804  1
  Al  Al87  1  0.88116196  0.18584076  0.30038997  1
  Al  Al88  1  0.11883804  0.81415924  0.30038997  1
  Al  Al89  1  0.11883804  0.18584076  0.69961003  1
  Al  Al90  1  0.38814783  0.31500424  0.19427634  1
  Al  Al91  1  0.19427634  0.38814783  0.31500424  1
  Al  Al92  1  0.31500424  0.19427634  0.38814783  1
  Al  Al93  1  0.68499576  0.80572366  0.38814783  1
  Al  Al94  1  0.19427634  0.61185217  0.68499576  1
  Al  Al95  1  0.68499576  0.19427634  0.61185217  1
  Al  Al96  1  0.80572366  0.61185217  0.31500424  1
  Al  Al97  1  0.80572366  0.38814783  0.68499576  1
  Al  Al98  1  0.31500424  0.80572366  0.61185217  1
  Al  Al99  1  0.38814783  0.68499576  0.80572366  1
  Al  Al100  1  0.61185217  0.31500424  0.80572366  1
  Al  Al101  1  0.61185217  0.68499576  0.19427634  1
  Al  Al102  1  0.61185217  0.68499576  0.80572366  1
  Al  Al103  1  0.80572366  0.61185217  0.68499576  1
  Al  Al104  1  0.68499576  0.80572366  0.61185217  1
  Al  Al105  1  0.31500424  0.19427634  0.61185217  1
  Al  Al106  1  0.80572366  0.38814783  0.31500424  1
  Al  Al107  1  0.31500424  0.80572366  0.38814783  1
  Al  Al108  1  0.19427634  0.38814783  0.68499576  1
  Al  Al109  1  0.19427634  0.61185217  0.31500424  1
  Al  Al110  1  0.68499576  0.19427634  0.38814783  1
  Al  Al111  1  0.61185217  0.31500424  0.19427634  1
  Al  Al112  1  0.38814783  0.68499576  0.19427634  1
  Al  Al113  1  0.38814783  0.31500424  0.80572366  1
  Mn  Mn114  1  0.32770900  0.20278742  0.00000000  1
  Mn  Mn115  1  0.00000000  0.32770900  0.20278742  1
  Mn  Mn116  1  0.20278742  0.00000000  0.32770900  1
  Mn  Mn117  1  0.79721258  0.00000000  0.32770900  1
  Mn  Mn118  1  0.00000000  0.67229100  0.79721258  1
  Mn  Mn119  1  0.79721258  0.00000000  0.67229100  1
  Mn  Mn120  1  0.00000000  0.67229100  0.20278742  1
  Mn  Mn121  1  0.00000000  0.32770900  0.79721258  1
  Mn  Mn122  1  0.20278742  0.00000000  0.67229100  1
  Mn  Mn123  1  0.32770900  0.79721258  0.00000000  1
  Mn  Mn124  1  0.67229100  0.20278742  0.00000000  1
  Mn  Mn125  1  0.67229100  0.79721258  0.00000000  1
  Mn  Mn126  1  0.17512448  0.29699127  0.50000000  1
  Mn  Mn127  1  0.50000000  0.17512448  0.29699127  1
  Mn  Mn128  1  0.29699127  0.50000000  0.17512448  1
  Mn  Mn129  1  0.70300873  0.50000000  0.17512448  1
  Mn  Mn130  1  0.50000000  0.82487552  0.70300873  1
  Mn  Mn131  1  0.70300873  0.50000000  0.82487552  1
  Mn  Mn132  1  0.50000000  0.82487552  0.29699127  1
  Mn  Mn133  1  0.50000000  0.17512448  0.70300873  1
  Mn  Mn134  1  0.29699127  0.50000000  0.82487552  1
  Mn  Mn135  1  0.17512448  0.70300873  0.50000000  1
  Mn  Mn136  1  0.82487552  0.29699127  0.50000000  1
  Mn  Mn137  1  0.82487552  0.70300873  0.50000000  1
