# generated using pymatgen
data_Ba(CuTe)2
_symmetry_space_group_name_H-M   'P 1'
_cell_length_a   4.46979370
_cell_length_b   10.13981281
_cell_length_c   11.55934518
_cell_angle_alpha   90.00000000
_cell_angle_beta   90.00000000
_cell_angle_gamma   90.00000000
_symmetry_Int_Tables_number   1
_chemical_formula_structural   Ba(CuTe)2
_chemical_formula_sum   'Ba4 Cu8 Te8'
_cell_volume   523.90271526
_cell_formula_units_Z   4
loop_
 _symmetry_equiv_pos_site_id
 _symmetry_equiv_pos_as_xyz
  1  'x, y, z'
loop_
 _atom_site_type_symbol
 _atom_site_label
 _atom_site_symmetry_multiplicity
 _atom_site_fract_x
 _atom_site_fract_y
 _atom_site_fract_z
 _atom_site_occupancy
  Cu  Cu0  1  0.25000000  0.07457511  0.54417242  1
  Cu  Cu1  1  0.75000000  0.92542489  0.45582758  1
  Cu  Cu2  1  0.75000000  0.42542489  0.04417242  1
  Cu  Cu3  1  0.25000000  0.57457511  0.95582758  1
  Cu  Cu4  1  0.75000000  0.94362277  0.88716990  1
  Cu  Cu5  1  0.25000000  0.05637723  0.11283010  1
  Cu  Cu6  1  0.75000000  0.44362277  0.61283010  1
  Cu  Cu7  1  0.25000000  0.55637723  0.38716990  1
  Te  Te8  1  0.25000000  0.83955972  0.96229070  1
  Te  Te9  1  0.75000000  0.16044028  0.03770930  1
  Te  Te10  1  0.75000000  0.66044028  0.46229070  1
  Te  Te11  1  0.25000000  0.33955972  0.53770930  1
  Te  Te12  1  0.75000000  0.52317375  0.83025440  1
  Te  Te13  1  0.25000000  0.47682625  0.16974560  1
  Te  Te14  1  0.75000000  0.02317375  0.66974560  1
  Te  Te15  1  0.25000000  0.97682625  0.33025440  1
  Ba  Ba16  1  0.75000000  0.75779980  0.17814795  1
  Ba  Ba17  1  0.25000000  0.24220020  0.82185205  1
  Ba  Ba18  1  0.75000000  0.25779980  0.32185205  1
  Ba  Ba19  1  0.25000000  0.74220020  0.67814795  1
