# generated using pymatgen
data_YV3O6
_symmetry_space_group_name_H-M   'P 1'
_cell_length_a   18.69711047
_cell_length_b   6.29544179
_cell_length_c   6.29544145
_cell_angle_alpha   60.10445333
_cell_angle_beta   59.48790212
_cell_angle_gamma   59.48789739
_symmetry_Int_Tables_number   1
_chemical_formula_structural   YV3O6
_chemical_formula_sum   'Y4 V12 O24'
_cell_volume   520.28677923
_cell_formula_units_Z   4
loop_
 _symmetry_equiv_pos_site_id
 _symmetry_equiv_pos_as_xyz
  1  'x, y, z'
loop_
 _atom_site_type_symbol
 _atom_site_label
 _atom_site_symmetry_multiplicity
 _atom_site_fract_x
 _atom_site_fract_y
 _atom_site_fract_z
 _atom_site_occupancy
  Y  Y0  1  0.22198137  0.61156192  0.61156192  1
  Y  Y1  1  0.53712117  0.62998427  0.62998427  1
  Y  Y2  1  0.11135163  0.38843808  0.38843808  1
  Y  Y3  1  0.79621283  0.37001573  0.37001573  1
  V  V4  1  0.99879929  0.50850907  0.99805964  1
  V  V5  1  0.33453371  0.49149093  0.00194036  1
  V  V6  1  0.66666700  0.50000000  -0.00000000  1
  V  V7  1  0.99755116  0.99793322  0.99793322  1
  V  V8  1  0.33578184  0.00206678  0.00206678  1
  V  V9  1  0.66666700  0.00000000  -0.00000000  1
  V  V10  1  0.16666700  0.00000000  -0.00000000  1
  V  V11  1  0.49381460  0.00664447  0.00664447  1
  V  V12  1  0.83951840  0.99335553  0.99335553  1
  V  V13  1  0.99879929  0.99805964  0.50850907  1
  V  V14  1  0.33453371  0.00194036  0.49149093  1
  V  V15  1  0.66666700  0.00000000  0.50000000  1
  O  O16  1  0.07992306  0.75374479  0.75374479  1
  O  O17  1  0.39884402  0.76730688  0.76730688  1
  O  O18  1  0.72519979  0.77337878  0.77337878  1
  O  O19  1  0.07993301  0.22788132  0.80192943  1
  O  O20  1  0.40347538  0.23914911  0.81098211  1
  O  O21  1  0.74866644  0.22887801  0.79155535  1
  O  O22  1  0.07993301  0.80192943  0.22788132  1
  O  O23  1  0.40347538  0.81098211  0.23914911  1
  O  O24  1  0.74866644  0.79155535  0.22887801  1
  O  O25  1  0.07731258  0.23211902  0.23211902  1
  O  O26  1  0.40260906  0.24067709  0.24067709  1
  O  O27  1  0.74949156  0.22905673  0.22905673  1
  O  O28  1  0.25340099  0.77211868  0.19807057  1
  O  O29  1  0.58466656  0.77112199  0.20844465  1
  O  O30  1  0.92985762  0.76085089  0.18901789  1
  O  O31  1  0.25340994  0.24625521  0.24625521  1
  O  O32  1  0.60813321  0.22662122  0.22662122  1
  O  O33  1  0.93448998  0.23269312  0.23269312  1
  O  O34  1  0.25340099  0.19807057  0.77211868  1
  O  O35  1  0.58466656  0.20844465  0.77112199  1
  O  O36  1  0.92985762  0.18901789  0.76085089  1
  O  O37  1  0.25602042  0.76788098  0.76788098  1
  O  O38  1  0.58384144  0.77094327  0.77094327  1
  O  O39  1  0.93072494  0.75932291  0.75932291  1
