# generated using pymatgen
data_Li3Co3(PO4)4
_symmetry_space_group_name_H-M   'P 1'
_cell_length_a   9.57413884
_cell_length_b   8.07941913
_cell_length_c   8.85448162
_cell_angle_alpha   90.00000000
_cell_angle_beta   66.22367980
_cell_angle_gamma   90.00000000
_symmetry_Int_Tables_number   1
_chemical_formula_structural   Li3Co3(PO4)4
_chemical_formula_sum   'Li6 Co6 P8 O32'
_cell_volume   626.79290324
_cell_formula_units_Z   2
loop_
 _symmetry_equiv_pos_site_id
 _symmetry_equiv_pos_as_xyz
  1  'x, y, z'
loop_
 _atom_site_type_symbol
 _atom_site_label
 _atom_site_symmetry_multiplicity
 _atom_site_fract_x
 _atom_site_fract_y
 _atom_site_fract_z
 _atom_site_occupancy
  Li  Li0  1  0.24475160  0.86380916  0.15252744  1
  Li  Li1  1  0.75444331  0.13214380  0.84041460  1
  Li  Li2  1  0.74888301  0.85910407  0.66282232  1
  Li  Li3  1  0.75524900  0.36380940  0.34747161  1
  Li  Li4  1  0.25111648  0.35910308  0.83717874  1
  Li  Li5  1  0.24555732  0.63214356  0.65958484  1
  O  O6  1  0.34959581  0.93268150  0.30034907  1
  O  O7  1  0.87215507  0.63053418  0.55743110  1
  O  O8  1  0.61315064  0.35504394  0.93600671  1
  O  O9  1  0.89471245  0.31605418  0.69593632  1
  O  O10  1  0.86147548  0.92760246  0.79452161  1
  O  O11  1  0.85810230  0.64070860  0.91823920  1
  O  O12  1  0.15732296  0.37360932  0.10132678  1
  O  O13  1  0.15333124  0.08117779  0.21286288  1
  O  O14  1  0.08986224  0.70259415  0.28832791  1
  O  O15  1  0.37863158  0.62691068  0.06603144  1
  O  O16  1  0.12151050  0.37466487  0.42520573  1
  O  O17  1  0.41035013  0.29579133  0.21928475  1
  O  O18  1  0.38684886  0.85504371  0.56399436  1
  O  O19  1  0.14189720  0.14070884  0.58176073  1
  O  O20  1  0.33504355  0.63464450  0.39636430  1
  O  O21  1  0.66495591  0.13464473  0.10363525  1
  O  O22  1  0.64641684  0.06644632  0.70617959  1
  O  O23  1  0.10528818  0.81605394  0.80406425  1
  O  O24  1  0.65040365  0.43268174  0.19965048  1
  O  O25  1  0.58964933  0.79579109  0.28071593  1
  O  O26  1  0.60028185  0.67635063  0.79681083  1
  O  O27  1  0.87849009  0.87466463  0.07479446  1
  O  O28  1  0.12784557  0.13053318  0.94256834  1
  O  O29  1  0.62136789  0.12691092  0.43396810  1
  O  O30  1  0.39971765  0.17635086  0.70318910  1
  O  O31  1  0.35358266  0.56644608  0.79382034  1
  O  O32  1  0.91013721  0.20259439  0.21167276  1
  O  O33  1  0.84666822  0.58117755  0.28713666  1
  O  O34  1  0.35941754  0.86052242  0.89905210  1
  O  O35  1  0.64058310  0.36052142  0.60094734  1
  O  O36  1  0.84267649  0.87361032  0.39867390  1
  O  O37  1  0.13852401  0.42760147  0.70547945  1
  P  P38  1  0.07159931  0.32217421  0.61242105  1
  P  P39  1  0.58804736  0.30353194  0.11197377  1
  P  P40  1  0.41195209  0.80353170  0.38802691  1
  P  P41  1  0.57813213  0.17888972  0.61913631  1
  P  P42  1  0.42186851  0.67888948  0.88086313  1
  P  P43  1  0.91407363  0.69976956  0.38110700  1
  P  P44  1  0.08592696  0.19976980  0.11889319  1
  P  P45  1  0.92840133  0.82217397  0.88757839  1
  Co  Co46  1  0.73396841  0.48309057  0.73099543  1
  Co  Co47  1  0.75949006  0.01619937  0.25347750  1
  Co  Co48  1  0.26603109  0.98309033  0.76900450  1
  Co  Co49  1  0.74343064  0.64595441  0.15272650  1
  Co  Co50  1  0.25656995  0.14595465  0.34727368  1
  Co  Co51  1  0.24050939  0.51619913  0.24652318  1
