# generated using pymatgen
data_LiMoP2O7
_symmetry_space_group_name_H-M   'P 1'
_cell_length_a   6.55013256
_cell_length_b   6.55025877
_cell_length_c   13.49351259
_cell_angle_alpha   78.97139031
_cell_angle_beta   77.09840675
_cell_angle_gamma   98.38941021
_symmetry_Int_Tables_number   1
_chemical_formula_structural   LiMoP2O7
_chemical_formula_sum   'Li4 Mo4 P8 O28'
_cell_volume   543.03260520
_cell_formula_units_Z   4
loop_
 _symmetry_equiv_pos_site_id
 _symmetry_equiv_pos_as_xyz
  1  'x, y, z'
loop_
 _atom_site_type_symbol
 _atom_site_label
 _atom_site_symmetry_multiplicity
 _atom_site_fract_x
 _atom_site_fract_y
 _atom_site_fract_z
 _atom_site_occupancy
  Li  Li0  1  0.41124273  0.02446761  0.34599187  1
  Li  Li1  1  0.12934453  0.24270190  0.84603248  1
  Li  Li2  1  0.87065537  0.75729776  0.15396725  1
  Li  Li3  1  0.58875753  0.97553242  0.65400858  1
  O  O4  1  0.30798646  0.59644043  0.47511931  1
  O  O5  1  0.72584764  0.05355778  0.38293951  1
  O  O6  1  0.80364597  0.19603032  0.87492000  1
  O  O7  1  0.54653241  0.10119628  0.18618876  1
  O  O8  1  0.06342613  0.89117284  0.88299093  1
  O  O9  1  0.27415134  0.94644255  0.61706085  1
  O  O10  1  0.19635364  0.80396913  0.12508038  1
  O  O11  1  0.45346753  0.89880421  0.81381164  1
  O  O12  1  0.09470794  0.45759065  0.35738897  1
  O  O13  1  0.18010308  0.58085709  0.80673927  1
  O  O14  1  0.23665974  0.61793888  0.97686640  1
  O  O15  1  0.93657373  0.10882678  0.11700900  1
  O  O16  1  0.57162175  0.78312683  0.02488502  1
  O  O17  1  0.31510623  0.45207855  0.14257848  1
  O  O18  1  0.09481450  0.21348701  0.52313036  1
  O  O19  1  0.57093450  0.67864997  0.62507003  1
  O  O20  1  0.88754529  0.98690498  0.69325790  1
  O  O21  1  0.21257147  0.26730412  0.68620636  1
  O  O22  1  0.90529248  0.54240960  0.64261073  1
  O  O23  1  0.11245413  0.01309661  0.30674227  1
  O  O24  1  0.42906507  0.32134960  0.37493032  1
  O  O25  1  0.90518454  0.78651387  0.47686989  1
  O  O26  1  0.68489393  0.54792127  0.85742128  1
  O  O27  1  0.42837797  0.21687292  0.97511500  1
  O  O28  1  0.69201403  0.40356003  0.52488071  1
  O  O29  1  0.76334041  0.38206078  0.02313377  1
  O  O30  1  0.81989711  0.41914320  0.19326089  1
  O  O31  1  0.78742925  0.73269615  0.31379354  1
  P  P32  1  0.76698533  0.24728662  0.13483874  1
  P  P33  1  0.66142109  0.33233774  0.92793888  1
  P  P34  1  0.76023622  0.58943324  0.57207505  1
  P  P35  1  0.11785931  0.09820833  0.63485780  1
  P  P36  1  0.23301479  0.75271343  0.86516133  1
  P  P37  1  0.33857895  0.66766186  0.07206109  1
  P  P38  1  0.88213998  0.90179256  0.36514220  1
  P  P39  1  0.23976360  0.41056680  0.42792495  1
  Mo  Mo40  1  0.23425003  0.60479655  0.63820739  1
  Mo  Mo41  1  0.74295322  0.87247043  0.86180229  1
  Mo  Mo42  1  0.25704678  0.12752925  0.13819785  1
  Mo  Mo43  1  0.76574964  0.39520323  0.36179291  1
