# generated using pymatgen
data_Li3Co3(PO4)4
_symmetry_space_group_name_H-M   'P 1'
_cell_length_a   7.74557878
_cell_length_b   8.13514868
_cell_length_c   10.04585885
_cell_angle_alpha   90.00000000
_cell_angle_beta   96.89144237
_cell_angle_gamma   90.00000000
_symmetry_Int_Tables_number   1
_chemical_formula_structural   Li3Co3(PO4)4
_chemical_formula_sum   'Li6 Co6 P8 O32'
_cell_volume   628.43070191
_cell_formula_units_Z   2
loop_
 _symmetry_equiv_pos_site_id
 _symmetry_equiv_pos_as_xyz
  1  'x, y, z'
loop_
 _atom_site_type_symbol
 _atom_site_label
 _atom_site_symmetry_multiplicity
 _atom_site_fract_x
 _atom_site_fract_y
 _atom_site_fract_z
 _atom_site_occupancy
  Li  Li0  1  0.10770121  0.36336572  0.78959857  1
  Li  Li1  1  0.90092973  0.62629593  0.21367049  1
  Li  Li2  1  0.59906969  0.12629695  0.53632944  1
  Li  Li3  1  0.40547218  0.86387771  0.46277729  1
  Li  Li4  1  0.39229865  0.86336595  0.96040161  1
  Li  Li5  1  0.09452822  0.36387872  0.28722257  1
  O  O6  1  0.24452080  0.86907199  0.77742576  1
  O  O7  1  0.87455328  0.79805002  0.85028410  1
  O  O8  1  0.85085109  0.42100375  0.28913320  1
  O  O9  1  0.90280728  0.79929981  0.35287224  1
  O  O10  1  0.94387285  0.87061144  0.60130124  1
  O  O11  1  0.94266365  0.87416174  0.09282886  1
  O  O12  1  0.07118372  0.12685650  0.90505493  1
  O  O13  1  0.06272699  0.11760494  0.40164239  1
  O  O14  1  0.10548987  0.19925684  0.64361148  1
  O  O15  1  0.13204009  0.58104091  0.71697331  1
  O  O16  1  0.12096579  0.19074676  0.15054168  1
  O  O17  1  0.14283080  0.57119817  0.21184998  1
  O  O18  1  0.39451053  0.69925707  0.10638838  1
  O  O19  1  0.25547906  0.36907175  0.97257442  1
  O  O20  1  0.24637247  0.36089869  0.47089889  1
  O  O21  1  0.25362662  0.86089767  0.27910089  1
  O  O22  1  0.73489688  0.13727027  0.21441303  1
  O  O23  1  0.37903463  0.69074699  0.59945918  1
  O  O24  1  0.42881614  0.62685549  0.84494525  1
  O  O25  1  0.36796031  0.08104068  0.03302655  1
  O  O26  1  0.85566978  0.43413135  0.78249943  1
  O  O27  1  0.43727211  0.61760517  0.34835738  1
  O  O28  1  0.55733707  0.37416151  0.65717116  1
  O  O29  1  0.62544558  0.29804979  0.89971516  1
  O  O30  1  0.55612787  0.37061245  0.14869878  1
  O  O31  1  0.64433041  0.93413158  0.96750091  1
  O  O32  1  0.59719214  0.29929958  0.39712769  1
  O  O33  1  0.64914963  0.92100398  0.46086682  1
  O  O34  1  0.76510253  0.63727051  0.53558690  1
  O  O35  1  0.76529493  0.14072218  0.71790172  1
  O  O36  1  0.73470579  0.64072241  0.03209829  1
  O  O37  1  0.35716959  0.07119793  0.53814989  1
  P  P38  1  0.20610118  0.19729342  0.02078326  1
  P  P39  1  0.29389923  0.69729366  0.72921760  1
  P  P40  1  0.29717757  0.68460508  0.23292786  1
  P  P41  1  0.70362254  0.30890174  0.76248082  1
  P  P42  1  0.69211446  0.31416622  0.27273626  1
  P  P43  1  0.79637764  0.80890197  0.98751951  1
  P  P44  1  0.20282152  0.18460610  0.51707192  1
  P  P45  1  0.80788626  0.81416645  0.47726376  1
  Co  Co46  1  0.89481982  0.64720309  0.70921594  1
  Co  Co47  1  0.60518090  0.14720411  0.04078408  1
  Co  Co48  1  0.48743334  0.51751322  0.00524099  1
  Co  Co49  1  0.47178010  0.48485082  0.49702185  1
  Co  Co50  1  0.02821901  0.98485105  0.25297892  1
  Co  Co51  1  0.01256706  0.01751299  0.74475887  1
