# generated using pymatgen
data_Li3Ni2P5O16
_symmetry_space_group_name_H-M   'P 1'
_cell_length_a   18.17680593
_cell_length_b   6.87520866
_cell_length_c   5.02023674
_cell_angle_alpha   90.00000000
_cell_angle_beta   92.18294834
_cell_angle_gamma   90.00000000
_symmetry_Int_Tables_number   1
_chemical_formula_structural   Li3Ni2P5O16
_chemical_formula_sum   'Li6 Ni4 P10 O32'
_cell_volume   626.92035049
_cell_formula_units_Z   2
loop_
 _symmetry_equiv_pos_site_id
 _symmetry_equiv_pos_as_xyz
  1  'x, y, z'
loop_
 _atom_site_type_symbol
 _atom_site_label
 _atom_site_symmetry_multiplicity
 _atom_site_fract_x
 _atom_site_fract_y
 _atom_site_fract_z
 _atom_site_occupancy
  Li  Li0  1  0.03365674  0.32642917  0.26144043  1
  Li  Li1  1  0.25000002  0.98410177  0.50000096  1
  Li  Li2  1  0.46634330  0.32642917  0.73855949  1
  Li  Li3  1  0.53365680  0.67356993  0.26143952  1
  Li  Li4  1  0.75000008  0.01589879  0.50000005  1
  Li  Li5  1  0.96634281  0.67356993  0.73856051  1
  O  O6  1  0.29405769  0.61297734  0.19610757  1
  O  O7  1  0.93096784  0.37899688  0.07994159  1
  O  O8  1  0.92941749  0.92139029  0.93573725  1
  O  O9  1  0.89208039  0.44820680  0.55811478  1
  O  O10  1  0.01709274  0.20668536  0.62111055  1
  O  O11  1  0.06903225  0.62100222  0.92005942  1
  O  O12  1  0.07058261  0.07860882  0.06426376  1
  O  O13  1  0.10791970  0.55179376  0.44188423  1
  O  O14  1  0.12794212  0.97509931  0.61623568  1
  O  O15  1  0.14276790  0.31049159  0.80261700  1
  O  O16  1  0.20029715  0.86907420  0.17647634  1
  O  O17  1  0.20594235  0.61297734  0.80389235  1
  O  O18  1  0.98290736  0.79331520  0.37889046  1
  O  O19  1  0.29970288  0.86907420  0.82352358  1
  O  O20  1  0.35723158  0.31049159  0.19738284  1
  O  O21  1  0.37205791  0.97509931  0.38376424  1
  O  O22  1  0.39208033  0.55179376  0.55811569  1
  O  O23  1  0.42941743  0.07860882  0.93573616  1
  O  O24  1  0.43096778  0.62100222  0.07994050  1
  O  O25  1  0.48290730  0.20668536  0.37888937  1
  O  O26  1  0.87205797  0.02490125  0.38376533  1
  O  O27  1  0.56903231  0.37899688  0.92005852  1
  O  O28  1  0.57058267  0.92139029  0.06426285  1
  O  O29  1  0.60791976  0.44820680  0.44188532  1
  O  O30  1  0.62794218  0.02490125  0.61623477  1
  O  O31  1  0.64276796  0.68950752  0.80261610  1
  O  O32  1  0.70029721  0.13092636  0.17647543  1
  O  O33  1  0.70594186  0.38702321  0.80389137  1
  O  O34  1  0.79405775  0.38702321  0.19610866  1
  O  O35  1  0.79970294  0.13092636  0.82352468  1
  O  O36  1  0.85723164  0.68950752  0.19738394  1
  O  O37  1  0.51709280  0.79331520  0.62110964  1
  P  P38  1  0.91491223  0.87565097  0.22654450  1
  P  P39  1  0.87533948  0.46775845  0.26181973  1
  P  P40  1  0.74999981  0.24351057  0.99999960  1
  P  P41  1  0.62466068  0.46775845  0.73818037  1
  P  P42  1  0.08508786  0.12434959  0.77345451  1
  P  P43  1  0.12466062  0.53224065  0.73818128  1
  P  P44  1  0.24999975  0.75648853  0.00000051  1
  P  P45  1  0.58508792  0.87565097  0.77345361  1
  P  P46  1  0.41491218  0.12434959  0.22654541  1
  P  P47  1  0.37533942  0.53224065  0.26181864  1
  Ni  Ni48  1  0.08996114  0.82372681  0.26618301  1
  Ni  Ni49  1  0.41003889  0.82372681  0.73381691  1
  Ni  Ni50  1  0.58996120  0.17627229  0.26618210  1
  Ni  Ni51  1  0.91003895  0.17627229  0.73381800  1
