# generated using pymatgen
data_Ce2Te3
_symmetry_space_group_name_H-M   'P 1'
_cell_length_a   24.71046924
_cell_length_b   9.49559420
_cell_length_c   9.49559457
_cell_angle_alpha   89.99999883
_cell_angle_beta   54.80147948
_cell_angle_gamma   54.80147787
_symmetry_Int_Tables_number   1
_chemical_formula_structural   Ce2Te3
_chemical_formula_sum   'Ce16 Te24'
_cell_volume   1290.54068149
_cell_formula_units_Z   8
loop_
 _symmetry_equiv_pos_site_id
 _symmetry_equiv_pos_as_xyz
  1  'x, y, z'
loop_
 _atom_site_type_symbol
 _atom_site_label
 _atom_site_symmetry_multiplicity
 _atom_site_fract_x
 _atom_site_fract_y
 _atom_site_fract_z
 _atom_site_occupancy
  Ce  Ce0  1  0.99763001  0.38342225  0.24906334  1
  Ce  Ce1  1  0.08207011  0.62689434  0.37689434  1
  Ce  Ce2  1  0.16666700  0.25000000  0.62934078  1
  Ce  Ce3  1  0.25126289  0.87310566  0.12310566  1
  Ce  Ce4  1  0.33570299  0.37631229  0.25093666  1
  Ce  Ce5  1  0.33570299  0.11657775  0.74195339  1
  Ce  Ce6  1  0.16666700  0.75000000  0.87065922  1
  Ce  Ce7  1  0.49763001  0.25804661  0.62368771  1
  Ce  Ce8  1  0.58207011  0.87689434  0.12689434  1
  Ce  Ce9  1  0.66666700  0.37065922  0.25000000  1
  Ce  Ce10  1  0.66666700  0.12934078  0.75000000  1
  Ce  Ce11  1  0.49763001  0.74906334  0.88342225  1
  Ce  Ce12  1  0.75126289  0.62310566  0.37310566  1
  Ce  Ce13  1  0.83570299  0.24195339  0.61657775  1
  Ce  Ce14  1  0.83570299  0.75093666  0.87631229  1
  Ce  Ce15  1  0.99763001  0.12368771  0.75804661  1
  Te  Te16  1  0.05132760  0.00011373  0.34750999  1
  Te  Te17  1  0.12082478  0.49332676  0.99619959  1
  Te  Te18  1  0.05132760  0.34590248  0.49850622  1
  Te  Te19  1  0.28200540  0.15409752  0.15249001  1
  Te  Te20  1  0.28200540  0.49988627  0.00149378  1
  Te  Te21  1  0.12082478  0.64419791  0.64132507  1
  Te  Te22  1  0.38515321  -0.00210332  0.34315698  1
  Te  Te23  1  0.21250822  0.85580209  0.50380041  1
  Te  Te24  1  0.44818079  0.49861563  1.00210332  1
  Te  Te25  1  0.38515321  0.34664467  0.50138437  1
  Te  Te26  1  0.21250822  0.00667324  0.85867493  1
  Te  Te27  1  0.62082478  0.14132507  0.14419791  1
  Te  Te28  1  0.62082478  0.49619959  0.99332676  1
  Te  Te29  1  0.44818079  0.65684302  0.65335533  1
  Te  Te30  1  0.71250822  0.00380041  0.35580209  1
  Te  Te31  1  0.55132760  0.84750999  0.50011373  1
  Te  Te32  1  0.78200540  0.50149378  0.99988627  1
  Te  Te33  1  0.71250822  0.35867493  0.50667324  1
  Te  Te34  1  0.55132760  0.99850622  0.84590248  1
  Te  Te35  1  0.94818079  0.15335533  0.15684302  1
  Te  Te36  1  0.94818079  0.50210332  0.99861563  1
  Te  Te37  1  0.78200540  0.65249001  0.65409752  1
  Te  Te38  1  0.88515321  0.84315698  0.49789668  1
  Te  Te39  1  0.88515321  0.00138437  0.84664467  1
