# generated using pymatgen
data_V2P3O11
_symmetry_space_group_name_H-M   'P 1'
_cell_length_a   7.28608781
_cell_length_b   7.28608781
_cell_length_c   8.97802053
_cell_angle_alpha   70.55720251
_cell_angle_beta   109.44279751
_cell_angle_gamma   108.08321987
_symmetry_Int_Tables_number   1
_chemical_formula_structural   V2P3O11
_chemical_formula_sum   'V4 P6 O22'
_cell_volume   412.99282340
_cell_formula_units_Z   2
loop_
 _symmetry_equiv_pos_site_id
 _symmetry_equiv_pos_as_xyz
  1  'x, y, z'
loop_
 _atom_site_type_symbol
 _atom_site_label
 _atom_site_symmetry_multiplicity
 _atom_site_fract_x
 _atom_site_fract_y
 _atom_site_fract_z
 _atom_site_occupancy
  O  O0  1  0.01267409  0.85956332  0.89819330  1
  O  O1  1  0.04838130  0.23158691  0.78961432  1
  O  O2  1  0.14040769  0.98728512  0.39819480  1
  O  O3  1  0.25476500  0.61043760  0.82850617  1
  O  O4  1  0.23158764  0.04838123  0.71038575  1
  O  O5  1  0.15368738  0.53590617  0.13120206  1
  O  O6  1  0.46400079  0.84624720  0.63119863  1
  O  O7  1  0.27860554  0.36832293  0.43195846  1
  O  O8  1  0.63159961  0.72135439  0.93193897  1
  O  O9  1  0.48300651  0.48300686  0.74999983  1
  O  O10  1  0.38948281  0.74511912  0.32852117  1
  O  O11  1  0.61043786  0.25476589  0.67149351  1
  O  O12  1  0.51693723  0.51693780  0.24999945  1
  O  O13  1  0.36832221  0.27860631  0.06804147  1
  O  O14  1  0.72135554  0.63159853  0.56806149  1
  O  O15  1  0.53590672  0.15368689  0.36879743  1
  O  O16  1  0.98728527  0.14040867  0.10180530  1
  O  O17  1  0.76834872  0.95154429  0.28961306  1
  O  O18  1  0.74511820  0.38948309  0.17147882  1
  O  O19  1  0.85956310  0.01267317  0.60180674  1
  O  O20  1  0.95154468  0.76834974  0.21038709  1
  O  O21  1  0.84624811  0.46400108  0.86880140  1
  P  P22  1  0.03999367  0.03999369  0.74999992  1
  P  P23  1  0.45638113  0.67213856  0.78993496  1
  P  P24  1  0.32782568  0.54358361  0.28994839  1
  P  P25  1  0.67213969  0.45638190  0.71006500  1
  P  P26  1  0.54358396  0.32782649  0.21005069  1
  P  P27  1  0.95989835  0.95989951  0.24999929  1
  V  V28  1  0.11067311  0.36274555  0.95991342  1
  V  V29  1  0.36274551  0.11067257  0.54008657  1
  V  V30  1  0.63711125  0.88924292  0.45991321  1
  V  V31  1  0.88924230  0.63711240  0.04008663  1
