# generated using pymatgen
data_SrBr2
_symmetry_space_group_name_H-M   'P 1'
_cell_length_a   7.26381333
_cell_length_b   11.75127146
_cell_length_c   11.75127146
_cell_angle_alpha   90.00000000
_cell_angle_beta   90.00000000
_cell_angle_gamma   90.00000000
_symmetry_Int_Tables_number   1
_chemical_formula_structural   SrBr2
_chemical_formula_sum   'Sr10 Br20'
_cell_volume   1003.07727735
_cell_formula_units_Z   10
loop_
 _symmetry_equiv_pos_site_id
 _symmetry_equiv_pos_as_xyz
  1  'x, y, z'
loop_
 _atom_site_type_symbol
 _atom_site_label
 _atom_site_symmetry_multiplicity
 _atom_site_fract_x
 _atom_site_fract_y
 _atom_site_fract_z
 _atom_site_occupancy
  Sr  Sr0  1  0.24787348  0.10414656  0.58505741  1
  Sr  Sr1  1  0.24787348  0.58505741  0.39585344  1
  Sr  Sr2  1  0.75212652  0.08505741  0.89585344  1
  Sr  Sr3  1  0.75212652  0.60414656  0.08505741  1
  Sr  Sr4  1  0.75212652  0.89585344  0.41494259  1
  Sr  Sr5  1  0.15055614  0.75000000  0.75000000  1
  Sr  Sr6  1  0.75212652  0.41494259  0.60414656  1
  Sr  Sr7  1  0.24787348  0.39585344  0.91494259  1
  Sr  Sr8  1  0.84944386  0.25000000  0.25000000  1
  Sr  Sr9  1  0.24787348  0.91494259  0.10414656  1
  Br  Br10  1  0.90350853  0.54270400  0.83909560  1
  Br  Br11  1  0.00000000  0.75000000  0.25000000  1
  Br  Br12  1  0.37623959  0.65211031  0.95968441  1
  Br  Br13  1  0.09649147  0.33909560  0.45729600  1
  Br  Br14  1  0.90350853  0.95729600  0.66090440  1
  Br  Br15  1  0.37623959  0.95968441  0.84788969  1
  Br  Br16  1  0.62376041  0.04031559  0.15211031  1
  Br  Br17  1  0.37623959  0.84788969  0.54031559  1
  Br  Br18  1  0.90350853  0.83909560  0.95729600  1
  Br  Br19  1  0.90350853  0.66090440  0.54270400  1
  Br  Br20  1  0.62376041  0.45968441  0.34788969  1
  Br  Br21  1  0.37623959  0.54031559  0.65211031  1
  Br  Br22  1  0.50000000  0.75000000  0.25000000  1
  Br  Br23  1  0.00000000  0.25000000  0.75000000  1
  Br  Br24  1  0.09649147  0.16090440  0.04270400  1
  Br  Br25  1  0.62376041  0.34788969  0.04031559  1
  Br  Br26  1  0.50000000  0.25000000  0.75000000  1
  Br  Br27  1  0.09649147  0.45729600  0.16090440  1
  Br  Br28  1  0.62376041  0.15211031  0.45968441  1
  Br  Br29  1  0.09649147  0.04270400  0.33909560  1
