# generated using pymatgen
data_YCr3O6
_symmetry_space_group_name_H-M   'P 1'
_cell_length_a   18.55565127
_cell_length_b   6.19702228
_cell_length_c   6.19702265
_cell_angle_alpha   60.09782845
_cell_angle_beta   59.99217636
_cell_angle_gamma   59.99218045
_symmetry_Int_Tables_number   1
_chemical_formula_structural   YCr3O6
_chemical_formula_sum   'Y4 Cr12 O24'
_cell_volume   504.19203115
_cell_formula_units_Z   4
loop_
 _symmetry_equiv_pos_site_id
 _symmetry_equiv_pos_as_xyz
  1  'x, y, z'
loop_
 _atom_site_type_symbol
 _atom_site_label
 _atom_site_symmetry_multiplicity
 _atom_site_fract_x
 _atom_site_fract_y
 _atom_site_fract_z
 _atom_site_occupancy
  Y  Y0  1  0.20418426  0.62814104  0.62814104  1
  Y  Y1  1  0.88559655  0.61409888  0.61409888  1
  Y  Y2  1  0.46248274  0.37185896  0.37185896  1
  Y  Y3  1  0.78107045  0.38590112  0.38590112  1
  Cr  Cr4  1  0.00199917  0.49055278  0.00189859  1
  Cr  Cr5  1  0.33333300  0.50000000  0.00000000  1
  Cr  Cr6  1  0.66466783  0.50944722  0.99810141  1
  Cr  Cr7  1  0.00197882  0.00183327  0.00183327  1
  Cr  Cr8  1  0.33333300  0.00000000  0.00000000  1
  Cr  Cr9  1  0.66468818  0.99816673  0.99816673  1
  Cr  Cr10  1  0.16238873  0.00410740  0.00410740  1
  Cr  Cr11  1  0.50427827  0.99589260  0.99589260  1
  Cr  Cr12  1  0.83333300  0.00000000  0.00000000  1
  Cr  Cr13  1  0.00199917  0.00189859  0.49055278  1
  Cr  Cr14  1  0.33333300  0.00000000  0.50000000  1
  Cr  Cr15  1  0.66466783  0.99810141  0.50944722  1
  O  O16  1  0.06299186  0.77032899  0.77032899  1
  O  O17  1  0.39456879  0.77190353  0.77190353  1
  O  O18  1  0.74067409  0.75902746  0.75902746  1
  O  O19  1  0.07341591  0.23515494  0.80950859  1
  O  O20  1  0.41253550  0.23317708  0.79610448  1
  O  O21  1  0.74686589  0.22865523  0.80181853  1
  O  O22  1  0.07341591  0.80950859  0.23515494  1
  O  O23  1  0.41253550  0.79610448  0.23317708  1
  O  O24  1  0.74686589  0.80181853  0.22865523  1
  O  O25  1  0.07345102  0.23535265  0.23535265  1
  O  O26  1  0.41246293  0.23428297  0.23428297  1
  O  O27  1  0.74690849  0.22897403  0.22897403  1
  O  O28  1  0.25413050  0.76682292  0.20389552  1
  O  O29  1  0.59325109  0.76484506  0.19049141  1
  O  O30  1  0.91980111  0.77134477  0.19818147  1
  O  O31  1  0.27209821  0.22809647  0.22809647  1
  O  O32  1  0.60367414  0.22967101  0.22967101  1
  O  O33  1  0.92599291  0.24097254  0.24097254  1
  O  O34  1  0.25413050  0.20389552  0.76682292  1
  O  O35  1  0.59325109  0.19049141  0.76484506  1
  O  O36  1  0.91980111  0.19818147  0.77134477  1
  O  O37  1  0.25420407  0.76571703  0.76571703  1
  O  O38  1  0.59321598  0.76464735  0.76464735  1
  O  O39  1  0.91975751  0.77102597  0.77102597  1
