# generated using pymatgen
data_Li3Mo3(PO4)4
_symmetry_space_group_name_H-M   'P 1'
_cell_length_a   13.87951439
_cell_length_b   5.12907103
_cell_length_c   8.79911755
_cell_angle_alpha   90.00000000
_cell_angle_beta   95.28038279
_cell_angle_gamma   90.00000000
_symmetry_Int_Tables_number   1
_chemical_formula_structural   Li3Mo3(PO4)4
_chemical_formula_sum   'Li6 Mo6 P8 O32'
_cell_volume   623.74223567
_cell_formula_units_Z   2
loop_
 _symmetry_equiv_pos_site_id
 _symmetry_equiv_pos_as_xyz
  1  'x, y, z'
loop_
 _atom_site_type_symbol
 _atom_site_label
 _atom_site_symmetry_multiplicity
 _atom_site_fract_x
 _atom_site_fract_y
 _atom_site_fract_z
 _atom_site_occupancy
  Li  Li0  1  0.11144342  0.44727335  0.85118523  1
  Li  Li1  1  0.00000000  0.00000000  0.00000000  1
  Li  Li2  1  0.38855595  0.94727389  0.64881504  1
  Li  Li3  1  0.50000023  0.50000054  0.49999954  1
  Li  Li4  1  0.61144378  0.05272719  0.35118508  1
  Li  Li5  1  0.88855631  0.55272773  0.14881489  1
  O  O6  1  0.25375394  0.09393092  0.60063707  1
  O  O7  1  0.92068085  0.84910187  0.48751253  1
  O  O8  1  0.75375430  0.40606962  0.10063692  1
  O  O9  1  0.85501930  0.30466323  0.42640134  1
  O  O10  1  0.98325661  0.51439672  0.74247264  1
  O  O11  1  0.64498079  0.80466377  0.07359978  1
  O  O12  1  0.12814814  0.03388667  0.78841243  1
  O  O13  1  0.07931961  0.15089921  0.51248769  1
  O  O14  1  0.24624543  0.59392950  0.89936319  1
  O  O15  1  0.14498043  0.69533589  0.57359878  1
  O  O16  1  0.01674312  0.48560436  0.25752748  1
  O  O17  1  0.35501967  0.19533731  0.92640045  1
  O  O18  1  0.87185232  0.96611441  0.21158780  1
  O  O19  1  0.42068049  0.65089779  0.98751268  1
  O  O20  1  0.10376284  0.75357997  0.07766816  1
  O  O21  1  0.37185196  0.53388525  0.71158795  1
  O  O22  1  0.20232955  0.49131286  0.28565950  1
  O  O23  1  0.11325641  0.27196434  0.05805664  1
  O  O24  1  0.38674382  0.77196488  0.44194290  1
  O  O25  1  0.51674335  0.01439618  0.75752816  1
  O  O26  1  0.74624579  0.90607016  0.39936305  1
  O  O27  1  0.39623739  0.25357943  0.42233138  1
  O  O28  1  0.60376307  0.74641970  0.57766885  1
  O  O29  1  0.70232905  0.00868768  0.78566008  1
  O  O30  1  0.48325638  0.98560294  0.24247195  1
  O  O31  1  0.61325664  0.22803424  0.55805618  1
  O  O32  1  0.88674405  0.72803478  0.94194359  1
  O  O33  1  0.79767091  0.50868822  0.71434073  1
  O  O34  1  0.62814777  0.46611387  0.28841217  1
  O  O35  1  0.89623689  0.24642112  0.92233195  1
  O  O36  1  0.57931924  0.34910133  0.01248744  1
  O  O37  1  0.29767068  0.99131144  0.21434004  1
  P  P38  1  0.85024655  0.00455311  0.38052383  1
  P  P39  1  0.64975354  0.50455365  0.11947614  1
  P  P40  1  0.88837636  0.50084968  0.82366178  1
  P  P41  1  0.61162360  0.00084826  0.67633788  1
  P  P42  1  0.38837613  0.99915086  0.32366224  1
  P  P43  1  0.11162410  0.49915140  0.17633845  1
  P  P44  1  0.14975318  0.99544601  0.61947629  1
  P  P45  1  0.35024692  0.49544743  0.88052294  1
  Mo  Mo46  1  0.99999994  0.50000054  0.49999984  1
  Mo  Mo47  1  0.21885292  0.97606481  0.99993286  1
  Mo  Mo48  1  0.28114718  0.47606622  0.50006752  1
  Mo  Mo49  1  0.50000030  0.00000000  0.99999970  1
  Mo  Mo50  1  0.71885328  0.52393486  0.49993271  1
  Mo  Mo51  1  0.78114681  0.02393432  0.00006726  1
