# generated using pymatgen
data_Nd2S3
_symmetry_space_group_name_H-M   'P 1'
_cell_length_a   22.31946779
_cell_length_b   8.60332632
_cell_length_c   8.60332623
_cell_angle_alpha   89.99999917
_cell_angle_beta   54.67635869
_cell_angle_gamma   54.67635911
_symmetry_Int_Tables_number   1
_chemical_formula_structural   Nd2S3
_chemical_formula_sum   'Nd16 S24'
_cell_volume   951.00216768
_cell_formula_units_Z   8
loop_
 _symmetry_equiv_pos_site_id
 _symmetry_equiv_pos_as_xyz
  1  'x, y, z'
loop_
 _atom_site_type_symbol
 _atom_site_label
 _atom_site_symmetry_multiplicity
 _atom_site_fract_x
 _atom_site_fract_y
 _atom_site_fract_z
 _atom_site_occupancy
  Nd  Nd0  1  0.99506813  0.39567639  0.24919004  1
  Nd  Nd1  1  0.08519016  0.62221426  0.37221426  1
  Nd  Nd2  1  0.16666700  0.25000000  0.62996317  1
  Nd  Nd3  1  0.24814284  0.87778574  0.12778574  1
  Nd  Nd4  1  0.33826487  0.38088076  0.25080996  1
  Nd  Nd5  1  0.33826487  0.10432361  0.73439442  1
  Nd  Nd6  1  0.16666700  0.75000000  0.87003683  1
  Nd  Nd7  1  0.49506813  0.26560558  0.61911924  1
  Nd  Nd8  1  0.66666700  0.37003683  0.25000000  1
  Nd  Nd9  1  0.58519016  0.87221426  0.12221426  1
  Nd  Nd10  1  0.49506813  0.74919004  0.89567639  1
  Nd  Nd11  1  0.66666700  0.12996317  0.75000000  1
  Nd  Nd12  1  0.74814284  0.62778574  0.37778574  1
  Nd  Nd13  1  0.83826487  0.23439442  0.60432361  1
  Nd  Nd14  1  0.99506813  0.11911924  0.76560558  1
  Nd  Nd15  1  0.83826487  0.75080996  0.88088076  1
  S  S16  1  0.12615633  0.48752930  0.99225223  1
  S  S17  1  0.05031008  0.35052604  0.49597637  1
  S  S18  1  0.28302292  0.14947396  0.14690762  1
  S  S19  1  0.05031008  0.99854271  0.35309238  1
  S  S20  1  0.28302292  0.50145729  0.00402363  1
  S  S21  1  0.12615633  0.63400072  0.62927778  1
  S  S22  1  0.20717667  0.86599928  0.50774777  1
  S  S23  1  0.44945151  0.49531491  0.99470079  1
  S  S24  1  0.38388249  0.34305433  0.50468509  1
  S  S25  1  0.20717667  0.01247070  0.87072222  1
  S  S26  1  0.38388249  0.00529921  0.34366845  1
  S  S27  1  0.62615633  0.12927778  0.13400072  1
  S  S28  1  0.62615633  0.49225223  0.98752930  1
  S  S29  1  0.44945151  0.65633155  0.65694567  1
  S  S30  1  0.55031008  0.85309238  0.49854271  1
  S  S31  1  0.78302292  0.50402363  0.00145729  1
  S  S32  1  0.70717667  0.37072222  0.51247070  1
  S  S33  1  0.55031008  0.99597637  0.85052604  1
  S  S34  1  0.94945151  0.15694567  0.15633155  1
  S  S35  1  0.70717667  0.00774777  0.36599928  1
  S  S36  1  0.94945151  0.49470079  0.99531491  1
  S  S37  1  0.78302292  0.64690762  0.64947396  1
  S  S38  1  0.88388249  0.84366845  0.50529921  1
  S  S39  1  0.88388249  0.00468509  0.84305433  1
