# generated using pymatgen
data_Pr2S3
_symmetry_space_group_name_H-M   'P 1'
_cell_length_a   22.48133578
_cell_length_b   8.66299894
_cell_length_c   8.66299764
_cell_angle_alpha   89.99847985
_cell_angle_beta   54.68854571
_cell_angle_gamma   54.68853664
_symmetry_Int_Tables_number   1
_chemical_formula_structural   Pr2S3
_chemical_formula_sum   'Pr16 S24'
_cell_volume   971.84673134
_cell_formula_units_Z   8
loop_
 _symmetry_equiv_pos_site_id
 _symmetry_equiv_pos_as_xyz
  1  'x, y, z'
loop_
 _atom_site_type_symbol
 _atom_site_label
 _atom_site_symmetry_multiplicity
 _atom_site_fract_x
 _atom_site_fract_y
 _atom_site_fract_z
 _atom_site_occupancy
  Pr  Pr0  1  0.16666287  0.25003774  0.13001262  1
  Pr  Pr1  1  0.99514982  0.61954652  0.74937573  1
  Pr  Pr2  1  0.08502595  0.12246604  0.87246004  1
  Pr  Pr3  1  0.16667058  0.74996072  0.36998640  1
  Pr  Pr4  1  0.24830475  0.37754219  0.62754003  1
  Pr  Pr5  1  0.33818249  0.88046398  0.23490106  1
  Pr  Pr6  1  0.49514982  0.24937571  0.11954655  1
  Pr  Pr7  1  0.33815743  0.60501665  0.75062722  1
  Pr  Pr8  1  0.49517290  0.76511885  0.39498718  1
  Pr  Pr9  1  0.58502599  0.37245987  0.62246595  1
  Pr  Pr10  1  0.83815737  0.25062739  0.10501681  1
  Pr  Pr11  1  0.66667055  0.86998646  0.24996075  1
  Pr  Pr12  1  0.66666288  0.63001270  0.75003766  1
  Pr  Pr13  1  0.74830475  0.12754003  0.87754219  1
  Pr  Pr14  1  0.83818245  0.73490110  0.38046412  1
  Pr  Pr15  1  0.99517294  0.89498707  0.26511884  1
  S  S16  1  0.12605241  0.98719681  0.12973757  1
  S  S17  1  0.05078041  0.49862401  0.99599036  1
  S  S18  1  0.12604705  0.13465984  0.49211162  1
  S  S19  1  0.20728689  0.51278887  0.00787687  1
  S  S20  1  0.20728832  0.36533637  0.37026716  1
  S  S21  1  0.05077774  0.84902134  0.85167771  1
  S  S22  1  0.28255175  0.00137425  0.64833371  1
  S  S23  1  0.44904728  0.99558352  0.15819868  1
  S  S24  1  0.38428491  0.50532277  0.00441568  1
  S  S25  1  0.28255470  0.65097847  0.50400592  1
  S  S26  1  0.44904771  0.15726930  0.49466812  1
  S  S27  1  0.55078035  0.49599049  0.99862414  1
  S  S28  1  0.55077774  0.35167772  0.34902133  1
  S  S29  1  0.38428712  0.84179919  0.84271860  1
  S  S30  1  0.62604702  0.99211161  0.63465990  1
  S  S31  1  0.78255467  0.00400600  0.15097848  1
  S  S32  1  0.70728702  0.50787668  0.01278855  1
  S  S33  1  0.62605238  0.62973758  0.48719682  1
  S  S34  1  0.78255164  0.14833386  0.50137440  1
  S  S35  1  0.88428485  0.50441579  0.00532281  1
  S  S36  1  0.88428712  0.34271865  0.34179918  1
  S  S37  1  0.70728832  0.87026719  0.86533647  1
  S  S38  1  0.94904774  0.99466805  0.65726923  1
  S  S39  1  0.94904732  0.65819863  0.49558353  1
