# generated using pymatgen
data_Nd3NbO7
_symmetry_space_group_name_H-M   'P 1'
_cell_length_a   6.68183693
_cell_length_b   6.68183694
_cell_length_c   7.74611059
_cell_angle_alpha   90.00000000
_cell_angle_beta   90.00000000
_cell_angle_gamma   111.04629696
_symmetry_Int_Tables_number   1
_chemical_formula_structural   Nd3NbO7
_chemical_formula_sum   'Nd6 Nb2 O14'
_cell_volume   322.76936403
_cell_formula_units_Z   2
loop_
 _symmetry_equiv_pos_site_id
 _symmetry_equiv_pos_as_xyz
  1  'x, y, z'
loop_
 _atom_site_type_symbol
 _atom_site_label
 _atom_site_symmetry_multiplicity
 _atom_site_fract_x
 _atom_site_fract_y
 _atom_site_fract_z
 _atom_site_occupancy
  O  O0  1  0.57126159  0.57126159  0.75000000  1
  O  O1  1  0.42873841  0.42873841  0.25000000  1
  O  O2  1  0.10879723  0.84620061  0.75000000  1
  O  O3  1  0.89120277  0.15379939  0.25000000  1
  O  O4  1  0.84620061  0.10879723  0.75000000  1
  O  O5  1  0.15379939  0.89120277  0.25000000  1
  O  O6  1  0.18430553  0.43830724  0.96517949  1
  O  O7  1  0.81569447  0.56169276  0.46517949  1
  O  O8  1  0.43830724  0.18430553  0.96517949  1
  O  O9  1  0.56169276  0.81569447  0.46517949  1
  O  O10  1  0.18430553  0.43830724  0.53482051  1
  O  O11  1  0.81569447  0.56169276  0.03482051  1
  O  O12  1  0.56169276  0.81569447  0.03482051  1
  O  O13  1  0.43830724  0.18430553  0.53482051  1
  Nb  Nb14  1  0.50000000  0.50000000  0.00000000  1
  Nb  Nb15  1  0.50000000  0.50000000  0.50000000  1
  Nd  Nd16  1  0.47894652  0.93118594  0.75000000  1
  Nd  Nd17  1  0.52105348  0.06881406  0.25000000  1
  Nd  Nd18  1  0.00000000  0.00000000  0.50000000  1
  Nd  Nd19  1  0.00000000  0.00000000  0.00000000  1
  Nd  Nd20  1  0.06881406  0.52105348  0.25000000  1
  Nd  Nd21  1  0.93118594  0.47894652  0.75000000  1
