# generated using pymatgen
data_Sr(CeSe2)2
_symmetry_space_group_name_H-M   'P 1'
_cell_length_a   7.85390083
_cell_length_b   7.85390107
_cell_length_c   7.85390095
_cell_angle_alpha   109.45282219
_cell_angle_beta   109.50802986
_cell_angle_gamma   109.45282230
_symmetry_Int_Tables_number   1
_chemical_formula_structural   Sr(CeSe2)2
_chemical_formula_sum   'Sr2 Ce4 Se8'
_cell_volume   372.93590770
_cell_formula_units_Z   2
loop_
 _symmetry_equiv_pos_site_id
 _symmetry_equiv_pos_as_xyz
  1  'x, y, z'
loop_
 _atom_site_type_symbol
 _atom_site_label
 _atom_site_symmetry_multiplicity
 _atom_site_fract_x
 _atom_site_fract_y
 _atom_site_fract_z
 _atom_site_occupancy
  Ce  Ce0  1  0.25000000  0.62676906  0.37676906  1
  Ce  Ce1  1  0.75000000  0.87323094  0.12323094  1
  Ce  Ce2  1  0.62323094  0.37323094  0.25000000  1
  Ce  Ce3  1  0.87676906  0.12676906  0.75000000  1
  Se  Se4  1  0.99034434  0.84546385  0.49129441  1
  Se  Se5  1  0.99129441  0.34546385  0.49034434  1
  Se  Se6  1  0.14488049  0.15453615  0.14583056  1
  Se  Se7  1  0.35511951  0.50095007  0.00965566  1
  Se  Se8  1  0.64583056  0.65453615  0.64488049  1
  Se  Se9  1  0.50965566  0.00095007  0.85511951  1
  Se  Se10  1  0.50870559  0.99904993  0.35416944  1
  Se  Se11  1  0.85416944  0.49904993  0.00870559  1
  Sr  Sr12  1  0.12500000  0.75000000  0.87500000  1
  Sr  Sr13  1  0.37500000  0.25000000  0.62500000  1
