# generated using pymatgen
data_NdTiCdSbO7
_symmetry_space_group_name_H-M   'P 1'
_cell_length_a   7.36408736
_cell_length_b   14.76540430
_cell_length_c   12.79776748
_cell_angle_alpha   29.91711273
_cell_angle_beta   54.87467820
_cell_angle_gamma   60.08631777
_symmetry_Int_Tables_number   1
_chemical_formula_structural   NdTiCdSbO7
_chemical_formula_sum   'Nd4 Ti4 Cd4 Sb4 O28'
_cell_volume   567.64432070
_cell_formula_units_Z   4
loop_
 _symmetry_equiv_pos_site_id
 _symmetry_equiv_pos_as_xyz
  1  'x, y, z'
loop_
 _atom_site_type_symbol
 _atom_site_label
 _atom_site_symmetry_multiplicity
 _atom_site_fract_x
 _atom_site_fract_y
 _atom_site_fract_z
 _atom_site_occupancy
  Cd  Cd0  1  0.50001014  0.98577734  0.01421840  1
  Cd  Cd1  1  1.00001142  0.51423915  0.98575002  1
  Cd  Cd2  1  0.98570478  0.75001092  -0.00000523  1
  Cd  Cd3  1  0.01428660  0.74999565  0.49999737  1
  Nd  Nd4  1  0.99997978  0.98616518  0.01381997  1
  Nd  Nd5  1  0.01371314  0.24995264  0.00006642  1
  Nd  Nd6  1  0.50001170  0.51382378  0.98619155  1
  Nd  Nd7  1  0.98628752  0.25007310  0.49992205  1
  O  O8  1  0.13570422  0.98929071  0.13569513  1
  O  O9  1  0.18582374  0.19564281  0.17375677  1
  O  O10  1  0.11432852  0.51072916  0.11426020  1
  O  O11  1  0.57759236  0.20260573  0.17240603  1
  O  O12  1  0.17373483  0.69475960  0.18585058  1
  O  O13  1  0.17240465  0.29740330  0.57758966  1
  O  O14  1  0.42239035  0.20261476  0.42238150  1
  O  O15  1  0.17787996  0.48596720  0.58574953  1
  O  O16  1  0.55765481  0.49959129  0.17871473  1
  O  O17  1  0.82130314  0.01402633  0.41425680  1
  O  O18  1  0.57348201  0.69851980  0.17650580  1
  O  O19  1  0.57535444  0.30434560  0.56506621  1
  O  O20  1  0.81418738  0.19564871  0.43495267  1
  O  O21  1  0.17650265  0.80147814  0.57351492  1
  O  O22  1  0.42464136  0.30434905  0.82625867  1
  O  O23  1  0.42653414  0.69851992  0.42646221  1
  O  O24  1  0.17868574  0.01402205  0.55769393  1
  O  O25  1  0.86433014  0.98932773  0.88565810  1
  O  O26  1  0.44236305  0.49960388  0.82208161  1
  O  O27  1  0.58576380  0.00040880  0.17786552  1
  O  O28  1  0.82211956  0.48596590  0.44231324  1
  O  O29  1  0.56505815  0.80524016  0.57536200  1
  O  O30  1  0.82625830  0.69475922  0.42461929  1
  O  O31  1  0.82761741  0.29738180  0.82762601  1
  O  O32  1  0.43493281  0.80523352  0.81417027  1
  O  O33  1  0.88567216  0.51069179  0.86430466  1
  O  O34  1  0.41423713  0.00039681  0.82132305  1
  O  O35  1  0.82347712  0.80148599  0.82351284  1
  Sb  Sb36  1  0.49406914  0.74998429  0.00003475  1
  Sb  Sb37  1  0.99999537  0.00588049  0.49410667  1
  Sb  Sb38  1  0.49998617  0.49410158  0.50591859  1
  Sb  Sb39  1  0.50593312  0.75001834  0.49996192  1
  Ti  Ti40  1  0.51163528  0.25001658  -0.00000645  1
  Ti  Ti41  1  0.49995699  0.01161788  0.48839840  1
  Ti  Ti42  1  0.48837998  0.24998307  0.50002015  1
  Ti  Ti43  1  0.00000491  0.48835025  0.51165347  1
