# generated using pymatgen
data_AlPO4
_symmetry_space_group_name_H-M   'P 1'
_cell_length_a   9.79762277
_cell_length_b   9.79762300
_cell_length_c   9.79762326
_cell_angle_alpha   60.00000144
_cell_angle_beta   60.00000170
_cell_angle_gamma   60.00000080
_symmetry_Int_Tables_number   1
_chemical_formula_structural   AlPO4
_chemical_formula_sum   'Al5 P5 O20'
_cell_volume   665.03911489
_cell_formula_units_Z   5
loop_
 _symmetry_equiv_pos_site_id
 _symmetry_equiv_pos_as_xyz
  1  'x, y, z'
loop_
 _atom_site_type_symbol
 _atom_site_label
 _atom_site_symmetry_multiplicity
 _atom_site_fract_x
 _atom_site_fract_y
 _atom_site_fract_z
 _atom_site_occupancy
  Al  Al0  1  0.25000000  0.25000000  0.25000000  1
  Al  Al1  1  0.34182103  0.88605966  0.88605966  1
  Al  Al2  1  0.88605966  0.34182103  0.88605966  1
  Al  Al3  1  0.88605966  0.88605966  0.34182103  1
  Al  Al4  1  0.88605966  0.88605966  0.88605966  1
  O  O5  1  0.00815251  0.00815251  0.26604344  1
  O  O6  1  0.26604344  0.00815251  0.00815251  1
  O  O7  1  0.00815251  0.71765154  0.00815251  1
  O  O8  1  0.17792079  0.17792079  0.17792079  1
  O  O9  1  0.17792079  0.17792079  0.46623762  1
  O  O10  1  0.17792079  0.46623762  0.17792079  1
  O  O11  1  0.00815251  0.71765154  0.26604344  1
  O  O12  1  0.46623762  0.17792079  0.17792079  1
  O  O13  1  0.26604344  0.71765154  0.00815251  1
  O  O14  1  0.71765154  0.00815251  0.00815251  1
  O  O15  1  0.71765154  0.00815251  0.26604344  1
  O  O16  1  0.71765154  0.26604344  0.00815251  1
  O  O17  1  0.00815251  0.26604344  0.00815251  1
  O  O18  1  0.26604344  0.00815251  0.71765154  1
  O  O19  1  0.55864678  0.81378441  0.81378441  1
  O  O20  1  0.00815251  0.26604344  0.71765154  1
  O  O21  1  0.81378441  0.55864678  0.81378441  1
  O  O22  1  0.81378441  0.81378441  0.55864678  1
  O  O23  1  0.81378441  0.81378441  0.81378441  1
  O  O24  1  0.00815251  0.00815251  0.71765154  1
  P  P25  1  0.11474585  0.11474585  0.11474585  1
  P  P26  1  0.11474585  0.65576246  0.11474585  1
  P  P27  1  0.11474585  0.11474585  0.65576246  1
  P  P28  1  0.65576246  0.11474585  0.11474585  1
  P  P29  1  0.75000000  0.75000000  0.75000000  1
