# generated using pymatgen
data_Ca(BO2)2
_symmetry_space_group_name_H-M   'P 1'
_cell_length_a   4.33156979
_cell_length_b   6.35395720
_cell_length_c   11.64533323
_cell_angle_alpha   90.00000000
_cell_angle_beta   90.00000000
_cell_angle_gamma   90.00000000
_symmetry_Int_Tables_number   1
_chemical_formula_structural   Ca(BO2)2
_chemical_formula_sum   'Ca4 B8 O16'
_cell_volume   320.50995380
_cell_formula_units_Z   4
loop_
 _symmetry_equiv_pos_site_id
 _symmetry_equiv_pos_as_xyz
  1  'x, y, z'
loop_
 _atom_site_type_symbol
 _atom_site_label
 _atom_site_symmetry_multiplicity
 _atom_site_fract_x
 _atom_site_fract_y
 _atom_site_fract_z
 _atom_site_occupancy
  B  B0  1  0.32638129  0.12459483  0.30767364  1
  B  B1  1  0.32638129  0.37540517  0.69232636  1
  B  B2  1  0.17361871  0.62459483  0.19232636  1
  B  B3  1  0.17361871  0.87540517  0.80767364  1
  B  B4  1  0.82638129  0.12459483  0.19232636  1
  B  B5  1  0.82638129  0.37540517  0.80767364  1
  B  B6  1  0.67361871  0.62459483  0.30767364  1
  B  B7  1  0.67361871  0.87540517  0.69232636  1
  O  O8  1  0.85179029  0.85113994  0.79179941  1
  O  O9  1  0.85179029  0.64886006  0.20820059  1
  O  O10  1  0.64820971  0.35113994  0.70820059  1
  O  O11  1  0.64820971  0.14886006  0.29179941  1
  O  O12  1  0.72691636  0.08717304  0.08599048  1
  O  O13  1  0.72691636  0.41282696  0.91400952  1
  O  O14  1  0.77308364  0.58717304  0.41400952  1
  O  O15  1  0.77308364  0.91282696  0.58599048  1
  O  O16  1  0.27308364  0.91282696  0.91400952  1
  O  O17  1  0.27308364  0.58717304  0.08599048  1
  O  O18  1  0.22691636  0.41282696  0.58599048  1
  O  O19  1  0.22691636  0.08717304  0.41400952  1
  O  O20  1  0.14820971  0.14886006  0.20820059  1
  O  O21  1  0.14820971  0.35113994  0.79179941  1
  O  O22  1  0.35179029  0.64886006  0.29179941  1
  O  O23  1  0.35179029  0.85113994  0.70820059  1
  Ca  Ca24  1  0.78047954  0.25000000  0.50000000  1
  Ca  Ca25  1  0.71952046  0.75000000  0.00000000  1
  Ca  Ca26  1  0.21952046  0.75000000  0.50000000  1
  Ca  Ca27  1  0.28047954  0.25000000  0.00000000  1
