# generated using pymatgen
data_Sr2Y2Mn2O7
_symmetry_space_group_name_H-M   'P 1'
_cell_length_a   12.62272734
_cell_length_b   12.62272734
_cell_length_c   12.62272734
_cell_angle_alpha   38.27953565
_cell_angle_beta   152.86241788
_cell_angle_gamma   153.51920600
_symmetry_Int_Tables_number   1
_chemical_formula_structural   Sr2Y2Mn2O7
_chemical_formula_sum   'Sr4 Y4 Mn4 O14'
_cell_volume   408.39551792
_cell_formula_units_Z   2
loop_
 _symmetry_equiv_pos_site_id
 _symmetry_equiv_pos_as_xyz
  1  'x, y, z'
loop_
 _atom_site_type_symbol
 _atom_site_label
 _atom_site_symmetry_multiplicity
 _atom_site_fract_x
 _atom_site_fract_y
 _atom_site_fract_z
 _atom_site_occupancy
  Sr  Sr0  1  0.04062462  0.86026049  0.89195341  1
  Sr  Sr1  1  0.96830808  0.14867221  0.10804659  1
  Sr  Sr2  1  0.04062462  0.64867221  0.68036413  1
  Sr  Sr3  1  0.96830808  0.36026049  0.31963587  1
  Y  Y4  1  0.02500385  0.52500385  0.50000000  1
  Y  Y5  1  0.02500385  0.02500385  0.00000000  1
  Y  Y6  1  0.53116765  0.72263466  0.30853300  1
  Y  Y7  1  0.41410166  0.22263466  0.69146700  1
  Mn  Mn8  1  0.52131436  0.44941735  0.91682540  1
  Mn  Mn9  1  0.53259094  0.60448896  0.08317460  1
  Mn  Mn10  1  0.52131436  0.10448896  0.57189801  1
  Mn  Mn11  1  0.53259094  0.94941735  0.42810199  1
  O  O12  1  0.00092356  0.84455023  0.65637333  1
  O  O13  1  0.18817691  0.34455023  0.34362667  1
  O  O14  1  0.43708948  0.17484388  0.14002651  1
  O  O15  1  0.03481837  0.29706497  0.85997349  1
  O  O16  1  0.43708948  0.79706497  0.76224660  1
  O  O17  1  0.03481837  0.67484388  0.23775340  1
  O  O18  1  0.64000257  0.76785154  0.73996184  1
  O  O19  1  0.02788970  0.90004073  0.26003816  1
  O  O20  1  0.64000257  0.40004073  0.37215203  1
  O  O21  1  0.02788970  0.26785154  0.62784797  1
  O  O22  1  0.50563146  0.89499050  0.27545081  1
  O  O23  1  0.61953969  0.23018065  0.72454919  1
  O  O24  1  0.50563146  0.73018065  0.11064096  1
  O  O25  1  0.61953969  0.39499050  0.88935904  1
