# generated using pymatgen
data_CaHoMn2O6
_symmetry_space_group_name_H-M   'P 1'
_cell_length_a   5.32133365
_cell_length_b   5.52242340
_cell_length_c   7.60353979
_cell_angle_alpha   89.99983929
_cell_angle_beta   89.99994579
_cell_angle_gamma   90.00081532
_symmetry_Int_Tables_number   1
_chemical_formula_structural   CaHoMn2O6
_chemical_formula_sum   'Ca2 Ho2 Mn4 O12'
_cell_volume   223.44261934
_cell_formula_units_Z   2
loop_
 _symmetry_equiv_pos_site_id
 _symmetry_equiv_pos_as_xyz
  1  'x, y, z'
loop_
 _atom_site_type_symbol
 _atom_site_label
 _atom_site_symmetry_multiplicity
 _atom_site_fract_x
 _atom_site_fract_y
 _atom_site_fract_z
 _atom_site_occupancy
  Ca  Ca0  1  0.48803732  0.44737820  0.75000047  1
  Ca  Ca1  1  0.98802336  0.05263599  0.25002073  1
  Ho  Ho2  1  0.01791323  0.93514645  0.74997571  1
  Ho  Ho3  1  0.51792102  0.56486362  0.25002827  1
  Mn  Mn4  1  0.00050894  0.49606571  0.00005912  1
  Mn  Mn5  1  0.00051822  0.49606590  0.49993710  1
  Mn  Mn6  1  0.50051496  0.00393019  0.50005962  1
  Mn  Mn7  1  0.50050466  0.00392758  0.99993565  1
  O  O8  1  0.10347793  0.47544168  0.25002124  1
  O  O9  1  0.19642114  0.19732227  0.94880774  1
  O  O10  1  0.19644368  0.19734969  0.55117432  1
  O  O11  1  0.29028637  0.71146894  0.95262945  1
  O  O12  1  0.29027749  0.71149876  0.54737528  1
  O  O13  1  0.41614889  0.96870041  0.25001801  1
  O  O14  1  0.60348244  0.02455978  0.74997629  1
  O  O15  1  0.69641586  0.30262565  0.44882680  1
  O  O16  1  0.69639758  0.30264632  0.05118746  1
  O  O17  1  0.79026296  0.78855968  0.04736179  1
  O  O18  1  0.79025616  0.78852469  0.45262864  1
  O  O19  1  0.91618579  0.53128847  0.74997631  1
