# generated using pymatgen
data_LiSb(PO3)4
_symmetry_space_group_name_H-M   'P 1'
_cell_length_a   7.54231013
_cell_length_b   7.54318535
_cell_length_c   10.12421912
_cell_angle_alpha   80.93366460
_cell_angle_beta   70.05902095
_cell_angle_gamma   109.30953779
_symmetry_Int_Tables_number   1
_chemical_formula_structural   LiSb(PO3)4
_chemical_formula_sum   'Li2 Sb2 P8 O24'
_cell_volume   486.69825637
_cell_formula_units_Z   2
loop_
 _symmetry_equiv_pos_site_id
 _symmetry_equiv_pos_as_xyz
  1  'x, y, z'
loop_
 _atom_site_type_symbol
 _atom_site_label
 _atom_site_symmetry_multiplicity
 _atom_site_fract_x
 _atom_site_fract_y
 _atom_site_fract_z
 _atom_site_occupancy
  Li  Li0  1  0.00000000  0.50000000  0.00000000  1
  Li  Li1  1  0.00000000  0.00000000  0.50000000  1
  O  O2  1  0.02389180  0.63971288  0.16256913  1
  O  O3  1  0.12803237  0.80550053  0.57132987  1
  O  O4  1  0.19189980  0.69681882  0.33802145  1
  O  O5  1  0.48677588  0.82452525  0.41008741  1
  O  O6  1  0.31015803  0.72052014  0.82667377  1
  O  O7  1  0.20025403  0.49753205  0.55617134  1
  O  O8  1  0.12331798  0.30087566  0.07135873  1
  O  O9  1  0.73476846  0.89680599  0.08982773  1
  O  O10  1  0.55366857  0.75643397  0.94380357  1
  O  O11  1  0.69778294  0.81353649  0.66257537  1
  O  O12  1  0.53469034  0.52994549  0.16200389  1
  O  O13  1  0.04741970  0.13693045  0.67324070  1
  O  O14  1  0.95258030  0.86306955  0.32675930  1
  O  O15  1  0.46530966  0.47005451  0.83799611  1
  O  O16  1  0.30221706  0.18646351  0.33742463  1
  O  O17  1  0.44633143  0.24356603  0.05619643  1
  O  O18  1  0.26523154  0.10319401  0.91017227  1
  O  O19  1  0.87668202  0.69912434  0.92864127  1
  O  O20  1  0.79974597  0.50246795  0.44382866  1
  O  O21  1  0.68984197  0.27947986  0.17332623  1
  O  O22  1  0.51322412  0.17547475  0.58991259  1
  O  O23  1  0.80810020  0.30318118  0.66197855  1
  O  O24  1  0.87196763  0.19449947  0.42867013  1
  O  O25  1  0.97610820  0.36028712  0.83743087  1
  P  P26  1  0.25387198  0.71943734  0.47293778  1
  P  P27  1  0.00751159  0.31767974  0.69611607  1
  P  P28  1  0.51384712  0.70359042  0.80382383  1
  P  P29  1  0.69233780  0.72674258  0.02703296  1
  P  P30  1  0.30766220  0.27325742  0.97296704  1
  P  P31  1  0.48615288  0.29640958  0.19617617  1
  P  P32  1  0.99248841  0.68232026  0.30388393  1
  P  P33  1  0.74612802  0.28056266  0.52706222  1
  Sb  Sb34  1  0.20670898  0.95669272  0.75004378  1
  Sb  Sb35  1  0.79329102  0.04330728  0.24995622  1
