# generated using pymatgen
data_Ca2AlH10ClO8
_symmetry_space_group_name_H-M   'P 1'
_cell_length_a   16.26456867
_cell_length_b   16.26456848
_cell_length_c   16.16035170
_cell_angle_alpha   20.68085817
_cell_angle_beta   20.68085805
_cell_angle_gamma   20.14351733
_symmetry_Int_Tables_number   1
_chemical_formula_structural   Ca2AlH10ClO8
_chemical_formula_sum   'Ca4 Al2 H20 Cl2 O16'
_cell_volume   458.77202988
_cell_formula_units_Z   2
loop_
 _symmetry_equiv_pos_site_id
 _symmetry_equiv_pos_as_xyz
  1  'x, y, z'
loop_
 _atom_site_type_symbol
 _atom_site_label
 _atom_site_symmetry_multiplicity
 _atom_site_fract_x
 _atom_site_fract_y
 _atom_site_fract_z
 _atom_site_occupancy
  Al  Al0  1  0.00000000  0.00000000  0.00000000  1
  Al  Al1  1  0.50000000  0.50000000  0.50000000  1
  Ca  Ca2  1  0.15750274  0.15404398  0.15019309  1
  Ca  Ca3  1  0.34595602  0.34249726  0.34980691  1
  Ca  Ca4  1  0.65404398  0.65750274  0.65019309  1
  Ca  Ca5  1  0.84249726  0.84595602  0.84980691  1
  Cl  Cl6  1  0.25159786  0.24840214  0.25000000  1
  Cl  Cl7  1  0.74840214  0.75159786  0.75000000  1
  H  H8  1  0.09736773  0.16707361  0.61524150  1
  H  H9  1  0.18277484  0.61444421  0.08378080  1
  H  H10  1  0.61212383  0.11119644  0.15898969  1
  H  H11  1  0.21645434  0.50074696  0.50535071  1
  H  H12  1  0.49355387  0.22129770  0.50859144  1
  H  H13  1  0.27870230  0.00644613  0.99140856  1
  H  H14  1  0.99925304  0.28354566  -0.00535071  1
  H  H15  1  0.11444421  0.68277484  0.58378080  1
  H  H16  1  0.61119644  0.11212383  0.65898969  1
  H  H17  1  0.66707361  0.59736773  0.11524150  1
  H  H18  1  0.33292639  0.40263227  0.88475850  1
  H  H19  1  0.38880356  0.88787617  0.34101031  1
  H  H20  1  0.88555579  0.31722516  0.41621920  1
  H  H21  1  0.00074696  0.71645434  1.00535071  1
  H  H22  1  0.72129770  0.99355387  0.00859144  1
  H  H23  1  0.50644613  0.77870230  0.49140856  1
  H  H24  1  0.78354566  0.49925304  0.49464929  1
  H  H25  1  0.38787617  0.88880356  0.84101031  1
  H  H26  1  0.81722516  0.38555579  0.91621920  1
  H  H27  1  0.90263227  0.83292639  0.38475850  1
  O  O28  1  0.10938672  0.11277737  0.08176462  1
  O  O29  1  0.03708223  0.22959217  0.66936214  1
  O  O30  1  0.23792879  0.66817944  0.03115277  1
  O  O31  1  0.67341809  0.03723615  0.22609319  1
  O  O32  1  0.38722263  0.39061328  0.41823538  1
  O  O33  1  0.16817944  0.73792879  0.53115277  1
  O  O34  1  0.53723615  0.17341809  0.72609319  1
  O  O35  1  0.72959217  0.53708223  0.16936214  1
  O  O36  1  0.27040783  0.46291777  0.83063786  1
  O  O37  1  0.46276385  0.82658191  0.27390681  1
  O  O38  1  0.83182056  0.26207121  0.46884723  1
  O  O39  1  0.61277737  0.60938672  0.58176462  1
  O  O40  1  0.32658191  0.96276385  0.77390681  1
  O  O41  1  0.76207121  0.33182056  0.96884723  1
  O  O42  1  0.96291777  0.77040783  0.33063786  1
  O  O43  1  0.89061328  0.88722263  0.91823538  1
