# generated using pymatgen
data_Cr2Ag2O7
_symmetry_space_group_name_H-M   'P 1'
_cell_length_a   7.39610061
_cell_length_b   6.86508462
_cell_length_c   7.33593591
_cell_angle_alpha   95.87308151
_cell_angle_beta   117.51399434
_cell_angle_gamma   90.23165278
_symmetry_Int_Tables_number   1
_chemical_formula_structural   Cr2Ag2O7
_chemical_formula_sum   'Cr4 Ag4 O14'
_cell_volume   328.06240923
_cell_formula_units_Z   2
loop_
 _symmetry_equiv_pos_site_id
 _symmetry_equiv_pos_as_xyz
  1  'x, y, z'
loop_
 _atom_site_type_symbol
 _atom_site_label
 _atom_site_symmetry_multiplicity
 _atom_site_fract_x
 _atom_site_fract_y
 _atom_site_fract_z
 _atom_site_occupancy
  O  O0  1  0.58503303  0.14033695  0.68173718  1
  O  O1  1  0.41496697  0.85966305  0.31826282  1
  O  O2  1  0.88074266  0.92444985  0.64848305  1
  O  O3  1  0.11925734  0.07555015  0.35151695  1
  O  O4  1  0.79598296  0.27839557  0.49724037  1
  O  O5  1  0.20401704  0.72160443  0.50275963  1
  O  O6  1  0.64304209  0.86043355  0.02781673  1
  O  O7  1  0.35695791  0.13956645  0.97218327  1
  O  O8  1  0.01349803  0.73612891  0.07451719  1
  O  O9  1  0.98650197  0.26387109  0.92548281  1
  O  O10  1  0.35246799  0.42956281  0.24645174  1
  O  O11  1  0.64753201  0.57043719  0.75354826  1
  O  O12  1  0.25466052  0.49515609  0.84800650  1
  O  O13  1  0.74533948  0.50484391  0.15199350  1
  Cr  Cr14  1  0.80298763  0.14697387  0.67690131  1
  Cr  Cr15  1  0.19701237  0.85302613  0.32309869  1
  Cr  Cr16  1  0.75599416  0.66207591  0.99840043  1
  Cr  Cr17  1  0.24400584  0.33792409  0.00159957  1
  Ag  Ag18  1  0.31166380  0.37574306  0.54691146  1
  Ag  Ag19  1  0.68833620  0.62425694  0.45308854  1
  Ag  Ag20  1  0.24529999  0.82878396  0.83991158  1
  Ag  Ag21  1  0.75470001  0.17121604  0.16008842  1
