# generated using pymatgen
data_Cu2PHO5
_symmetry_space_group_name_H-M   'P 1'
_cell_length_a   5.96663354
_cell_length_b   8.13574130
_cell_length_c   8.52248769
_cell_angle_alpha   90.00000000
_cell_angle_beta   90.00000000
_cell_angle_gamma   90.00000000
_symmetry_Int_Tables_number   1
_chemical_formula_structural   Cu2PHO5
_chemical_formula_sum   'Cu8 P4 H4 O20'
_cell_volume   413.70700840
_cell_formula_units_Z   4
loop_
 _symmetry_equiv_pos_site_id
 _symmetry_equiv_pos_as_xyz
  1  'x, y, z'
loop_
 _atom_site_type_symbol
 _atom_site_label
 _atom_site_symmetry_multiplicity
 _atom_site_fract_x
 _atom_site_fract_y
 _atom_site_fract_z
 _atom_site_occupancy
  Cu  Cu0  1  0.24880419  0.00000000  0.50000000  1
  Cu  Cu1  1  0.25119581  0.50000000  0.00000000  1
  Cu  Cu2  1  0.75119581  0.00000000  0.50000000  1
  Cu  Cu3  1  0.74880419  0.50000000  0.00000000  1
  Cu  Cu4  1  0.50000000  0.63851330  0.37139882  1
  Cu  Cu5  1  0.50000000  0.36148670  0.62860118  1
  Cu  Cu6  1  0.00000000  0.13851330  0.12860118  1
  Cu  Cu7  1  0.00000000  0.86148670  0.87139882  1
  P  P8  1  0.00000000  0.76762500  0.25354502  1
  P  P9  1  0.00000000  0.23237500  0.74645498  1
  P  P10  1  0.50000000  0.26762500  0.24645498  1
  P  P11  1  0.50000000  0.73237500  0.75354502  1
  O  O12  1  0.00000000  0.86345634  0.41442070  1
  O  O13  1  0.00000000  0.13654366  0.58557930  1
  O  O14  1  0.50000000  0.36345634  0.08557930  1
  O  O15  1  0.50000000  0.63654366  0.91442070  1
  O  O16  1  0.00000000  0.89828926  0.11860514  1
  O  O17  1  0.00000000  0.10171074  0.88139486  1
  O  O18  1  0.50000000  0.39828926  0.38139486  1
  O  O19  1  0.50000000  0.60171074  0.61860514  1
  O  O20  1  0.21042174  0.65792330  0.24135354  1
  O  O21  1  0.21042174  0.34207670  0.75864646  1
  O  O22  1  0.28957826  0.15792330  0.25864646  1
  O  O23  1  0.28957826  0.84207670  0.74135354  1
  O  O24  1  0.78957826  0.34207670  0.75864646  1
  O  O25  1  0.78957826  0.65792330  0.24135354  1
  O  O26  1  0.71042174  0.84207670  0.74135354  1
  O  O27  1  0.71042174  0.15792330  0.25864646  1
  O  O28  1  0.50000000  0.87552807  0.39784569  1
  O  O29  1  0.50000000  0.12447193  0.60215431  1
  O  O30  1  0.00000000  0.37552807  0.10215431  1
  O  O31  1  0.00000000  0.62447193  0.89784569  1
  H  H32  1  0.50000000  0.92354309  0.29167010  1
  H  H33  1  0.50000000  0.07645691  0.70832990  1
  H  H34  1  0.00000000  0.42354309  0.20832990  1
  H  H35  1  0.00000000  0.57645691  0.79167010  1
