# generated using pymatgen
data_Y4Cu7O16
_symmetry_space_group_name_H-M   'P 1'
_cell_length_a   11.34096318
_cell_length_b   12.56313823
_cell_length_c   6.22581774
_cell_angle_alpha   53.02403601
_cell_angle_beta   63.93722707
_cell_angle_gamma   65.16710541
_symmetry_Int_Tables_number   1
_chemical_formula_structural   Y4Cu7O16
_chemical_formula_sum   'Y8 Cu14 O32'
_cell_volume   621.42276237
_cell_formula_units_Z   2
loop_
 _symmetry_equiv_pos_site_id
 _symmetry_equiv_pos_as_xyz
  1  'x, y, z'
loop_
 _atom_site_type_symbol
 _atom_site_label
 _atom_site_symmetry_multiplicity
 _atom_site_fract_x
 _atom_site_fract_y
 _atom_site_fract_z
 _atom_site_occupancy
  Cu  Cu0  1  0.00367304  0.99637724  0.50992935  1
  Cu  Cu1  1  0.12500000  0.75000000  0.50000000  1
  Cu  Cu2  1  0.24632696  0.50362276  0.49007065  1
  Cu  Cu3  1  0.37575717  0.24815562  0.49832227  1
  Cu  Cu4  1  0.49808042  0.00343747  0.50643149  1
  Cu  Cu5  1  0.12500000  0.75000000  0.00000000  1
  Cu  Cu6  1  0.36741677  0.25099007  0.99557306  1
  Cu  Cu7  1  0.38664233  0.75062704  0.00365291  1
  Cu  Cu8  1  0.62500000  0.25000000  0.00000000  1
  Cu  Cu9  1  0.62500000  0.75000000  0.50000000  1
  Cu  Cu10  1  0.75191958  0.49656253  0.49356851  1
  Cu  Cu11  1  0.87424283  0.25184438  0.50167773  1
  Cu  Cu12  1  0.88258323  0.24900993  0.00442694  1
  Cu  Cu13  1  0.86335767  0.74937296  0.99634709  1
  O  O14  1  0.14753064  0.06615992  0.38949484  1
  O  O15  1  0.02665889  0.73810132  0.34658669  1
  O  O16  1  0.10246936  0.43384008  0.61050516  1
  O  O17  1  0.27256752  0.23887451  0.34574745  1
  O  O18  1  0.23427728  0.57428668  0.13499548  1
  O  O19  1  0.01296565  0.64842433  0.85012444  1
  O  O20  1  0.47877680  0.07371779  0.14899850  1
  O  O21  1  0.27622070  0.13840492  0.83991002  1
  O  O22  1  0.23703435  0.85157567  0.14987556  1
  O  O23  1  0.01572272  0.92571332  0.86500452  1
  O  O24  1  0.48383579  0.35802131  0.14548471  1
  O  O25  1  0.26739569  0.43264219  0.84411753  1
  O  O26  1  0.22334111  0.76189868  0.65341331  1
  O  O27  1  0.39066300  0.58561129  0.35361338  1
  O  O28  1  0.47477074  0.26446645  0.64689480  1
  O  O29  1  0.63979959  0.08778433  0.35089087  1
  O  O30  1  0.36453424  0.91140655  0.65902751  1
  O  O31  1  0.50348250  0.74536531  0.38664707  1
  O  O32  1  0.61020041  0.41221567  0.64910913  1
  O  O33  1  0.77522926  0.23553355  0.35310520  1
  O  O34  1  0.73455831  0.56263091  0.15220269  1
  O  O35  1  0.52422901  0.64283432  0.85977970  1
  O  O36  1  0.98260431  0.06735781  0.15588247  1
  O  O37  1  0.76616421  0.14197869  0.85451529  1
  O  O38  1  0.72577099  0.85716568  0.14022030  1
  O  O39  1  0.51544169  0.93736909  0.84779731  1
  O  O40  1  0.97377930  0.36159508  0.16008998  1
  O  O41  1  0.77122320  0.42628221  0.85100150  1
  O  O42  1  0.74651750  0.75463469  0.61335293  1
  O  O43  1  0.88546576  0.58859345  0.34097249  1
  O  O44  1  0.97743248  0.26112549  0.65425255  1
  O  O45  1  0.85933700  0.91438871  0.64638662  1
  Y  Y46  1  0.09139808  0.43540420  0.24603689  1
  Y  Y47  1  0.15860192  0.06459580  0.75396311  1
  Y  Y48  1  0.34496672  0.94306790  0.23812634  1
  Y  Y49  1  0.59866962  0.44308934  0.24555388  1
  Y  Y50  1  0.40934201  0.56799010  0.74271287  1
  Y  Y51  1  0.65133038  0.05691066  0.75444612  1
  Y  Y52  1  0.84065799  0.93200990  0.25728713  1
  Y  Y53  1  0.90503328  0.55693210  0.76187366  1
