# generated using pymatgen
data_MgAl2O4
_symmetry_space_group_name_H-M   'P 1'
_cell_length_a   5.77074367
_cell_length_b   5.77074370
_cell_length_c   34.67616848
_cell_angle_alpha   60.04932114
_cell_angle_beta   60.04932098
_cell_angle_gamma   60.00000018
_symmetry_Int_Tables_number   1
_chemical_formula_structural   MgAl2O4
_chemical_formula_sum   'Mg12 Al24 O48'
_cell_volume   817.15235331
_cell_formula_units_Z   12
loop_
 _symmetry_equiv_pos_site_id
 _symmetry_equiv_pos_as_xyz
  1  'x, y, z'
loop_
 _atom_site_type_symbol
 _atom_site_label
 _atom_site_symmetry_multiplicity
 _atom_site_fract_x
 _atom_site_fract_y
 _atom_site_fract_z
 _atom_site_occupancy
  Al  Al0  1  0.49583442  0.01043819  0.08298183  1
  Al  Al1  1  0.49583442  0.49583442  0.08298183  1
  Al  Al2  1  0.49658681  0.00423008  0.25043272  1
  Al  Al3  1  0.01043819  0.49583442  0.08298183  1
  Al  Al4  1  0.49658681  0.49658681  0.25043272  1
  Al  Al5  1  0.88087642  0.88087642  0.14289479  1
  Al  Al6  1  0.49965581  0.49965581  0.33350509  1
  Al  Al7  1  0.50038052  0.00021894  0.41650367  1
  Al  Al8  1  0.00423008  0.49658681  0.25043272  1
  Al  Al9  1  0.50038052  0.50038052  0.41650367  1
  Al  Al10  1  0.50029577  0.50029577  0.49985211  1
  Al  Al11  1  0.50019781  0.00064417  0.58315970  1
  Al  Al12  1  0.00021894  0.50038052  0.41650367  1
  Al  Al13  1  0.50019781  0.50019781  0.58315970  1
  Al  Al14  1  0.00129721  0.50019592  0.74971849  1
  Al  Al15  1  0.50086171  0.50086171  0.66623614  1
  Al  Al16  1  0.50019592  0.00129721  0.74971849  1
  Al  Al17  1  0.00064417  0.50019781  0.58315970  1
  Al  Al18  1  0.50019592  0.50019592  0.74971849  1
  Al  Al19  1  0.00619736  0.49817099  0.91624378  1
  Al  Al20  1  0.50195260  0.50195260  0.83235670  1
  Al  Al21  1  0.49817099  0.00619736  0.91624378  1
  Al  Al22  1  0.49817099  0.49817099  0.91624378  1
  Al  Al23  1  0.87643920  0.87643920  0.97844740  1
  Mg  Mg24  1  0.12088048  0.12088048  0.02289276  1
  Mg  Mg25  1  0.49829719  0.49829719  0.00085141  1
  Mg  Mg26  1  0.12094572  0.12094572  0.18952714  1
  Mg  Mg27  1  0.49756031  0.49756031  0.16788685  1
  Mg  Mg28  1  0.12339609  0.12339609  0.35496895  1
  Mg  Mg29  1  0.12562220  0.12562220  0.52052190  1
  Mg  Mg30  1  0.87795431  0.87795431  0.31102285  1
  Mg  Mg31  1  0.12582281  0.12582281  0.68708859  1
  Mg  Mg32  1  0.87508485  0.87508485  0.47912457  1
  Mg  Mg33  1  0.12517511  0.12517511  0.85407945  1
  Mg  Mg34  1  0.87544945  0.87544945  0.64560828  1
  Mg  Mg35  1  0.87391083  0.87391083  0.81304459  1
  O  O36  1  0.25376105  0.25376105  0.04669477  1
  O  O37  1  0.26007292  0.26007292  0.11996354  1
  O  O38  1  0.25376105  0.71231126  0.04669477  1
  O  O39  1  0.71231126  0.25376105  0.04669477  1
  O  O40  1  0.25048978  0.25048978  0.21461945  1
  O  O41  1  0.27191849  0.75143131  0.12086981  1
  O  O42  1  0.74522418  0.74522418  0.04405491  1
  O  O43  1  0.75143131  0.27191849  0.12086981  1
  O  O44  1  0.26026418  0.26026418  0.28653491  1
  O  O45  1  0.25048978  0.71130175  0.21461945  1
  O  O46  1  0.75143131  0.75143131  0.12086981  1
  O  O47  1  0.71130175  0.25048978  0.21461945  1
  O  O48  1  0.26378568  0.26378568  0.37726918  1
  O  O49  1  0.29758429  0.73494115  0.28875590  1
  O  O50  1  0.73494115  0.29758429  0.28875590  1
  O  O51  1  0.75041847  0.75041847  0.20812376  1
  O  O52  1  0.26374039  0.26374039  0.45146280  1
  O  O53  1  0.26378568  0.70881357  0.37726918  1
  O  O54  1  0.73494115  0.73494115  0.28875590  1
  O  O55  1  0.70881357  0.26378568  0.37726918  1
  O  O56  1  0.26321799  0.26321799  0.54404149  1
  O  O57  1  0.29112826  0.73644445  0.45599681  1
  O  O58  1  0.73644445  0.29112826  0.45599681  1
  O  O59  1  0.26321799  0.70931704  0.54404149  1
  O  O60  1  0.73780176  0.73780176  0.38109912  1
  O  O61  1  0.26360111  0.26360111  0.61819944  1
  O  O62  1  0.73644445  0.73644445  0.45599681  1
  O  O63  1  0.70931704  0.26321799  0.54404149  1
  O  O64  1  0.26297565  0.26297565  0.71084938  1
  O  O65  1  0.29047277  0.73584736  0.62297209  1
  O  O66  1  0.26321391  0.26321391  0.78506004  1
  O  O67  1  0.73584736  0.29047277  0.62297209  1
  O  O68  1  0.73614530  0.73614530  0.54859435  1
  O  O69  1  0.26297565  0.70895043  0.71084938  1
  O  O70  1  0.73584736  0.73584736  0.62297209  1
  O  O71  1  0.70895043  0.26297565  0.71084938  1
  O  O72  1  0.26569492  0.26569492  0.87669842  1
  O  O73  1  0.28963875  0.73631896  0.78962089  1
  O  O74  1  0.73631896  0.28963875  0.78962089  1
  O  O75  1  0.73590561  0.73590561  0.71538019  1
  O  O76  1  0.26277009  0.26277009  0.95194795  1
  O  O77  1  0.26569492  0.70841963  0.87669842  1
  O  O78  1  0.73631896  0.73631896  0.78962089  1
  O  O79  1  0.70841963  0.26569492  0.87669842  1
  O  O80  1  0.26353048  0.75500052  0.95441108  1
  O  O81  1  0.75500052  0.26353048  0.95441108  1
  O  O82  1  0.73169797  0.73169797  0.88415101  1
  O  O83  1  0.75500052  0.75500052  0.95441108  1
