# generated using pymatgen
data_SrAl22O34
_symmetry_space_group_name_H-M   'P 1'
_cell_length_a   11.85683176
_cell_length_b   47.45865592
_cell_length_c   23.04653107
_cell_angle_alpha   13.77804480
_cell_angle_beta   24.10396975
_cell_angle_gamma   27.55830976
_symmetry_Int_Tables_number   1
_chemical_formula_structural   SrAl22O34
_chemical_formula_sum   'Sr2 Al44 O68'
_cell_volume   1261.36247952
_cell_formula_units_Z   2
loop_
 _symmetry_equiv_pos_site_id
 _symmetry_equiv_pos_as_xyz
  1  'x, y, z'
loop_
 _atom_site_type_symbol
 _atom_site_label
 _atom_site_symmetry_multiplicity
 _atom_site_fract_x
 _atom_site_fract_y
 _atom_site_fract_z
 _atom_site_occupancy
  Al  Al0  1  0.00000000  0.00000000  0.00000000  1
  Al  Al1  1  0.09750563  0.12446832  0.09418537  1
  Al  Al2  1  0.59232509  0.00034147  0.09503697  1
  Al  Al3  1  0.99871077  0.25000000  -0.00016122  1
  Al  Al4  1  0.45059382  -0.00001080  0.44973976  1
  Al  Al5  1  0.09763170  0.12471128  0.59787368  1
  Al  Al6  1  0.09763170  0.37528872  0.09671879  1
  Al  Al7  1  0.59550744  0.25000000  0.09689432  1
  Al  Al8  1  0.00000000  0.50000000  0.00000000  1
  Al  Al9  1  0.65080493  0.99904029  0.65170701  1
  Al  Al10  1  0.35050531  0.25000000  0.35108277  1
  Al  Al11  1  0.90169044  0.12332317  0.40792398  1
  Al  Al12  1  0.45626287  0.25000000  0.44808082  1
  Al  Al13  1  0.55117247  0.25000000  0.54801994  1
  Al  Al14  1  0.09750563  0.37553168  0.59205866  1
  Al  Al15  1  0.09830956  0.62332317  0.09878336  1
  Al  Al16  1  0.59232509  0.49965853  0.09640283  1
  Al  Al17  1  0.00128923  0.75000000  1.00016122  1
  Al  Al18  1  0.64913041  0.25000000  0.65075935  1
  Al  Al19  1  0.34919507  0.49904029  0.35213184  1
  Al  Al20  1  0.40805594  0.25000000  0.90177842  1
  Al  Al21  1  0.90723212  0.12650168  0.90183098  1
  Al  Al22  1  0.90723212  0.37349832  0.40783772  1
  Al  Al23  1  0.45059382  0.50001080  0.44969656  1
  Al  Al24  1  0.54940618  0.49998920  0.55030344  1
  Al  Al25  1  0.09276788  0.87349832  0.09816902  1
  Al  Al26  1  0.09276788  0.62650168  0.59216228  1
  Al  Al27  1  0.59194406  0.75000000  0.09822158  1
  Al  Al28  1  0.65080493  0.50095971  0.64786816  1
  Al  Al29  1  0.35086959  0.75000000  0.34924065  1
  Al  Al30  1  0.40767491  0.50034147  0.90359717  1
  Al  Al31  1  0.90169044  0.37667683  0.90121664  1
  Al  Al32  1  0.90249437  0.62446832  0.40794134  1
  Al  Al33  1  0.44882753  0.75000000  0.45198006  1
  Al  Al34  1  0.54373713  0.75000000  0.55191918  1
  Al  Al35  1  0.09830956  0.87667683  0.59207602  1
  Al  Al36  1  0.64949469  0.75000000  0.64891723  1
  Al  Al37  1  0.34919507  0.00095971  0.34829299  1
  Al  Al38  1  0.40449256  0.75000000  0.90310568  1
  Al  Al39  1  0.90236830  0.87528872  0.40212632  1
  Al  Al40  1  0.90236830  0.62471128  0.90328121  1
  Al  Al41  1  0.54940618  1.00001080  0.55026024  1
  Al  Al42  1  0.40767491  0.99965853  0.90496303  1
  Al  Al43  1  0.90249437  0.87553168  0.90581463  1
  O  O44  1  0.09244264  0.99838001  0.09832350  1
  O  O45  1  0.18745636  0.13330866  0.18927052  1
  O  O46  1  0.71762583  0.99818411  0.19443113  1
  O  O47  1  0.09587226  0.25000000  0.09577311  1
  O  O48  1  0.59494009  0.12552658  0.09535588  1
  O  O49  1  0.50000000  0.00000000  0.50000000  1
  O  O50  1  0.39225393  0.13007009  0.39578898  1
  O  O51  1  0.90457232  0.99915289  0.40529052  1
  O  O52  1  0.29890257  0.25000000  0.29586458  1
  O  O53  1  0.80468554  0.13226839  0.28314452  1
  O  O54  1  0.18879015  0.11746772  0.72064065  1
  O  O55  1  0.18879015  0.38253228  0.19051152  1
  O  O56  1  0.72229939  0.25000000  0.18865307  1
  O  O57  1  0.70390658  0.99860837  0.70604628  1
  O  O58  1  0.09244264  0.50161999  0.09184355  1
  O  O59  1  0.09838114  0.25000000  0.59754141  1
  O  O60  1  0.59953490  0.12449000  0.59505338  1
  O  O61  1  0.59953490  0.37551000  0.09301340  1
  O  O62  1  0.59169700  0.25000000  0.45423902  1
  O  O63  1  0.40331579  0.37469212  0.40358477  1
  O  O64  1  0.40331579  0.12530788  0.90235324  1
  O  O65  1  0.91452468  0.25000000  0.39786730  1
  O  O66  1  0.29609342  0.49860837  0.29952024  1
  O  O67  1  0.27978618  0.25000000  0.81052264  1
  O  O68  1  0.81154062  0.11853376  0.80774606  1
  O  O69  1  0.81154062  0.38146624  0.28188109  1
  O  O70  1  0.18745636  0.36669134  0.72250518  1
  O  O71  1  0.19531446  0.63226839  0.18778194  1
  O  O72  1  0.71762583  0.50181589  0.18716759  1
  O  O73  1  0.70496694  0.25000000  0.70313734  1
  O  O74  1  0.09754234  0.75000000  0.09250274  1
  O  O75  1  0.09542768  0.49915289  0.59809792  1
  O  O76  1  0.59494009  0.37447342  0.59746222  1
  O  O77  1  0.60774607  0.63007009  0.08393067  1
  O  O78  1  0.50000000  0.50000000  0.50000000  1
  O  O79  1  0.39225393  0.36992991  0.91606933  1
  O  O80  1  0.40505991  0.62552658  0.40253778  1
  O  O81  1  0.90457232  0.50084711  0.40190208  1
  O  O82  1  0.90245766  0.25000000  0.90749726  1
  O  O83  1  0.29503306  0.75000000  0.29686266  1
  O  O84  1  0.28237417  0.49818411  0.81283241  1
  O  O85  1  0.80468554  0.36773161  0.81221806  1
  O  O86  1  0.81254364  0.63330866  0.27749482  1
  O  O87  1  0.18845938  0.61853376  0.71811891  1
  O  O88  1  0.18845938  0.88146624  0.19225394  1
  O  O89  1  0.72021382  0.75000000  0.18947736  1
  O  O90  1  0.70390658  0.50139163  0.70047976  1
  O  O91  1  0.08547532  0.75000000  0.60213270  1
  O  O92  1  0.59668421  0.87469212  0.09764676  1
  O  O93  1  0.59668421  0.62530788  0.59641523  1
  O  O94  1  0.40830300  0.75000000  0.54576098  1
  O  O95  1  0.40046510  0.62449000  0.90698660  1
  O  O96  1  0.40046510  0.87551000  0.40494662  1
  O  O97  1  0.90161886  0.75000000  0.40245859  1
  O  O98  1  0.90755736  0.49838001  0.90815645  1
  O  O99  1  0.29609342  0.00139163  0.29395372  1
  O  O100  1  0.27770061  0.75000000  0.81134693  1
  O  O101  1  0.81120985  0.88253228  0.27935935  1
  O  O102  1  0.81120985  0.61746772  0.80948848  1
  O  O103  1  0.19531446  0.86773161  0.71685548  1
  O  O104  1  0.70109743  0.75000000  0.70413542  1
  O  O105  1  0.09542768  0.00084711  0.59470948  1
  O  O106  1  0.60774607  0.86992991  0.60421102  1
  O  O107  1  0.40505991  0.87447342  0.90464412  1
  O  O108  1  0.90412774  0.75000000  0.90422689  1
  O  O109  1  0.28237417  0.00181589  0.80556887  1
  O  O110  1  0.81254364  0.86669134  0.81072948  1
  O  O111  1  0.90755736  0.00161999  0.90167650  1
  Sr  Sr112  1  0.12947008  0.25000000  0.19504606  1
  Sr  Sr113  1  0.87052992  0.75000000  0.80495394  1
