# generated using pymatgen
data_Li2CoP2O7
_symmetry_space_group_name_H-M   'P 1'
_cell_length_a   8.85135785
_cell_length_b   8.17159963
_cell_length_c   5.00342270
_cell_angle_alpha   107.82718457
_cell_angle_beta   90.00000000
_cell_angle_gamma   66.55430964
_symmetry_Int_Tables_number   1
_chemical_formula_structural   Li2CoP2O7
_chemical_formula_sum   'Li4 Co2 P4 O14'
_cell_volume   312.98609704
_cell_formula_units_Z   2
loop_
 _symmetry_equiv_pos_site_id
 _symmetry_equiv_pos_as_xyz
  1  'x, y, z'
loop_
 _atom_site_type_symbol
 _atom_site_label
 _atom_site_symmetry_multiplicity
 _atom_site_fract_x
 _atom_site_fract_y
 _atom_site_fract_z
 _atom_site_occupancy
  Li  Li0  1  0.05344360  0.12052595  0.67247434  1
  Li  Li1  1  0.44655640  0.87947405  0.05194938  1
  Li  Li2  1  0.94655640  0.87947405  0.32752566  1
  Li  Li3  1  0.55344360  0.12052595  0.94805062  1
  Co  Co4  1  0.50000000  0.50000000  -0.00000000  1
  Co  Co5  1  0.00000000  0.50000000  -0.00000000  1
  P  P6  1  0.18505222  0.70359359  0.73546928  1
  P  P7  1  0.68505222  0.70359359  0.46812431  1
  P  P8  1  0.81494778  0.29640641  0.26453072  1
  P  P9  1  0.31494778  0.29640641  0.53187569  1
  O  O10  1  0.16009489  0.29248190  0.66769797  1
  O  O11  1  0.25000000  0.50000000  0.47504363  1
  O  O12  1  0.55920177  0.69943253  0.25500740  1
  O  O13  1  0.44079823  0.30056747  0.74499260  1
  O  O14  1  0.11115990  0.85485723  0.60217510  1
  O  O15  1  0.33990511  0.70751810  0.87521707  1
  O  O16  1  0.66009489  0.29248190  0.12478293  1
  O  O17  1  0.83990511  0.70751810  0.33230203  1
  O  O18  1  0.88884010  0.14514277  0.39782490  1
  O  O19  1  0.61115990  0.85485723  0.75268213  1
  O  O20  1  0.38884010  0.14514277  0.24731787  1
  O  O21  1  0.75000000  0.50000000  0.52495637  1
  O  O22  1  0.94079823  0.30056747  0.05557487  1
  O  O23  1  0.05920177  0.69943253  0.94442513  1
