# generated using pymatgen
data_Ca(CoO2)2
_symmetry_space_group_name_H-M   'P 1'
_cell_length_a   2.92971175
_cell_length_b   8.80112865
_cell_length_c   10.32013144
_cell_angle_alpha   89.99971509
_cell_angle_beta   90.00000700
_cell_angle_gamma   90.00001361
_symmetry_Int_Tables_number   1
_chemical_formula_structural   Ca(CoO2)2
_chemical_formula_sum   'Ca4 Co8 O16'
_cell_volume   266.10221575
_cell_formula_units_Z   4
loop_
 _symmetry_equiv_pos_site_id
 _symmetry_equiv_pos_as_xyz
  1  'x, y, z'
loop_
 _atom_site_type_symbol
 _atom_site_label
 _atom_site_symmetry_multiplicity
 _atom_site_fract_x
 _atom_site_fract_y
 _atom_site_fract_z
 _atom_site_occupancy
  Ca  Ca0  1  0.75000141  0.76083322  0.66355187  1
  Ca  Ca1  1  0.24999923  0.23898592  0.33645333  1
  Ca  Ca2  1  0.74999940  0.26106563  0.83650023  1
  Ca  Ca3  1  0.25000141  0.73915080  0.16357045  1
  Co  Co4  1  0.74999980  0.94286589  0.88838166  1
  Co  Co5  1  0.24999986  0.05729781  0.11152371  1
  Co  Co6  1  0.75000002  0.44270826  0.61149332  1
  Co  Co7  1  0.25000035  0.55715524  0.38837090  1
  Co  Co8  1  0.74999967  0.91583607  0.40244433  1
  Co  Co9  1  0.25000038  0.08402275  0.59761385  1
  Co  Co10  1  0.75000021  0.41595804  0.09765201  1
  Co  Co11  1  0.25000010  0.58413532  0.90247698  1
  O  O12  1  0.74999995  0.69815440  0.34397021  1
  O  O13  1  0.24999919  0.30178400  0.65601422  1
  O  O14  1  0.74999903  0.19826242  0.15599038  1
  O  O15  1  0.25000077  0.80184629  0.84397161  1
  O  O16  1  0.74999954  0.61454897  0.02320417  1
  O  O17  1  0.24999936  0.38554871  0.97696236  1
  O  O18  1  0.75000071  0.11442523  0.47691289  1
  O  O19  1  0.25000048  0.88539334  0.52314492  1
  O  O20  1  0.75000007  0.53192733  0.78821678  1
  O  O21  1  0.25000160  0.46812092  0.21180312  1
  O  O22  1  0.74999949  0.03186283  0.71184222  1
  O  O23  1  0.24999948  0.96807909  0.28822217  1
  O  O24  1  0.74999994  0.92082386  0.07231398  1
  O  O25  1  0.24999899  0.07940827  0.92755315  1
  O  O26  1  0.75000067  0.42062896  0.42752326  1
  O  O27  1  0.24999891  0.57917045  0.57232193  1
