# generated using pymatgen
data_Cd4GeS6
_symmetry_space_group_name_H-M   'P 1'
_cell_length_a   7.25948472
_cell_length_b   7.27927468
_cell_length_c   12.58314591
_cell_angle_alpha   73.87171838
_cell_angle_beta   73.23418064
_cell_angle_gamma   60.08989234
_symmetry_Int_Tables_number   1
_chemical_formula_structural   Cd4GeS6
_chemical_formula_sum   'Cd8 Ge2 S12'
_cell_volume   544.64093875
_cell_formula_units_Z   2
loop_
 _symmetry_equiv_pos_site_id
 _symmetry_equiv_pos_as_xyz
  1  'x, y, z'
loop_
 _atom_site_type_symbol
 _atom_site_label
 _atom_site_symmetry_multiplicity
 _atom_site_fract_x
 _atom_site_fract_y
 _atom_site_fract_z
 _atom_site_occupancy
  S  S0  1  0.70912038  0.84014682  0.20476970  1
  S  S1  1  0.24596310  0.34014682  0.70476970  1
  S  S2  1  0.56078194  0.67031010  0.75875160  1
  S  S3  1  0.01015637  0.17031010  0.25875160  1
  S  S4  1  0.99763832  0.60737003  0.44083401  1
  S  S5  1  0.95415764  0.10737003  0.94083401  1
  S  S6  1  0.95423343  0.61792257  0.94704474  1
  S  S7  1  0.48079926  0.11792257  0.44704474  1
  S  S8  1  0.43053604  0.12924917  0.96589044  1
  S  S9  1  0.47432435  0.62924917  0.46589044  1
  S  S10  1  0.40390111  0.54513360  0.13740162  1
  S  S11  1  0.91356367  0.04513360  0.63740162  1
  Ge  Ge12  1  0.13151849  0.30131125  0.89004832  1
  Ge  Ge13  1  0.67712193  0.80131125  0.39004832  1
  Cd  Cd14  1  0.26874956  0.76012652  0.29982541  1
  Cd  Cd15  1  0.67129852  0.26012652  0.79982541  1
  Cd  Cd16  1  0.75685793  0.18595376  0.14443820  1
  Cd  Cd17  1  0.91275012  0.68595376  0.64443820  1
  Cd  Cd18  1  0.54405088  0.73739990  0.95253147  1
  Cd  Cd19  1  0.76601774  0.23739990  0.45253147  1
  Cd  Cd20  1  0.07268920  0.49867627  0.14266449  1
  Cd  Cd21  1  0.28597004  0.99867627  0.64266449  1
