# generated using pymatgen
data_Sr2CoMoO6
_symmetry_space_group_name_H-M   'P 1'
_cell_length_a   5.68238804
_cell_length_b   5.68192554
_cell_length_c   5.62116043
_cell_angle_alpha   60.35499592
_cell_angle_beta   60.35767290
_cell_angle_gamma   59.29263586
_symmetry_Int_Tables_number   1
_chemical_formula_structural   Sr2CoMoO6
_chemical_formula_sum   'Sr2 Co1 Mo1 O6'
_cell_volume   128.30858883
_cell_formula_units_Z   1
loop_
 _symmetry_equiv_pos_site_id
 _symmetry_equiv_pos_as_xyz
  1  'x, y, z'
loop_
 _atom_site_type_symbol
 _atom_site_label
 _atom_site_symmetry_multiplicity
 _atom_site_fract_x
 _atom_site_fract_y
 _atom_site_fract_z
 _atom_site_occupancy
  Sr  Sr0  1  0.75000287  0.74998789  0.75002200  1
  Sr  Sr1  1  0.24999713  0.25001111  0.24997900  1
  Co  Co2  1  0.00000000  -0.00000000  0.00000000  1
  Mo  Mo3  1  0.50000000  0.50000000  0.50000000  1
  O  O4  1  0.73908008  0.73841662  0.26165124  1
  O  O5  1  0.74454798  0.25553833  0.25545070  1
  O  O6  1  0.25545302  0.74446167  0.74454930  1
  O  O7  1  0.26091892  0.26158438  0.73834876  1
  O  O8  1  0.74415733  0.25512160  0.74486199  1
  O  O9  1  0.25584267  0.74487840  0.25513701  1
