# generated using pymatgen
data_B2PdO4
_symmetry_space_group_name_H-M   'P 1'
_cell_length_a   5.76839376
_cell_length_b   8.82644064
_cell_length_c   8.82644066
_cell_angle_alpha   83.87043281
_cell_angle_beta   70.92728283
_cell_angle_gamma   70.92728806
_symmetry_Int_Tables_number   1
_chemical_formula_structural   B2PdO4
_chemical_formula_sum   'B12 Pd6 O24'
_cell_volume   401.40787971
_cell_formula_units_Z   6
loop_
 _symmetry_equiv_pos_site_id
 _symmetry_equiv_pos_as_xyz
  1  'x, y, z'
loop_
 _atom_site_type_symbol
 _atom_site_label
 _atom_site_symmetry_multiplicity
 _atom_site_fract_x
 _atom_site_fract_y
 _atom_site_fract_z
 _atom_site_occupancy
  Pd  Pd0  1  0.50000000  0.00000000  0.00000000  1
  Pd  Pd1  1  0.75000000  0.50000000  0.50000000  1
  Pd  Pd2  1  0.20523587  0.16976413  0.66976413  1
  Pd  Pd3  1  0.12500000  0.66976413  0.83023587  1
  Pd  Pd4  1  0.62500000  0.33023587  0.16976413  1
  Pd  Pd5  1  0.04476413  0.83023587  0.33023587  1
  O  O6  1  0.66120103  0.90688672  0.76702882  1
  O  O7  1  0.57177015  0.76702882  0.09311328  1
  O  O8  1  0.43191225  0.23297118  0.90688672  1
  O  O9  1  0.33511657  0.09311328  0.23297118  1
  O  O10  1  0.58879897  0.73297118  0.59311328  1
  O  O11  1  0.91488343  0.26702882  0.40688672  1
  O  O12  1  0.81808775  0.59311328  0.26702882  1
  O  O13  1  0.67822985  0.40688672  0.73297118  1
  O  O14  1  0.87344637  0.00155363  0.50155363  1
  O  O15  1  0.62500000  0.50155363  0.99844637  1
  O  O16  1  0.12500000  0.49844637  0.00155363  1
  O  O17  1  0.37655363  0.99844637  0.49844637  1
  O  O18  1  0.12500000  0.83990928  0.66009072  1
  O  O19  1  0.21490928  0.66009072  0.16009072  1
  O  O20  1  0.03509072  0.33990928  0.83990928  1
  O  O21  1  0.62500000  0.16009072  0.33990928  1
  O  O22  1  0.86390163  0.11334782  0.73968118  1
  O  O23  1  0.39641719  0.73968118  0.88665218  1
  O  O24  1  0.02275055  0.26031882  0.11334782  1
  O  O25  1  0.71693063  0.88665218  0.26031882  1
  O  O26  1  0.38609837  0.76031882  0.38665218  1
  O  O27  1  0.53306937  0.23968118  0.61334782  1
  O  O28  1  0.22724945  0.38665218  0.23968118  1
  O  O29  1  0.85358281  0.61334782  0.76031882  1
  B  B30  1  0.88131854  0.96375127  0.66690065  1
  B  B31  1  0.45178080  0.66690065  0.03624873  1
  B  B32  1  0.15493019  0.33309935  0.96375127  1
  B  B33  1  0.51197047  0.03624873  0.33309935  1
  B  B34  1  0.36868146  0.83309935  0.53624873  1
  B  B35  1  0.73802953  0.16690065  0.46375127  1
  B  B36  1  0.09506981  0.53624873  0.16690065  1
  B  B37  1  0.79821920  0.46375127  0.83309935  1
  B  B38  1  0.62417389  0.25082611  0.75082611  1
  B  B39  1  0.62500000  0.75082611  0.74917389  1
  B  B40  1  0.12500000  0.24917389  0.25082611  1
  B  B41  1  0.62582611  0.74917389  0.24917389  1
