# generated using pymatgen
data_Mn4ZnO8
_symmetry_space_group_name_H-M   'P 1'
_cell_length_a   3.00255153
_cell_length_b   7.22776735
_cell_length_c   7.41999813
_cell_angle_alpha   82.07301118
_cell_angle_beta   78.52720456
_cell_angle_gamma   78.31314949
_symmetry_Int_Tables_number   1
_chemical_formula_structural   Mn4ZnO8
_chemical_formula_sum   'Mn4 Zn1 O8'
_cell_volume   153.73638913
_cell_formula_units_Z   1
loop_
 _symmetry_equiv_pos_site_id
 _symmetry_equiv_pos_as_xyz
  1  'x, y, z'
loop_
 _atom_site_type_symbol
 _atom_site_label
 _atom_site_symmetry_multiplicity
 _atom_site_fract_x
 _atom_site_fract_y
 _atom_site_fract_z
 _atom_site_occupancy
  Mn  Mn0  1  0.63578444  0.17350853  0.55518496  1
  Mn  Mn1  1  0.13973422  0.50556429  0.20885428  1
  Mn  Mn2  1  0.84350251  0.47937848  0.83766319  1
  Mn  Mn3  1  0.34902980  0.80207099  0.49798018  1
  Zn  Zn4  1  0.34245863  0.12710722  0.18981719  1
  O  O5  1  0.85169472  0.67314260  0.62392756  1
  O  O6  1  0.45780532  0.33617978  0.74930843  1
  O  O7  1  0.52579627  0.64778606  0.29207532  1
  O  O8  1  0.13654057  0.30616033  0.42135095  1
  O  O9  1  0.16297186  0.01940124  0.65506579  1
  O  O10  1  0.80368918  0.31221058  0.09104708  1
  O  O11  1  0.82505230  0.98612669  0.35667849  1
  O  O12  1  0.22342418  0.60746920  0.95169260  1
