# generated using pymatgen
data_KEr(PO3)4
_symmetry_space_group_name_H-M   'P 1'
_cell_length_a   8.93721084
_cell_length_b   10.38235890
_cell_length_c   10.92047765
_cell_angle_alpha   106.39080046
_cell_angle_beta   90.00000000
_cell_angle_gamma   90.00000000
_symmetry_Int_Tables_number   1
_chemical_formula_structural   KEr(PO3)4
_chemical_formula_sum   'K4 Er4 P16 O48'
_cell_volume   972.12242918
_cell_formula_units_Z   4
loop_
 _symmetry_equiv_pos_site_id
 _symmetry_equiv_pos_as_xyz
  1  'x, y, z'
loop_
 _atom_site_type_symbol
 _atom_site_label
 _atom_site_symmetry_multiplicity
 _atom_site_fract_x
 _atom_site_fract_y
 _atom_site_fract_z
 _atom_site_occupancy
  Er  Er0  1  0.72759611  0.50064093  0.31587732  1
  Er  Er1  1  0.22759611  0.99935907  0.18412268  1
  Er  Er2  1  0.27240389  0.49935907  0.68412268  1
  Er  Er3  1  0.77240389  0.00064093  0.81587732  1
  P  P4  1  0.61143394  0.82325358  0.52179828  1
  P  P5  1  0.11143394  0.67674642  0.97820172  1
  P  P6  1  0.38856606  0.17674642  0.47820172  1
  P  P7  1  0.88856606  0.32325358  0.02179828  1
  P  P8  1  0.40758810  0.85190119  0.74182070  1
  P  P9  1  0.90758810  0.64809881  0.75817930  1
  P  P10  1  0.59241190  0.14809881  0.25817930  1
  P  P11  1  0.09241190  0.35190119  0.24182070  1
  P  P12  1  0.47711924  0.75266547  0.27361136  1
  P  P13  1  0.97711924  0.74733453  0.22638864  1
  P  P14  1  0.52288076  0.24733453  0.72638864  1
  P  P15  1  0.02288076  0.25266547  0.77361136  1
  P  P16  1  0.33072306  0.54081153  0.36324013  1
  P  P17  1  0.83072306  0.95918847  0.13675987  1
  P  P18  1  0.66927694  0.45918847  0.63675987  1
  P  P19  1  0.16927694  0.04081153  0.86324013  1
  K  K20  1  0.43275171  0.29561279  0.04127164  1
  K  K21  1  0.93275171  0.20438721  0.45872836  1
  K  K22  1  0.56724829  0.70438721  0.95872836  1
  K  K23  1  0.06724829  0.79561279  0.54127164  1
  O  O24  1  0.66757647  0.68178224  0.47995960  1
  O  O25  1  0.16757647  0.81821776  0.02004040  1
  O  O26  1  0.33242353  0.31821776  0.52004040  1
  O  O27  1  0.83242353  0.18178224  0.97995960  1
  O  O28  1  0.55008008  0.86104239  0.39685376  1
  O  O29  1  0.05008008  0.63895761  0.10314624  1
  O  O30  1  0.44991992  0.13895761  0.60314624  1
  O  O31  1  0.94991992  0.36104239  0.89685376  1
  O  O32  1  0.34380387  0.68696087  0.33779760  1
  O  O33  1  0.84380387  0.81303913  0.16220240  1
  O  O34  1  0.65619613  0.31303913  0.66220240  1
  O  O35  1  0.15619613  0.18696087  0.83779760  1
  O  O36  1  0.58801295  0.64497109  0.21119468  1
  O  O37  1  0.08801295  0.85502891  0.28880532  1
  O  O38  1  0.41198705  0.35502891  0.78880532  1
  O  O39  1  0.91198705  0.14497109  0.71119468  1
  O  O40  1  0.71361645  0.93182221  0.59673874  1
  O  O41  1  0.21361645  0.56817779  0.90326126  1
  O  O42  1  0.28638355  0.06817779  0.40326126  1
  O  O43  1  0.78638355  0.43182221  0.09673874  1
  O  O44  1  0.54056819  0.89959275  0.82664317  1
  O  O45  1  0.04056819  0.60040725  0.67335683  1
  O  O46  1  0.45943181  0.10040725  0.17335683  1
  O  O47  1  0.95943181  0.39959275  0.32664317  1
  O  O48  1  0.29020724  0.97401818  0.75254998  1
  O  O49  1  0.79020724  0.52598182  0.74745002  1
  O  O50  1  0.70979276  0.02598182  0.24745002  1
  O  O51  1  0.20979276  0.47401818  0.25254998  1
  O  O52  1  0.67774716  0.26681151  0.24346799  1
  O  O53  1  0.17774716  0.23318849  0.25653201  1
  O  O54  1  0.32225284  0.73318849  0.75653201  1
  O  O55  1  0.82225284  0.76681151  0.74346799  1
  O  O56  1  0.47379393  0.46356247  0.32845676  1
  O  O57  1  0.97379393  0.03643753  0.17154324  1
  O  O58  1  0.52620607  0.53643753  0.67154324  1
  O  O59  1  0.02620607  0.96356247  0.82845676  1
  O  O60  1  0.45284408  0.82794413  0.59499433  1
  O  O61  1  0.95284408  0.67205587  0.90500567  1
  O  O62  1  0.54715592  0.17205587  0.40500567  1
  O  O63  1  0.04715592  0.32794413  0.09499433  1
  O  O64  1  0.59136918  0.16834407  0.80760111  1
  O  O65  1  0.09136918  0.33165593  0.69239889  1
  O  O66  1  0.40863082  0.83165593  0.19239889  1
  O  O67  1  0.90863082  0.66834407  0.30760111  1
  O  O68  1  0.26111786  0.56450119  0.49238168  1
  O  O69  1  0.76111786  0.93549881  0.00761832  1
  O  O70  1  0.73888214  0.43549881  0.50761832  1
  O  O71  1  0.23888214  0.06450119  0.99238168  1
