# generated using pymatgen
data_KCu3Te2
_symmetry_space_group_name_H-M   'P 1'
_cell_length_a   4.26097248
_cell_length_b   8.46613639
_cell_length_c   8.68281208
_cell_angle_alpha   110.85698035
_cell_angle_beta   90.00000000
_cell_angle_gamma   104.57505344
_symmetry_Int_Tables_number   1
_chemical_formula_structural   KCu3Te2
_chemical_formula_sum   'K2 Cu6 Te4'
_cell_volume   281.88575339
_cell_formula_units_Z   2
loop_
 _symmetry_equiv_pos_site_id
 _symmetry_equiv_pos_as_xyz
  1  'x, y, z'
loop_
 _atom_site_type_symbol
 _atom_site_label
 _atom_site_symmetry_multiplicity
 _atom_site_fract_x
 _atom_site_fract_y
 _atom_site_fract_z
 _atom_site_occupancy
  K  K0  1  0.13382652  0.26765305  0.04555461  1
  K  K1  1  0.86617348  0.73234695  0.95444539  1
  Cu  Cu2  1  0.58365366  0.16730733  0.60058141  1
  Cu  Cu3  1  0.41634634  0.83269267  0.39941859  1
  Cu  Cu4  1  0.69608416  0.39216832  0.47132780  1
  Cu  Cu5  1  0.30391584  0.60783168  0.52867220  1
  Cu  Cu6  1  0.92974444  0.85948889  0.58356217  1
  Cu  Cu7  1  0.07025556  0.14051111  0.41643783  1
  Te  Te8  1  0.79819008  0.59638016  0.30488736  1
  Te  Te9  1  0.20180992  0.40361984  0.69511264  1
  Te  Te10  1  0.52087214  0.04174429  0.23901085  1
  Te  Te11  1  0.47912786  0.95825571  0.76098915  1
