# generated using pymatgen
data_Hg9(PO4)4
_symmetry_space_group_name_H-M   'P 1'
_cell_length_a   10.39894111
_cell_length_b   10.39894135
_cell_length_c   10.39894109
_cell_angle_alpha   108.46393889
_cell_angle_beta   108.46393928
_cell_angle_gamma   108.46393479
_symmetry_Int_Tables_number   1
_chemical_formula_structural   Hg9(PO4)4
_chemical_formula_sum   'Hg18 P8 O32'
_cell_volume   896.48667538
_cell_formula_units_Z   2
loop_
 _symmetry_equiv_pos_site_id
 _symmetry_equiv_pos_as_xyz
  1  'x, y, z'
loop_
 _atom_site_type_symbol
 _atom_site_label
 _atom_site_symmetry_multiplicity
 _atom_site_fract_x
 _atom_site_fract_y
 _atom_site_fract_z
 _atom_site_occupancy
  Hg  Hg0  1  0.40461917  0.45619253  0.17919080  1
  Hg  Hg1  1  0.17919080  0.40461917  0.45619253  1
  Hg  Hg2  1  0.45619253  0.17919080  0.40461917  1
  Hg  Hg3  1  0.95619253  0.90461917  0.67919080  1
  Hg  Hg4  1  0.67919080  0.95619253  0.90461917  1
  Hg  Hg5  1  0.90461917  0.67919080  0.95619253  1
  Hg  Hg6  1  0.18073830  0.28083577  0.65214672  1
  Hg  Hg7  1  0.65214672  0.18073830  0.28083577  1
  Hg  Hg8  1  0.28083577  0.65214672  0.18073830  1
  Hg  Hg9  1  0.78083577  0.68073830  0.15214672  1
  Hg  Hg10  1  0.15214672  0.78083577  0.68073830  1
  Hg  Hg11  1  0.68073830  0.15214672  0.78083577  1
  Hg  Hg12  1  0.34767594  0.98258220  0.09334667  1
  Hg  Hg13  1  0.09334667  0.34767594  0.98258220  1
  Hg  Hg14  1  0.98258220  0.09334667  0.34767594  1
  Hg  Hg15  1  0.48258220  0.84767594  0.59334667  1
  Hg  Hg16  1  0.59334667  0.48258220  0.84767594  1
  Hg  Hg17  1  0.84767594  0.59334667  0.48258220  1
  P  P18  1  0.37866848  0.17372685  0.88187732  1
  P  P19  1  0.88187732  0.37866848  0.17372685  1
  P  P20  1  0.17372685  0.88187732  0.37866848  1
  P  P21  1  0.67372685  0.87866848  0.38187732  1
  P  P22  1  0.38187732  0.67372685  0.87866848  1
  P  P23  1  0.87866848  0.38187732  0.67372685  1
  P  P24  1  0.05580968  0.05580968  0.05580968  1
  P  P25  1  0.55580968  0.55580968  0.55580968  1
  O  O26  1  0.09004292  0.91722266  0.99160065  1
  O  O27  1  0.99160065  0.09004292  0.91722266  1
  O  O28  1  0.91722266  0.99160065  0.09004292  1
  O  O29  1  0.41722266  0.59004292  0.49160065  1
  O  O30  1  0.49160065  0.41722266  0.59004292  1
  O  O31  1  0.59004292  0.49160065  0.41722266  1
  O  O32  1  0.21582431  0.15772976  0.79354328  1
  O  O33  1  0.79354328  0.21582431  0.15772976  1
  O  O34  1  0.15772976  0.79354328  0.21582431  1
  O  O35  1  0.65772976  0.71582431  0.29354328  1
  O  O36  1  0.29354328  0.65772976  0.71582431  1
  O  O37  1  0.71582431  0.29354328  0.65772976  1
  O  O38  1  0.45391711  0.27970154  0.05626478  1
  O  O39  1  0.05626478  0.45391711  0.27970154  1
  O  O40  1  0.27970154  0.05626478  0.45391711  1
  O  O41  1  0.77970154  0.95391711  0.55626478  1
  O  O42  1  0.55626478  0.77970154  0.95391711  1
  O  O43  1  0.95391711  0.55626478  0.77970154  1
  O  O44  1  0.36255738  0.01327936  0.86695061  1
  O  O45  1  0.86695061  0.36255738  0.01327936  1
  O  O46  1  0.01327936  0.86695061  0.36255738  1
  O  O47  1  0.51327936  0.86255738  0.36695061  1
  O  O48  1  0.36695061  0.51327936  0.86255738  1
  O  O49  1  0.86255738  0.36695061  0.51327936  1
  O  O50  1  0.31175873  0.73238247  0.98229506  1
  O  O51  1  0.98229506  0.31175873  0.73238247  1
  O  O52  1  0.73238247  0.98229506  0.31175873  1
  O  O53  1  0.23238247  0.81175873  0.48229506  1
  O  O54  1  0.48229506  0.23238247  0.81175873  1
  O  O55  1  0.81175873  0.48229506  0.23238247  1
  O  O56  1  0.19548896  0.19548896  0.19548896  1
  O  O57  1  0.69548896  0.69548896  0.69548896  1
