# generated using pymatgen
data_Al2Si2H4O9
_symmetry_space_group_name_H-M   'P 1'
_cell_length_a   5.21553049
_cell_length_b   5.21480569
_cell_length_c   7.49270958
_cell_angle_alpha   74.98826367
_cell_angle_beta   84.31591778
_cell_angle_gamma   60.18326829
_symmetry_Int_Tables_number   1
_chemical_formula_structural   Al2Si2H4O9
_chemical_formula_sum   'Al2 Si2 H4 O9'
_cell_volume   170.66771024
_cell_formula_units_Z   1
loop_
 _symmetry_equiv_pos_site_id
 _symmetry_equiv_pos_as_xyz
  1  'x, y, z'
loop_
 _atom_site_type_symbol
 _atom_site_label
 _atom_site_symmetry_multiplicity
 _atom_site_fract_x
 _atom_site_fract_y
 _atom_site_fract_z
 _atom_site_occupancy
  Al  Al0  1  0.98326518  0.14790618  0.45829175  1
  Al  Al1  1  0.65591896  0.82060911  0.45516162  1
  Si  Si2  1  0.67359361  0.60493935  0.07136114  1
  Si  Si3  1  0.33082565  0.26291332  0.07246656  1
  H  H4  1  0.12253749  0.73037470  0.31855708  1
  H  H5  1  0.34099450  0.71475891  0.71183603  1
  H  H6  1  0.99616777  0.39414700  0.71062860  1
  H  H7  1  0.63497112  0.07075635  0.71283285  1
  O  O8  1  0.70602912  0.53503484  0.29418065  1
  O  O9  1  0.32501625  0.15437782  0.29508314  1
  O  O10  1  0.99595596  0.43527438  0.97803897  1
  O  O11  1  0.45583653  0.50443204  0.00076466  1
  O  O12  1  0.53123193  0.97336288  0.97837675  1
  O  O13  1  0.93616695  0.91912909  0.31152349  1
  O  O14  1  0.32994844  0.82008391  0.58275750  1
  O  O15  1  0.93852759  0.43258757  0.58275300  1
  O  O16  1  0.71199396  0.04431756  0.59138622  1
