# generated using pymatgen
data_P4Se3
_symmetry_space_group_name_H-M   'P 1'
_cell_length_a   10.60695287
_cell_length_b   11.89151562
_cell_length_c   14.95032231
_cell_angle_alpha   90.00000000
_cell_angle_beta   90.00000000
_cell_angle_gamma   90.00000000
_symmetry_Int_Tables_number   1
_chemical_formula_structural   P4Se3
_chemical_formula_sum   'P32 Se24'
_cell_volume   1885.72520257
_cell_formula_units_Z   8
loop_
 _symmetry_equiv_pos_site_id
 _symmetry_equiv_pos_as_xyz
  1  'x, y, z'
loop_
 _atom_site_type_symbol
 _atom_site_label
 _atom_site_symmetry_multiplicity
 _atom_site_fract_x
 _atom_site_fract_y
 _atom_site_fract_z
 _atom_site_occupancy
  Se  Se0  1  0.91341328  0.55008451  0.13460358  1
  Se  Se1  1  0.41341328  0.44991549  0.86539642  1
  Se  Se2  1  0.58658672  0.05008451  0.36539642  1
  Se  Se3  1  0.08658672  0.94991549  0.63460358  1
  Se  Se4  1  0.08658672  0.44991549  0.86539642  1
  Se  Se5  1  0.58658672  0.55008451  0.13460358  1
  Se  Se6  1  0.41341328  0.94991549  0.63460358  1
  Se  Se7  1  0.91341328  0.05008451  0.36539642  1
  Se  Se8  1  0.75000000  0.33678551  0.02668910  1
  Se  Se9  1  0.25000000  0.66321449  0.97331090  1
  Se  Se10  1  0.75000000  0.83678551  0.47331090  1
  Se  Se11  1  0.25000000  0.16321449  0.52668910  1
  Se  Se12  1  0.41367252  0.15214840  0.02756026  1
  Se  Se13  1  0.91367252  0.84785160  0.97243974  1
  Se  Se14  1  0.08632748  0.65214840  0.47243974  1
  Se  Se15  1  0.58632748  0.34785160  0.52756026  1
  Se  Se16  1  0.58632748  0.84785160  0.97243974  1
  Se  Se17  1  0.08632748  0.15214840  0.02756026  1
  Se  Se18  1  0.91367252  0.34785160  0.52756026  1
  Se  Se19  1  0.41367252  0.65214840  0.47243974  1
  Se  Se20  1  0.25000000  0.94481835  0.14246359  1
  Se  Se21  1  0.75000000  0.05518165  0.85753641  1
  Se  Se22  1  0.25000000  0.44481835  0.35753641  1
  Se  Se23  1  0.75000000  0.55518165  0.64246359  1
  P  P24  1  0.85558847  0.42758280  0.24275537  1
  P  P25  1  0.35558847  0.57241720  0.75724463  1
  P  P26  1  0.64441153  0.92758280  0.25724463  1
  P  P27  1  0.14441153  0.07241720  0.74275537  1
  P  P28  1  0.14441153  0.57241720  0.75724463  1
  P  P29  1  0.64441153  0.42758280  0.24275537  1
  P  P30  1  0.35558847  0.07241720  0.74275537  1
  P  P31  1  0.85558847  0.92758280  0.25724463  1
  P  P32  1  0.75000000  0.28899062  0.17303470  1
  P  P33  1  0.25000000  0.71100938  0.82696530  1
  P  P34  1  0.75000000  0.78899062  0.32696530  1
  P  P35  1  0.25000000  0.21100938  0.67303470  1
  P  P36  1  0.75000000  0.52801982  0.03750769  1
  P  P37  1  0.25000000  0.47198018  0.96249231  1
  P  P38  1  0.75000000  0.02801982  0.46249231  1
  P  P39  1  0.25000000  0.97198018  0.53750769  1
  P  P40  1  0.35585826  0.23114988  0.15885122  1
  P  P41  1  0.85585826  0.76885012  0.84114878  1
  P  P42  1  0.14414174  0.73114988  0.34114878  1
  P  P43  1  0.64414174  0.26885012  0.65885122  1
  P  P44  1  0.64414174  0.76885012  0.84114878  1
  P  P45  1  0.14414174  0.23114988  0.15885122  1
  P  P46  1  0.85585826  0.26885012  0.65885122  1
  P  P47  1  0.35585826  0.73114988  0.34114878  1
  P  P48  1  0.25000000  0.09684170  0.23327380  1
  P  P49  1  0.75000000  0.90315830  0.76672620  1
  P  P50  1  0.25000000  0.59684170  0.26672620  1
  P  P51  1  0.75000000  0.40315830  0.73327380  1
  P  P52  1  0.25000000  0.03112638  0.00670342  1
  P  P53  1  0.75000000  0.96887362  0.99329658  1
  P  P54  1  0.25000000  0.53112638  0.49329658  1
  P  P55  1  0.75000000  0.46887362  0.50670342  1
