# generated using pymatgen
data_KMnH2OF4
_symmetry_space_group_name_H-M   'P 1'
_cell_length_a   6.36524386
_cell_length_b   7.62016094
_cell_length_c   10.72694474
_cell_angle_alpha   102.58716806
_cell_angle_beta   90.00000000
_cell_angle_gamma   114.68682151
_symmetry_Int_Tables_number   1
_chemical_formula_structural   KMnH2OF4
_chemical_formula_sum   'K4 Mn4 H8 O4 F16'
_cell_volume   458.94931210
_cell_formula_units_Z   4
loop_
 _symmetry_equiv_pos_site_id
 _symmetry_equiv_pos_as_xyz
  1  'x, y, z'
loop_
 _atom_site_type_symbol
 _atom_site_label
 _atom_site_symmetry_multiplicity
 _atom_site_fract_x
 _atom_site_fract_y
 _atom_site_fract_z
 _atom_site_occupancy
  K  K0  1  0.33911974  0.15792157  0.44383226  1
  K  K1  1  0.18119817  0.84207843  0.05616774  1
  K  K2  1  0.66088026  0.84207843  0.55616774  1
  K  K3  1  0.81880183  0.15792157  0.94383226  1
  Mn  Mn4  1  0.00000000  0.50000000  0.50000000  1
  Mn  Mn5  1  0.50000000  0.50000000  0.00000000  1
  Mn  Mn6  1  0.75680526  0.00000000  0.25000000  1
  Mn  Mn7  1  0.24319474  0.00000000  0.75000000  1
  F  F8  1  0.84570585  0.20079211  0.43769906  1
  F  F9  1  0.64491374  0.79920789  0.06230094  1
  F  F10  1  0.15429415  0.79920789  0.56230094  1
  F  F11  1  0.35508626  0.20079211  0.93769906  1
  F  F12  1  0.28205206  0.49850889  0.46228680  1
  F  F13  1  0.78354317  0.50149111  0.03771320  1
  F  F14  1  0.71794794  0.50149111  0.53771320  1
  F  F15  1  0.21645683  0.49850889  0.96228680  1
  F  F16  1  0.03954670  0.13789816  0.18356569  1
  F  F17  1  0.90164854  0.86210184  0.31643431  1
  F  F18  1  0.96045330  0.86210184  0.81643431  1
  F  F19  1  0.09835146  0.13789816  0.68356569  1
  F  F20  1  0.62027848  0.14899188  0.19137509  1
  F  F21  1  0.47128660  0.85100812  0.30862491  1
  F  F22  1  0.37972152  0.85100812  0.80862491  1
  F  F23  1  0.52871340  0.14899188  0.69137509  1
  O  O24  1  0.93757247  0.52483007  0.30868979  1
  O  O25  1  0.41274240  0.47516993  0.19131021  1
  O  O26  1  0.06242753  0.47516993  0.69131021  1
  O  O27  1  0.58725760  0.52483007  0.80868979  1
  H  H28  1  0.90786012  0.64132866  0.30491386  1
  H  H29  1  0.26653147  0.35867134  0.19508614  1
  H  H30  1  0.09213988  0.35867134  0.69508614  1
  H  H31  1  0.73346853  0.64132866  0.80491386  1
  H  H32  1  0.80727852  0.40648127  0.25553788  1
  H  H33  1  0.40079725  0.59351873  0.24446212  1
  H  H34  1  0.19272148  0.59351873  0.74446212  1
  H  H35  1  0.59920275  0.40648127  0.75553788  1
