# generated using pymatgen
data_Na3PH16(SO2)4
_symmetry_space_group_name_H-M   'P 1'
_cell_length_a   8.69623955
_cell_length_b   12.95696782
_cell_length_c   13.59742741
_cell_angle_alpha   90.00000000
_cell_angle_beta   103.49063568
_cell_angle_gamma   90.00000000
_symmetry_Int_Tables_number   1
_chemical_formula_structural   Na3PH16(SO2)4
_chemical_formula_sum   'Na12 P4 H64 S16 O32'
_cell_volume   1489.84186544
_cell_formula_units_Z   4
loop_
 _symmetry_equiv_pos_site_id
 _symmetry_equiv_pos_as_xyz
  1  'x, y, z'
loop_
 _atom_site_type_symbol
 _atom_site_label
 _atom_site_symmetry_multiplicity
 _atom_site_fract_x
 _atom_site_fract_y
 _atom_site_fract_z
 _atom_site_occupancy
  Na  Na0  1  0.00000000  0.00000000  0.00000000  1
  Na  Na1  1  0.00000000  0.50000000  0.50000000  1
  Na  Na2  1  0.50000000  0.50000000  0.00000000  1
  Na  Na3  1  0.50000000  0.00000000  0.50000000  1
  Na  Na4  1  0.33500363  0.54950802  0.40927736  1
  Na  Na5  1  0.66499637  0.04950802  0.09072264  1
  Na  Na6  1  0.66499637  0.45049198  0.59072264  1
  Na  Na7  1  0.33500363  0.95049198  0.90927736  1
  Na  Na8  1  0.83151312  0.05808879  0.41692086  1
  Na  Na9  1  0.16848688  0.55808879  0.08307914  1
  Na  Na10  1  0.16848688  0.94191121  0.58307914  1
  Na  Na11  1  0.83151312  0.44191121  0.91692086  1
  P  P12  1  0.71439431  0.67201287  0.25140718  1
  P  P13  1  0.28560569  0.17201287  0.24859282  1
  P  P14  1  0.28560569  0.32798713  0.74859282  1
  P  P15  1  0.71439431  0.82798713  0.75140718  1
  S  S16  1  0.78172061  0.51949240  0.28305618  1
  S  S17  1  0.21827939  0.01949240  0.21694382  1
  S  S18  1  0.21827939  0.48050760  0.71694382  1
  S  S19  1  0.78172061  0.98050760  0.78305618  1
  S  S20  1  0.61136926  0.69114028  0.10148000  1
  S  S21  1  0.38863074  0.19114028  0.39852000  1
  S  S22  1  0.38863074  0.30885972  0.89852000  1
  S  S23  1  0.61136926  0.80885972  0.60148000  1
  S  S24  1  0.55782194  0.71234955  0.33760031  1
  S  S25  1  0.44217806  0.21234955  0.16239969  1
  S  S26  1  0.44217806  0.28765045  0.66239969  1
  S  S27  1  0.55782194  0.78765045  0.83760031  1
  S  S28  1  0.91176708  0.76686156  0.28565772  1
  S  S29  1  0.08823292  0.26686156  0.21434228  1
  S  S30  1  0.08823292  0.23313844  0.71434228  1
  S  S31  1  0.91176708  0.73313844  0.78565772  1
  O  O32  1  0.19844446  0.10471425  0.96095508  1
  O  O33  1  0.80155554  0.60471425  0.53904492  1
  O  O34  1  0.80155554  0.89528575  0.03904492  1
  O  O35  1  0.19844446  0.39528575  0.46095508  1
  O  O36  1  0.14997132  0.84541358  0.96667700  1
  O  O37  1  0.85002868  0.34541358  0.53332300  1
  O  O38  1  0.85002868  0.15458642  0.03332300  1
  O  O39  1  0.14997132  0.65458642  0.46667700  1
  O  O40  1  0.73964742  0.40235563  0.06781552  1
  O  O41  1  0.26035258  0.90235563  0.43218448  1
  O  O42  1  0.26035258  0.59764437  0.93218448  1
  O  O43  1  0.73964742  0.09764437  0.56781552  1
  O  O44  1  0.41062787  0.45950753  0.14724338  1
  O  O45  1  0.58937213  0.95950753  0.35275662  1
  O  O46  1  0.58937213  0.54049247  0.85275662  1
  O  O47  1  0.41062787  0.04049247  0.64724338  1
  O  O48  1  0.53374671  0.42696383  0.41037697  1
  O  O49  1  0.46625329  0.92696383  0.08962303  1
  O  O50  1  0.46625329  0.57303617  0.58962303  1
  O  O51  1  0.53374671  0.07303617  0.91037697  1
  O  O52  1  0.13898487  0.51589441  0.25127524  1
  O  O53  1  0.86101513  0.01589441  0.24872476  1
  O  O54  1  0.86101513  0.48410559  0.74872476  1
  O  O55  1  0.13898487  0.98410559  0.75127524  1
  O  O56  1  0.78855976  0.23438315  0.34838806  1
  O  O57  1  0.21144024  0.73438315  0.15161194  1
  O  O58  1  0.21144024  0.76561685  0.65161194  1
  O  O59  1  0.78855976  0.26561685  0.84838806  1
  O  O60  1  0.09521305  0.11221607  0.50091113  1
  O  O61  1  0.90478695  0.61221607  -0.00091113  1
  O  O62  1  0.90478695  0.88778393  0.49908887  1
  O  O63  1  0.09521305  0.38778393  1.00091113  1
  H  H64  1  0.18971239  0.15583953  0.90660216  1
  H  H65  1  0.81028761  0.65583953  0.59339784  1
  H  H66  1  0.81028761  0.84416047  0.09339784  1
  H  H67  1  0.18971239  0.34416047  0.40660216  1
  H  H68  1  0.27026565  0.13825161  0.01953543  1
  H  H69  1  0.72973435  0.63825161  0.48046457  1
  H  H70  1  0.72973435  0.86174839  0.98046457  1
  H  H71  1  0.27026565  0.36174839  0.51953543  1
  H  H72  1  0.06746598  0.80730789  0.91695072  1
  H  H73  1  0.93253402  0.30730789  0.58304928  1
  H  H74  1  0.93253402  0.19269211  0.08304928  1
  H  H75  1  0.06746598  0.69269211  0.41695072  1
  H  H76  1  0.17053667  0.80602518  0.03080977  1
  H  H77  1  0.82946333  0.30602518  0.46919023  1
  H  H78  1  0.82946333  0.19397482  0.96919023  1
  H  H79  1  0.17053667  0.69397482  0.53080977  1
  H  H80  1  0.76628169  0.43439628  0.13619628  1
  H  H81  1  0.23371831  0.93439628  0.36380372  1
  H  H82  1  0.23371831  0.56560372  0.86380372  1
  H  H83  1  0.76628169  0.06560372  0.63619628  1
  H  H84  1  0.71924530  0.32968722  0.07831745  1
  H  H85  1  0.28075470  0.82968722  0.42168255  1
  H  H86  1  0.28075470  0.67031278  0.92168255  1
  H  H87  1  0.71924530  0.17031278  0.57831745  1
  H  H88  1  0.50342748  0.48291579  0.19863029  1
  H  H89  1  0.49657252  0.98291579  0.30136971  1
  H  H90  1  0.49657252  0.51708421  0.80136971  1
  H  H91  1  0.50342748  0.01708421  0.69863029  1
  H  H92  1  0.40983963  0.38324568  0.15591679  1
  H  H93  1  0.59016037  0.88324568  0.34408321  1
  H  H94  1  0.59016037  0.61675432  0.84408321  1
  H  H95  1  0.40983963  0.11675432  0.65591679  1
  H  H96  1  0.61074908  0.44378095  0.36961688  1
  H  H97  1  0.38925092  0.94378095  0.13038312  1
  H  H98  1  0.38925092  0.55621905  0.63038312  1
  H  H99  1  0.61074908  0.05621905  0.86961688  1
  H  H100  1  0.49860532  0.35487749  0.39490472  1
  H  H101  1  0.50139468  0.85487749  0.10509528  1
  H  H102  1  0.50139468  0.64512251  0.60509528  1
  H  H103  1  0.49860532  0.14512251  0.89490472  1
  H  H104  1  0.03047614  0.52707541  0.26079679  1
  H  H105  1  0.96952386  0.02707541  0.23920321  1
  H  H106  1  0.96952386  0.47292459  0.73920321  1
  H  H107  1  0.03047614  0.97292459  0.76079679  1
  H  H108  1  0.14467113  0.43999568  0.24393954  1
  H  H109  1  0.85532887  0.93999568  0.25606046  1
  H  H110  1  0.85532887  0.56000432  0.75606046  1
  H  H111  1  0.14467113  0.06000432  0.74393954  1
  H  H112  1  0.68583175  0.23317429  0.29846874  1
  H  H113  1  0.31416825  0.73317429  0.20153126  1
  H  H114  1  0.31416825  0.76682571  0.70153126  1
  H  H115  1  0.68583175  0.26682571  0.79846874  1
  H  H116  1  0.87017954  0.24098746  0.30924739  1
  H  H117  1  0.12982046  0.74098746  0.19075261  1
  H  H118  1  0.12982046  0.75901254  0.69075261  1
  H  H119  1  0.87017954  0.25901254  0.80924739  1
  H  H120  1  0.17702681  0.13830014  0.46732447  1
  H  H121  1  0.82297319  0.63830014  0.03267553  1
  H  H122  1  0.82297319  0.86169986  0.53267553  1
  H  H123  1  0.17702681  0.36169986  0.96732447  1
  H  H124  1  0.10234662  0.15734149  0.56050418  1
  H  H125  1  0.89765338  0.65734149  0.93949582  1
  H  H126  1  0.89765338  0.84265851  0.43949582  1
  H  H127  1  0.10234662  0.34265851  0.06050418  1
