# generated using pymatgen
data_GePbO3
_symmetry_space_group_name_H-M   'P 1'
_cell_length_a   7.35633119
_cell_length_b   11.68848929
_cell_length_c   13.60193460
_cell_angle_alpha   118.83166522
_cell_angle_beta   90.00000000
_cell_angle_gamma   90.00000000
_symmetry_Int_Tables_number   1
_chemical_formula_structural   GePbO3
_chemical_formula_sum   'Ge12 Pb12 O36'
_cell_volume   1024.57657850
_cell_formula_units_Z   12
loop_
 _symmetry_equiv_pos_site_id
 _symmetry_equiv_pos_as_xyz
  1  'x, y, z'
loop_
 _atom_site_type_symbol
 _atom_site_label
 _atom_site_symmetry_multiplicity
 _atom_site_fract_x
 _atom_site_fract_y
 _atom_site_fract_z
 _atom_site_occupancy
  Ge  Ge0  1  0.40597762  0.14169532  0.11332329  1
  Ge  Ge1  1  0.59402238  0.85830468  0.88667671  1
  Ge  Ge2  1  0.40597762  0.85830468  0.38667671  1
  Ge  Ge3  1  0.82537849  0.75089547  0.03782373  1
  Ge  Ge4  1  0.87764780  0.54163183  0.65328670  1
  Ge  Ge5  1  0.17462151  0.75089547  0.53782373  1
  Ge  Ge6  1  0.12235220  0.45836817  0.34671330  1
  Ge  Ge7  1  0.17462151  0.24910453  0.96217627  1
  Ge  Ge8  1  0.59402238  0.14169532  0.61332329  1
  Ge  Ge9  1  0.87764780  0.45836817  0.84671330  1
  Ge  Ge10  1  0.82537849  0.24910453  0.46217627  1
  Ge  Ge11  1  0.12235220  0.54163183  0.15328670  1
  Pb  Pb12  1  0.38617484  0.42758427  0.84418700  1
  Pb  Pb13  1  0.69647776  0.80305186  0.59987485  1
  Pb  Pb14  1  0.30352224  0.19694814  0.40012515  1
  Pb  Pb15  1  0.61382516  0.42758427  0.34418700  1
  Pb  Pb16  1  0.61382516  0.57241573  0.15581300  1
  Pb  Pb17  1  0.95145557  0.12734851  0.17762816  1
  Pb  Pb18  1  0.04854443  0.87265149  0.82237184  1
  Pb  Pb19  1  0.69647776  0.19694814  0.90012515  1
  Pb  Pb20  1  0.38617484  0.57241573  0.65581300  1
  Pb  Pb21  1  0.95145557  0.87265149  0.32237184  1
  Pb  Pb22  1  0.04854443  0.12734851  0.67762816  1
  Pb  Pb23  1  0.30352224  0.80305186  0.09987485  1
  O  O24  1  0.28171654  0.90174398  0.29742958  1
  O  O25  1  0.93592518  0.35416694  0.28798976  1
  O  O26  1  0.28171654  0.09825602  0.20257042  1
  O  O27  1  0.78872607  0.18152806  0.55447150  1
  O  O28  1  0.70042085  0.60640476  0.60782501  1
  O  O29  1  0.70042085  0.39359524  0.89217499  1
  O  O30  1  0.37863142  0.28018245  0.91309079  1
  O  O31  1  0.29957915  0.60640476  0.10782501  1
  O  O32  1  0.58350690  0.25234872  0.16760341  1
  O  O33  1  0.62136858  0.71981755  0.08690921  1
  O  O34  1  0.58350690  0.74765128  0.33239659  1
  O  O35  1  0.96714831  0.86397352  0.14570839  1
  O  O36  1  0.03285169  0.13602648  0.85429161  1
  O  O37  1  0.78872607  0.81847194  0.94552850  1
  O  O38  1  0.96285404  0.39114269  0.54015853  1
  O  O39  1  0.41649310  0.25234872  0.66760341  1
  O  O40  1  0.29957915  0.39359524  0.39217499  1
  O  O41  1  0.37863142  0.71981755  0.58690921  1
  O  O42  1  0.21127393  0.18152806  0.05447150  1
  O  O43  1  0.21127393  0.81847194  0.44552850  1
  O  O44  1  0.76623470  0.50000000  0.75000000  1
  O  O45  1  0.96285404  0.60885731  0.95984147  1
  O  O46  1  0.03285169  0.86397352  0.64570839  1
  O  O47  1  0.93592518  0.64583306  0.21201024  1
  O  O48  1  0.71828346  0.90174398  0.79742958  1
  O  O49  1  0.50000000  0.00000000  0.50000000  1
  O  O50  1  0.23376530  0.50000000  0.25000000  1
  O  O51  1  0.96714831  0.13602648  0.35429161  1
  O  O52  1  0.41649310  0.74765128  0.83239659  1
  O  O53  1  0.06407482  0.35416694  0.78798976  1
  O  O54  1  0.62136858  0.28018245  0.41309079  1
  O  O55  1  0.03714596  0.39114269  0.04015853  1
  O  O56  1  0.03714596  0.60885731  0.45984147  1
  O  O57  1  0.50000000  0.00000000  0.00000000  1
  O  O58  1  0.06407482  0.64583306  0.71201024  1
  O  O59  1  0.71828346  0.09825602  0.70257042  1
