# generated using pymatgen
data_Na9Co2O7
_symmetry_space_group_name_H-M   'P 1'
_cell_length_a   9.60215995
_cell_length_b   9.93510026
_cell_length_c   10.29522029
_cell_angle_alpha   90.00000000
_cell_angle_beta   90.00000000
_cell_angle_gamma   90.00000000
_symmetry_Int_Tables_number   1
_chemical_formula_structural   Na9Co2O7
_chemical_formula_sum   'Na36 Co8 O28'
_cell_volume   982.14776791
_cell_formula_units_Z   4
loop_
 _symmetry_equiv_pos_site_id
 _symmetry_equiv_pos_as_xyz
  1  'x, y, z'
loop_
 _atom_site_type_symbol
 _atom_site_label
 _atom_site_symmetry_multiplicity
 _atom_site_fract_x
 _atom_site_fract_y
 _atom_site_fract_z
 _atom_site_occupancy
  Co  Co0  1  0.15787816  0.39947446  0.97288697  1
  Co  Co1  1  0.84212184  0.60052554  0.47288697  1
  Co  Co2  1  0.34212184  0.39947446  0.47288697  1
  Co  Co3  1  0.65787816  0.60052554  0.97288697  1
  Co  Co4  1  0.19134107  0.93191544  0.80864631  1
  Co  Co5  1  0.80865893  0.06808456  0.30864631  1
  Co  Co6  1  0.30865893  0.93191544  0.30864631  1
  Co  Co7  1  0.69134107  0.06808456  0.80864631  1
  Na  Na8  1  0.09020740  0.51323677  0.59340681  1
  Na  Na9  1  0.90979260  0.48676323  0.09340681  1
  Na  Na10  1  0.40979260  0.51323677  0.09340681  1
  Na  Na11  1  0.59020740  0.48676323  0.59340681  1
  Na  Na12  1  0.27370995  0.28518569  0.72846412  1
  Na  Na13  1  0.72629005  0.71481431  0.22846412  1
  Na  Na14  1  0.22629005  0.28518569  0.22846412  1
  Na  Na15  1  0.77370995  0.71481431  0.72846412  1
  Na  Na16  1  0.06676847  0.66782721  0.86253624  1
  Na  Na17  1  0.93323153  0.33217279  0.36253624  1
  Na  Na18  1  0.43323153  0.66782721  0.36253624  1
  Na  Na19  1  0.56676847  0.33217279  0.86253624  1
  Na  Na20  1  0.01964151  0.15949813  0.88395257  1
  Na  Na21  1  0.98035849  0.84050187  0.38395257  1
  Na  Na22  1  0.48035849  0.15949813  0.38395257  1
  Na  Na23  1  0.51964151  0.84050187  0.88395257  1
  Na  Na24  1  0.15286878  0.55864465  0.29422223  1
  Na  Na25  1  0.84713122  0.44135535  0.79422223  1
  Na  Na26  1  0.34713122  0.55864465  0.79422223  1
  Na  Na27  1  0.65286878  0.44135535  0.29422223  1
  Na  Na28  1  0.21366366  0.77517447  0.55723167  1
  Na  Na29  1  0.78633634  0.22482553  0.05723167  1
  Na  Na30  1  0.28633634  0.77517447  0.05723167  1
  Na  Na31  1  0.71366366  0.22482553  0.55723167  1
  Na  Na32  1  0.98577008  0.25502087  0.62985655  1
  Na  Na33  1  0.01422992  0.74497913  0.12985655  1
  Na  Na34  1  0.51422992  0.25502087  0.12985655  1
  Na  Na35  1  0.48577008  0.74497913  0.62985655  1
  Na  Na36  1  0.16068273  0.10494195  0.48364605  1
  Na  Na37  1  0.83931727  0.89505805  0.98364605  1
  Na  Na38  1  0.33931727  0.10494195  0.98364605  1
  Na  Na39  1  0.66068273  0.89505805  0.48364605  1
  Na  Na40  1  0.07225590  0.04757536  0.15158540  1
  Na  Na41  1  0.92774410  0.95242464  0.65158540  1
  Na  Na42  1  0.42774410  0.04757536  0.65158540  1
  Na  Na43  1  0.57225590  0.95242464  0.15158540  1
  O  O44  1  0.04127253  0.28243970  0.07718168  1
  O  O45  1  0.95872747  0.71756030  0.57718168  1
  O  O46  1  0.45872747  0.28243970  0.57718168  1
  O  O47  1  0.54127253  0.71756030  0.07718168  1
  O  O48  1  0.34099251  0.33462992  0.94809390  1
  O  O49  1  0.65900749  0.66537008  0.44809390  1
  O  O50  1  0.15900749  0.33462992  0.44809390  1
  O  O51  1  0.84099251  0.66537008  0.94809390  1
  O  O52  1  0.30431094  0.78714311  0.79209386  1
  O  O53  1  0.69568906  0.21285689  0.29209386  1
  O  O54  1  0.19568906  0.78714311  0.29209386  1
  O  O55  1  0.80431094  0.21285689  0.79209386  1
  O  O56  1  0.08459511  0.92463156  0.96590048  1
  O  O57  1  0.91540489  0.07536844  0.46590048  1
  O  O58  1  0.41540489  0.92463156  0.46590048  1
  O  O59  1  0.58459511  0.07536844  0.96590048  1
  O  O60  1  0.15692598  0.08089037  0.70839514  1
  O  O61  1  0.84307402  0.91910963  0.20839514  1
  O  O62  1  0.34307402  0.08089037  0.20839514  1
  O  O63  1  0.65692598  0.91910963  0.70839514  1
  O  O64  1  0.16528705  0.56683028  0.05868763  1
  O  O65  1  0.83471295  0.43316972  0.55868763  1
  O  O66  1  0.33471295  0.56683028  0.55868763  1
  O  O67  1  0.66528705  0.43316972  0.05868763  1
  O  O68  1  0.09271608  0.42318768  0.80062239  1
  O  O69  1  0.90728392  0.57681232  0.30062239  1
  O  O70  1  0.40728392  0.42318768  0.30062239  1
  O  O71  1  0.59271608  0.57681232  0.80062239  1
