# generated using pymatgen
data_Th2Ru6C5
_symmetry_space_group_name_H-M   'P 1'
_cell_length_a   4.20164573
_cell_length_b   9.14905917
_cell_length_c   9.14905917
_cell_angle_alpha   90.00000000
_cell_angle_beta   90.00000000
_cell_angle_gamma   90.00000000
_symmetry_Int_Tables_number   1
_chemical_formula_structural   Th2Ru6C5
_chemical_formula_sum   'Th4 Ru12 C10'
_cell_volume   351.69994782
_cell_formula_units_Z   2
loop_
 _symmetry_equiv_pos_site_id
 _symmetry_equiv_pos_as_xyz
  1  'x, y, z'
loop_
 _atom_site_type_symbol
 _atom_site_label
 _atom_site_symmetry_multiplicity
 _atom_site_fract_x
 _atom_site_fract_y
 _atom_site_fract_z
 _atom_site_occupancy
  C  C0  1  0.00000000  0.50000000  0.50000000  1
  C  C1  1  0.00000000  0.00000000  0.00000000  1
  C  C2  1  0.67068842  0.37414325  0.87414325  1
  C  C3  1  0.67068842  0.62585675  0.12585675  1
  C  C4  1  0.32931158  0.37414325  0.87414325  1
  C  C5  1  0.32931158  0.12585675  0.37414325  1
  C  C6  1  0.32931158  0.87414325  0.62585675  1
  C  C7  1  0.32931158  0.62585675  0.12585675  1
  C  C8  1  0.67068842  0.87414325  0.62585675  1
  C  C9  1  0.67068842  0.12585675  0.37414325  1
  Ru  Ru10  1  0.00000000  0.42868085  0.71158424  1
  Ru  Ru11  1  0.00000000  0.28841576  0.42868085  1
  Ru  Ru12  1  0.00000000  0.00000000  0.50000000  1
  Ru  Ru13  1  0.00000000  0.50000000  0.00000000  1
  Ru  Ru14  1  0.50000000  0.00000000  0.00000000  1
  Ru  Ru15  1  0.50000000  0.50000000  0.50000000  1
  Ru  Ru16  1  0.00000000  0.92868085  0.78841576  1
  Ru  Ru17  1  0.00000000  0.21158424  0.92868085  1
  Ru  Ru18  1  0.00000000  0.78841576  0.07131915  1
  Ru  Ru19  1  0.00000000  0.07131915  0.21158424  1
  Ru  Ru20  1  0.00000000  0.71158424  0.57131915  1
  Ru  Ru21  1  0.00000000  0.57131915  0.28841576  1
  Th  Th22  1  0.50000000  0.82638989  0.32638989  1
  Th  Th23  1  0.50000000  0.67361011  0.82638989  1
  Th  Th24  1  0.50000000  0.32638989  0.17361011  1
  Th  Th25  1  0.50000000  0.17361011  0.67361011  1
