# generated using pymatgen
data_V3ZnO8
_symmetry_space_group_name_H-M   'P 1'
_cell_length_a   8.61185487
_cell_length_b   9.81241582
_cell_length_c   9.81241582
_cell_angle_alpha   61.17461616
_cell_angle_beta   63.97110302
_cell_angle_gamma   63.97110305
_symmetry_Int_Tables_number   1
_chemical_formula_structural   V3ZnO8
_chemical_formula_sum   'V12 Zn4 O32'
_cell_volume   624.96964338
_cell_formula_units_Z   4
loop_
 _symmetry_equiv_pos_site_id
 _symmetry_equiv_pos_as_xyz
  1  'x, y, z'
loop_
 _atom_site_type_symbol
 _atom_site_label
 _atom_site_symmetry_multiplicity
 _atom_site_fract_x
 _atom_site_fract_y
 _atom_site_fract_z
 _atom_site_occupancy
  O  O0  1  0.05568418  0.64288830  0.19296933  1
  O  O1  1  0.89154181  0.35711170  0.80703067  1
  O  O2  1  0.55568418  0.19296933  0.64288830  1
  O  O3  1  0.39154181  0.80703067  0.35711170  1
  O  O4  1  0.20009349  0.35213580  0.18149329  1
  O  O5  1  0.73372257  0.64786420  0.81850671  1
  O  O6  1  0.70009349  0.18149329  0.35213580  1
  O  O7  1  0.23372257  0.81850671  0.64786420  1
  O  O8  1  0.84718110  0.39957568  0.37845389  1
  O  O9  1  0.62521068  0.60042432  0.62154611  1
  O  O10  1  0.34718110  0.37845389  0.39957568  1
  O  O11  1  0.12521068  0.62154611  0.60042432  1
  O  O12  1  0.24875258  0.29826617  0.86195760  1
  O  O13  1  0.40897635  0.70173383  0.13804240  1
  O  O14  1  0.74875258  0.86195760  0.29826617  1
  O  O15  1  0.90897635  0.13804240  0.70173383  1
  O  O16  1  0.22088436  0.15117564  0.69680327  1
  O  O17  1  0.06886327  0.84882436  0.30319673  1
  O  O18  1  0.72088436  0.69680327  0.15117564  1
  O  O19  1  0.56886327  0.30319673  0.84882436  1
  O  O20  1  0.54229299  0.92719986  0.61982945  1
  O  O21  1  0.08932231  0.07280014  0.38017055  1
  O  O22  1  0.04229299  0.61982945  0.92719986  1
  O  O23  1  0.58932231  0.38017055  0.07280014  1
  O  O24  1  0.56815348  0.93833421  0.90281668  1
  O  O25  1  0.40930437  0.06166579  0.09718332  1
  O  O26  1  0.06815348  0.90281668  0.93833421  1
  O  O27  1  0.90930437  0.09718332  0.06166579  1
  O  O28  1  0.87795543  0.90931296  0.61594225  1
  O  O29  1  0.40321064  0.09068704  0.38405775  1
  O  O30  1  0.37795543  0.61594225  0.90931296  1
  O  O31  1  0.90321064  0.38405775  0.09068704  1
  V  V32  1  0.77640790  0.25980239  0.14366775  1
  V  V33  1  0.17987805  0.74019761  0.85633225  1
  V  V34  1  0.27640790  0.14366775  0.25980239  1
  V  V35  1  0.67987805  0.85633225  0.74019761  1
  V  V36  1  0.94059120  0.50996769  0.18745889  1
  V  V37  1  0.63801778  0.49003231  0.81254111  1
  V  V38  1  0.44059120  0.18745889  0.50996769  1
  V  V39  1  0.13801778  0.81254111  0.49003231  1
  V  V40  1  0.46252024  0.18896302  0.85472179  1
  V  V41  1  0.50620506  0.81103698  0.14527821  1
  V  V42  1  0.96252024  0.85472179  0.18896302  1
  V  V43  1  0.00620506  0.14527821  0.81103698  1
  Zn  Zn44  1  0.32819215  0.51654366  0.17410220  1
  Zn  Zn45  1  0.01883801  0.48345634  0.82589780  1
  Zn  Zn46  1  0.82819215  0.17410220  0.51654366  1
  Zn  Zn47  1  0.51883801  0.82589780  0.48345634  1
