# generated using pymatgen
data_Ho2Hf2O7
_symmetry_space_group_name_H-M   'P 1'
_cell_length_a   7.40909069
_cell_length_b   7.40909059
_cell_length_c   7.40908992
_cell_angle_alpha   59.99999855
_cell_angle_beta   59.99999897
_cell_angle_gamma   59.99999634
_symmetry_Int_Tables_number   1
_chemical_formula_structural   Ho2Hf2O7
_chemical_formula_sum   'Ho4 Hf4 O14'
_cell_volume   287.59389554
_cell_formula_units_Z   2
loop_
 _symmetry_equiv_pos_site_id
 _symmetry_equiv_pos_as_xyz
  1  'x, y, z'
loop_
 _atom_site_type_symbol
 _atom_site_label
 _atom_site_symmetry_multiplicity
 _atom_site_fract_x
 _atom_site_fract_y
 _atom_site_fract_z
 _atom_site_occupancy
  Ho  Ho0  1  0.50000000  0.00000000  0.50000000  1
  Ho  Ho1  1  0.50000000  0.50000000  0.50000000  1
  Ho  Ho2  1  0.50000000  0.50000000  0.00000000  1
  Ho  Ho3  1  0.00000000  0.50000000  0.50000000  1
  Hf  Hf4  1  0.00000000  0.00000000  0.00000000  1
  Hf  Hf5  1  0.00000000  0.00000000  0.50000000  1
  Hf  Hf6  1  0.00000000  0.50000000  0.00000000  1
  Hf  Hf7  1  0.50000000  0.00000000  0.00000000  1
  O  O8  1  0.33878373  0.91121627  0.91121627  1
  O  O9  1  0.91121627  0.33878373  0.91121627  1
  O  O10  1  0.08878373  0.66121627  0.66121627  1
  O  O11  1  0.33878373  0.33878373  0.91121627  1
  O  O12  1  0.66121627  0.08878373  0.08878373  1
  O  O13  1  0.91121627  0.91121627  0.33878373  1
  O  O14  1  0.08878373  0.66121627  0.08878373  1
  O  O15  1  0.66121627  0.66121627  0.08878373  1
  O  O16  1  0.62500000  0.62500000  0.62500000  1
  O  O17  1  0.08878373  0.08878373  0.66121627  1
  O  O18  1  0.33878373  0.91121627  0.33878373  1
  O  O19  1  0.66121627  0.08878373  0.66121627  1
  O  O20  1  0.37500000  0.37500000  0.37500000  1
  O  O21  1  0.91121627  0.33878373  0.33878373  1
