# generated using pymatgen
data_Mg2Ti9O13
_symmetry_space_group_name_H-M   'P 1'
_cell_length_a   2.95076423
_cell_length_b   5.15235837
_cell_length_c   16.56438502
_cell_angle_alpha   98.94544510
_cell_angle_beta   89.96878280
_cell_angle_gamma   106.70029279
_symmetry_Int_Tables_number   1
_chemical_formula_structural   Mg2Ti9O13
_chemical_formula_sum   'Mg2 Ti9 O13'
_cell_volume   238.01942614
_cell_formula_units_Z   1
loop_
 _symmetry_equiv_pos_site_id
 _symmetry_equiv_pos_as_xyz
  1  'x, y, z'
loop_
 _atom_site_type_symbol
 _atom_site_label
 _atom_site_symmetry_multiplicity
 _atom_site_fract_x
 _atom_site_fract_y
 _atom_site_fract_z
 _atom_site_occupancy
  Mg  Mg0  1  0.21649554  0.43422811  0.22679412  1
  Mg  Mg1  1  0.78350446  0.56577189  0.77320588  1
  Ti  Ti2  1  0.50000000  -0.00000000  0.50000000  1
  Ti  Ti3  1  0.65597572  0.31127477  0.03616217  1
  Ti  Ti4  1  0.34402428  0.68872523  0.96383783  1
  Ti  Ti5  1  0.76405157  0.52900976  0.42512686  1
  Ti  Ti6  1  0.23594843  0.47099024  0.57487314  1
  Ti  Ti7  1  0.93417901  0.86749198  0.11727627  1
  Ti  Ti8  1  0.06582099  0.13250802  0.88272373  1
  Ti  Ti9  1  0.99289563  0.98300685  0.33545354  1
  Ti  Ti10  1  0.00710437  0.01699315  0.66454646  1
  O  O11  1  -0.00000000  -0.00000000  0.00000000  1
  O  O12  1  0.87193010  0.74316948  0.22968572  1
  O  O13  1  0.12806990  0.25683052  0.77031428  1
  O  O14  1  0.28733398  0.57334925  0.08819172  1
  O  O15  1  0.71266602  0.42665075  0.91180828  1
  O  O16  1  0.58494728  0.16744659  0.14827707  1
  O  O17  1  0.41505272  0.83255341  0.85172293  1
  O  O18  1  0.63086434  0.25896388  0.31136665  1
  O  O19  1  0.36913566  0.74103612  0.68863335  1
  O  O20  1  0.37407690  0.74690853  0.37674187  1
  O  O21  1  0.62592310  0.25309147  0.62325813  1
  O  O22  1  0.12297338  0.24676173  0.45055742  1
  O  O23  1  0.87702662  0.75323827  0.54944258  1
