# generated using pymatgen
data_Tl2Mo9S11
_symmetry_space_group_name_H-M   'P 1'
_cell_length_a   13.05151889
_cell_length_b   13.05151862
_cell_length_c   13.05151863
_cell_angle_alpha   42.25283207
_cell_angle_beta   42.25283336
_cell_angle_gamma   42.25283398
_symmetry_Int_Tables_number   1
_chemical_formula_structural   Tl2Mo9S11
_chemical_formula_sum   'Tl4 Mo18 S22'
_cell_volume   909.71590370
_cell_formula_units_Z   2
loop_
 _symmetry_equiv_pos_site_id
 _symmetry_equiv_pos_as_xyz
  1  'x, y, z'
loop_
 _atom_site_type_symbol
 _atom_site_label
 _atom_site_symmetry_multiplicity
 _atom_site_fract_x
 _atom_site_fract_y
 _atom_site_fract_z
 _atom_site_occupancy
  Tl  Tl0  1  0.66780850  0.66780850  0.66780850  1
  Tl  Tl1  1  0.22987751  0.22987751  0.22987751  1
  Tl  Tl2  1  0.77012249  0.77012249  0.77012249  1
  Tl  Tl3  1  0.33219150  0.33219150  0.33219150  1
  Mo  Mo4  1  0.30588735  0.64224577  0.45326737  1
  Mo  Mo5  1  0.07621941  0.88905167  0.74748958  1
  Mo  Mo6  1  0.79835736  0.98001765  0.12960695  1
  Mo  Mo7  1  0.25251042  0.92378059  0.11094833  1
  Mo  Mo8  1  0.54673263  0.69411265  0.35775423  1
  Mo  Mo9  1  0.20164264  0.01998235  0.87039305  1
  Mo  Mo10  1  0.98001765  0.12960695  0.79835736  1
  Mo  Mo11  1  0.12960695  0.79835736  0.98001765  1
  Mo  Mo12  1  0.11094833  0.25251042  0.92378059  1
  Mo  Mo13  1  0.01998235  0.87039305  0.20164264  1
  Mo  Mo14  1  0.88905167  0.74748958  0.07621941  1
  Mo  Mo15  1  0.87039305  0.20164264  0.01998235  1
  Mo  Mo16  1  0.45326737  0.30588735  0.64224577  1
  Mo  Mo17  1  0.64224577  0.45326737  0.30588735  1
  Mo  Mo18  1  0.35775423  0.54673263  0.69411265  1
  Mo  Mo19  1  0.92378059  0.11094833  0.25251042  1
  Mo  Mo20  1  0.74748958  0.07621941  0.88905167  1
  Mo  Mo21  1  0.69411265  0.35775423  0.54673263  1
  S  S22  1  0.41563732  0.41563732  0.41563732  1
  S  S23  1  0.93686397  0.19920861  0.59728153  1
  S  S24  1  0.80079139  0.40271847  0.06313603  1
  S  S25  1  0.32738655  0.71823811  0.05108444  1
  S  S26  1  0.50275065  0.75782486  0.15964276  1
  S  S27  1  0.59728153  0.93686397  0.19920861  1
  S  S28  1  0.28176189  0.94891556  0.67261345  1
  S  S29  1  0.58436268  0.58436268  0.58436268  1
  S  S30  1  0.14724589  0.14724589  0.14724589  1
  S  S31  1  0.15964276  0.50275065  0.75782486  1
  S  S32  1  0.19920861  0.59728153  0.93686397  1
  S  S33  1  0.05108444  0.32738655  0.71823811  1
  S  S34  1  0.06313603  0.80079139  0.40271847  1
  S  S35  1  0.85275411  0.85275411  0.85275411  1
  S  S36  1  0.84035724  0.49724935  0.24217514  1
  S  S37  1  0.49724935  0.24217514  0.84035724  1
  S  S38  1  0.75782486  0.15964276  0.50275065  1
  S  S39  1  0.71823811  0.05108444  0.32738655  1
  S  S40  1  0.67261345  0.28176189  0.94891556  1
  S  S41  1  0.94891556  0.67261345  0.28176189  1
  S  S42  1  0.40271847  0.06313603  0.80079139  1
  S  S43  1  0.24217514  0.84035724  0.49724935  1
