# generated using pymatgen
data_AlPO4
_symmetry_space_group_name_H-M   'P 1'
_cell_length_a   13.38321466
_cell_length_b   13.38321434
_cell_length_c   14.23274171
_cell_angle_alpha   82.59023125
_cell_angle_beta   82.59023141
_cell_angle_gamma   62.55849288
_symmetry_Int_Tables_number   1
_chemical_formula_structural   AlPO4
_chemical_formula_sum   'Al16 P16 O64'
_cell_volume   2236.49134578
_cell_formula_units_Z   16
loop_
 _symmetry_equiv_pos_site_id
 _symmetry_equiv_pos_as_xyz
  1  'x, y, z'
loop_
 _atom_site_type_symbol
 _atom_site_label
 _atom_site_symmetry_multiplicity
 _atom_site_fract_x
 _atom_site_fract_y
 _atom_site_fract_z
 _atom_site_occupancy
  Al  Al0  1  0.85512716  0.62690821  0.56222520  1
  Al  Al1  1  0.63080891  0.03659678  0.40389315  1
  Al  Al2  1  0.72856687  0.94739259  0.69650492  1
  Al  Al3  1  0.27143313  0.05260741  0.30349508  1
  Al  Al4  1  0.05260741  0.27143313  0.80349508  1
  Al  Al5  1  0.96340322  0.36919109  0.09610685  1
  Al  Al6  1  0.81808163  0.04240653  0.00882584  1
  Al  Al7  1  0.36919109  0.96340322  0.59610685  1
  Al  Al8  1  0.95759347  0.18191837  0.49117416  1
  Al  Al9  1  0.03659678  0.63080891  0.90389315  1
  Al  Al10  1  0.37309179  0.14487284  0.93777480  1
  Al  Al11  1  0.94739259  0.72856687  0.19650492  1
  Al  Al12  1  0.18191837  0.95759347  0.99117416  1
  Al  Al13  1  0.04240653  0.81808163  0.50882584  1
  Al  Al14  1  0.14487284  0.37309179  0.43777480  1
  Al  Al15  1  0.62690821  0.85512716  0.06222520  1
  P  P16  1  0.18574435  0.95158902  0.48961215  1
  P  P17  1  0.37005931  0.15059422  0.43977093  1
  P  P18  1  0.36754512  0.96365764  0.10021999  1
  P  P19  1  0.84940578  0.62994069  0.06022907  1
  P  P20  1  0.95397724  0.72419179  0.69858431  1
  P  P21  1  0.15059422  0.37005931  0.93977093  1
  P  P22  1  0.04602276  0.27580821  0.30141569  1
  P  P23  1  0.95158902  0.18574435  0.98961215  1
  P  P24  1  0.63245488  0.03634236  0.89978001  1
  P  P25  1  0.72419179  0.95397724  0.19858431  1
  P  P26  1  0.96365764  0.36754512  0.60021999  1
  P  P27  1  0.62994069  0.84940578  0.56022907  1
  P  P28  1  0.03634236  0.63245488  0.39978001  1
  P  P29  1  0.81425565  0.04841098  0.51038785  1
  P  P30  1  0.27580821  0.04602276  0.80141569  1
  P  P31  1  0.04841098  0.81425565  0.01038785  1
  O  O32  1  0.17287189  0.15195548  0.76429963  1
  O  O33  1  0.49101870  0.13735172  0.42968410  1
  O  O34  1  0.08098252  0.35209483  0.34700311  1
  O  O35  1  0.08391848  0.06243992  0.51940763  1
  O  O36  1  0.93756008  0.91608152  0.98059237  1
  O  O37  1  0.34674248  0.09501438  0.53643081  1
  O  O38  1  0.91608152  0.93756008  0.48059237  1
  O  O39  1  0.64790517  0.91901748  0.15299689  1
  O  O40  1  0.09501438  0.34674248  0.03643081  1
  O  O41  1  0.28372641  0.92699939  0.07053320  1
  O  O42  1  0.87157906  0.48845746  0.57698081  1
  O  O43  1  0.27924652  0.91831673  0.55652612  1
  O  O44  1  0.28839706  0.27747590  0.43509527  1
  O  O45  1  0.08168327  0.72075348  0.94347388  1
  O  O46  1  0.91831673  0.27924652  0.05652612  1
  O  O47  1  0.92176173  0.64954092  0.45242386  1
  O  O48  1  0.15231167  0.85540446  0.49792145  1
  O  O49  1  0.23610987  0.97361995  0.87435643  1
  O  O50  1  0.35045908  0.07823827  0.04757614  1
  O  O51  1  0.48845746  0.87157906  0.07698081  1
  O  O52  1  0.64954092  0.92176173  0.95242386  1
  O  O53  1  0.97549259  0.34394702  0.21838168  1
  O  O54  1  0.72075348  0.08168327  0.44347388  1
  O  O55  1  0.12842094  0.51154254  0.42301919  1
  O  O56  1  0.76389013  0.02638005  0.12564357  1
  O  O57  1  0.97540307  0.34904982  0.70758799  1
  O  O58  1  0.09433451  0.35498818  0.85813580  1
  O  O59  1  0.96755099  0.22874452  0.88577692  1
  O  O60  1  0.14459554  0.84768833  0.00207855  1
  O  O61  1  0.90498562  0.65325752  0.96356919  1
  O  O62  1  0.15195548  0.17287189  0.26429963  1
  O  O63  1  0.97361995  0.23610987  0.37435643  1
  O  O64  1  0.72252410  0.71160294  0.06490473  1
  O  O65  1  0.82712811  0.84804452  0.23570037  1
  O  O66  1  0.64501182  0.90566549  0.64186420  1
  O  O67  1  0.86264828  0.50898130  0.07031590  1
  O  O68  1  0.91901748  0.64790517  0.65299689  1
  O  O69  1  0.02638005  0.76389013  0.62564357  1
  O  O70  1  0.22874452  0.96755099  0.38577692  1
  O  O71  1  0.02450741  0.65605298  0.78161832  1
  O  O72  1  0.50898130  0.86264828  0.57031590  1
  O  O73  1  0.35498818  0.09433451  0.35813580  1
  O  O74  1  0.84804452  0.82712811  0.73570037  1
  O  O75  1  0.65325752  0.90498562  0.46356919  1
  O  O76  1  0.03244901  0.77125548  0.11422308  1
  O  O77  1  0.27747590  0.28839706  0.93509527  1
  O  O78  1  0.85540446  0.15231167  0.99792145  1
  O  O79  1  0.90566549  0.64501182  0.14186420  1
  O  O80  1  0.34904982  0.97540307  0.20758799  1
  O  O81  1  0.07300061  0.71627359  0.42946680  1
  O  O82  1  0.34394702  0.97549259  0.71838168  1
  O  O83  1  0.35209483  0.08098252  0.84700311  1
  O  O84  1  0.13735172  0.49101870  0.92968410  1
  O  O85  1  0.51154254  0.12842094  0.92301919  1
  O  O86  1  0.71627359  0.07300061  0.92946680  1
  O  O87  1  0.77125548  0.03244901  0.61422308  1
  O  O88  1  0.02459693  0.65095018  0.29241201  1
  O  O89  1  0.06243992  0.08391848  0.01940763  1
  O  O90  1  0.71160294  0.72252410  0.56490473  1
  O  O91  1  0.92699939  0.28372641  0.57053320  1
  O  O92  1  0.07823827  0.35045908  0.54757614  1
  O  O93  1  0.84768833  0.14459554  0.50207855  1
  O  O94  1  0.65605298  0.02450741  0.28161832  1
  O  O95  1  0.65095018  0.02459693  0.79241201  1
