# generated using pymatgen
data_Ba2CuF6
_symmetry_space_group_name_H-M   'P 1'
_cell_length_a   4.22296024
_cell_length_b   4.22296071
_cell_length_c   8.49915676
_cell_angle_alpha   104.47673563
_cell_angle_beta   104.47675739
_cell_angle_gamma   89.72060530
_symmetry_Int_Tables_number   1
_chemical_formula_structural   Ba2CuF6
_chemical_formula_sum   'Ba2 Cu1 F6'
_cell_volume   141.82814147
_cell_formula_units_Z   1
loop_
 _symmetry_equiv_pos_site_id
 _symmetry_equiv_pos_as_xyz
  1  'x, y, z'
loop_
 _atom_site_type_symbol
 _atom_site_label
 _atom_site_symmetry_multiplicity
 _atom_site_fract_x
 _atom_site_fract_y
 _atom_site_fract_z
 _atom_site_occupancy
  Ba  Ba0  1  0.14936942  0.14936867  0.29887070  1
  Ba  Ba1  1  0.85063058  0.85063133  0.70112930  1
  Cu  Cu2  1  0.50000000  0.50000000  0.00000000  1
  F  F3  1  0.38026901  0.38026903  0.76067976  1
  F  F4  1  0.50000000  0.00000000  0.00000000  1
  F  F5  1  0.00000000  0.50000000  0.00000000  1
  F  F6  1  0.61973099  0.61973097  0.23932024  1
  F  F7  1  0.74999654  0.25000390  0.50000003  1
  F  F8  1  0.25000346  0.74999610  0.49999997  1
