# generated using pymatgen
data_Te6Mo(OF5)6
_symmetry_space_group_name_H-M   'P 1'
_cell_length_a   9.35011287
_cell_length_b   9.35427794
_cell_length_c   9.46727832
_cell_angle_alpha   68.34593465
_cell_angle_beta   63.73469306
_cell_angle_gamma   82.80518071
_symmetry_Int_Tables_number   1
_chemical_formula_structural   Te6Mo(OF5)6
_chemical_formula_sum   'Te6 Mo1 O6 F30'
_cell_volume   689.42795902
_cell_formula_units_Z   1
loop_
 _symmetry_equiv_pos_site_id
 _symmetry_equiv_pos_as_xyz
  1  'x, y, z'
loop_
 _atom_site_type_symbol
 _atom_site_label
 _atom_site_symmetry_multiplicity
 _atom_site_fract_x
 _atom_site_fract_y
 _atom_site_fract_z
 _atom_site_occupancy
  Te  Te0  1  0.31462119  0.74979941  0.08129477  1
  Te  Te1  1  0.68537881  0.25020059  0.91870523  1
  Te  Te2  1  0.32515742  0.24087037  0.60650115  1
  Te  Te3  1  0.67484258  0.75912963  0.39349885  1
  Te  Te4  1  0.99887669  0.76922752  0.75669418  1
  Te  Te5  1  0.00112331  0.23077248  0.24330582  1
  Mo  Mo6  1  0.00000000  0.00000000  0.00000000  1
  F  F7  1  0.50313663  0.87158669  0.94191299  1
  F  F8  1  0.49686337  0.12841331  0.05808701  1
  F  F9  1  0.43317165  0.57925802  0.13364823  1
  F  F10  1  0.56682835  0.42074198  0.86635177  1
  F  F11  1  0.33059485  0.70336887  0.89904493  1
  F  F12  1  0.66940515  0.29663113  0.10095507  1
  F  F13  1  0.12853391  0.62345728  0.22258797  1
  F  F14  1  0.87146609  0.37654272  0.77741203  1
  F  F15  1  0.30379042  0.79419754  0.26240001  1
  F  F16  1  0.69620958  0.20580246  0.73759999  1
  F  F17  1  0.43888841  0.06322550  0.64938765  1
  F  F18  1  0.56111159  0.93677450  0.35061235  1
  F  F19  1  0.21566446  0.42015261  0.55876293  1
  F  F20  1  0.78433554  0.57984739  0.44123707  1
  F  F21  1  0.31043820  0.19682745  0.43643676  1
  F  F22  1  0.68956180  0.80317255  0.56356324  1
  F  F23  1  0.34467202  0.28895650  0.77252247  1
  F  F24  1  0.65532798  0.71104350  0.22747753  1
  F  F25  1  0.51749929  0.35148195  0.44924837  1
  F  F26  1  0.48250071  0.64851805  0.55075163  1
  F  F27  1  0.19752408  0.87269283  0.60868182  1
  F  F28  1  0.80247592  0.12730717  0.39131818  1
  F  F29  1  0.10134051  0.59086858  0.82580332  1
  F  F30  1  0.89865949  0.40913142  0.17419668  1
  F  F31  1  0.89487570  0.94603249  0.68426552  1
  F  F32  1  0.10512430  0.05396751  0.31573448  1
  F  F33  1  0.80168612  0.66292768  0.90141129  1
  F  F34  1  0.19831388  0.33707232  0.09858871  1
  F  F35  1  0.00409292  0.70993562  0.58676416  1
  F  F36  1  0.99590708  0.29006438  0.41323584  1
  O  O37  1  0.19069336  0.92427696  0.02953872  1
  O  O38  1  0.80930664  0.07572304  0.97046128  1
  O  O39  1  0.12748298  0.12698860  0.76923448  1
  O  O40  1  0.87251702  0.87301140  0.23076552  1
  O  O41  1  0.99306111  0.83162724  0.93074411  1
  O  O42  1  0.00693889  0.16837276  0.06925589  1
