# generated using pymatgen
data_BaAlF5
_symmetry_space_group_name_H-M   'P 1'
_cell_length_a   5.33685417
_cell_length_b   7.48836959
_cell_length_c   9.91538050
_cell_angle_alpha   90.00000000
_cell_angle_beta   90.00000000
_cell_angle_gamma   90.92369292
_symmetry_Int_Tables_number   1
_chemical_formula_structural   BaAlF5
_chemical_formula_sum   'Ba4 Al4 F20'
_cell_volume   396.21010926
_cell_formula_units_Z   4
loop_
 _symmetry_equiv_pos_site_id
 _symmetry_equiv_pos_as_xyz
  1  'x, y, z'
loop_
 _atom_site_type_symbol
 _atom_site_label
 _atom_site_symmetry_multiplicity
 _atom_site_fract_x
 _atom_site_fract_y
 _atom_site_fract_z
 _atom_site_occupancy
  Ba  Ba0  1  0.51237127  0.36145241  0.65069620  1
  Ba  Ba1  1  0.48762873  0.63854759  0.15069620  1
  Ba  Ba2  1  0.98917397  0.11247486  0.99822923  1
  Ba  Ba3  1  0.01082603  0.88752514  0.49822923  1
  Al  Al4  1  0.48016324  0.12991389  0.26575985  1
  Al  Al5  1  0.51983676  0.87008611  0.76575985  1
  Al  Al6  1  0.98656461  0.42454380  0.36963324  1
  Al  Al7  1  0.01343539  0.57545620  0.86963324  1
  F  F8  1  0.23046408  0.44318831  0.96514821  1
  F  F9  1  0.24752614  0.53309769  0.45194801  1
  F  F10  1  0.75247386  0.46690231  0.95194801  1
  F  F11  1  0.72967406  0.96914754  0.26447615  1
  F  F12  1  0.96016143  0.24288985  0.48568451  1
  F  F13  1  0.49344199  0.15772290  0.08668710  1
  F  F14  1  0.79165117  0.70301700  0.75727156  1
  F  F15  1  0.71264645  0.32291206  0.27112252  1
  F  F16  1  0.03983857  0.75711015  0.98568451  1
  F  F17  1  0.99043940  0.59657812  0.24184186  1
  F  F18  1  0.50655801  0.84227710  0.58668710  1
  F  F19  1  0.76953592  0.55681169  0.46514821  1
  F  F20  1  0.55043375  0.86260732  0.94383390  1
  F  F21  1  0.74696108  0.05172872  0.75006767  1
  F  F22  1  0.00956060  0.40342188  0.74184186  1
  F  F23  1  0.20834883  0.29698300  0.25727156  1
  F  F24  1  0.27032594  0.03085246  0.76447615  1
  F  F25  1  0.25303892  0.94827128  0.25006767  1
  F  F26  1  0.28735355  0.67708794  0.77112252  1
  F  F27  1  0.44956625  0.13739268  0.44383390  1
