# generated using pymatgen
data_ZnS
_symmetry_space_group_name_H-M   'P 1'
_cell_length_a   3.84877460
_cell_length_b   3.84877456
_cell_length_c   81.84599706
_cell_angle_alpha   90.00000000
_cell_angle_beta   90.00000000
_cell_angle_gamma   120.00000035
_symmetry_Int_Tables_number   1
_chemical_formula_structural   ZnS
_chemical_formula_sum   'Zn26 S26'
_cell_volume   1049.96065427
_cell_formula_units_Z   26
loop_
 _symmetry_equiv_pos_site_id
 _symmetry_equiv_pos_as_xyz
  1  'x, y, z'
loop_
 _atom_site_type_symbol
 _atom_site_label
 _atom_site_symmetry_multiplicity
 _atom_site_fract_x
 _atom_site_fract_y
 _atom_site_fract_z
 _atom_site_occupancy
  Zn  Zn0  1  0.66666700  0.33333300  0.69229185  1
  Zn  Zn1  1  0.00000000  0.00000000  0.11537433  1
  Zn  Zn2  1  0.00000000  0.00000000  0.30770040  1
  Zn  Zn3  1  0.00000000  0.00000000  0.92304649  1
  Zn  Zn4  1  0.66666700  0.33333300  0.96152215  1
  Zn  Zn5  1  0.33333300  0.66666700  0.88460360  1
  Zn  Zn6  1  0.33333300  0.66666700  0.38460066  1
  Zn  Zn7  1  0.33333300  0.66666700  0.26921686  1
  Zn  Zn8  1  0.66666700  0.33333300  0.46152216  1
  Zn  Zn9  1  0.00000000  0.00000000  0.80775563  1
  Zn  Zn10  1  0.00000000  0.00000000  0.73093811  1
  Zn  Zn11  1  0.66666700  0.33333300  0.07691180  1
  Zn  Zn12  1  0.66666700  0.33333300  0.34614717  1
  Zn  Zn13  1  0.66666700  0.33333300  0.84615254  1
  Zn  Zn14  1  0.00000000  0.00000000  0.65381326  1
  Zn  Zn15  1  0.00000000  0.00000000  0.00001482  1
  Zn  Zn16  1  0.33333300  0.66666700  0.61539238  1
  Zn  Zn17  1  0.33333300  0.66666700  0.15383177  1
  Zn  Zn18  1  0.33333300  0.66666700  0.03845539  1
  Zn  Zn19  1  0.66666700  0.33333300  0.57690801  1
  Zn  Zn20  1  0.33333300  0.66666700  0.53843456  1
  Zn  Zn21  1  0.00000000  0.00000000  0.23073854  1
  Zn  Zn22  1  0.00000000  0.00000000  0.50001238  1
  Zn  Zn23  1  0.66666700  0.33333300  0.19229187  1
  Zn  Zn24  1  0.00000000  0.00000000  0.42304649  1
  Zn  Zn25  1  0.66666700  0.33333300  0.76975053  1
  S  S26  1  0.00000000  0.00000000  0.02887389  1
  S  S27  1  0.00000000  0.00000000  0.75999479  1
  S  S28  1  0.00000000  0.00000000  0.45189843  1
  S  S29  1  0.33333300  0.66666700  0.64424158  1
  S  S30  1  0.33333300  0.66666700  0.79689687  1
  S  S31  1  0.66666700  0.33333300  0.22115636  1
  S  S32  1  0.66666700  0.33333300  0.72121930  1
  S  S33  1  0.33333300  0.66666700  0.06731908  1
  S  S34  1  0.66666700  0.33333300  0.10578210  1
  S  S35  1  0.66666700  0.33333300  0.37501467  1
  S  S36  1  0.00000000  0.00000000  0.68266806  1
  S  S37  1  0.66666700  0.33333300  0.99042841  1
  S  S38  1  0.33333300  0.66666700  0.29811396  1
  S  S39  1  0.00000000  0.00000000  0.14424317  1
  S  S40  1  0.33333300  0.66666700  0.18269997  1
  S  S41  1  0.66666700  0.33333300  0.87502560  1
  S  S42  1  0.00000000  0.00000000  0.33655678  1
  S  S43  1  0.00000000  0.00000000  0.83658857  1
  S  S44  1  0.33333300  0.66666700  0.41346411  1
  S  S45  1  0.00000000  0.00000000  0.52886642  1
  S  S46  1  0.00000000  0.00000000  0.95189853  1
  S  S47  1  0.33333300  0.66666700  0.56728057  1
  S  S48  1  0.33333300  0.66666700  0.91346553  1
  S  S49  1  0.66666700  0.33333300  0.49042751  1
  S  S50  1  0.00000000  0.00000000  0.25959128  1
  S  S51  1  0.66666700  0.33333300  0.60581066  1
