# generated using pymatgen
data_PH7CN3O3F
_symmetry_space_group_name_H-M   'P 1'
_cell_length_a   6.86978626
_cell_length_b   9.44141503
_cell_length_c   10.26474556
_cell_angle_alpha   90.00000000
_cell_angle_beta   90.00000000
_cell_angle_gamma   104.56724878
_symmetry_Int_Tables_number   1
_chemical_formula_structural   PH7CN3O3F
_chemical_formula_sum   'P4 H28 C4 N12 O12 F4'
_cell_volume   644.37390960
_cell_formula_units_Z   4
loop_
 _symmetry_equiv_pos_site_id
 _symmetry_equiv_pos_as_xyz
  1  'x, y, z'
loop_
 _atom_site_type_symbol
 _atom_site_label
 _atom_site_symmetry_multiplicity
 _atom_site_fract_x
 _atom_site_fract_y
 _atom_site_fract_z
 _atom_site_occupancy
  P  P0  1  0.84512150  0.12491665  0.60874580  1
  P  P1  1  0.84512150  0.62491665  0.89125420  1
  P  P2  1  0.15487850  0.37508335  0.10874580  1
  P  P3  1  0.15487850  0.87508335  0.39125420  1
  H  H4  1  0.75324010  0.64642386  0.28323762  1
  H  H5  1  0.75324010  0.14642386  0.21676238  1
  H  H6  1  0.53867889  0.74163764  0.06118962  1
  H  H7  1  0.24452320  0.58237815  0.44282690  1
  H  H8  1  0.75547680  0.41762185  0.55717310  1
  H  H9  1  0.83130759  0.90835810  0.51244675  1
  H  H10  1  0.24675990  0.85357614  0.78323762  1
  H  H11  1  0.46132111  0.75836236  0.56118962  1
  H  H12  1  0.53867889  0.24163764  0.43881038  1
  H  H13  1  0.84289066  0.59817610  0.49331834  1
  H  H14  1  0.24452320  0.08237815  0.05717310  1
  H  H15  1  0.84289066  0.09817610  0.00668166  1
  H  H16  1  0.15710934  0.40182390  0.50668166  1
  H  H17  1  0.39259037  0.99427792  0.68772785  1
  H  H18  1  0.15710934  0.90182390  0.99331834  1
  H  H19  1  0.24675990  0.35357614  0.71676238  1
  H  H20  1  0.46132111  0.25836236  0.93881038  1
  H  H21  1  0.39259037  0.49427792  0.81227215  1
  H  H22  1  0.16869241  0.59164190  0.01244675  1
  H  H23  1  0.60740963  0.00572208  0.31227215  1
  H  H24  1  0.45828537  0.28232602  0.28305753  1
  H  H25  1  0.83130759  0.40835810  0.98755325  1
  H  H26  1  0.54171463  0.21767398  0.78305753  1
  H  H27  1  0.75547680  0.91762185  0.94282690  1
  H  H28  1  0.16869241  0.09164190  0.48755325  1
  H  H29  1  0.54171463  0.71767398  0.71694247  1
  H  H30  1  0.45828537  0.78232602  0.21694247  1
  H  H31  1  0.60740963  0.50572208  0.18772785  1
  C  C32  1  0.33714409  0.55249402  0.62633053  1
  C  C33  1  0.66285591  0.44750598  0.37366947  1
  C  C34  1  0.66285591  0.94750598  0.12633053  1
  C  C35  1  0.33714409  0.05249402  0.87366947  1
  N  N36  1  0.44197392  0.69203767  0.64086794  1
  N  N37  1  0.75880798  0.99249039  0.01532054  1
  N  N38  1  0.32945008  0.45842421  0.72514619  1
  N  N39  1  0.75880798  0.49249039  0.48467946  1
  N  N40  1  0.55802608  0.80796233  0.14086794  1
  N  N41  1  0.32945008  0.95842421  0.77485381  1
  N  N42  1  0.67054992  0.54157579  0.27485381  1
  N  N43  1  0.24119202  0.00750961  0.98467946  1
  N  N44  1  0.67054992  0.04157579  0.22514619  1
  N  N45  1  0.55802608  0.30796233  0.35913206  1
  N  N46  1  0.44197392  0.19203767  0.85913206  1
  N  N47  1  0.24119202  0.50750961  0.51532054  1
  O  O48  1  0.69419404  0.21462672  0.62390597  1
  O  O49  1  0.30580596  0.28537328  0.12390597  1
  O  O50  1  0.30580596  0.78537328  0.37609403  1
  O  O51  1  0.26059403  0.52797436  0.04612620  1
  O  O52  1  0.95337973  0.30650034  0.04557304  1
  O  O53  1  0.04662027  0.69349966  0.95442696  1
  O  O54  1  0.04662027  0.19349966  0.54557304  1
  O  O55  1  0.26059403  0.02797436  0.45387380  1
  O  O56  1  0.69419404  0.71462672  0.87609403  1
  O  O57  1  0.73940597  0.97202564  0.54612620  1
  O  O58  1  0.73940597  0.47202564  0.95387380  1
  O  O59  1  0.95337973  0.80650034  0.45442696  1
  F  F60  1  0.89872188  0.08087810  0.75294603  1
  F  F61  1  0.10127812  0.41912190  0.25294603  1
  F  F62  1  0.89872188  0.58087810  0.74705397  1
  F  F63  1  0.10127812  0.91912190  0.24705397  1
