# generated using pymatgen
data_BaNa2(SiO3)2
_symmetry_space_group_name_H-M   'P 1'
_cell_length_a   4.82901985
_cell_length_b   5.77667150
_cell_length_c   11.55995684
_cell_angle_alpha   91.44139429
_cell_angle_beta   90.00000000
_cell_angle_gamma   90.00000000
_symmetry_Int_Tables_number   1
_chemical_formula_structural   BaNa2(SiO3)2
_chemical_formula_sum   'Ba2 Na4 Si4 O12'
_cell_volume   322.37060374
_cell_formula_units_Z   2
loop_
 _symmetry_equiv_pos_site_id
 _symmetry_equiv_pos_as_xyz
  1  'x, y, z'
loop_
 _atom_site_type_symbol
 _atom_site_label
 _atom_site_symmetry_multiplicity
 _atom_site_fract_x
 _atom_site_fract_y
 _atom_site_fract_z
 _atom_site_occupancy
  Ba  Ba0  1  0.74492639  0.74739671  0.90310506  1
  Ba  Ba1  1  0.24492639  0.25260329  0.09689494  1
  Na  Na2  1  0.75716766  0.81468812  0.51235609  1
  Na  Na3  1  0.75428285  0.29231733  0.32325547  1
  Na  Na4  1  0.25716766  0.18531188  0.48764391  1
  Na  Na5  1  0.25428285  0.70768267  0.67674453  1
  Si  Si6  1  0.80213524  0.77610418  0.19330574  1
  Si  Si7  1  0.29591855  0.67728389  0.34556570  1
  Si  Si8  1  0.30213524  0.22389582  0.80669426  1
  Si  Si9  1  0.79591855  0.32271611  0.65443430  1
  O  O10  1  0.75546559  0.59968507  0.67740690  1
  O  O11  1  0.12806041  0.24964380  0.68188417  1
  O  O12  1  0.73454478  0.22296589  0.52521095  1
  O  O13  1  0.77112815  0.53932933  0.11623005  1
  O  O14  1  0.72916741  0.00921793  0.12432757  1
  O  O15  1  0.62620298  0.18075244  0.75788644  1
  O  O16  1  0.22916741  0.99078207  0.87567243  1
  O  O17  1  0.25546559  0.40031493  0.32259310  1
  O  O18  1  0.23454478  0.77703411  0.47478905  1
  O  O19  1  0.12620298  0.81924756  0.24211356  1
  O  O20  1  0.62806041  0.75035620  0.31811583  1
  O  O21  1  0.27112815  0.46067067  0.88376995  1
