# generated using pymatgen
data_Ti7O13
_symmetry_space_group_name_H-M   'P 1'
_cell_length_a   5.59249127
_cell_length_b   7.19146650
_cell_length_c   11.40834374
_cell_angle_alpha   83.96192160
_cell_angle_beta   89.28143888
_cell_angle_gamma   71.32998428
_symmetry_Int_Tables_number   1
_chemical_formula_structural   Ti7O13
_chemical_formula_sum   'Ti14 O26'
_cell_volume   432.15871673
_cell_formula_units_Z   2
loop_
 _symmetry_equiv_pos_site_id
 _symmetry_equiv_pos_as_xyz
  1  'x, y, z'
loop_
 _atom_site_type_symbol
 _atom_site_label
 _atom_site_symmetry_multiplicity
 _atom_site_fract_x
 _atom_site_fract_y
 _atom_site_fract_z
 _atom_site_occupancy
  Ti  Ti0  1  0.20582890  0.28904572  0.55181762  1
  Ti  Ti1  1  0.78308646  0.01736856  0.70684677  1
  Ti  Ti2  1  0.38594374  0.76438815  0.85550521  1
  Ti  Ti3  1  0.79422993  0.20956864  0.44438404  1
  Ti  Ti4  1  0.20577007  0.79043136  0.55561596  1
  Ti  Ti5  1  0.21523496  0.48646738  0.29256130  1
  Ti  Ti6  1  0.79417110  0.71095428  0.44818238  1
  Ti  Ti7  1  0.21691354  0.98263144  0.29315323  1
  Ti  Ti8  1  0.00000000  0.00000000  0.00000000  1
  Ti  Ti9  1  0.60992841  0.73599430  0.14686106  1
  Ti  Ti10  1  0.78476504  0.51353262  0.70743870  1
  Ti  Ti11  1  0.00000000  0.50000000  0.00000000  1
  Ti  Ti12  1  0.39007159  0.26400570  0.85313894  1
  Ti  Ti13  1  0.61405626  0.23561185  0.14449479  1
  O  O14  1  0.68104056  0.28734659  0.74941729  1
  O  O15  1  0.57516990  0.31301333  0.31695536  1
  O  O16  1  0.94276876  0.93202127  0.40800961  1
  O  O17  1  0.14781574  0.36642673  0.70581112  1
  O  O18  1  0.42483010  0.68698667  0.68304464  1
  O  O19  1  0.49768585  0.00508476  0.20445819  1
  O  O20  1  0.36350781  0.83063608  0.01427045  1
  O  O21  1  0.85218426  0.63357327  0.29418888  1
  O  O22  1  0.71922045  0.47078036  0.10074241  1
  O  O23  1  0.75677259  0.59475468  0.85952619  1
  O  O24  1  0.63649219  0.16936392  0.98572955  1
  O  O25  1  0.44763568  0.84403837  0.44488325  1
  O  O26  1  0.88474954  0.76857174  0.05075160  1
  O  O27  1  0.24322741  0.40524532  0.14047381  1
  O  O28  1  0.28077955  0.52921964  0.89925759  1
  O  O29  1  0.55236432  0.15596163  0.55511675  1
  O  O30  1  0.80152650  0.44804881  0.52729068  1
  O  O31  1  0.05723124  0.06797873  0.59199039  1
  O  O32  1  0.96766368  0.07427222  0.16801980  1
  O  O33  1  0.12693078  0.23563442  0.37626461  1
  O  O34  1  0.19847350  0.55195119  0.47270932  1
  O  O35  1  0.11525046  0.23142826  0.94924840  1
  O  O36  1  0.87306922  0.76436558  0.62373539  1
  O  O37  1  0.03233632  0.92572778  0.83198020  1
  O  O38  1  0.31895944  0.71265341  0.25058271  1
  O  O39  1  0.50231415  0.99491524  0.79554181  1
