# generated using pymatgen
data_BaMo2(PO4)3
_symmetry_space_group_name_H-M   'P 1'
_cell_length_a   9.53146751
_cell_length_b   9.53146734
_cell_length_c   9.53146738
_cell_angle_alpha   54.72538397
_cell_angle_beta   54.72538480
_cell_angle_gamma   54.72538717
_symmetry_Int_Tables_number   1
_chemical_formula_structural   BaMo2(PO4)3
_chemical_formula_sum   'Ba2 Mo4 P6 O24'
_cell_volume   537.07258112
_cell_formula_units_Z   2
loop_
 _symmetry_equiv_pos_site_id
 _symmetry_equiv_pos_as_xyz
  1  'x, y, z'
loop_
 _atom_site_type_symbol
 _atom_site_label
 _atom_site_symmetry_multiplicity
 _atom_site_fract_x
 _atom_site_fract_y
 _atom_site_fract_z
 _atom_site_occupancy
  Ba  Ba0  1  0.00000000  0.00000000  0.00000000  1
  Ba  Ba1  1  0.50000000  0.50000000  0.50000000  1
  Mo  Mo2  1  0.15075127  0.15075127  0.15075127  1
  Mo  Mo3  1  0.34924873  0.34924873  0.34924873  1
  Mo  Mo4  1  0.84924873  0.84924873  0.84924873  1
  Mo  Mo5  1  0.65075127  0.65075127  0.65075127  1
  P  P6  1  0.53752075  0.96247925  0.25000000  1
  P  P7  1  0.25000000  0.53752075  0.96247925  1
  P  P8  1  0.96247925  0.25000000  0.53752075  1
  P  P9  1  0.46247925  0.03752075  0.75000000  1
  P  P10  1  0.75000000  0.46247925  0.03752075  1
  P  P11  1  0.03752075  0.75000000  0.46247925  1
  O  O12  1  0.24405917  0.36943055  0.98082458  1
  O  O13  1  0.98082458  0.24405917  0.36943055  1
  O  O14  1  0.36943055  0.98082458  0.24405917  1
  O  O15  1  0.13056945  0.25594083  0.51917542  1
  O  O16  1  0.51917542  0.13056945  0.25594083  1
  O  O17  1  0.25594083  0.51917542  0.13056945  1
  O  O18  1  0.75594083  0.63056945  0.01917542  1
  O  O19  1  0.01917542  0.75594083  0.63056945  1
  O  O20  1  0.63056945  0.01917542  0.75594083  1
  O  O21  1  0.86943055  0.74405917  0.48082458  1
  O  O22  1  0.48082458  0.86943055  0.74405917  1
  O  O23  1  0.74405917  0.48082458  0.86943055  1
  O  O24  1  0.28886704  0.06956398  0.92338255  1
  O  O25  1  0.92338255  0.28886704  0.06956398  1
  O  O26  1  0.06956398  0.92338255  0.28886704  1
  O  O27  1  0.43043602  0.21113296  0.57661745  1
  O  O28  1  0.57661745  0.43043602  0.21113296  1
  O  O29  1  0.21113296  0.57661745  0.43043602  1
  O  O30  1  0.71113296  0.93043602  0.07661745  1
  O  O31  1  0.07661745  0.71113296  0.93043602  1
  O  O32  1  0.93043602  0.07661745  0.71113296  1
  O  O33  1  0.56956398  0.78886704  0.42338255  1
  O  O34  1  0.42338255  0.56956398  0.78886704  1
  O  O35  1  0.78886704  0.42338255  0.56956398  1
