# generated using pymatgen
data_SiO2
_symmetry_space_group_name_H-M   'P 1'
_cell_length_a   8.98279569
_cell_length_b   9.17688469
_cell_length_c   9.21061849
_cell_angle_alpha   111.52087212
_cell_angle_beta   98.19250752
_cell_angle_gamma   98.98007286
_symmetry_Int_Tables_number   1
_chemical_formula_structural   SiO2
_chemical_formula_sum   'Si12 O24'
_cell_volume   680.99207327
_cell_formula_units_Z   12
loop_
 _symmetry_equiv_pos_site_id
 _symmetry_equiv_pos_as_xyz
  1  'x, y, z'
loop_
 _atom_site_type_symbol
 _atom_site_label
 _atom_site_symmetry_multiplicity
 _atom_site_fract_x
 _atom_site_fract_y
 _atom_site_fract_z
 _atom_site_occupancy
  Si  Si0  1  0.33777117  0.90334354  0.71337705  1
  Si  Si1  1  0.70685780  0.80829259  0.00859702  1
  Si  Si2  1  0.69279067  0.00878332  0.79966744  1
  Si  Si3  1  0.68980185  0.10970066  0.30636372  1
  Si  Si4  1  0.33322157  0.00193629  0.21961267  1
  Si  Si5  1  0.35216430  0.70180086  0.92271819  1
  Si  Si6  1  0.11938917  0.39232175  0.89111404  1
  Si  Si7  1  0.90878247  0.59315317  0.09748302  1
  Si  Si8  1  0.67605173  0.30868068  0.09917099  1
  Si  Si9  1  0.11818602  0.87811361  0.40467420  1
  Si  Si10  1  0.31927214  0.20150908  0.01229271  1
  Si  Si11  1  0.90947078  0.10039171  0.58962581  1
  O  O12  1  0.22518818  0.84162321  0.53925821  1
  O  O13  1  0.22373419  0.99526522  0.34317157  1
  O  O14  1  0.24974031  0.52249414  0.87006445  1
  O  O15  1  0.50948777  0.09080138  0.32045824  1
  O  O16  1  0.27085427  0.10416272  0.12118999  1
  O  O17  1  0.69919234  0.18994181  0.92628807  1
  O  O18  1  0.98604574  0.96552609  0.47606517  1
  O  O19  1  0.04309360  0.25267056  0.71500818  1
  O  O20  1  0.77509162  0.48866007  0.14504666  1
  O  O21  1  0.74911936  0.90217212  0.89532882  1
  O  O22  1  0.03868260  0.70661293  0.25778553  1
  O  O23  1  0.30966304  0.07508283  0.83024552  1
  O  O24  1  0.79859574  0.16443639  0.48179254  1
  O  O25  1  0.83231251  0.70096655  0.01482675  1
  O  O26  1  0.29873315  0.76997438  0.78814559  1
  O  O27  1  0.49415363  0.31250953  0.08958664  1
  O  O28  1  0.80796397  0.01622826  0.68206663  1
  O  O29  1  0.51691362  0.92533991  0.69460940  1
  O  O30  1  0.98707603  0.47450154  0.96852665  1
  O  O31  1  0.73600955  0.24622560  0.23676675  1
  O  O32  1  0.19926691  0.31543570  0.00787403  1
  O  O33  1  0.32705372  0.81920839  0.09558805  1
  O  O34  1  0.71563882  0.93759969  0.18853795  1
  O  O35  1  0.53335964  0.69316371  0.93559173  1
