# generated using pymatgen
data_Ba4Gd2Cd3S10
_symmetry_space_group_name_H-M   'P 1'
_cell_length_a   4.20719409
_cell_length_b   9.33977969
_cell_length_c   27.02985785
_cell_angle_alpha   90.00000000
_cell_angle_beta   90.00000000
_cell_angle_gamma   103.01639365
_symmetry_Int_Tables_number   1
_chemical_formula_structural   Ba4Gd2Cd3S10
_chemical_formula_sum   'Ba8 Gd4 Cd6 S20'
_cell_volume   1034.82799180
_cell_formula_units_Z   2
loop_
 _symmetry_equiv_pos_site_id
 _symmetry_equiv_pos_as_xyz
  1  'x, y, z'
loop_
 _atom_site_type_symbol
 _atom_site_label
 _atom_site_symmetry_multiplicity
 _atom_site_fract_x
 _atom_site_fract_y
 _atom_site_fract_z
 _atom_site_occupancy
  Ba  Ba0  1  0.42411233  0.84822465  0.15655124  1
  Ba  Ba1  1  0.57588767  0.15177535  0.65655124  1
  Ba  Ba2  1  0.40322901  0.80645802  0.33854441  1
  Ba  Ba3  1  0.83959757  0.67919514  0.89089716  1
  Ba  Ba4  1  0.16040243  0.32080486  0.39089716  1
  Ba  Ba5  1  0.16206283  0.32412567  0.11061030  1
  Ba  Ba6  1  0.59677099  0.19354198  0.83854441  1
  Ba  Ba7  1  0.83793717  0.67587433  0.61061030  1
  Gd  Gd8  1  0.07942214  0.15884428  0.25368946  1
  Gd  Gd9  1  0.92057786  0.84115572  0.75368946  1
  Gd  Gd10  1  0.49631742  0.99263484  0.50003169  1
  Gd  Gd11  1  0.50368258  0.00736516  0.00003169  1
  Cd  Cd12  1  0.78119345  0.56238691  0.23140893  1
  Cd  Cd13  1  0.21880655  0.43761309  0.73140893  1
  Cd  Cd14  1  0.16145904  0.32291808  0.96156970  1
  Cd  Cd15  1  0.83854096  0.67708192  0.46156970  1
  Cd  Cd16  1  0.15560968  0.31121937  0.54398209  1
  Cd  Cd17  1  0.84439032  0.68878063  0.04398209  1
  S  S18  1  0.57582531  0.15165062  0.32101934  1
  S  S19  1  0.65579444  0.31158887  0.01823516  1
  S  S20  1  0.76801241  0.53602481  0.76762947  1
  S  S21  1  0.40954860  0.81909720  0.68440469  1
  S  S22  1  0.07383500  0.14767001  0.74688259  1
  S  S23  1  0.79197430  0.58394860  0.13140069  1
  S  S24  1  0.34420556  0.68841113  0.51823516  1
  S  S25  1  0.21284678  0.42569355  0.87764320  1
  S  S26  1  0.01166403  0.02332805  0.57081154  1
  S  S27  1  0.01731829  0.03463657  0.93336163  1
  S  S28  1  0.65097793  0.30195585  0.48964672  1
  S  S29  1  0.23198759  0.46397519  0.26762947  1
  S  S30  1  0.92616500  0.85232999  0.24688259  1
  S  S31  1  0.78715322  0.57430645  0.37764320  1
  S  S32  1  0.98833597  0.97667195  0.07081154  1
  S  S33  1  0.98268171  0.96536343  0.43336163  1
  S  S34  1  0.34902207  0.69804415  0.98964672  1
  S  S35  1  0.42417469  0.84834938  0.82101934  1
  S  S36  1  0.59045140  0.18090280  0.18440469  1
  S  S37  1  0.20802570  0.41605140  0.63140069  1
