# generated using pymatgen
data_Zn2Cu9O13
_symmetry_space_group_name_H-M   'P 1'
_cell_length_a   2.93562126
_cell_length_b   5.14447621
_cell_length_c   16.35122568
_cell_angle_alpha   97.94738354
_cell_angle_beta   89.93630560
_cell_angle_gamma   107.16858792
_symmetry_Int_Tables_number   1
_chemical_formula_structural   Zn2Cu9O13
_chemical_formula_sum   'Zn2 Cu9 O13'
_cell_volume   233.46464839
_cell_formula_units_Z   1
loop_
 _symmetry_equiv_pos_site_id
 _symmetry_equiv_pos_as_xyz
  1  'x, y, z'
loop_
 _atom_site_type_symbol
 _atom_site_label
 _atom_site_symmetry_multiplicity
 _atom_site_fract_x
 _atom_site_fract_y
 _atom_site_fract_z
 _atom_site_occupancy
  Zn  Zn0  1  0.21407561  0.43699779  0.22730492  1
  Zn  Zn1  1  0.78592439  0.56300221  0.77269508  1
  Cu  Cu2  1  0.50000000  0.00000000  0.50000000  1
  Cu  Cu3  1  0.64712608  0.29577139  0.04118605  1
  Cu  Cu4  1  0.35287392  0.70422861  0.95881395  1
  Cu  Cu5  1  0.75171078  0.50548524  0.41851962  1
  Cu  Cu6  1  0.24828922  0.49451476  0.58148038  1
  Cu  Cu7  1  0.93538087  0.87316370  0.12282910  1
  Cu  Cu8  1  0.06461913  0.12683630  0.87717090  1
  Cu  Cu9  1  0.99456106  0.99069248  0.33244848  1
  Cu  Cu10  1  0.00543894  0.00930752  0.66755152  1
  O  O11  1  0.00000000  0.00000000  0.00000000  1
  O  O12  1  0.85872375  0.71966268  0.22690150  1
  O  O13  1  0.14127625  0.28033732  0.77309850  1
  O  O14  1  0.30115375  0.60594246  0.07035340  1
  O  O15  1  0.69884625  0.39405754  0.92964660  1
  O  O16  1  0.58338843  0.16811329  0.14582752  1
  O  O17  1  0.41661157  0.83188671  0.85417248  1
  O  O18  1  0.63089482  0.26026174  0.31592030  1
  O  O19  1  0.36910518  0.73973826  0.68407970  1
  O  O20  1  0.39522239  0.79079199  0.38784152  1
  O  O21  1  0.60477761  0.20920801  0.61215848  1
  O  O22  1  0.13272639  0.27059461  0.47034602  1
  O  O23  1  0.86727361  0.72940539  0.52965398  1
