# generated using pymatgen
data_Cu2ClO3
_symmetry_space_group_name_H-M   'P 1'
_cell_length_a   5.32745109
_cell_length_b   5.35789297
_cell_length_c   5.93060467
_cell_angle_alpha   90.00000000
_cell_angle_beta   90.00000000
_cell_angle_gamma   89.31193045
_symmetry_Int_Tables_number   1
_chemical_formula_structural   Cu2ClO3
_chemical_formula_sum   'Cu4 Cl2 O6'
_cell_volume   169.27045541
_cell_formula_units_Z   2
loop_
 _symmetry_equiv_pos_site_id
 _symmetry_equiv_pos_as_xyz
  1  'x, y, z'
loop_
 _atom_site_type_symbol
 _atom_site_label
 _atom_site_symmetry_multiplicity
 _atom_site_fract_x
 _atom_site_fract_y
 _atom_site_fract_z
 _atom_site_occupancy
  Cu  Cu0  1  0.00000000  -0.00000000  0.50000000  1
  Cu  Cu1  1  0.00000000  -0.00000000  -0.00000000  1
  Cu  Cu2  1  0.50178894  0.01187896  0.25000000  1
  Cu  Cu3  1  0.49821106  0.98812104  0.75000000  1
  Cl  Cl4  1  0.21326492  0.37127870  0.25000000  1
  Cl  Cl5  1  0.78673508  0.62872130  0.75000000  1
  O  O6  1  0.88629229  0.83372318  0.25000000  1
  O  O7  1  0.11370771  0.16627682  0.75000000  1
  O  O8  1  0.32377885  0.85791297  0.48994050  1
  O  O9  1  0.67622115  0.14208703  0.98994050  1
  O  O10  1  0.67622115  0.14208703  0.51005950  1
  O  O11  1  0.32377885  0.85791297  0.01005950  1
