# generated using pymatgen
data_Nb2Zn2BiO8
_symmetry_space_group_name_H-M   'P 1'
_cell_length_a   5.45280330
_cell_length_b   5.99635948
_cell_length_c   10.82011911
_cell_angle_alpha   106.04039840
_cell_angle_beta   91.77648128
_cell_angle_gamma   90.00678275
_symmetry_Int_Tables_number   1
_chemical_formula_structural   Nb2Zn2BiO8
_chemical_formula_sum   'Nb4 Zn4 Bi2 O16'
_cell_volume   339.83391197
_cell_formula_units_Z   2
loop_
 _symmetry_equiv_pos_site_id
 _symmetry_equiv_pos_as_xyz
  1  'x, y, z'
loop_
 _atom_site_type_symbol
 _atom_site_label
 _atom_site_symmetry_multiplicity
 _atom_site_fract_x
 _atom_site_fract_y
 _atom_site_fract_z
 _atom_site_occupancy
  Nb  Nb0  1  0.72494108  0.28419080  0.24848494  1
  Nb  Nb1  1  0.77243583  0.03692218  0.75193481  1
  Nb  Nb2  1  0.27183483  0.71583789  0.75121482  1
  Nb  Nb3  1  0.22504322  0.96379553  0.24903921  1
  Zn  Zn4  1  0.77141670  0.43774536  0.56018154  1
  Zn  Zn5  1  0.72787020  0.87687602  0.44106774  1
  Zn  Zn6  1  0.22678318  0.56296374  0.43920282  1
  Zn  Zn7  1  0.27223116  0.12372456  0.56126949  1
  Bi  Bi8  1  0.74830932  0.69194584  0.00061299  1
  Bi  Bi9  1  0.24870164  0.30835127  0.00040617  1
  O  O10  1  0.03556268  0.16552418  0.15166039  1
  O  O11  1  0.46038177  0.01606002  0.84738749  1
  O  O12  1  0.96235303  0.83463413  0.84839249  1
  O  O13  1  0.53422015  0.98607607  0.15129073  1
  O  O14  1  0.61407501  0.44641806  0.12544694  1
  O  O15  1  0.88363934  0.32085585  0.87508294  1
  O  O16  1  0.38397856  0.55607814  0.87512191  1
  O  O17  1  0.11375795  0.67890827  0.12689017  1
  O  O18  1  0.42186505  0.28883763  0.35744712  1
  O  O19  1  0.07466363  0.93109185  0.64206326  1
  O  O20  1  0.35902989  0.84473227  0.39871856  1
  O  O21  1  0.14009621  0.44601364  0.60217118  1
  O  O22  1  0.63999533  0.15752129  0.60252525  1
  O  O23  1  0.85859045  0.55386885  0.39795256  1
  O  O24  1  0.92091113  0.06786846  0.35705471  1
  O  O25  1  0.57641367  0.71190312  0.64308375  1
