# generated using pymatgen
data_NdTe2BrO5
_symmetry_space_group_name_H-M   'P 1'
_cell_length_a   5.44983352
_cell_length_b   5.44983258
_cell_length_c   10.25392154
_cell_angle_alpha   105.37091246
_cell_angle_beta   105.37088772
_cell_angle_gamma   90.05341133
_symmetry_Int_Tables_number   1
_chemical_formula_structural   NdTe2BrO5
_chemical_formula_sum   'Nd2 Te4 Br2 O10'
_cell_volume   282.31948300
_cell_formula_units_Z   2
loop_
 _symmetry_equiv_pos_site_id
 _symmetry_equiv_pos_as_xyz
  1  'x, y, z'
loop_
 _atom_site_type_symbol
 _atom_site_label
 _atom_site_symmetry_multiplicity
 _atom_site_fract_x
 _atom_site_fract_y
 _atom_site_fract_z
 _atom_site_occupancy
  Nd  Nd0  1  0.99989359  0.00010636  0.00000008  1
  Nd  Nd1  1  0.50011397  0.49988606  0.99999994  1
  Te  Te2  1  0.62134778  0.12134440  0.24328624  1
  Te  Te3  1  0.14347010  0.64347954  0.28742019  1
  Te  Te4  1  0.87865540  0.37865224  0.75671375  1
  Te  Te5  1  0.35652031  0.85652991  0.71257980  1
  Br  Br6  1  0.75000843  0.75001094  0.49972567  1
  Br  Br7  1  0.24998915  0.24999162  0.50027441  1
  O  O8  1  0.85608394  0.82300353  0.18429224  1
  O  O9  1  0.86113128  0.35623813  0.18366914  1
  O  O10  1  0.64376213  0.13886857  0.81633096  1
  O  O11  1  0.51948208  0.01947598  0.03881513  1
  O  O12  1  0.32226734  0.82717910  0.18356884  1
  O  O13  1  0.98052369  0.48051842  0.96118491  1
  O  O14  1  0.63893803  0.67200436  0.81569260  1
  O  O15  1  0.17282064  0.67773280  0.81643102  1
  O  O16  1  0.17699669  0.14391632  0.81570784  1
  O  O17  1  0.32799544  0.36106171  0.18430723  1
