# generated using pymatgen
data_Na5Mn3F14
_symmetry_space_group_name_H-M   'P 1'
_cell_length_a   7.55079442
_cell_length_b   12.30899998
_cell_length_c   12.63248583
_cell_angle_alpha   90.00000000
_cell_angle_beta   90.00000000
_cell_angle_gamma   90.00000000
_symmetry_Int_Tables_number   1
_chemical_formula_structural   Na5Mn3F14
_chemical_formula_sum   'Na20 Mn12 F56'
_cell_volume   1174.09769907
_cell_formula_units_Z   4
loop_
 _symmetry_equiv_pos_site_id
 _symmetry_equiv_pos_as_xyz
  1  'x, y, z'
loop_
 _atom_site_type_symbol
 _atom_site_label
 _atom_site_symmetry_multiplicity
 _atom_site_fract_x
 _atom_site_fract_y
 _atom_site_fract_z
 _atom_site_occupancy
  F  F0  1  0.42012062  0.36017936  0.92364618  1
  F  F1  1  0.57987938  0.86017936  0.07635382  1
  F  F2  1  0.07987938  0.36017936  0.42364618  1
  F  F3  1  0.92012062  0.86017936  0.57635382  1
  F  F4  1  0.57462000  0.25166194  0.19395085  1
  F  F5  1  0.42538000  0.75166194  0.80604915  1
  F  F6  1  0.92538000  0.25166194  0.69395085  1
  F  F7  1  0.07462000  0.75166194  0.30604915  1
  F  F8  1  0.13147083  0.44756885  0.61674034  1
  F  F9  1  0.86852917  0.94756885  0.38325966  1
  F  F10  1  0.36852917  0.44756885  0.11674034  1
  F  F11  1  0.63147083  0.94756885  0.88325966  1
  F  F12  1  0.26996407  0.74412497  0.11481738  1
  F  F13  1  0.73003593  0.24412497  0.88518262  1
  F  F14  1  0.23003593  0.74412497  0.61481738  1
  F  F15  1  0.76996407  0.24412497  0.38518262  1
  F  F16  1  0.45910268  0.62932824  0.30017342  1
  F  F17  1  0.54089732  0.12932824  0.69982658  1
  F  F18  1  0.04089732  0.62932824  0.80017342  1
  F  F19  1  0.95910268  0.12932824  0.19982658  1
  F  F20  1  0.71370026  0.43755978  0.05881414  1
  F  F21  1  0.28629974  0.93755978  0.94118586  1
  F  F22  1  0.78629974  0.43755978  0.55881414  1
  F  F23  1  0.21370026  0.93755978  0.44118586  1
  F  F24  1  0.20051645  0.56802411  0.44563160  1
  F  F25  1  0.79948355  0.06802411  0.55436840  1
  F  F26  1  0.29948355  0.56802411  0.94563160  1
  F  F27  1  0.70051645  0.06802411  0.05436840  1
  F  F28  1  0.43501803  0.85686187  0.28015983  1
  F  F29  1  0.56498197  0.35686187  0.71984017  1
  F  F30  1  0.06498197  0.85686187  0.78015983  1
  F  F31  1  0.93501803  0.35686187  0.21984017  1
  F  F32  1  0.74563445  0.75636861  0.24126871  1
  F  F33  1  0.25436555  0.25636861  0.75873129  1
  F  F34  1  0.75436555  0.75636861  0.74126871  1
  F  F35  1  0.24563445  0.25636861  0.25873129  1
  F  F36  1  0.56102561  0.73297728  0.51792777  1
  F  F37  1  0.43897439  0.23297728  0.48207223  1
  F  F38  1  0.93897439  0.73297728  0.01792777  1
  F  F39  1  0.06102561  0.23297728  0.98207223  1
  F  F40  1  0.65192995  0.55978342  0.89556554  1
  F  F41  1  0.34807005  0.05978342  0.10443446  1
  F  F42  1  0.84807005  0.55978342  0.39556554  1
  F  F43  1  0.15192995  0.05978342  0.60443446  1
  F  F44  1  0.49728950  0.09106703  0.33188366  1
  F  F45  1  0.50271050  0.59106703  0.66811634  1
  F  F46  1  0.00271050  0.09106703  0.83188366  1
  F  F47  1  0.99728950  0.59106703  0.16811634  1
  F  F48  1  0.00197390  0.89983779  0.15307517  1
  F  F49  1  0.99802610  0.39983779  0.84692483  1
  F  F50  1  0.49802610  0.89983779  0.65307517  1
  F  F51  1  0.50197390  0.39983779  0.34692483  1
  F  F52  1  0.91933499  0.63967729  0.59305094  1
  F  F53  1  0.08066501  0.13967729  0.40694906  1
  F  F54  1  0.58066501  0.63967729  0.09305094  1
  F  F55  1  0.41933499  0.13967729  0.90694906  1
  Na  Na56  1  0.82352024  0.75804413  0.42049707  1
  Na  Na57  1  0.17647976  0.25804413  0.57950293  1
  Na  Na58  1  0.67647976  0.75804413  0.92049707  1
  Na  Na59  1  0.32352024  0.25804413  0.07950293  1
  Na  Na60  1  0.73296986  0.99752806  0.22917351  1
  Na  Na61  1  0.26703014  0.49752806  0.77082649  1
  Na  Na62  1  0.76703014  0.99752806  0.72917351  1
  Na  Na63  1  0.23296986  0.49752806  0.27082649  1
  Na  Na64  1  0.79717291  0.25318763  0.07741290  1
  Na  Na65  1  0.20282709  0.75318763  0.92258710  1
  Na  Na66  1  0.70282709  0.25318763  0.57741290  1
  Na  Na67  1  0.29717291  0.75318763  0.42258710  1
  Na  Na68  1  0.72140836  0.49975252  0.23743038  1
  Na  Na69  1  0.27859164  0.99975252  0.76256962  1
  Na  Na70  1  0.77859164  0.49975252  0.73743038  1
  Na  Na71  1  0.22140836  0.99975252  0.26256962  1
  Na  Na72  1  0.02796617  0.03482311  0.02050169  1
  Na  Na73  1  0.97203383  0.53482311  0.97949831  1
  Na  Na74  1  0.47203383  0.03482311  0.52050169  1
  Na  Na75  1  0.52796617  0.53482311  0.47949831  1
  Mn  Mn76  1  0.50034233  0.24557221  0.33551694  1
  Mn  Mn77  1  0.49965767  0.74557221  0.66448306  1
  Mn  Mn78  1  0.99965767  0.24557221  0.83551694  1
  Mn  Mn79  1  0.00034233  0.74557221  0.16448306  1
  Mn  Mn80  1  0.99653907  0.49975444  0.50207000  1
  Mn  Mn81  1  0.00346093  0.99975444  0.49793000  1
  Mn  Mn82  1  0.50346093  0.49975444  0.00207000  1
  Mn  Mn83  1  0.49653907  0.99975444  0.99793000  1
  Mn  Mn84  1  0.00017452  0.24661737  0.31207521  1
  Mn  Mn85  1  0.99982548  0.74661737  0.68792479  1
  Mn  Mn86  1  0.49982548  0.24661737  0.81207521  1
  Mn  Mn87  1  0.50017452  0.74661737  0.18792479  1
