# generated using pymatgen
data_LiTiPO5
_symmetry_space_group_name_H-M   'P 1'
_cell_length_a   6.98535604
_cell_length_b   7.27440780
_cell_length_c   7.97479338
_cell_angle_alpha   90.44415777
_cell_angle_beta   91.40374856
_cell_angle_gamma   117.12688471
_symmetry_Int_Tables_number   1
_chemical_formula_structural   LiTiPO5
_chemical_formula_sum   'Li4 Ti4 P4 O20'
_cell_volume   360.46784881
_cell_formula_units_Z   4
loop_
 _symmetry_equiv_pos_site_id
 _symmetry_equiv_pos_as_xyz
  1  'x, y, z'
loop_
 _atom_site_type_symbol
 _atom_site_label
 _atom_site_symmetry_multiplicity
 _atom_site_fract_x
 _atom_site_fract_y
 _atom_site_fract_z
 _atom_site_occupancy
  Li  Li0  1  0.69293950  0.18480897  0.56690668  1
  Li  Li1  1  0.30706050  0.81519103  0.43309332  1
  Li  Li2  1  0.79071422  0.70646383  0.93255739  1
  Li  Li3  1  0.20928578  0.29353617  0.06744261  1
  Ti  Ti4  1  0.75195524  0.97895676  0.23599084  1
  Ti  Ti5  1  0.75424576  0.48149107  0.26265721  1
  Ti  Ti6  1  0.24804476  0.02104324  0.76400916  1
  Ti  Ti7  1  0.24575424  0.51850893  0.73734279  1
  P  P8  1  0.26648673  0.24051800  0.40731220  1
  P  P9  1  0.76759477  0.24885548  0.90687707  1
  P  P10  1  0.73351327  0.75948200  0.59268780  1
  P  P11  1  0.23240523  0.75114452  0.09312293  1
  O  O12  1  0.55381757  0.09308614  0.81898512  1
  O  O13  1  0.26739316  0.25689681  0.83284012  1
  O  O14  1  0.76452223  0.25881232  0.33041693  1
  O  O15  1  0.23547777  0.74118768  0.66958307  1
  O  O16  1  0.65182068  0.88563224  0.47930483  1
  O  O17  1  0.34817932  0.11436776  0.52069517  1
  O  O18  1  0.76779114  0.59946819  0.48615628  1
  O  O19  1  0.73260684  0.74310319  0.16715988  1
  O  O20  1  0.14287074  0.86681728  0.97736525  1
  O  O21  1  0.42562905  0.35056327  0.26648603  1
  O  O22  1  0.25996184  0.58375863  0.98888120  1
  O  O23  1  0.57437095  0.64943673  0.73351397  1
  O  O24  1  0.92024102  0.34812996  0.76027079  1
  O  O25  1  0.85712926  0.13318272  0.02263475  1
  O  O26  1  0.94457879  0.90775924  0.68606458  1
  O  O27  1  0.05542121  0.09224076  0.31393542  1
  O  O28  1  0.23220886  0.40053181  0.51384372  1
  O  O29  1  0.07975898  0.65187004  0.23972921  1
  O  O30  1  0.74003816  0.41624137  0.01111880  1
  O  O31  1  0.44618243  0.90691386  0.18101488  1
