# generated using pymatgen
data_K2Zn6O7
_symmetry_space_group_name_H-M   'P 1'
_cell_length_a   3.35673431
_cell_length_b   11.06905195
_cell_length_c   11.06905195
_cell_angle_alpha   90.00000000
_cell_angle_beta   90.00000000
_cell_angle_gamma   90.00000000
_symmetry_Int_Tables_number   1
_chemical_formula_structural   K2Zn6O7
_chemical_formula_sum   'K4 Zn12 O14'
_cell_volume   411.28021609
_cell_formula_units_Z   2
loop_
 _symmetry_equiv_pos_site_id
 _symmetry_equiv_pos_as_xyz
  1  'x, y, z'
loop_
 _atom_site_type_symbol
 _atom_site_label
 _atom_site_symmetry_multiplicity
 _atom_site_fract_x
 _atom_site_fract_y
 _atom_site_fract_z
 _atom_site_occupancy
  K  K0  1  0.50926665  0.35551510  0.35551510  1
  K  K1  1  1.00926665  0.14448490  0.85551510  1
  K  K2  1  0.50926665  0.64448490  0.64448490  1
  K  K3  1  1.00926665  0.85551510  0.14448490  1
  Zn  Zn4  1  0.49394544  0.15380920  0.58402506  1
  Zn  Zn5  1  0.99394544  0.34619080  0.08402506  1
  Zn  Zn6  1  0.49115943  0.88091853  0.88091853  1
  Zn  Zn7  1  0.49394544  0.58402506  0.15380920  1
  Zn  Zn8  1  0.99115943  0.38091853  0.61908147  1
  Zn  Zn9  1  0.99394544  0.65380920  0.91597494  1
  Zn  Zn10  1  0.49115943  0.11908147  0.11908147  1
  Zn  Zn11  1  0.99394544  0.08402506  0.34619080  1
  Zn  Zn12  1  0.99115943  0.61908147  0.38091853  1
  Zn  Zn13  1  0.49394544  0.84619080  0.41597494  1
  Zn  Zn14  1  0.99394544  0.91597494  0.65380920  1
  Zn  Zn15  1  0.49394544  0.41597494  0.84619080  1
  O  O16  1  0.49404660  0.31301180  0.99171536  1
  O  O17  1  0.99404660  0.49171536  0.18698820  1
  O  O18  1  0.49404660  0.99171536  0.31301180  1
  O  O19  1  0.99404660  0.50828464  0.81301180  1
  O  O20  1  0.49794397  0.31021401  0.68978599  1
  O  O21  1  0.06419172  0.50000000  0.50000000  1
  O  O22  1  -0.00205603  0.18978599  0.18978599  1
  O  O23  1  0.49794397  0.68978599  0.31021401  1
  O  O24  1  -0.00205603  0.81021401  0.81021401  1
  O  O25  1  0.49404660  0.68698820  0.00828464  1
  O  O26  1  0.99404660  0.81301180  0.50828464  1
  O  O27  1  0.56419172  0.00000000  0.00000000  1
  O  O28  1  0.49404660  0.00828464  0.68698820  1
  O  O29  1  0.99404660  0.18698820  0.49171536  1
