# generated using pymatgen
data_NaNbO3
_symmetry_space_group_name_H-M   'P 1'
_cell_length_a   5.56653829
_cell_length_b   5.64486284
_cell_length_c   15.93417865
_cell_angle_alpha   90.00000000
_cell_angle_beta   90.00000000
_cell_angle_gamma   90.00000000
_symmetry_Int_Tables_number   1
_chemical_formula_structural   NaNbO3
_chemical_formula_sum   'Na8 Nb8 O24'
_cell_volume   500.68926107
_cell_formula_units_Z   8
loop_
 _symmetry_equiv_pos_site_id
 _symmetry_equiv_pos_as_xyz
  1  'x, y, z'
loop_
 _atom_site_type_symbol
 _atom_site_label
 _atom_site_symmetry_multiplicity
 _atom_site_fract_x
 _atom_site_fract_y
 _atom_site_fract_z
 _atom_site_occupancy
  Na  Na0  1  0.24014765  0.78161403  0.12359974  1
  Na  Na1  1  0.24014765  0.71838597  0.62359974  1
  Na  Na2  1  0.75514193  0.22396622  0.37137301  1
  Na  Na3  1  0.24485807  0.77603378  0.87137301  1
  Na  Na4  1  0.75514193  0.27603378  0.87137301  1
  Na  Na5  1  0.75985235  0.21838597  0.62359974  1
  Na  Na6  1  0.75985235  0.28161403  0.12359974  1
  Na  Na7  1  0.24485807  0.72396622  0.37137301  1
  Nb  Nb8  1  0.25160936  0.27127028  0.99768700  1
  Nb  Nb9  1  0.25826625  0.24178779  0.74729340  1
  Nb  Nb10  1  0.74839064  0.77127028  0.99768700  1
  Nb  Nb11  1  0.25826625  0.25821221  0.24729340  1
  Nb  Nb12  1  0.74173375  0.74178779  0.74729340  1
  Nb  Nb13  1  0.25160936  0.22872972  0.49768700  1
  Nb  Nb14  1  0.74839064  0.72872972  0.49768700  1
  Nb  Nb15  1  0.74173375  0.75821221  0.24729340  1
  O  O16  1  0.18350401  0.24781035  0.38043565  1
  O  O17  1  0.96316373  0.02576524  0.02331808  1
  O  O18  1  0.68137252  0.77510011  0.63018532  1
  O  O19  1  0.03683627  0.97423476  0.52331808  1
  O  O20  1  0.54153123  0.45148241  0.98930142  1
  O  O21  1  0.03683627  0.52576524  0.02331808  1
  O  O22  1  0.18350401  0.25218965  0.88043565  1
  O  O23  1  0.31862748  0.27510011  0.63018532  1
  O  O24  1  0.54153123  0.04851759  0.48930142  1
  O  O25  1  0.81649599  0.74781035  0.38043565  1
  O  O26  1  0.03138333  0.51536015  0.23844148  1
  O  O27  1  0.53403558  0.04581233  0.77276489  1
  O  O28  1  0.96316373  0.47423476  0.52331808  1
  O  O29  1  0.96861667  0.01536015  0.23844148  1
  O  O30  1  0.68137252  0.72489989  0.13018532  1
  O  O31  1  0.45846877  0.54851759  0.48930142  1
  O  O32  1  0.45846877  0.95148241  0.98930142  1
  O  O33  1  0.53403558  0.45418767  0.27276489  1
  O  O34  1  0.31862748  0.22489989  0.13018532  1
  O  O35  1  0.03138333  0.98463985  0.73844148  1
  O  O36  1  0.46596442  0.54581233  0.77276489  1
  O  O37  1  0.46596442  0.95418767  0.27276489  1
  O  O38  1  0.96861667  0.48463985  0.73844148  1
  O  O39  1  0.81649599  0.75218965  0.88043565  1
