# generated using pymatgen
data_Y3Si2Cl5O6
_symmetry_space_group_name_H-M   'P 1'
_cell_length_a   7.47494258
_cell_length_b   7.47494270
_cell_length_c   11.73300359
_cell_angle_alpha   80.60675068
_cell_angle_beta   80.60675052
_cell_angle_gamma   88.66101202
_symmetry_Int_Tables_number   1
_chemical_formula_structural   Y3Si2Cl5O6
_chemical_formula_sum   'Y6 Si4 Cl10 O12'
_cell_volume   638.11232189
_cell_formula_units_Z   2
loop_
 _symmetry_equiv_pos_site_id
 _symmetry_equiv_pos_as_xyz
  1  'x, y, z'
loop_
 _atom_site_type_symbol
 _atom_site_label
 _atom_site_symmetry_multiplicity
 _atom_site_fract_x
 _atom_site_fract_y
 _atom_site_fract_z
 _atom_site_occupancy
  Y  Y0  1  0.91805450  0.41658335  0.33036572  1
  Y  Y1  1  0.08194550  0.58341665  0.66963428  1
  Y  Y2  1  0.50000000  0.00000000  0.00000000  1
  Y  Y3  1  0.41658335  0.91805450  0.33036572  1
  Y  Y4  1  0.58341665  0.08194550  0.66963428  1
  Y  Y5  1  0.00000000  0.50000000  0.00000000  1
  Si  Si6  1  0.18199604  0.88998590  0.85567773  1
  Si  Si7  1  0.11001410  0.81800396  0.14432227  1
  Si  Si8  1  0.88998590  0.18199604  0.85567773  1
  Si  Si9  1  0.81800396  0.11001410  0.14432227  1
  Cl  Cl10  1  0.68501695  0.68501695  0.00159518  1
  Cl  Cl11  1  0.62085989  0.62085989  0.35533553  1
  Cl  Cl12  1  0.33015596  0.88104078  0.57881856  1
  Cl  Cl13  1  0.11895922  0.66984404  0.42118144  1
  Cl  Cl14  1  0.78379453  0.78379453  0.66170479  1
  Cl  Cl15  1  0.31498305  0.31498305  0.99840482  1
  Cl  Cl16  1  0.88104078  0.33015596  0.57881856  1
  Cl  Cl17  1  0.21620547  0.21620547  0.33829521  1
  Cl  Cl18  1  0.66984404  0.11895922  0.42118144  1
  Cl  Cl19  1  0.37914011  0.37914011  0.64466447  1
  O  O20  1  0.04689203  0.04689203  0.80549981  1
  O  O21  1  0.13234297  0.69222846  0.82808940  1
  O  O22  1  0.69222846  0.13234297  0.82808940  1
  O  O23  1  0.95310797  0.95310797  0.19450019  1
  O  O24  1  0.39259019  0.95614766  0.82811394  1
  O  O25  1  0.86765703  0.30777154  0.17191060  1
  O  O26  1  0.95614766  0.39259019  0.82811394  1
  O  O27  1  0.04385234  0.60740981  0.17188606  1
  O  O28  1  0.85753285  0.14246715  0.00000000  1
  O  O29  1  0.60740981  0.04385234  0.17188606  1
  O  O30  1  0.14246715  0.85753285  1.00000000  1
  O  O31  1  0.30777154  0.86765703  0.17191060  1
