# generated using pymatgen
data_Zn3(BO3)2
_symmetry_space_group_name_H-M   'P 1'
_cell_length_a   6.45085221
_cell_length_b   8.41302574
_cell_length_c   10.12843030
_cell_angle_alpha   90.25190548
_cell_angle_beta   90.27558409
_cell_angle_gamma   72.28262647
_symmetry_Int_Tables_number   1
_chemical_formula_structural   Zn3(BO3)2
_chemical_formula_sum   'Zn12 B8 O24'
_cell_volume   523.60155471
_cell_formula_units_Z   4
loop_
 _symmetry_equiv_pos_site_id
 _symmetry_equiv_pos_as_xyz
  1  'x, y, z'
loop_
 _atom_site_type_symbol
 _atom_site_label
 _atom_site_symmetry_multiplicity
 _atom_site_fract_x
 _atom_site_fract_y
 _atom_site_fract_z
 _atom_site_occupancy
  Zn  Zn0  1  0.60593565  0.06747251  0.84317103  1
  Zn  Zn1  1  0.97864242  0.72141273  0.33918612  1
  Zn  Zn2  1  0.06102058  0.28294356  0.17931485  1
  Zn  Zn3  1  0.48331489  0.70993181  0.41773963  1
  Zn  Zn4  1  0.74971304  0.40184751  0.92278489  1
  Zn  Zn5  1  0.02135758  0.27858727  0.66081388  1
  Zn  Zn6  1  0.93897942  0.71705644  0.82068515  1
  Zn  Zn7  1  0.27569794  0.89506156  0.67672103  1
  Zn  Zn8  1  0.39406435  0.93252749  0.15682897  1
  Zn  Zn9  1  0.51668511  0.29006819  0.58226037  1
  Zn  Zn10  1  0.25028696  0.59815249  0.07721511  1
  Zn  Zn11  1  0.72430206  0.10493844  0.32327897  1
  B  B12  1  0.83674204  0.93381733  0.58756809  1
  B  B13  1  0.83683902  0.89878254  0.08367032  1
  B  B14  1  0.16325796  0.06618267  0.41243191  1
  B  B15  1  0.16316098  0.10121746  0.91632968  1
  B  B16  1  0.31847946  0.41334257  0.82451240  1
  B  B17  1  0.68152054  0.58665743  0.17548760  1
  B  B18  1  0.65728191  0.57669431  0.67420061  1
  B  B19  1  0.34271809  0.42330569  0.32579939  1
  O  O20  1  0.27663686  0.40625462  0.19757740  1
  O  O21  1  0.66822842  0.00621250  0.15619671  1
  O  O22  1  0.47606849  0.28583072  0.39112860  1
  O  O23  1  0.72804752  0.42244198  0.61157383  1
  O  O24  1  0.80372673  0.44852394  0.10610969  1
  O  O25  1  0.72336314  0.59374538  0.80242260  1
  O  O26  1  0.31824263  0.93667686  0.34984425  1
  O  O27  1  0.52393151  0.71416928  0.60887140  1
  O  O28  1  0.19627327  0.55147606  0.89389031  1
  O  O29  1  0.73950597  0.61782380  0.30302568  1
  O  O30  1  0.33177158  0.99378750  0.84380329  1
  O  O31  1  0.99756784  0.17674507  0.33916363  1
  O  O32  1  0.50583667  0.31010165  0.88336873  1
  O  O33  1  0.27195248  0.57755802  0.38842617  1
  O  O34  1  0.17339223  0.09631320  0.05284085  1
  O  O35  1  0.00726150  0.78524440  0.14840501  1
  O  O36  1  0.68175737  0.06332314  0.65015575  1
  O  O37  1  0.17046422  0.08544890  0.54846220  1
  O  O38  1  0.82660777  0.90368680  0.94715915  1
  O  O39  1  0.99273850  0.21475560  0.85159499  1
  O  O40  1  0.26049403  0.38217620  0.69697432  1
  O  O41  1  0.82953578  0.91455110  0.45153780  1
  O  O42  1  0.00243216  0.82325493  0.66083637  1
  O  O43  1  0.49416333  0.68989835  0.11663127  1
