# generated using pymatgen
data_Ce2SiS5
_symmetry_space_group_name_H-M   'P 1'
_cell_length_a   7.52507243
_cell_length_b   7.83951347
_cell_length_c   12.56266020
_cell_angle_alpha   90.00000000
_cell_angle_beta   90.00000000
_cell_angle_gamma   101.44532987
_symmetry_Int_Tables_number   1
_chemical_formula_structural   Ce2SiS5
_chemical_formula_sum   'Ce8 Si4 S20'
_cell_volume   726.37053329
_cell_formula_units_Z   4
loop_
 _symmetry_equiv_pos_site_id
 _symmetry_equiv_pos_as_xyz
  1  'x, y, z'
loop_
 _atom_site_type_symbol
 _atom_site_label
 _atom_site_symmetry_multiplicity
 _atom_site_fract_x
 _atom_site_fract_y
 _atom_site_fract_z
 _atom_site_occupancy
  Ce  Ce0  1  0.16200088  0.63681151  0.83223316  1
  Ce  Ce1  1  0.76286616  0.95583724  0.90516906  1
  Ce  Ce2  1  0.83799912  0.86318849  0.33223316  1
  Ce  Ce3  1  0.23713384  0.54416276  0.40516906  1
  Ce  Ce4  1  0.23713384  0.04416276  0.09483094  1
  Ce  Ce5  1  0.76286616  0.45583724  0.59483094  1
  Ce  Ce6  1  0.83799912  0.36318849  0.16776684  1
  Ce  Ce7  1  0.16200088  0.13681151  0.66776684  1
  Si  Si8  1  0.32989694  0.59561083  0.11750724  1
  Si  Si9  1  0.67010306  0.90438917  0.61750724  1
  Si  Si10  1  0.32989694  0.09561083  0.38249276  1
  Si  Si11  1  0.67010306  0.40438917  0.88249276  1
  S  S12  1  0.87564074  0.80485679  0.70439511  1
  S  S13  1  0.82599540  0.61437714  0.97058674  1
  S  S14  1  0.17400460  0.88562286  0.47058674  1
  S  S15  1  0.58040290  0.71688089  0.49764796  1
  S  S16  1  0.17400460  0.38562286  0.02941326  1
  S  S17  1  0.86174165  0.49950278  0.38121942  1
  S  S18  1  0.58040290  0.21688089  0.00235204  1
  S  S19  1  0.86174165  -0.00049722  0.11878058  1
  S  S20  1  0.41959710  0.78311911  0.99764796  1
  S  S21  1  0.12435926  0.19514321  0.29560489  1
  S  S22  1  0.13825835  1.00049722  0.88121942  1
  S  S23  1  0.47334547  0.94841713  0.72942081  1
  S  S24  1  0.13825835  0.50049722  0.61878058  1
  S  S25  1  0.52665453  0.05158287  0.27057919  1
  S  S26  1  0.87564074  0.30485679  0.79560489  1
  S  S27  1  0.47334547  0.44841713  0.77057919  1
  S  S28  1  0.41959710  0.28311911  0.50235204  1
  S  S29  1  0.52665453  0.55158287  0.22942081  1
  S  S30  1  0.82599540  0.11437714  0.52941326  1
  S  S31  1  0.12435926  0.69514321  0.20439511  1
