# generated using pymatgen
data_CaTeO3
_symmetry_space_group_name_H-M   'P 1'
_cell_length_a   5.74999258
_cell_length_b   8.67375017
_cell_length_c   21.44408710
_cell_angle_alpha   91.33304221
_cell_angle_beta   90.00000000
_cell_angle_gamma   90.00000000
_symmetry_Int_Tables_number   1
_chemical_formula_structural   CaTeO3
_chemical_formula_sum   'Ca12 Te12 O36'
_cell_volume   1069.21292994
_cell_formula_units_Z   12
loop_
 _symmetry_equiv_pos_site_id
 _symmetry_equiv_pos_as_xyz
  1  'x, y, z'
loop_
 _atom_site_type_symbol
 _atom_site_label
 _atom_site_symmetry_multiplicity
 _atom_site_fract_x
 _atom_site_fract_y
 _atom_site_fract_z
 _atom_site_occupancy
  Ca  Ca0  1  0.22953155  0.96053051  0.94063840  1
  Ca  Ca1  1  0.77046845  0.03946949  0.05936160  1
  Ca  Ca2  1  0.84298774  0.30977985  0.31639056  1
  Ca  Ca3  1  0.27046845  0.46053051  0.44063840  1
  Ca  Ca4  1  0.32640339  0.57487395  0.27493676  1
  Ca  Ca5  1  0.34298774  0.19022015  0.18360944  1
  Ca  Ca6  1  0.82640339  0.92512605  0.22506324  1
  Ca  Ca7  1  0.67359661  0.42512605  0.72506324  1
  Ca  Ca8  1  0.72953155  0.53946949  0.55936160  1
  Ca  Ca9  1  0.15701226  0.69022015  0.68360944  1
  Ca  Ca10  1  0.65701226  0.80977985  0.81639056  1
  Ca  Ca11  1  0.17359661  0.07487395  0.77493676  1
  Te  Te12  1  0.74414216  0.68096310  0.98808258  1
  Te  Te13  1  0.76423460  0.69718413  0.37483520  1
  Te  Te14  1  0.24414216  0.81903690  0.51191742  1
  Te  Te15  1  0.66234807  0.91916510  0.66379768  1
  Te  Te16  1  0.83765193  0.41916510  0.16379768  1
  Te  Te17  1  0.26423460  0.80281587  0.12516480  1
  Te  Te18  1  0.23576540  0.30281587  0.62516480  1
  Te  Te19  1  0.75585784  0.18096310  0.48808258  1
  Te  Te20  1  0.33765193  0.08083490  0.33620232  1
  Te  Te21  1  0.16234807  0.58083490  0.83620232  1
  Te  Te22  1  0.73576540  0.19718413  0.87483520  1
  Te  Te23  1  0.25585784  0.31903690  0.01191742  1
  O  O24  1  0.48834600  0.68149865  0.49144028  1
  O  O25  1  0.45393314  0.09240947  0.85369793  1
  O  O26  1  0.15034068  0.73309571  0.20301061  1
  O  O27  1  0.90021332  0.93722922  0.72463847  1
  O  O28  1  0.59978668  0.43722922  0.22463847  1
  O  O29  1  0.77287072  0.65446605  0.90121810  1
  O  O30  1  0.76444833  0.71893435  0.64088430  1
  O  O31  1  0.48438423  0.16590907  1.00140816  1
  O  O32  1  0.51561577  0.83409093  -0.00140816  1
  O  O33  1  0.01561577  0.66590907  0.50140816  1
  O  O34  1  0.06831996  0.37529975  0.22465645  1
  O  O35  1  0.26444833  0.78106565  0.85911570  1
  O  O36  1  0.73555167  0.21893435  0.14088430  1
  O  O37  1  0.40021332  0.56277078  0.77536153  1
  O  O38  1  0.65034068  0.76690429  0.29698939  1
  O  O39  1  0.72712928  0.15446605  0.40121810  1
  O  O40  1  0.27287072  0.84553395  0.59878190  1
  O  O41  1  0.41651605  0.48510909  0.63041412  1
  O  O42  1  0.93168004  0.62470025  0.77534355  1
  O  O43  1  0.34965932  0.23309571  0.70301061  1
  O  O44  1  0.51165400  0.31850135  0.50855972  1
  O  O45  1  0.84965932  0.26690429  0.79698939  1
  O  O46  1  0.56831996  0.12470025  0.27534355  1
  O  O47  1  0.58348395  0.51489091  0.36958588  1
  O  O48  1  0.91651605  0.01489091  0.86958588  1
  O  O49  1  0.08348395  0.98510909  0.13041412  1
  O  O50  1  0.09978668  0.06277078  0.27536153  1
  O  O51  1  0.04606686  0.59240947  0.35369793  1
  O  O52  1  0.95393314  0.40759053  0.64630207  1
  O  O53  1  0.22712928  0.34553395  0.09878190  1
  O  O54  1  0.43168004  0.87529975  0.72465645  1
  O  O55  1  0.98834600  0.81850135  0.00855972  1
  O  O56  1  0.23555167  0.28106565  0.35911570  1
  O  O57  1  0.98438423  0.33409093  0.49859184  1
  O  O58  1  0.54606686  0.90759053  0.14630207  1
  O  O59  1  0.01165400  0.18149865  0.99144028  1
