# generated using pymatgen
data_SeO2
_symmetry_space_group_name_H-M   'P 1'
_cell_length_a   4.68485296
_cell_length_b   5.21845518
_cell_length_c   16.04687156
_cell_angle_alpha   90.00000000
_cell_angle_beta   90.00000000
_cell_angle_gamma   90.00000000
_symmetry_Int_Tables_number   1
_chemical_formula_structural   SeO2
_chemical_formula_sum   'Se8 O16'
_cell_volume   392.30902476
_cell_formula_units_Z   8
loop_
 _symmetry_equiv_pos_site_id
 _symmetry_equiv_pos_as_xyz
  1  'x, y, z'
loop_
 _atom_site_type_symbol
 _atom_site_label
 _atom_site_symmetry_multiplicity
 _atom_site_fract_x
 _atom_site_fract_y
 _atom_site_fract_z
 _atom_site_occupancy
  Se  Se0  1  0.51378222  0.50000000  0.25184255  1
  Se  Se1  1  0.97353188  0.50000000  0.00130378  1
  Se  Se2  1  0.11043498  0.00000000  0.81287938  1
  Se  Se3  1  0.33830910  0.00000000  0.06399843  1
  Se  Se4  1  0.88956502  0.00000000  0.31287938  1
  Se  Se5  1  0.66169090  0.00000000  0.56399843  1
  Se  Se6  1  0.02646812  0.50000000  0.50130378  1
  Se  Se7  1  0.48621778  0.50000000  0.75184255  1
  O  O8  1  0.38226254  0.25004005  0.82670205  1
  O  O9  1  0.61773746  0.25004005  0.32670205  1
  O  O10  1  0.06632243  0.74932509  0.07795995  1
  O  O11  1  0.01024505  0.00000000  0.40916877  1
  O  O12  1  0.61773746  0.74995995  0.32670205  1
  O  O13  1  0.82977640  0.50000000  0.77226624  1
  O  O14  1  0.06632243  0.25067491  0.07795995  1
  O  O15  1  0.98975495  0.00000000  0.90916877  1
  O  O16  1  0.17022360  0.50000000  0.27226624  1
  O  O17  1  0.37355941  0.50000000  0.51587474  1
  O  O18  1  0.53681219  0.00000000  0.65984211  1
  O  O19  1  0.62644059  0.50000000  0.01587474  1
  O  O20  1  0.46318781  0.00000000  0.15984211  1
  O  O21  1  0.93367757  0.74932509  0.57795995  1
  O  O22  1  0.93367757  0.25067491  0.57795995  1
  O  O23  1  0.38226254  0.74995995  0.82670205  1
