# generated using pymatgen
data_Ba2Cu7(AsO4)6
_symmetry_space_group_name_H-M   'P 1'
_cell_length_a   5.31412798
_cell_length_b   8.58294407
_cell_length_c   11.57883751
_cell_angle_alpha   89.50354735
_cell_angle_beta   89.11804576
_cell_angle_gamma   85.94023250
_symmetry_Int_Tables_number   1
_chemical_formula_structural   Ba2Cu7(AsO4)6
_chemical_formula_sum   'Ba2 Cu7 As6 O24'
_cell_volume   526.71798100
_cell_formula_units_Z   1
loop_
 _symmetry_equiv_pos_site_id
 _symmetry_equiv_pos_as_xyz
  1  'x, y, z'
loop_
 _atom_site_type_symbol
 _atom_site_label
 _atom_site_symmetry_multiplicity
 _atom_site_fract_x
 _atom_site_fract_y
 _atom_site_fract_z
 _atom_site_occupancy
  Ba  Ba0  1  0.99733653  0.55105003  0.82521702  1
  Ba  Ba1  1  0.00266347  0.44894997  0.17478298  1
  Cu  Cu2  1  0.45886454  0.08128156  0.18255752  1
  Cu  Cu3  1  0.50000000  0.00000000  0.50000000  1
  Cu  Cu4  1  0.47579128  0.72909842  0.33322206  1
  Cu  Cu5  1  0.52420872  0.27090158  0.66677794  1
  Cu  Cu6  1  0.54113546  0.91871844  0.81744248  1
  Cu  Cu7  1  0.00000000  0.00000000  0.00000000  1
  Cu  Cu8  1  0.00000000  0.50000000  0.50000000  1
  As  As9  1  0.52390210  0.33866425  0.38971161  1
  As  As10  1  0.97661727  0.92509471  0.27774388  1
  As  As11  1  0.53870548  0.26145121  0.94424842  1
  As  As12  1  0.47609790  0.66133575  0.61028839  1
  As  As13  1  0.02338273  0.07490529  0.72225612  1
  As  As14  1  0.46129452  0.73854879  0.05575158  1
  O  O15  1  0.69881861  0.50277440  0.39853877  1
  O  O16  1  0.87964488  0.26296545  0.72073737  1
  O  O17  1  0.82179031  0.98712858  0.14862248  1
  O  O18  1  0.23553137  0.62145180  0.01529216  1
  O  O19  1  0.31323303  0.24152062  0.04908701  1
  O  O20  1  0.39674476  0.33018978  0.81739567  1
  O  O21  1  0.60628782  0.25721122  0.25883577  1
  O  O22  1  0.69171266  0.07472184  0.91458135  1
  O  O23  1  0.30828734  0.92527816  0.08541865  1
  O  O24  1  0.61597226  0.21262256  0.50373215  1
  O  O25  1  0.72184480  0.90764641  0.37318016  1
  O  O26  1  0.19176873  0.05719763  0.31115342  1
  O  O27  1  0.20696776  0.39467532  0.38468601  1
  O  O28  1  0.39371218  0.74278878  0.74116423  1
  O  O29  1  0.38402774  0.78737744  0.49626785  1
  O  O30  1  0.27815520  0.09235359  0.62681984  1
  O  O31  1  0.17820969  0.01287142  0.85137752  1
  O  O32  1  0.60325524  0.66981022  0.18260433  1
  O  O33  1  0.76446863  0.37854820  0.98470784  1
  O  O34  1  0.30118139  0.49722560  0.60146123  1
  O  O35  1  0.80823127  0.94280237  0.68884658  1
  O  O36  1  0.79303224  0.60532468  0.61531399  1
  O  O37  1  0.68676697  0.75847938  0.95091299  1
  O  O38  1  0.12035512  0.73703455  0.27926263  1
