# generated using pymatgen
data_CdSbS2Br
_symmetry_space_group_name_H-M   'P 1'
_cell_length_a   3.97388131
_cell_length_b   6.89302559
_cell_length_c   9.84493519
_cell_angle_alpha   91.53843361
_cell_angle_beta   90.00000000
_cell_angle_gamma   106.75344104
_symmetry_Int_Tables_number   1
_chemical_formula_structural   CdSbS2Br
_chemical_formula_sum   'Cd2 Sb2 S4 Br2'
_cell_volume   258.12506217
_cell_formula_units_Z   2
loop_
 _symmetry_equiv_pos_site_id
 _symmetry_equiv_pos_as_xyz
  1  'x, y, z'
loop_
 _atom_site_type_symbol
 _atom_site_label
 _atom_site_symmetry_multiplicity
 _atom_site_fract_x
 _atom_site_fract_y
 _atom_site_fract_z
 _atom_site_occupancy
  Cd  Cd0  1  0.00000000  0.00000000  0.00000000  1
  Cd  Cd1  1  0.00000000  0.00000000  0.50000000  1
  Sb  Sb2  1  0.28614157  0.57228315  0.68474133  1
  Sb  Sb3  1  0.71385843  0.42771685  0.31525867  1
  S  S4  1  0.91405836  0.82811673  0.73883891  1
  S  S5  1  0.35357892  0.70715784  0.44951408  1
  S  S6  1  0.64642108  0.29284216  0.55048592  1
  S  S7  1  0.08594164  0.17188327  0.26116109  1
  Br  Br8  1  0.36552215  0.73104430  0.07555535  1
  Br  Br9  1  0.63447785  0.26895570  0.92444465  1
