# generated using pymatgen
data_LiTa3O8
_symmetry_space_group_name_H-M   'P 1'
_cell_length_a   7.73683109
_cell_length_b   9.04683398
_cell_length_c   16.86539324
_cell_angle_alpha   90.00000000
_cell_angle_beta   90.00000000
_cell_angle_gamma   90.00000000
_symmetry_Int_Tables_number   1
_chemical_formula_structural   LiTa3O8
_chemical_formula_sum   'Li8 Ta24 O64'
_cell_volume   1180.47340665
_cell_formula_units_Z   8
loop_
 _symmetry_equiv_pos_site_id
 _symmetry_equiv_pos_as_xyz
  1  'x, y, z'
loop_
 _atom_site_type_symbol
 _atom_site_label
 _atom_site_symmetry_multiplicity
 _atom_site_fract_x
 _atom_site_fract_y
 _atom_site_fract_z
 _atom_site_occupancy
  Li  Li0  1  0.75000000  0.54027328  0.00588199  1
  Li  Li1  1  0.75000000  0.54027328  0.49411801  1
  Li  Li2  1  0.75000000  0.09133922  0.08403680  1
  Li  Li3  1  0.25000000  0.45972672  0.99411801  1
  Li  Li4  1  0.25000000  0.45972672  0.50588199  1
  Li  Li5  1  0.75000000  0.09133922  0.41596320  1
  Li  Li6  1  0.25000000  0.90866078  0.91596320  1
  Li  Li7  1  0.25000000  0.90866078  0.58403680  1
  Ta  Ta8  1  0.99951938  0.81180768  0.06036311  1
  Ta  Ta9  1  0.99808051  0.39339394  0.36723329  1
  Ta  Ta10  1  0.00048062  0.18819232  0.93963689  1
  Ta  Ta11  1  0.00048062  0.18819232  0.56036311  1
  Ta  Ta12  1  0.00152015  0.68757770  0.25000000  1
  Ta  Ta13  1  0.50152015  0.31242230  0.75000000  1
  Ta  Ta14  1  0.49847985  0.68757770  0.25000000  1
  Ta  Ta15  1  0.99951938  0.81180768  0.43963689  1
  Ta  Ta16  1  0.99847985  0.31242230  0.75000000  1
  Ta  Ta17  1  0.50048062  0.81180768  0.43963689  1
  Ta  Ta18  1  0.00191949  0.60660606  0.63276671  1
  Ta  Ta19  1  0.49951938  0.18819232  0.93963689  1
  Ta  Ta20  1  0.50001038  0.05331179  0.25000000  1
  Ta  Ta21  1  1.00001038  0.94668821  0.75000000  1
  Ta  Ta22  1  0.49998962  0.94668821  0.75000000  1
  Ta  Ta23  1  0.49808051  0.60660606  0.86723329  1
  Ta  Ta24  1  -0.00001038  0.05331179  0.25000000  1
  Ta  Ta25  1  0.50191949  0.39339394  0.13276671  1
  Ta  Ta26  1  0.49808051  0.60660606  0.63276671  1
  Ta  Ta27  1  0.50191949  0.39339394  0.36723329  1
  Ta  Ta28  1  0.99808051  0.39339394  0.13276671  1
  Ta  Ta29  1  0.50048062  0.81180768  0.06036311  1
  Ta  Ta30  1  0.49951938  0.18819232  0.56036311  1
  Ta  Ta31  1  0.00191949  0.60660606  0.86723329  1
  O  O32  1  0.25000000  0.39801734  0.13949175  1
  O  O33  1  0.00142766  0.61990071  0.36841877  1
  O  O34  1  0.99857234  0.38009929  0.86841877  1
  O  O35  1  0.75000000  0.41641219  0.39731116  1
  O  O36  1  0.97292899  0.12409613  0.67477462  1
  O  O37  1  0.02707101  0.87590387  0.32522538  1
  O  O38  1  0.45811590  0.33979422  0.02000847  1
  O  O39  1  0.25000000  0.58358781  0.60268884  1
  O  O40  1  0.50142766  0.38009929  0.63158123  1
  O  O41  1  0.47486494  0.54837259  0.75000000  1
  O  O42  1  0.45896715  0.81114723  0.83843924  1
  O  O43  1  0.47292899  0.87590387  0.17477462  1
  O  O44  1  0.25000000  0.15130699  0.92686763  1
  O  O45  1  0.75000000  0.01758233  0.25000000  1
  O  O46  1  0.49857234  0.61990071  0.36841877  1
  O  O47  1  0.00142766  0.61990071  0.13158123  1
  O  O48  1  0.25000000  0.66888414  0.25000000  1
  O  O49  1  0.52513506  0.45162741  0.25000000  1
  O  O50  1  0.04188410  0.33979422  0.02000847  1
  O  O51  1  0.54103285  0.18885277  0.16156076  1
  O  O52  1  0.95896715  0.18885277  0.33843924  1
  O  O53  1  0.75000000  0.41641219  0.10268884  1
  O  O54  1  0.45896715  0.81114723  0.66156076  1
  O  O55  1  0.50142766  0.38009929  0.86841877  1
  O  O56  1  0.02513506  0.54837259  0.75000000  1
  O  O57  1  0.49857234  0.61990071  0.13158123  1
  O  O58  1  0.75000000  0.60198266  0.63949175  1
  O  O59  1  0.75000000  0.60198266  0.86050825  1
  O  O60  1  0.25000000  0.80606695  0.03857504  1
  O  O61  1  0.25000000  0.58358781  0.89731116  1
  O  O62  1  0.99857234  0.38009929  0.63158123  1
  O  O63  1  0.50000000  0.00000000  0.00000000  1
  O  O64  1  0.45811590  0.33979422  0.47999153  1
  O  O65  1  0.54188410  0.66020578  0.52000847  1
  O  O66  1  0.97292899  0.12409613  0.82522538  1
  O  O67  1  0.95896715  0.18885277  0.16156076  1
  O  O68  1  0.97486494  0.45162741  0.25000000  1
  O  O69  1  0.04103285  0.81114723  0.66156076  1
  O  O70  1  0.25000000  0.80606695  0.46142496  1
  O  O71  1  0.75000000  0.19393305  0.96142496  1
  O  O72  1  0.75000000  0.91161862  0.75000000  1
  O  O73  1  0.75000000  0.84869301  0.07313237  1
  O  O74  1  0.52707101  0.12409613  0.82522538  1
  O  O75  1  0.75000000  0.70217727  0.25000000  1
  O  O76  1  0.54103285  0.18885277  0.33843924  1
  O  O77  1  0.02707101  0.87590387  0.17477462  1
  O  O78  1  0.95811590  0.66020578  0.97999153  1
  O  O79  1  0.50000000  0.00000000  0.50000000  1
  O  O80  1  0.47292899  0.87590387  0.32522538  1
  O  O81  1  0.00000000  0.00000000  0.50000000  1
  O  O82  1  0.25000000  0.39801734  0.36050825  1
  O  O83  1  0.95811590  0.66020578  0.52000847  1
  O  O84  1  0.25000000  0.08838138  0.25000000  1
  O  O85  1  0.25000000  0.98241767  0.75000000  1
  O  O86  1  0.75000000  0.33111586  0.75000000  1
  O  O87  1  0.52707101  0.12409613  0.67477462  1
  O  O88  1  0.75000000  0.19393305  0.53857504  1
  O  O89  1  0.04188410  0.33979422  0.47999153  1
  O  O90  1  0.25000000  0.29782273  0.75000000  1
  O  O91  1  0.00000000  0.00000000  0.00000000  1
  O  O92  1  0.04103285  0.81114723  0.83843924  1
  O  O93  1  0.25000000  0.15130699  0.57313237  1
  O  O94  1  0.54188410  0.66020578  0.97999153  1
  O  O95  1  0.75000000  0.84869301  0.42686763  1
