# generated using pymatgen
data_KLiO
_symmetry_space_group_name_H-M   'P 1'
_cell_length_a   5.46432527
_cell_length_b   5.46432485
_cell_length_c   6.49987053
_cell_angle_alpha   90.00000000
_cell_angle_beta   90.00000000
_cell_angle_gamma   107.45198242
_symmetry_Int_Tables_number   1
_chemical_formula_structural   KLiO
_chemical_formula_sum   'K4 Li4 O4'
_cell_volume   185.14494180
_cell_formula_units_Z   4
loop_
 _symmetry_equiv_pos_site_id
 _symmetry_equiv_pos_as_xyz
  1  'x, y, z'
loop_
 _atom_site_type_symbol
 _atom_site_label
 _atom_site_symmetry_multiplicity
 _atom_site_fract_x
 _atom_site_fract_y
 _atom_site_fract_z
 _atom_site_occupancy
  K  K0  1  0.17565029  0.82434971  0.00000000  1
  K  K1  1  0.82434971  0.17565029  0.00000000  1
  K  K2  1  0.67565029  0.32434971  0.50000000  1
  K  K3  1  0.32434971  0.67565029  0.50000000  1
  Li  Li4  1  0.12521557  0.12521557  0.37395587  1
  Li  Li5  1  0.62521557  0.62521557  0.12604413  1
  Li  Li6  1  0.37478443  0.37478443  0.87395587  1
  Li  Li7  1  0.87478443  0.87478443  0.62604413  1
  O  O8  1  0.33038145  0.33038145  0.16706779  1
  O  O9  1  0.16961855  0.16961855  0.66706779  1
  O  O10  1  0.66961855  0.66961855  0.83293221  1
  O  O11  1  0.83038145  0.83038145  0.33293221  1
