# generated using pymatgen
data_P2NCl5O
_symmetry_space_group_name_H-M   'P 1'
_cell_length_a   13.24555869
_cell_length_b   15.75354398
_cell_length_c   20.56597852
_cell_angle_alpha   90.00000000
_cell_angle_beta   90.00000000
_cell_angle_gamma   110.81530283
_symmetry_Int_Tables_number   1
_chemical_formula_structural   P2NCl5O
_chemical_formula_sum   'P32 N16 Cl80 O16'
_cell_volume   4011.29388958
_cell_formula_units_Z   16
loop_
 _symmetry_equiv_pos_site_id
 _symmetry_equiv_pos_as_xyz
  1  'x, y, z'
loop_
 _atom_site_type_symbol
 _atom_site_label
 _atom_site_symmetry_multiplicity
 _atom_site_fract_x
 _atom_site_fract_y
 _atom_site_fract_z
 _atom_site_occupancy
  P  P0  1  0.97603643  0.44649314  0.75469910  1
  P  P1  1  0.52678492  0.04832923  0.25225836  1
  P  P2  1  0.52678492  0.54832923  0.24774164  1
  P  P3  1  0.80673885  0.26221605  0.77646846  1
  P  P4  1  0.47321508  0.45167077  0.75225836  1
  P  P5  1  0.55168867  0.28341067  0.48582891  1
  P  P6  1  0.19326115  0.23778395  0.27646846  1
  P  P7  1  0.97603643  0.94649314  0.74530090  1
  P  P8  1  0.73514967  0.45510524  0.50791397  1
  P  P9  1  0.02396357  0.55350686  0.24530090  1
  P  P10  1  0.26485033  0.04489476  0.00791397  1
  P  P11  1  0.26485033  0.54489476  0.49208603  1
  P  P12  1  0.79458916  0.03380971  0.49774086  1
  P  P13  1  0.68565925  0.22813622  0.20933180  1
  P  P14  1  0.55168867  0.78341067  0.01417109  1
  P  P15  1  0.03079773  0.28233290  0.00538027  1
  P  P16  1  0.20541084  0.96619029  0.50225914  1
  P  P17  1  0.80673885  0.76221605  0.72353154  1
  P  P18  1  0.96920227  0.21766710  0.50538027  1
  P  P19  1  0.02396357  0.05350686  0.25469910  1
  P  P20  1  0.96920227  0.71766710  0.99461973  1
  P  P21  1  0.31434075  0.27186378  0.70933180  1
  P  P22  1  0.68565925  0.72813622  0.29066820  1
  P  P23  1  0.19326115  0.73778395  0.22353154  1
  P  P24  1  0.73514967  0.95510524  0.99208603  1
  P  P25  1  0.20541084  0.46619029  0.99774086  1
  P  P26  1  0.03079773  0.78233290  0.49461973  1
  P  P27  1  0.44831133  0.21658933  0.98582891  1
  P  P28  1  0.31434075  0.77186378  0.79066820  1
  P  P29  1  0.47321508  0.95167077  0.74774164  1
  P  P30  1  0.44831133  0.71658933  0.51417109  1
  P  P31  1  0.79458916  0.53380971  0.00225914  1
  N  N32  1  0.09321418  0.89029631  0.49831574  1
  N  N33  1  0.12855649  0.14393334  0.24713357  1
  N  N34  1  0.87144351  0.85606666  0.75286643  1
  N  N35  1  0.33621259  0.64615545  0.48652815  1
  N  N36  1  0.37259485  0.35726188  0.75053586  1
  N  N37  1  0.62740515  0.64273812  0.24946414  1
  N  N38  1  0.90678582  0.60970369  0.99831574  1
  N  N39  1  0.87144351  0.35606666  0.74713357  1
  N  N40  1  0.62740515  0.14273812  0.25053586  1
  N  N41  1  0.66378741  0.85384455  0.98652815  1
  N  N42  1  0.90678582  0.10970369  0.50168426  1
  N  N43  1  0.33621259  0.14615545  0.01347185  1
  N  N44  1  0.09321418  0.39029631  0.00168426  1
  N  N45  1  0.12855649  0.64393334  0.25286643  1
  N  N46  1  0.66378741  0.35384455  0.51347185  1
  N  N47  1  0.37259485  0.85726188  0.74946414  1
  Cl  Cl48  1  0.58161007  0.75113658  0.10657331  1
  Cl  Cl49  1  0.60868092  0.42434858  0.72972742  1
  Cl  Cl50  1  0.90077472  0.77570977  0.06177312  1
  Cl  Cl51  1  0.81305086  0.41469746  0.01231661  1
  Cl  Cl52  1  0.03176806  0.99952560  0.34372766  1
  Cl  Cl53  1  0.81813960  0.98883330  0.07574489  1
  Cl  Cl54  1  0.73405086  0.76338595  0.63871754  1
  Cl  Cl55  1  0.18694914  0.08530254  0.51231661  1
  Cl  Cl56  1  0.89329064  0.59203384  0.23501837  1
  Cl  Cl57  1  0.03176806  0.49952560  0.15627234  1
  Cl  Cl58  1  0.88892632  0.67900445  0.70925803  1
  Cl  Cl59  1  0.11107368  0.32099555  0.29074197  1
  Cl  Cl60  1  0.29965434  0.45808751  0.92383425  1
  Cl  Cl61  1  0.89329064  0.09203384  0.26498163  1
  Cl  Cl62  1  0.84678679  0.48671169  0.57733557  1
  Cl  Cl63  1  0.81813960  0.48883330  0.42425511  1
  Cl  Cl64  1  0.46288952  0.83244179  0.46531945  1
  Cl  Cl65  1  0.60868092  0.92434858  0.77027258  1
  Cl  Cl66  1  0.18186040  0.51116670  0.57574489  1
  Cl  Cl67  1  0.81120605  0.31127366  0.25856457  1
  Cl  Cl68  1  0.41838993  0.74886342  0.60657331  1
  Cl  Cl69  1  0.11107368  0.82099555  0.20925803  1
  Cl  Cl70  1  0.15321321  0.51328831  0.42266443  1
  Cl  Cl71  1  0.96823194  0.50047440  0.84372766  1
  Cl  Cl72  1  0.54072076  0.97436925  0.17380707  1
  Cl  Cl73  1  0.81120605  0.81127366  0.24143543  1
  Cl  Cl74  1  0.68810862  0.19487057  0.71600389  1
  Cl  Cl75  1  0.09922528  0.72429023  0.56177312  1
  Cl  Cl76  1  0.10670936  0.90796616  0.73501837  1
  Cl  Cl77  1  0.74675181  0.20745896  0.12461006  1
  Cl  Cl78  1  0.84678679  0.98671169  0.92266443  1
  Cl  Cl79  1  0.65996514  0.04437116  0.98351047  1
  Cl  Cl80  1  0.15321321  0.01328831  0.07733557  1
  Cl  Cl81  1  0.39131908  0.57565142  0.27027258  1
  Cl  Cl82  1  0.58161007  0.25113658  0.39342669  1
  Cl  Cl83  1  0.26594914  0.73661405  0.13871754  1
  Cl  Cl84  1  0.81305086  0.91469746  0.48768339  1
  Cl  Cl85  1  0.18879395  0.18872634  0.75856457  1
  Cl  Cl86  1  0.45927924  0.52563075  0.67380707  1
  Cl  Cl87  1  0.18186040  0.01116670  0.92425511  1
  Cl  Cl88  1  0.65996514  0.54437116  0.51648953  1
  Cl  Cl89  1  0.07504178  0.73920987  0.40939558  1
  Cl  Cl90  1  0.29902124  0.98067302  0.42325042  1
  Cl  Cl91  1  0.09922528  0.22429023  0.93822688  1
  Cl  Cl92  1  0.92495822  0.76079013  0.90939558  1
  Cl  Cl93  1  0.70097876  0.01932698  0.57674958  1
  Cl  Cl94  1  0.25324819  0.29254104  0.62461006  1
  Cl  Cl95  1  0.31189138  0.80512943  0.28399611  1
  Cl  Cl96  1  0.59815373  0.80480715  0.31295898  1
  Cl  Cl97  1  0.53711048  0.16755821  0.53468055  1
  Cl  Cl98  1  0.34003486  0.95562884  0.01648953  1
  Cl  Cl99  1  0.96823194  0.00047440  0.65627234  1
  Cl  Cl100  1  0.18694914  0.58530254  0.98768339  1
  Cl  Cl101  1  0.45927924  0.02563075  0.82619293  1
  Cl  Cl102  1  0.74675181  0.70745896  0.37538994  1
  Cl  Cl103  1  0.53711048  0.66755821  0.96531945  1
  Cl  Cl104  1  0.40184627  0.19519285  0.68704102  1
  Cl  Cl105  1  0.46288952  0.33244179  0.03468055  1
  Cl  Cl106  1  0.54072076  0.47436925  0.32619293  1
  Cl  Cl107  1  0.26594914  0.23661405  0.36128246  1
  Cl  Cl108  1  0.18879395  0.68872634  0.74143543  1
  Cl  Cl109  1  0.39131908  0.07565142  0.22972742  1
  Cl  Cl110  1  0.73405086  0.26338595  0.86128246  1
  Cl  Cl111  1  0.90077472  0.27570977  0.43822688  1
  Cl  Cl112  1  0.34003486  0.45562884  0.48351047  1
  Cl  Cl113  1  0.25324819  0.79254104  0.87538994  1
  Cl  Cl114  1  0.29965434  0.95808751  0.57616575  1
  Cl  Cl115  1  0.40184627  0.69519285  0.81295898  1
  Cl  Cl116  1  0.41838993  0.24886342  0.89342669  1
  Cl  Cl117  1  0.29902124  0.48067302  0.07674958  1
  Cl  Cl118  1  0.07504178  0.23920987  0.09060442  1
  Cl  Cl119  1  0.59815373  0.30480715  0.18704102  1
  Cl  Cl120  1  0.70097876  0.51932698  0.92325042  1
  Cl  Cl121  1  0.10670936  0.40796616  0.76498163  1
  Cl  Cl122  1  0.68810862  0.69487057  0.78399611  1
  Cl  Cl123  1  0.70034566  0.54191249  0.07616575  1
  Cl  Cl124  1  0.70034566  0.04191249  0.42383425  1
  Cl  Cl125  1  0.88892632  0.17900445  0.79074197  1
  Cl  Cl126  1  0.31189138  0.30512943  0.21600389  1
  Cl  Cl127  1  0.92495822  0.26079013  0.59060442  1
  O  O128  1  0.99328317  0.01476312  0.79748811  1
  O  O129  1  0.00671683  0.98523688  0.20251189  1
  O  O130  1  0.91225683  0.75074306  0.50134703  1
  O  O131  1  0.51283100  0.49566972  0.18684767  1
  O  O132  1  0.91225683  0.25074306  0.99865297  1
  O  O133  1  0.51283100  0.99566972  0.31315233  1
  O  O134  1  0.45220949  0.80531738  0.01131917  1
  O  O135  1  0.00671683  0.48523688  0.29748811  1
  O  O136  1  0.08774317  0.74925694  0.00134703  1
  O  O137  1  0.48716900  0.00433028  0.68684767  1
  O  O138  1  0.08774317  0.24925694  0.49865297  1
  O  O139  1  0.99328317  0.51476312  0.70251189  1
  O  O140  1  0.45220949  0.30531738  0.48868083  1
  O  O141  1  0.54779051  0.69468262  0.51131917  1
  O  O142  1  0.54779051  0.19468262  0.98868083  1
  O  O143  1  0.48716900  0.50433028  0.81315233  1
