# generated using pymatgen
data_KCO2
_symmetry_space_group_name_H-M   'P 1'
_cell_length_a   3.50449640
_cell_length_b   6.21182462
_cell_length_c   11.08983618
_cell_angle_alpha   90.00000000
_cell_angle_beta   90.00000000
_cell_angle_gamma   90.00000000
_symmetry_Int_Tables_number   1
_chemical_formula_structural   KCO2
_chemical_formula_sum   'K4 C4 O8'
_cell_volume   241.41815948
_cell_formula_units_Z   4
loop_
 _symmetry_equiv_pos_site_id
 _symmetry_equiv_pos_as_xyz
  1  'x, y, z'
loop_
 _atom_site_type_symbol
 _atom_site_label
 _atom_site_symmetry_multiplicity
 _atom_site_fract_x
 _atom_site_fract_y
 _atom_site_fract_z
 _atom_site_occupancy
  K  K0  1  0.50000000  0.90420357  0.84941471  1
  K  K1  1  0.50000000  0.09579643  0.15058529  1
  K  K2  1  0.50000000  0.40420357  0.65058529  1
  K  K3  1  0.50000000  0.59579643  0.34941471  1
  C  C4  1  0.00000000  0.43110901  0.93957832  1
  C  C5  1  0.00000000  0.93110901  0.56042168  1
  C  C6  1  0.00000000  0.06889099  0.43957832  1
  C  C7  1  0.00000000  0.56889099  0.06042168  1
  O  O8  1  0.00000000  0.53517596  0.84078158  1
  O  O9  1  0.00000000  0.03517596  0.65921842  1
  O  O10  1  0.00000000  0.22798690  0.95090743  1
  O  O11  1  0.00000000  0.96482404  0.34078158  1
  O  O12  1  0.00000000  0.27201310  0.45090743  1
  O  O13  1  0.00000000  0.77201310  0.04909257  1
  O  O14  1  0.00000000  0.46482404  0.15921842  1
  O  O15  1  0.00000000  0.72798690  0.54909257  1
