# generated using pymatgen
data_Cs3LiF4
_symmetry_space_group_name_H-M   'P 1'
_cell_length_a   6.15823259
_cell_length_b   7.59422114
_cell_length_c   9.05053748
_cell_angle_alpha   102.54482767
_cell_angle_beta   90.00000000
_cell_angle_gamma   113.91965414
_symmetry_Int_Tables_number   1
_chemical_formula_structural   Cs3LiF4
_chemical_formula_sum   'Cs6 Li2 F8'
_cell_volume   375.83302023
_cell_formula_units_Z   2
loop_
 _symmetry_equiv_pos_site_id
 _symmetry_equiv_pos_as_xyz
  1  'x, y, z'
loop_
 _atom_site_type_symbol
 _atom_site_label
 _atom_site_symmetry_multiplicity
 _atom_site_fract_x
 _atom_site_fract_y
 _atom_site_fract_z
 _atom_site_occupancy
  Cs  Cs0  1  0.57243088  0.14486175  0.23319157  1
  Cs  Cs1  1  0.13399430  0.26798860  0.90216982  1
  Cs  Cs2  1  0.30919650  0.61839300  0.35365920  1
  Cs  Cs3  1  0.42756912  0.85513825  0.76680843  1
  Cs  Cs4  1  0.69080350  0.38160700  0.64634080  1
  Cs  Cs5  1  0.86600570  0.73201140  0.09783018  1
  Li  Li6  1  0.91983371  0.83966741  0.54259500  1
  Li  Li7  1  0.08016629  0.16033259  0.45740500  1
  F  F8  1  0.64353323  0.28706645  0.95042058  1
  F  F9  1  0.76637914  0.00000000  0.50000000  1
  F  F10  1  0.08782564  0.17565129  0.24547019  1
  F  F11  1  0.79495661  0.58991321  0.39508952  1
  F  F12  1  0.91217436  0.82434871  0.75452981  1
  F  F13  1  0.35646677  0.71293355  0.04957942  1
  F  F14  1  0.23362086  0.00000000  0.50000000  1
  F  F15  1  0.20504339  0.41008679  0.60491048  1
