# generated using pymatgen
data_Mg2Sn9O13
_symmetry_space_group_name_H-M   'P 1'
_cell_length_a   3.20059983
_cell_length_b   8.19305331
_cell_length_c   15.78239610
_cell_angle_alpha   107.08866831
_cell_angle_beta   89.92646903
_cell_angle_gamma   101.34915019
_symmetry_Int_Tables_number   1
_chemical_formula_structural   Mg2Sn9O13
_chemical_formula_sum   'Mg2 Sn9 O13'
_cell_volume   387.14373049
_cell_formula_units_Z   1
loop_
 _symmetry_equiv_pos_site_id
 _symmetry_equiv_pos_as_xyz
  1  'x, y, z'
loop_
 _atom_site_type_symbol
 _atom_site_label
 _atom_site_symmetry_multiplicity
 _atom_site_fract_x
 _atom_site_fract_y
 _atom_site_fract_z
 _atom_site_occupancy
  Mg  Mg0  1  0.36936174  0.74151604  0.23555689  1
  Mg  Mg1  1  0.63063826  0.25848396  0.76444311  1
  Sn  Sn2  1  0.50000000  -0.00000000  0.50000000  1
  Sn  Sn3  1  0.67176963  0.34455103  0.11050492  1
  Sn  Sn4  1  0.32823037  0.65544897  0.88949508  1
  Sn  Sn5  1  0.79139063  0.58812490  0.37707860  1
  Sn  Sn6  1  0.20860937  0.41187510  0.62292140  1
  Sn  Sn7  1  0.96694937  0.93415375  0.11314779  1
  Sn  Sn8  1  0.03305063  0.06584625  0.88685221  1
  Sn  Sn9  1  0.09214255  0.17507212  0.32659405  1
  Sn  Sn10  1  0.90785745  0.82492788  0.67340595  1
  O  O11  1  -0.00000000  -0.00000000  -0.00000000  1
  O  O12  1  0.95677138  0.91473640  0.24650945  1
  O  O13  1  0.04322862  0.08526360  0.75349055  1
  O  O14  1  0.37979548  0.76060090  0.09670018  1
  O  O15  1  0.62020452  0.23939910  0.90329982  1
  O  O16  1  0.56199842  0.12510769  0.16264524  1
  O  O17  1  0.43800158  0.87489231  0.83735476  1
  O  O18  1  0.77961684  0.56307589  0.23857389  1
  O  O19  1  0.22038316  0.43692411  0.76142611  1
  O  O20  1  0.38972069  0.78220476  0.38293322  1
  O  O21  1  0.61027931  0.21779524  0.61706678  1
  O  O22  1  0.05917451  0.11626264  0.45284100  1
  O  O23  1  0.94082549  0.88373736  0.54715900  1
