# generated using pymatgen
data_DyCu(MoO4)2
_symmetry_space_group_name_H-M   'P 1'
_cell_length_a   9.88392986
_cell_length_b   10.28195852
_cell_length_c   14.71668399
_cell_angle_alpha   90.00000000
_cell_angle_beta   90.00000000
_cell_angle_gamma   90.00000000
_symmetry_Int_Tables_number   1
_chemical_formula_structural   DyCu(MoO4)2
_chemical_formula_sum   'Dy8 Cu8 Mo16 O64'
_cell_volume   1495.60003526
_cell_formula_units_Z   8
loop_
 _symmetry_equiv_pos_site_id
 _symmetry_equiv_pos_as_xyz
  1  'x, y, z'
loop_
 _atom_site_type_symbol
 _atom_site_label
 _atom_site_symmetry_multiplicity
 _atom_site_fract_x
 _atom_site_fract_y
 _atom_site_fract_z
 _atom_site_occupancy
  Dy  Dy0  1  0.77854237  0.03451319  0.10382814  1
  Dy  Dy1  1  0.77854237  0.53451319  0.39617186  1
  Dy  Dy2  1  0.27854237  0.46548681  0.10382814  1
  Dy  Dy3  1  0.72145763  0.03451319  0.60382814  1
  Dy  Dy4  1  0.22145763  0.96548681  0.89617186  1
  Dy  Dy5  1  0.22145763  0.46548681  0.60382814  1
  Dy  Dy6  1  0.72145763  0.53451319  0.89617186  1
  Dy  Dy7  1  0.27854237  0.96548681  0.39617186  1
  Cu  Cu8  1  0.18812700  0.31676824  0.80241338  1
  Cu  Cu9  1  0.68812700  0.68323176  0.69758662  1
  Cu  Cu10  1  0.31187300  0.81676824  0.19758662  1
  Cu  Cu11  1  0.81187300  0.18323176  0.30241338  1
  Cu  Cu12  1  0.81187300  0.68323176  0.19758662  1
  Cu  Cu13  1  0.31187300  0.31676824  0.30241338  1
  Cu  Cu14  1  0.68812700  0.18323176  0.80241338  1
  Cu  Cu15  1  0.18812700  0.81676824  0.69758662  1
  Mo  Mo16  1  0.66731238  0.89704722  0.34697148  1
  Mo  Mo17  1  0.00063329  0.78113755  0.55689997  1
  Mo  Mo18  1  0.50063329  0.21886245  0.94310003  1
  Mo  Mo19  1  0.49936671  0.28113755  0.44310003  1
  Mo  Mo20  1  0.99936671  0.71886245  0.05689997  1
  Mo  Mo21  1  0.99936671  0.21886245  0.44310003  1
  Mo  Mo22  1  0.49936671  0.78113755  0.05689997  1
  Mo  Mo23  1  0.50063329  0.71886245  0.55689997  1
  Mo  Mo24  1  0.00063329  0.28113755  0.94310003  1
  Mo  Mo25  1  0.16731238  0.10295278  0.15302852  1
  Mo  Mo26  1  0.83268762  0.39704722  0.65302852  1
  Mo  Mo27  1  0.33268762  0.60295278  0.84697148  1
  Mo  Mo28  1  0.66731238  0.39704722  0.15302852  1
  Mo  Mo29  1  0.83268762  0.89704722  0.84697148  1
  Mo  Mo30  1  0.16731238  0.60295278  0.34697148  1
  Mo  Mo31  1  0.33268762  0.10295278  0.65302852  1
  O  O32  1  0.10722666  0.32853878  0.50285031  1
  O  O33  1  0.60722666  0.67146122  0.99714969  1
  O  O34  1  0.39277334  0.82853878  0.49714969  1
  O  O35  1  0.89277334  0.17146122  0.00285031  1
  O  O36  1  0.89277334  0.67146122  0.49714969  1
  O  O37  1  0.39277334  0.32853878  0.00285031  1
  O  O38  1  0.60722666  0.17146122  0.50285031  1
  O  O39  1  0.10722666  0.82853878  0.99714969  1
  O  O40  1  0.24371858  0.98908058  0.72845301  1
  O  O41  1  0.74371858  0.01091942  0.77154699  1
  O  O42  1  0.25628142  0.48908058  0.27154699  1
  O  O43  1  0.75628142  0.51091942  0.22845301  1
  O  O44  1  0.75628142  0.01091942  0.27154699  1
  O  O45  1  0.25628142  0.98908058  0.22845301  1
  O  O46  1  0.74371858  0.51091942  0.72845301  1
  O  O47  1  0.24371858  0.48908058  0.77154699  1
  O  O48  1  0.22395150  0.76668238  0.32049974  1
  O  O49  1  0.72395150  0.23331762  0.17950026  1
  O  O50  1  0.27604850  0.26668238  0.67950026  1
  O  O51  1  0.77604850  0.73331762  0.82049974  1
  O  O52  1  0.77604850  0.23331762  0.67950026  1
  O  O53  1  0.27604850  0.76668238  0.82049974  1
  O  O54  1  0.72395150  0.73331762  0.32049974  1
  O  O55  1  0.89154927  0.32098347  0.36727671  1
  O  O56  1  0.22395150  0.26668238  0.17950026  1
  O  O57  1  0.29446086  0.57271810  0.96305448  1
  O  O58  1  0.70553914  0.92728190  0.46305448  1
  O  O59  1  0.20553914  0.07271810  0.03694552  1
  O  O60  1  0.20553914  0.57271810  0.46305448  1
  O  O61  1  0.70553914  0.42728190  0.03694552  1
  O  O62  1  0.29446086  0.07271810  0.53694552  1
  O  O63  1  0.79446086  0.92728190  0.96305448  1
  O  O64  1  0.90052906  0.62872641  0.97763521  1
  O  O65  1  0.40052906  0.37127359  0.52236479  1
  O  O66  1  0.59947094  0.12872641  0.02236479  1
  O  O67  1  0.09947094  0.87127359  0.47763521  1
  O  O68  1  0.09947094  0.37127359  0.02236479  1
  O  O69  1  0.59947094  0.62872641  0.47763521  1
  O  O70  1  0.40052906  0.87127359  0.97763521  1
  O  O71  1  0.90052906  0.12872641  0.52236479  1
  O  O72  1  0.89594517  0.38824713  0.87669319  1
  O  O73  1  0.39594517  0.61175287  0.62330681  1
  O  O74  1  0.60405483  0.88824713  0.12330681  1
  O  O75  1  0.10405483  0.11175287  0.37669319  1
  O  O76  1  0.10405483  0.61175287  0.12330681  1
  O  O77  1  0.60405483  0.38824713  0.37669319  1
  O  O78  1  0.39594517  0.11175287  0.87669319  1
  O  O79  1  0.89594517  0.88824713  0.62330681  1
  O  O80  1  0.98921760  0.08820581  0.16864627  1
  O  O81  1  0.48921760  0.91179419  0.33135373  1
  O  O82  1  0.51078240  0.58820581  0.83135373  1
  O  O83  1  0.01078240  0.41179419  0.66864627  1
  O  O84  1  0.01078240  0.91179419  0.83135373  1
  O  O85  1  0.51078240  0.08820581  0.66864627  1
  O  O86  1  0.48921760  0.41179419  0.16864627  1
  O  O87  1  0.98921760  0.58820581  0.33135373  1
  O  O88  1  0.89154927  0.82098347  0.13272329  1
  O  O89  1  0.39154927  0.17901653  0.36727671  1
  O  O90  1  0.60845073  0.32098347  0.86727671  1
  O  O91  1  0.10845073  0.67901653  0.63272329  1
  O  O92  1  0.10845073  0.17901653  0.86727671  1
  O  O93  1  0.60845073  0.82098347  0.63272329  1
  O  O94  1  0.39154927  0.67901653  0.13272329  1
  O  O95  1  0.79446086  0.42728190  0.53694552  1
