# generated using pymatgen
data_BaNa2Ti2(Si2O7)2
_symmetry_space_group_name_H-M   'P 1'
_cell_length_a   8.22152149
_cell_length_b   9.69729365
_cell_length_c   9.69729376
_cell_angle_alpha   65.79976017
_cell_angle_beta   64.91843418
_cell_angle_gamma   64.91843177
_symmetry_Int_Tables_number   1
_chemical_formula_structural   BaNa2Ti2(Si2O7)2
_chemical_formula_sum   'Ba2 Na4 Ti4 Si8 O28'
_cell_volume   608.71023921
_cell_formula_units_Z   2
loop_
 _symmetry_equiv_pos_site_id
 _symmetry_equiv_pos_as_xyz
  1  'x, y, z'
loop_
 _atom_site_type_symbol
 _atom_site_label
 _atom_site_symmetry_multiplicity
 _atom_site_fract_x
 _atom_site_fract_y
 _atom_site_fract_z
 _atom_site_occupancy
  Ba  Ba0  1  0.72779541  -0.00111297  0.49888703  1
  Ba  Ba1  1  0.22556946  1.00111297  0.50111297  1
  Na  Na2  1  0.97797570  1.00000000  1.00000000  1
  Na  Na3  1  0.81104232  0.40798604  0.90798604  1
  Na  Na4  1  0.12701440  0.59201396  0.09201396  1
  Na  Na5  1  0.97797570  0.50000000  0.50000000  1
  Ti  Ti6  1  0.17123547  0.78227188  0.28227188  1
  Ti  Ti7  1  0.23577923  0.21772812  0.71772812  1
  Ti  Ti8  1  0.73716317  0.21917378  0.71917378  1
  Ti  Ti9  1  0.67551074  0.78082622  0.28082622  1
  Si  Si10  1  0.43244018  0.38381212  0.32608185  1
  Si  Si11  1  0.53722397  0.17393002  0.11597486  1
  Si  Si12  1  0.82712885  0.82606998  0.88402514  1
  Si  Si13  1  0.43244018  0.82608185  0.88381212  1
  Si  Si14  1  0.82712885  0.38402514  0.32606998  1
  Si  Si15  1  0.14233416  0.61618788  0.67391815  1
  Si  Si16  1  0.53722397  0.61597486  0.67393002  1
  Si  Si17  1  0.14233416  0.17391815  0.11618788  1
  O  O18  1  0.26653178  0.81702606  0.05108592  1
  O  O19  1  0.46341316  0.78386231  0.28386231  1
  O  O20  1  0.26653178  0.55108592  0.31702606  1
  O  O21  1  0.13464375  0.44891408  0.68297394  1
  O  O22  1  0.83091193  0.81497437  0.05379920  1
  O  O23  1  0.69968551  0.18502563  0.94620080  1
  O  O24  1  0.48693810  0.33824047  0.16100005  1
  O  O25  1  0.04069074  0.20341184  0.70341184  1
  O  O26  1  0.34195754  0.17852885  0.10725248  1
  O  O27  1  0.87923371  0.98052200  0.74285522  1
  O  O28  1  0.62773887  0.39274752  0.32147115  1
  O  O29  1  0.60261094  0.01947800  0.25714478  1
  O  O30  1  0.60261094  0.75714478  0.51947800  1
  O  O31  1  0.83091193  0.55379920  0.31497437  1
  O  O32  1  0.09231533  0.75954543  0.52025712  1
  O  O33  1  0.09231533  0.02025712  0.25954543  1
  O  O34  1  0.98617863  0.33899995  0.16175953  1
  O  O35  1  0.62773887  0.82147115  0.89274752  1
  O  O36  1  0.34195754  0.60725248  0.67852885  1
  O  O37  1  0.37211789  0.97974288  0.74045457  1
  O  O38  1  0.13464375  0.18297394  0.94891408  1
  O  O39  1  0.53113778  0.21613769  0.71613769  1
  O  O40  1  0.37211789  0.24045457  0.47974288  1
  O  O41  1  0.87923371  0.24285522  0.48052200  1
  O  O42  1  0.69968551  0.44620080  0.68502563  1
  O  O43  1  0.98617863  0.66175953  0.83899995  1
  O  O44  1  0.48693810  0.66100005  0.83824047  1
  O  O45  1  0.94751442  0.79658816  0.29658816  1
