# generated using pymatgen
data_Fe2Cu3(SeO3)6
_symmetry_space_group_name_H-M   'P 1'
_cell_length_a   5.48442688
_cell_length_b   7.68447727
_cell_length_c   19.35901165
_cell_angle_alpha   90.00000000
_cell_angle_beta   90.00000000
_cell_angle_gamma   92.37457245
_symmetry_Int_Tables_number   1
_chemical_formula_structural   Fe2Cu3(SeO3)6
_chemical_formula_sum   'Fe4 Cu6 Se12 O36'
_cell_volume   815.18406289
_cell_formula_units_Z   2
loop_
 _symmetry_equiv_pos_site_id
 _symmetry_equiv_pos_as_xyz
  1  'x, y, z'
loop_
 _atom_site_type_symbol
 _atom_site_label
 _atom_site_symmetry_multiplicity
 _atom_site_fract_x
 _atom_site_fract_y
 _atom_site_fract_z
 _atom_site_occupancy
  Fe  Fe0  1  0.53240339  0.76194557  0.65653495  1
  Fe  Fe1  1  0.46759661  0.23805443  0.34346505  1
  Fe  Fe2  1  0.03240339  0.26194557  0.84346505  1
  Fe  Fe3  1  0.96759661  0.73805443  0.15653495  1
  Cu  Cu4  1  0.11546749  0.32332539  0.51333280  1
  Cu  Cu5  1  0.88453251  0.67667461  0.48666720  1
  Cu  Cu6  1  0.38453251  0.17667461  0.01333280  1
  Cu  Cu7  1  0.00000000  0.50000000  0.00000000  1
  Cu  Cu8  1  0.61546749  0.82332539  0.98666720  1
  Cu  Cu9  1  0.50000000  0.00000000  0.50000000  1
  Se  Se10  1  0.47594085  0.93963431  0.22052621  1
  Se  Se11  1  0.37850760  0.64130861  0.40381889  1
  Se  Se12  1  0.45134000  0.52635391  0.11737799  1
  Se  Se13  1  0.54866000  0.47364609  0.88262201  1
  Se  Se14  1  0.52405915  0.06036569  0.77947379  1
  Se  Se15  1  0.97594085  0.43963431  0.27947379  1
  Se  Se16  1  0.04866000  0.97364609  0.61737799  1
  Se  Se17  1  0.12149240  0.85869139  0.90381889  1
  Se  Se18  1  0.02405915  0.56036569  0.72052621  1
  Se  Se19  1  0.62149240  0.35869139  0.59618111  1
  Se  Se20  1  0.87850760  0.14130861  0.09618111  1
  Se  Se21  1  0.95134000  0.02635391  0.38262201  1
  O  O22  1  0.06314314  0.26301143  0.03712046  1
  O  O23  1  0.56314314  0.76301143  0.46287954  1
  O  O24  1  0.08146950  0.50784599  0.80557952  1
  O  O25  1  0.66419891  0.03941117  0.04073396  1
  O  O26  1  0.24731615  0.15918742  0.77089330  1
  O  O27  1  0.83157200  0.81103745  0.59401758  1
  O  O28  1  0.74731615  0.65918742  0.72910670  1
  O  O29  1  0.66842800  0.68896255  0.09401758  1
  O  O30  1  0.93557886  0.02835758  0.88995968  1
  O  O31  1  0.68494472  0.11064721  0.42122172  1
  O  O32  1  0.16419891  0.53941117  0.45926604  1
  O  O33  1  0.22502199  0.74127920  0.71275438  1
  O  O34  1  0.06442114  0.97164242  0.11004032  1
  O  O35  1  0.27497801  0.75872080  0.21275438  1
  O  O36  1  0.75268385  0.84081258  0.22910670  1
  O  O37  1  0.93685686  0.73698857  0.96287954  1
  O  O38  1  0.81505528  0.38935279  0.92122172  1
  O  O39  1  0.25268385  0.34081258  0.27089330  1
  O  O40  1  0.04730095  0.87543415  0.44227203  1
  O  O41  1  0.56442114  0.47164242  0.38995968  1
  O  O42  1  0.41853050  0.99215401  0.30557952  1
  O  O43  1  0.33157200  0.31103745  0.90598242  1
  O  O44  1  0.18494472  0.61064721  0.07877828  1
  O  O45  1  0.58146950  0.00784599  0.69442048  1
  O  O46  1  0.31505528  0.88935279  0.57877828  1
  O  O47  1  0.72502199  0.24127920  0.78724562  1
  O  O48  1  0.77497801  0.25872080  0.28724562  1
  O  O49  1  0.16842800  0.18896255  0.40598242  1
  O  O50  1  0.54730095  0.37543415  0.05772797  1
  O  O51  1  0.91853050  0.49215401  0.19442048  1
  O  O52  1  0.43685686  0.23698857  0.53712046  1
  O  O53  1  0.33580109  0.96058883  0.95926604  1
  O  O54  1  0.45269905  0.62456585  0.94227203  1
  O  O55  1  0.43557886  0.52835758  0.61004032  1
  O  O56  1  0.95269905  0.12456585  0.55772797  1
  O  O57  1  0.83580109  0.46058883  0.54073396  1
