# generated using pymatgen
data_Sr3Cu3(PO4)4
_symmetry_space_group_name_H-M   'P 1'
_cell_length_a   5.01746456
_cell_length_b   9.35665638
_cell_length_c   15.19470160
_cell_angle_alpha   92.84698930
_cell_angle_beta   90.00000000
_cell_angle_gamma   90.00000000
_symmetry_Int_Tables_number   1
_chemical_formula_structural   Sr3Cu3(PO4)4
_chemical_formula_sum   'Sr6 Cu6 P8 O32'
_cell_volume   712.46052396
_cell_formula_units_Z   2
loop_
 _symmetry_equiv_pos_site_id
 _symmetry_equiv_pos_as_xyz
  1  'x, y, z'
loop_
 _atom_site_type_symbol
 _atom_site_label
 _atom_site_symmetry_multiplicity
 _atom_site_fract_x
 _atom_site_fract_y
 _atom_site_fract_z
 _atom_site_occupancy
  Sr  Sr0  1  0.96520378  0.04193036  0.23606062  1
  Sr  Sr1  1  0.03479622  0.95806964  0.76393938  1
  Sr  Sr2  1  0.53479622  0.54193036  0.73606062  1
  Sr  Sr3  1  0.50000000  0.50000000  0.00000000  1
  Sr  Sr4  1  0.46520378  0.45806964  0.26393938  1
  Sr  Sr5  1  0.00000000  0.00000000  0.50000000  1
  Cu  Cu6  1  0.46358264  0.82715453  0.12101522  1
  Cu  Cu7  1  0.03641736  0.32715453  0.62101522  1
  Cu  Cu8  1  0.96358264  0.67284547  0.37898478  1
  Cu  Cu9  1  0.53641736  0.17284547  0.87898478  1
  Cu  Cu10  1  0.00000000  0.00000000  0.00000000  1
  Cu  Cu11  1  0.50000000  0.50000000  0.50000000  1
  P  P12  1  0.97938621  0.63001064  0.16307534  1
  P  P13  1  0.52061379  0.13001064  0.66307534  1
  P  P14  1  0.47938621  0.86998936  0.33692466  1
  P  P15  1  0.49012765  0.85095874  0.91225063  1
  P  P16  1  0.50987235  0.14904126  0.08774937  1
  P  P17  1  0.99012765  0.64904126  0.58774937  1
  P  P18  1  0.00987235  0.35095874  0.41225063  1
  P  P19  1  0.02061379  0.36998936  0.83692466  1
  O  O20  1  0.19167785  0.49059136  0.41847130  1
  O  O21  1  0.28592491  0.59786006  0.59384800  1
  O  O22  1  0.93968749  0.73504851  0.50471698  1
  O  O23  1  0.47952621  0.08824997  0.76181848  1
  O  O24  1  0.06031251  0.26495149  0.49528302  1
  O  O25  1  0.52047379  0.91175003  0.23818152  1
  O  O26  1  0.67551215  0.62057108  0.14338516  1
  O  O27  1  0.57589965  0.71435097  0.35058387  1
  O  O28  1  0.58542294  0.23682067  0.17159760  1
  O  O29  1  0.36383005  0.01620169  0.60898117  1
  O  O30  1  0.21407509  0.09786006  0.09384800  1
  O  O31  1  0.78592491  0.90213994  0.90615200  1
  O  O32  1  0.86383005  0.48379831  0.89101883  1
  O  O33  1  0.56031251  0.23504851  0.00471698  1
  O  O34  1  0.97952621  0.41175003  0.73818152  1
  O  O35  1  0.80832215  0.50940864  0.58152870  1
  O  O36  1  0.07589965  0.78564903  0.14941613  1
  O  O37  1  0.43968749  0.76495149  0.99528302  1
  O  O38  1  0.32448785  0.37942892  0.85661484  1
  O  O39  1  0.71407509  0.40213994  0.40615200  1
  O  O40  1  0.91457706  0.73682067  0.67159760  1
  O  O41  1  0.02047379  0.58824997  0.26181848  1
  O  O42  1  0.63616995  0.98379831  0.39101883  1
  O  O43  1  0.82448785  0.12057108  0.64338516  1
  O  O44  1  0.08542294  0.26317933  0.32840240  1
  O  O45  1  0.69167785  0.00940864  0.08152870  1
  O  O46  1  0.42410035  0.28564903  0.64941613  1
  O  O47  1  0.17551215  0.87942892  0.35661484  1
  O  O48  1  0.13616995  0.51620169  0.10898117  1
  O  O49  1  0.92410035  0.21435097  0.85058387  1
  O  O50  1  0.41457706  0.76317933  0.82840240  1
  O  O51  1  0.30832215  0.99059136  0.91847130  1
