# generated using pymatgen
data_Nd3Si2ClO8
_symmetry_space_group_name_H-M   'P 1'
_cell_length_a   6.45278452
_cell_length_b   7.83977341
_cell_length_c   8.81764785
_cell_angle_alpha   97.47231145
_cell_angle_beta   90.00000000
_cell_angle_gamma   114.30170749
_symmetry_Int_Tables_number   1
_chemical_formula_structural   Nd3Si2ClO8
_chemical_formula_sum   'Nd6 Si4 Cl2 O16'
_cell_volume   402.38453110
_cell_formula_units_Z   2
loop_
 _symmetry_equiv_pos_site_id
 _symmetry_equiv_pos_as_xyz
  1  'x, y, z'
loop_
 _atom_site_type_symbol
 _atom_site_label
 _atom_site_symmetry_multiplicity
 _atom_site_fract_x
 _atom_site_fract_y
 _atom_site_fract_z
 _atom_site_occupancy
  Nd  Nd0  1  0.78970450  0.36977493  0.17082085  1
  Nd  Nd1  1  0.41992957  0.63022507  0.32917915  1
  Nd  Nd2  1  0.58007043  0.36977493  0.67082085  1
  Nd  Nd3  1  0.92487978  0.00000000  0.75000000  1
  Nd  Nd4  1  0.21029550  0.63022507  0.82917915  1
  Nd  Nd5  1  0.07512022  0.00000000  0.25000000  1
  Si  Si6  1  0.21239570  0.31609321  0.02494817  1
  Si  Si7  1  0.10369751  0.31609321  0.52494817  1
  Si  Si8  1  0.89630249  0.68390679  0.47505183  1
  Si  Si9  1  0.78760430  0.68390679  0.97505183  1
  Cl  Cl10  1  0.47479392  0.00000000  0.75000000  1
  Cl  Cl11  1  0.52520608  0.00000000  0.25000000  1
  O  O12  1  0.95900890  0.69054548  0.65610122  1
  O  O13  1  0.09677670  0.71490589  0.35514626  1
  O  O14  1  0.04099110  0.30945452  0.34389878  1
  O  O15  1  0.31879772  0.52362581  0.58160034  1
  O  O16  1  0.94919082  0.15483932  0.03051876  1
  O  O17  1  0.20482809  0.52362581  0.08160034  1
  O  O18  1  0.05080918  0.84516068  0.96948124  1
  O  O19  1  0.38187081  0.28509411  0.14485374  1
  O  O20  1  0.26846342  0.30945452  0.84389878  1
  O  O21  1  0.61812919  0.71490589  0.85514626  1
  O  O22  1  0.79435150  0.84516068  0.46948124  1
  O  O23  1  0.79517191  0.47637419  0.91839966  1
  O  O24  1  0.90322330  0.28509411  0.64485374  1
  O  O25  1  0.68120228  0.47637419  0.41839966  1
  O  O26  1  0.73153658  0.69054548  0.15610122  1
  O  O27  1  0.20564850  0.15483932  0.53051876  1
