# generated using pymatgen
data_Hg4Se4O9
_symmetry_space_group_name_H-M   'P 1'
_cell_length_a   9.97520098
_cell_length_b   10.56629329
_cell_length_c   12.29213954
_cell_angle_alpha   90.00000000
_cell_angle_beta   93.88458471
_cell_angle_gamma   90.00000000
_symmetry_Int_Tables_number   1
_chemical_formula_structural   Hg4Se4O9
_chemical_formula_sum   'Hg16 Se16 O36'
_cell_volume   1292.62596784
_cell_formula_units_Z   4
loop_
 _symmetry_equiv_pos_site_id
 _symmetry_equiv_pos_as_xyz
  1  'x, y, z'
loop_
 _atom_site_type_symbol
 _atom_site_label
 _atom_site_symmetry_multiplicity
 _atom_site_fract_x
 _atom_site_fract_y
 _atom_site_fract_z
 _atom_site_occupancy
  Hg  Hg0  1  0.04044921  0.71870224  0.57131336  1
  Hg  Hg1  1  0.95955079  0.28129776  0.42868664  1
  Hg  Hg2  1  0.23242617  0.70941873  0.28432200  1
  Hg  Hg3  1  0.54134288  0.45420143  0.20330489  1
  Hg  Hg4  1  0.26757383  0.20941873  0.21567800  1
  Hg  Hg5  1  0.95865712  0.95420143  0.29669511  1
  Hg  Hg6  1  0.45865712  0.54579857  0.79669511  1
  Hg  Hg7  1  0.89034598  0.59023365  0.26257154  1
  Hg  Hg8  1  0.76757383  0.29058127  0.71567800  1
  Hg  Hg9  1  0.04134288  0.04579857  0.70330489  1
  Hg  Hg10  1  0.73242617  0.79058127  0.78432200  1
  Hg  Hg11  1  0.54044921  0.78129776  0.07131336  1
  Hg  Hg12  1  0.60965402  0.09023365  0.23742846  1
  Hg  Hg13  1  0.10965402  0.40976635  0.73742846  1
  Hg  Hg14  1  0.45955079  0.21870224  0.92868664  1
  Hg  Hg15  1  0.39034598  0.90976635  0.76257154  1
  Se  Se16  1  0.55067599  0.75559113  0.34021304  1
  Se  Se17  1  0.73608547  0.02621121  0.00239648  1
  Se  Se18  1  0.44932401  0.24440887  0.65978696  1
  Se  Se19  1  0.05067599  0.74440887  0.84021304  1
  Se  Se20  1  0.26391453  0.97378879  0.99760352  1
  Se  Se21  1  0.51870134  0.73432085  0.67408296  1
  Se  Se22  1  0.75746530  0.00732656  0.52548576  1
  Se  Se23  1  0.74253470  0.50732656  0.97451424  1
  Se  Se24  1  0.24253470  0.99267344  0.47451424  1
  Se  Se25  1  0.23608547  0.47378879  0.50239648  1
  Se  Se26  1  0.01870134  0.76567915  0.17408296  1
  Se  Se27  1  0.48129866  0.26567915  0.32591704  1
  Se  Se28  1  0.98129866  0.23432085  0.82591704  1
  Se  Se29  1  0.76391453  0.52621121  0.49760352  1
  Se  Se30  1  0.94932401  0.25559113  0.15978696  1
  Se  Se31  1  0.25746530  0.49267344  0.02548576  1
  O  O32  1  0.76560542  0.96698856  0.38886766  1
  O  O33  1  0.10863598  0.07265675  0.40724765  1
  O  O34  1  0.12660055  0.81651541  0.73030934  1
  O  O35  1  0.87339945  0.18348459  0.26969066  1
  O  O36  1  0.37392233  0.06442774  0.07634691  1
  O  O37  1  0.62607767  0.93557226  0.92365309  1
  O  O38  1  0.15808646  0.32946947  0.51724461  1
  O  O39  1  0.03591609  0.37530048  0.22454957  1
  O  O40  1  0.37339945  0.31651541  0.76969066  1
  O  O41  1  0.21275516  0.54149012  0.63303575  1
  O  O42  1  0.62660055  0.68348459  0.23030934  1
  O  O43  1  0.92192394  0.85500707  0.85873162  1
  O  O44  1  0.69021118  0.66254341  0.96449319  1
  O  O45  1  0.23439458  0.03301144  0.61113234  1
  O  O46  1  0.30978882  0.33745659  0.03550681  1
  O  O47  1  0.39136402  0.57265675  0.09275235  1
  O  O48  1  0.80978882  0.16254341  0.53550681  1
  O  O49  1  0.73439458  0.46698856  0.11113234  1
  O  O50  1  0.60863598  0.42734325  0.90724765  1
  O  O51  1  0.34191354  0.82946947  0.98275539  1
  O  O52  1  0.87392233  0.43557226  0.57634691  1
  O  O53  1  0.65808646  0.17053053  0.01724461  1
  O  O54  1  0.12607767  0.56442774  0.42365309  1
  O  O55  1  0.53591609  0.12469952  0.72454957  1
  O  O56  1  0.42192394  0.64499293  0.35873162  1
  O  O57  1  0.46408391  0.87530048  0.27545043  1
  O  O58  1  0.07807606  0.14499293  0.14126838  1
  O  O59  1  0.89136402  0.92734325  0.59275235  1
  O  O60  1  0.78724484  0.45850988  0.36696425  1
  O  O61  1  0.96408391  0.62469952  0.77545043  1
  O  O62  1  0.84191354  0.67053053  0.48275539  1
  O  O63  1  0.28724484  0.04149012  0.86696425  1
  O  O64  1  0.57807606  0.35500707  0.64126838  1
  O  O65  1  0.19021118  0.83745659  0.46449319  1
  O  O66  1  0.26560542  0.53301144  0.88886766  1
  O  O67  1  0.71275516  0.95850988  0.13303575  1
