# generated using pymatgen
data_Gd2S2O
_symmetry_space_group_name_H-M   'P 1'
_cell_length_a   6.94368481
_cell_length_b   7.01850270
_cell_length_c   8.37376071
_cell_angle_alpha   90.00000000
_cell_angle_beta   99.07333983
_cell_angle_gamma   90.00000000
_symmetry_Int_Tables_number   1
_chemical_formula_structural   Gd2S2O
_chemical_formula_sum   'Gd8 S8 O4'
_cell_volume   402.98282039
_cell_formula_units_Z   4
loop_
 _symmetry_equiv_pos_site_id
 _symmetry_equiv_pos_as_xyz
  1  'x, y, z'
loop_
 _atom_site_type_symbol
 _atom_site_label
 _atom_site_symmetry_multiplicity
 _atom_site_fract_x
 _atom_site_fract_y
 _atom_site_fract_z
 _atom_site_occupancy
  Gd  Gd0  1  0.24966330  0.44524396  0.86250106  1
  Gd  Gd1  1  0.75033670  0.55475604  0.13749894  1
  Gd  Gd2  1  0.18278660  0.35966645  0.42226153  1
  Gd  Gd3  1  0.68278660  0.14033355  0.42226153  1
  Gd  Gd4  1  0.74966330  0.05475604  0.86250106  1
  Gd  Gd5  1  0.25033670  0.94524396  0.13749894  1
  Gd  Gd6  1  0.81721340  0.64033355  0.57773847  1
  Gd  Gd7  1  0.31721340  0.85966645  0.57773847  1
  S  S8  1  0.57111286  0.36145521  0.67846973  1
  S  S9  1  0.92888714  0.86145521  0.32153027  1
  S  S10  1  0.52964920  0.22407524  0.07663835  1
  S  S11  1  0.47035080  0.77592476  0.92336165  1
  S  S12  1  0.07111286  0.13854479  0.67846973  1
  S  S13  1  0.02964920  0.27592476  0.07663835  1
  S  S14  1  0.97035080  0.72407524  0.92336165  1
  S  S15  1  0.42888714  0.63854479  0.32153027  1
  O  O16  1  0.64912115  0.91282082  0.61740511  1
  O  O17  1  0.85087885  0.41282082  0.38259489  1
  O  O18  1  0.14912115  0.58717918  0.61740511  1
  O  O19  1  0.35087885  0.08717918  0.38259489  1
