# generated using pymatgen
data_YCu3(MoO3)4
_symmetry_space_group_name_H-M   'P 1'
_cell_length_a   6.67687730
_cell_length_b   6.67218359
_cell_length_c   6.67621176
_cell_angle_alpha   109.47713691
_cell_angle_beta   109.41136203
_cell_angle_gamma   109.48576546
_symmetry_Int_Tables_number   1
_chemical_formula_structural   YCu3(MoO3)4
_chemical_formula_sum   'Y1 Cu3 Mo4 O12'
_cell_volume   229.06588453
_cell_formula_units_Z   1
loop_
 _symmetry_equiv_pos_site_id
 _symmetry_equiv_pos_as_xyz
  1  'x, y, z'
loop_
 _atom_site_type_symbol
 _atom_site_label
 _atom_site_symmetry_multiplicity
 _atom_site_fract_x
 _atom_site_fract_y
 _atom_site_fract_z
 _atom_site_occupancy
  Y  Y0  1  0.00000434  0.00000074  0.99999637  1
  Cu  Cu1  1  0.49999946  0.00000045  0.50000089  1
  Cu  Cu2  1  0.50000041  0.49999970  0.99999897  1
  Cu  Cu3  1  0.00000022  0.50000082  0.50000116  1
  Mo  Mo4  1  0.50000144  0.00000028  0.00000070  1
  Mo  Mo5  1  0.99999946  -0.00000003  0.49999865  1
  Mo  Mo6  1  0.00000032  0.50000028  0.00000070  1
  Mo  Mo7  1  0.49999900  0.49999940  0.49999932  1
  O  O8  1  0.83481851  0.29793253  0.13339934  1
  O  O9  1  0.16518111  0.70207032  0.86660325  1
  O  O10  1  0.83769342  0.70491872  0.53088087  1
  O  O11  1  0.29454686  0.46784315  0.16310214  1
  O  O12  1  0.47093463  0.16368725  0.29558830  1
  O  O13  1  0.13416522  0.83561004  0.29722782  1
  O  O14  1  0.70317141  0.86695652  0.16536865  1
  O  O15  1  0.52906337  0.83631148  0.70441083  1
  O  O16  1  0.16230699  0.29508409  0.46912265  1
  O  O17  1  0.70545300  0.53215400  0.83689534  1
  O  O18  1  0.86583448  0.16438864  0.70277329  1
  O  O19  1  0.29682836  0.13304162  0.83462976  1
