# generated using pymatgen
data_CaTeO3
_symmetry_space_group_name_H-M   'P 1'
_cell_length_a   10.45599309
_cell_length_b   11.46656335
_cell_length_c   14.21803669
_cell_angle_alpha   78.07817349
_cell_angle_beta   85.12928003
_cell_angle_gamma   72.65453017
_symmetry_Int_Tables_number   1
_chemical_formula_structural   CaTeO3
_chemical_formula_sum   'Ca18 Te18 O54'
_cell_volume   1591.54807036
_cell_formula_units_Z   18
loop_
 _symmetry_equiv_pos_site_id
 _symmetry_equiv_pos_as_xyz
  1  'x, y, z'
loop_
 _atom_site_type_symbol
 _atom_site_label
 _atom_site_symmetry_multiplicity
 _atom_site_fract_x
 _atom_site_fract_y
 _atom_site_fract_z
 _atom_site_occupancy
  Ca  Ca0  1  0.90620231  0.37562258  0.56910233  1
  Ca  Ca1  1  0.39918838  0.62807361  0.08005625  1
  Ca  Ca2  1  0.25129311  0.41645998  0.26463368  1
  Ca  Ca3  1  0.72555462  0.11706497  0.75657848  1
  Ca  Ca4  1  0.88650563  0.96258794  0.31959116  1
  Ca  Ca5  1  0.05819357  0.14399229  0.40480632  1
  Ca  Ca6  1  0.45891040  0.06170862  0.34665034  1
  Ca  Ca7  1  0.06719966  0.63810108  0.42567119  1
  Ca  Ca8  1  0.60884206  0.36309193  0.92536972  1
  Ca  Ca9  1  0.43347663  0.12954353  0.07200246  1
  Ca  Ca10  1  0.28467157  0.87691733  0.23880531  1
  Ca  Ca11  1  0.92895792  0.86815500  0.59212139  1
  Ca  Ca12  1  0.81800756  0.03454724  0.02150492  1
  Ca  Ca13  1  0.75770365  0.57847436  0.74540449  1
  Ca  Ca14  1  0.53468010  0.93578740  0.64932969  1
  Ca  Ca15  1  0.19021683  0.96104411  0.97741797  1
  Ca  Ca16  1  0.13913729  0.03898080  0.67202329  1
  Ca  Ca17  1  0.57412685  0.86583169  0.92516660  1
  Te  Te18  1  0.61074251  0.82829127  0.16372339  1
  Te  Te19  1  0.61115413  0.25380873  0.19840844  1
  Te  Te20  1  0.74126940  0.15835434  0.52256567  1
  Te  Te21  1  0.40012073  0.16338072  0.83281923  1
  Te  Te22  1  0.10931502  0.56274277  0.67088243  1
  Te  Te23  1  0.22292641  0.47578256  0.97867787  1
  Te  Te24  1  0.24509229  0.84934565  0.46967639  1
  Te  Te25  1  0.06365211  0.17947716  0.13284712  1
  Te  Te26  1  0.03576168  0.73587779  0.14187713  1
  Te  Te27  1  0.27854066  0.26055365  0.52986012  1
  Te  Te28  1  0.52992859  0.45999747  0.64988675  1
  Te  Te29  1  0.88875453  0.44424715  0.32104103  1
  Te  Te30  1  0.78283192  0.51847998  0.02864604  1
  Te  Te31  1  0.45573672  0.53727038  0.36192393  1
  Te  Te32  1  0.69349114  0.75563554  0.48168905  1
  Te  Te33  1  0.39695465  0.72999295  0.80920285  1
  Te  Te34  1  0.94802998  0.82515229  0.86037020  1
  Te  Te35  1  0.96838771  0.26131936  0.85394729  1
  O  O36  1  0.70430896  0.74405365  0.61471030  1
  O  O37  1  0.68121928  0.49077853  0.58053210  1
  O  O38  1  0.39447344  0.49706806  0.94939941  1
  O  O39  1  0.43016468  0.51148454  0.23840083  1
  O  O40  1  0.21565393  0.51876268  0.10116835  1
  O  O41  1  0.48864573  0.94997401  0.22433233  1
  O  O42  1  0.10776514  0.23090748  0.53388973  1
  O  O43  1  0.52799323  0.20530793  0.89535833  1
  O  O44  1  0.00302448  0.10321698  0.25192249  1
  O  O45  1  0.87613977  0.05280902  0.45552807  1
  O  O46  1  0.11679734  0.95646921  0.53975355  1
  O  O47  1  0.09971247  0.12338654  0.81419691  1
  O  O48  1  0.61382214  0.49228091  0.05967246  1
  O  O49  1  0.71640306  0.01907427  0.61659455  1
  O  O50  1  0.07219047  0.62729011  0.26228502  1
  O  O51  1  0.63526150  0.94790675  0.05552664  1
  O  O52  1  0.92045789  0.37227322  0.73536682  1
  O  O53  1  0.29030910  0.51520664  0.41322264  1
  O  O54  1  0.36816259  0.04818410  0.94251247  1
  O  O55  1  0.57892795  0.48150496  0.76892250  1
  O  O56  1  0.67293694  0.09899784  0.28347795  1
  O  O57  1  0.33086148  0.24207001  0.40176480  1
  O  O58  1  0.05071723  0.49825732  0.57761130  1
  O  O59  1  0.35387207  0.09831836  0.59716242  1
  O  O60  1  0.25528022  0.30313442  0.00455110  1
  O  O61  1  0.06206361  0.34433619  0.29235892  1
  O  O62  1  0.00994405  0.89492007  0.95138292  1
  O  O63  1  0.94942673  0.65490233  0.72418950  1
  O  O64  1  0.79023869  0.47523070  0.90637699  1
  O  O65  1  0.98948464  0.91609189  0.74057059  1
  O  O66  1  0.27186161  0.98772212  0.37567495  1
  O  O67  1  0.56663051  0.91445169  0.46988012  1
  O  O68  1  0.90603481  0.87793302  0.17818524  1
  O  O69  1  0.81350261  0.19979651  0.87386361  1
  O  O70  1  0.99959731  0.10763589  0.04454228  1
  O  O71  1  0.23783655  0.06843112  0.13330836  1
  O  O72  1  0.85187209  0.18573849  0.61004948  1
  O  O73  1  0.33072596  0.87924383  0.72015759  1
  O  O74  1  0.12804251  0.82784212  0.38202390  1
  O  O75  1  0.77060089  0.92665288  0.86843908  1
  O  O76  1  0.84377719  0.31238654  0.40746996  1
  O  O77  1  0.91629429  0.52115093  0.41830125  1
  O  O78  1  0.43049484  0.24757029  0.20375540  1
  O  O79  1  0.74481995  0.69191474  0.00359933  1
  O  O80  1  0.57464901  0.74331910  0.80167408  1
  O  O81  1  0.64998081  0.20441891  0.07649948  1
  O  O82  1  0.35547805  0.78600047  0.92855136  1
  O  O83  1  0.19217214  0.79448176  0.12646493  1
  O  O84  1  0.47339979  0.79012893  0.10912050  1
  O  O85  1  0.85691058  0.79928894  0.44749551  1
  O  O86  1  0.52695064  0.03626430  0.78075911  1
  O  O87  1  0.13379468  0.70051763  0.57928989  1
  O  O88  1  0.42893011  0.71008648  0.33960574  1
  O  O89  1  0.55943590  0.28667036  0.66962633  1
