# generated using pymatgen
data_Al2Si2Pb2O9
_symmetry_space_group_name_H-M   'P 1'
_cell_length_a   6.97168558
_cell_length_b   9.86720164
_cell_length_c   10.84560360
_cell_angle_alpha   90.00000000
_cell_angle_beta   90.00000000
_cell_angle_gamma   90.00000000
_symmetry_Int_Tables_number   1
_chemical_formula_structural   Al2Si2Pb2O9
_chemical_formula_sum   'Al8 Si8 Pb8 O36'
_cell_volume   746.08021429
_cell_formula_units_Z   4
loop_
 _symmetry_equiv_pos_site_id
 _symmetry_equiv_pos_as_xyz
  1  'x, y, z'
loop_
 _atom_site_type_symbol
 _atom_site_label
 _atom_site_symmetry_multiplicity
 _atom_site_fract_x
 _atom_site_fract_y
 _atom_site_fract_z
 _atom_site_occupancy
  Al  Al0  1  0.50000000  0.50000000  0.00000000  1
  Al  Al1  1  0.50000000  0.25000000  0.14642361  1
  Al  Al2  1  0.00000000  0.25000000  0.64642361  1
  Al  Al3  1  0.50000000  0.75000000  0.85357639  1
  Al  Al4  1  0.00000000  0.50000000  0.50000000  1
  Al  Al5  1  0.00000000  0.75000000  0.35357639  1
  Al  Al6  1  0.50000000  0.00000000  0.00000000  1
  Al  Al7  1  0.00000000  0.00000000  0.50000000  1
  Si  Si8  1  0.71699475  0.25131503  0.41174373  1
  Si  Si9  1  0.21699475  0.24868497  0.91174373  1
  Si  Si10  1  0.28300525  0.74868497  0.58825627  1
  Si  Si11  1  0.21699475  0.74868497  0.08825627  1
  Si  Si12  1  0.71699475  0.75131503  0.58825627  1
  Si  Si13  1  0.28300525  0.24868497  0.41174373  1
  Si  Si14  1  0.78300525  0.75131503  0.08825627  1
  Si  Si15  1  0.78300525  0.25131503  0.91174373  1
  Pb  Pb16  1  0.04973874  0.54896952  0.80383571  1
  Pb  Pb17  1  0.04973874  0.04896952  0.19616429  1
  Pb  Pb18  1  0.45026126  0.04896952  0.69616429  1
  Pb  Pb19  1  0.54973874  0.95103048  0.30383571  1
  Pb  Pb20  1  0.95026126  0.95103048  0.80383571  1
  Pb  Pb21  1  0.54973874  0.45103048  0.69616429  1
  Pb  Pb22  1  0.95026126  0.45103048  0.19616429  1
  Pb  Pb23  1  0.45026126  0.54896952  0.30383571  1
  O  O24  1  0.69246380  0.90371576  0.10571549  1
  O  O25  1  0.39086176  0.57784644  0.85925328  1
  O  O26  1  0.30753620  0.59628424  0.10571549  1
  O  O27  1  0.60913824  0.42215356  0.14074672  1
  O  O28  1  0.50000000  0.75000000  0.52260884  1
  O  O29  1  0.89086176  0.42215356  0.64074672  1
  O  O30  1  0.34747250  0.83683724  0.99276967  1
  O  O31  1  0.30753620  0.09628424  0.89428451  1
  O  O32  1  0.68477951  0.18382245  0.27404631  1
  O  O33  1  0.18477951  0.81617755  0.22595369  1
  O  O34  1  0.34747250  0.33683724  0.00723033  1
  O  O35  1  0.15252750  0.83683724  0.49276967  1
  O  O36  1  0.10913824  0.07784644  0.64074672  1
  O  O37  1  0.84747250  0.66316276  0.49276967  1
  O  O38  1  0.68477951  0.68382245  0.72595369  1
  O  O39  1  0.31522049  0.31617755  0.27404631  1
  O  O40  1  0.19246380  0.09628424  0.39428451  1
  O  O41  1  0.31522049  0.81617755  0.72595369  1
  O  O42  1  0.18477951  0.31617755  0.77404631  1
  O  O43  1  0.39086176  0.07784644  0.14074672  1
  O  O44  1  0.00000000  0.75000000  0.02260884  1
  O  O45  1  0.89086176  0.92215356  0.35925328  1
  O  O46  1  0.84747250  0.16316276  0.50723033  1
  O  O47  1  0.10913824  0.57784644  0.35925328  1
  O  O48  1  0.80753620  0.40371576  0.39428451  1
  O  O49  1  0.15252750  0.33683724  0.50723033  1
  O  O50  1  0.60913824  0.92215356  0.85925328  1
  O  O51  1  0.19246380  0.59628424  0.60571549  1
  O  O52  1  0.69246380  0.40371576  0.89428451  1
  O  O53  1  0.81522049  0.68382245  0.22595369  1
  O  O54  1  0.80753620  0.90371576  0.60571549  1
  O  O55  1  0.65252750  0.16316276  0.00723033  1
  O  O56  1  0.65252750  0.66316276  0.99276967  1
  O  O57  1  0.00000000  0.25000000  0.97739116  1
  O  O58  1  0.81522049  0.18382245  0.77404631  1
  O  O59  1  0.50000000  0.25000000  0.47739116  1
