# generated using pymatgen
data_NaSr4(BO3)3
_symmetry_space_group_name_H-M   'P 1'
_cell_length_a   13.26186699
_cell_length_b   13.26186675
_cell_length_c   13.26186766
_cell_angle_alpha   109.47122042
_cell_angle_beta   109.47122008
_cell_angle_gamma   109.47122158
_symmetry_Int_Tables_number   1
_chemical_formula_structural   NaSr4(BO3)3
_chemical_formula_sum   'Na8 Sr32 B24 O72'
_cell_volume   1795.52776762
_cell_formula_units_Z   8
loop_
 _symmetry_equiv_pos_site_id
 _symmetry_equiv_pos_as_xyz
  1  'x, y, z'
loop_
 _atom_site_type_symbol
 _atom_site_label
 _atom_site_symmetry_multiplicity
 _atom_site_fract_x
 _atom_site_fract_y
 _atom_site_fract_z
 _atom_site_occupancy
  Na  Na0  1  0.25000000  0.25000000  0.25000000  1
  Na  Na1  1  0.25000000  0.50000000  0.00000000  1
  Na  Na2  1  0.75000000  0.75000000  0.75000000  1
  Na  Na3  1  0.50000000  0.00000000  0.25000000  1
  Na  Na4  1  0.50000000  0.00000000  0.75000000  1
  Na  Na5  1  0.00000000  0.25000000  0.50000000  1
  Na  Na6  1  0.00000000  0.75000000  0.50000000  1
  Na  Na7  1  0.75000000  0.50000000  0.00000000  1
  Sr  Sr8  1  0.50000000  0.50000000  0.50000000  1
  Sr  Sr9  1  0.49680310  0.24680310  0.25000000  1
  Sr  Sr10  1  0.75000000  0.00319690  0.25319690  1
  Sr  Sr11  1  0.75319690  0.50319690  0.25000000  1
  Sr  Sr12  1  0.99680310  0.74680310  0.25000000  1
  Sr  Sr13  1  0.25000000  0.75319690  0.50319690  1
  Sr  Sr14  1  0.50319690  0.25000000  0.75319690  1
  Sr  Sr15  1  0.25319690  0.00319690  0.25000000  1
  Sr  Sr16  1  0.75000000  0.74680310  0.99680310  1
  Sr  Sr17  1  0.49680310  0.75000000  0.24680310  1
  Sr  Sr18  1  0.00319690  0.25000000  0.25319690  1
  Sr  Sr19  1  0.24680310  0.25000000  0.49680310  1
  Sr  Sr20  1  0.00000000  0.00000000  0.00000000  1
  Sr  Sr21  1  0.00000000  0.50000000  0.50000000  1
  Sr  Sr22  1  0.75000000  0.24680310  0.49680310  1
  Sr  Sr23  1  0.25000000  0.25319690  0.00319690  1
  Sr  Sr24  1  0.25000000  0.49680310  0.24680310  1
  Sr  Sr25  1  0.99680310  0.75000000  0.74680310  1
  Sr  Sr26  1  0.25319690  0.75000000  0.00319690  1
  Sr  Sr27  1  0.00319690  0.25319690  0.75000000  1
  Sr  Sr28  1  0.00000000  0.00000000  0.50000000  1
  Sr  Sr29  1  0.74680310  0.99680310  0.75000000  1
  Sr  Sr30  1  0.24680310  0.49680310  0.75000000  1
  Sr  Sr31  1  0.00000000  0.50000000  0.00000000  1
  Sr  Sr32  1  0.50000000  0.50000000  0.00000000  1
  Sr  Sr33  1  0.75000000  0.50319690  0.75319690  1
  Sr  Sr34  1  0.50000000  0.00000000  0.00000000  1
  Sr  Sr35  1  0.25000000  0.99680310  0.74680310  1
  Sr  Sr36  1  0.50000000  0.00000000  0.50000000  1
  Sr  Sr37  1  0.74680310  0.25000000  0.99680310  1
  Sr  Sr38  1  0.75319690  0.75000000  0.50319690  1
  Sr  Sr39  1  0.50319690  0.75319690  0.75000000  1
  B  B40  1  0.02356884  0.26178442  0.01178442  1
  B  B41  1  0.26178442  0.01178442  0.02356884  1
  B  B42  1  0.48821558  0.75000000  0.01178442  1
  B  B43  1  0.01178442  0.48821558  0.75000000  1
  B  B44  1  0.73821558  0.25000000  0.76178442  1
  B  B45  1  0.52356884  0.51178442  0.76178442  1
  B  B46  1  0.76178442  0.73821558  0.25000000  1
  B  B47  1  0.73821558  0.98821558  0.97643116  1
  B  B48  1  0.25000000  0.98821558  0.51178442  1
  B  B49  1  0.75000000  0.01178442  0.48821558  1
  B  B50  1  0.01178442  0.02356884  0.26178442  1
  B  B51  1  0.98821558  0.97643116  0.73821558  1
  B  B52  1  0.26178442  0.75000000  0.23821558  1
  B  B53  1  0.98821558  0.51178442  0.25000000  1
  B  B54  1  0.25000000  0.76178442  0.73821558  1
  B  B55  1  0.51178442  0.76178442  0.52356884  1
  B  B56  1  0.47643116  0.48821558  0.23821558  1
  B  B57  1  0.48821558  0.23821558  0.47643116  1
  B  B58  1  0.75000000  0.23821558  0.26178442  1
  B  B59  1  0.23821558  0.26178442  0.75000000  1
  B  B60  1  0.23821558  0.47643116  0.48821558  1
  B  B61  1  0.97643116  0.73821558  0.98821558  1
  B  B62  1  0.51178442  0.25000000  0.98821558  1
  B  B63  1  0.76178442  0.52356884  0.51178442  1
  O  O64  1  0.44823034  0.25000000  0.05176966  1
  O  O65  1  0.49498283  0.85472614  0.59171873  1
  O  O66  1  0.35472614  0.99498283  0.09171873  1
  O  O67  1  0.14527386  0.23699259  0.64025669  1
  O  O68  1  0.59673590  0.35974331  0.00501717  1
  O  O69  1  0.90828127  0.64527386  0.00501717  1
  O  O70  1  0.35974331  0.85472614  0.76300741  1
  O  O71  1  0.90828127  0.76300741  0.90326410  1
  O  O72  1  0.59171873  0.59673590  0.73699259  1
  O  O73  1  0.40326410  0.26300741  0.40828127  1
  O  O74  1  0.09673590  0.09171873  0.23699259  1
  O  O75  1  0.59171873  0.49498283  0.85472614  1
  O  O76  1  0.09673590  0.50501717  0.85974331  1
  O  O77  1  0.39646069  0.44823034  0.69823034  1
  O  O78  1  0.73699259  0.64527386  0.14025669  1
  O  O79  1  0.19823034  0.94823034  0.89646069  1
  O  O80  1  0.94823034  0.55176966  0.75000000  1
  O  O81  1  0.14025669  0.90326410  0.49498283  1
  O  O82  1  0.64527386  0.14025669  0.73699259  1
  O  O83  1  0.30176966  0.60353931  0.55176966  1
  O  O84  1  0.59673590  0.73699259  0.59171873  1
  O  O85  1  0.40828127  0.50501717  0.14527386  1
  O  O86  1  0.55176966  0.30176966  0.60353931  1
  O  O87  1  0.64025669  0.14527386  0.23699259  1
  O  O88  1  0.09171873  0.35472614  0.99498283  1
  O  O89  1  0.89646069  0.19823034  0.94823034  1
  O  O90  1  0.69823034  0.80176966  0.25000000  1
  O  O91  1  0.10353931  0.80176966  0.05176966  1
  O  O92  1  0.75000000  0.30176966  0.19823034  1
  O  O93  1  0.05176966  0.10353931  0.80176966  1
  O  O94  1  0.85974331  0.09673590  0.50501717  1
  O  O95  1  0.76300741  0.35974331  0.85472614  1
  O  O96  1  0.23699259  0.09673590  0.09171873  1
  O  O97  1  0.64527386  0.00501717  0.90828127  1
  O  O98  1  0.19823034  0.75000000  0.30176966  1
  O  O99  1  0.26300741  0.40828127  0.40326410  1
  O  O100  1  0.85472614  0.76300741  0.35974331  1
  O  O101  1  0.35974331  0.00501717  0.59673590  1
  O  O102  1  0.05176966  0.44823034  0.25000000  1
  O  O103  1  0.60353931  0.55176966  0.30176966  1
  O  O104  1  0.80176966  0.25000000  0.69823034  1
  O  O105  1  0.49498283  0.14025669  0.90326410  1
  O  O106  1  0.55176966  0.75000000  0.94823034  1
  O  O107  1  0.76300741  0.90326410  0.90828127  1
  O  O108  1  0.85472614  0.59171873  0.49498283  1
  O  O109  1  0.40326410  0.64025669  0.99498283  1
  O  O110  1  0.40828127  0.40326410  0.26300741  1
  O  O111  1  0.30176966  0.19823034  0.75000000  1
  O  O112  1  0.73699259  0.59171873  0.59673590  1
  O  O113  1  0.35472614  0.85974331  0.26300741  1
  O  O114  1  0.90326410  0.49498283  0.14025669  1
  O  O115  1  0.26300741  0.35472614  0.85974331  1
  O  O116  1  0.25000000  0.05176966  0.44823034  1
  O  O117  1  0.69823034  0.39646069  0.44823034  1
  O  O118  1  0.14527386  0.40828127  0.50501717  1
  O  O119  1  0.99498283  0.40326410  0.64025669  1
  O  O120  1  0.94823034  0.89646069  0.19823034  1
  O  O121  1  0.90326410  0.90828127  0.76300741  1
  O  O122  1  0.44823034  0.69823034  0.39646069  1
  O  O123  1  0.23699259  0.64025669  0.14527386  1
  O  O124  1  0.80176966  0.05176966  0.10353931  1
  O  O125  1  0.50501717  0.14527386  0.40828127  1
  O  O126  1  0.50501717  0.85974331  0.09673590  1
  O  O127  1  0.09171873  0.23699259  0.09673590  1
  O  O128  1  0.00501717  0.90828127  0.64527386  1
  O  O129  1  0.00501717  0.59673590  0.35974331  1
  O  O130  1  0.14025669  0.73699259  0.64527386  1
  O  O131  1  0.64025669  0.99498283  0.40326410  1
  O  O132  1  0.25000000  0.69823034  0.80176966  1
  O  O133  1  0.85974331  0.26300741  0.35472614  1
  O  O134  1  0.99498283  0.09171873  0.35472614  1
  O  O135  1  0.75000000  0.94823034  0.55176966  1
