# generated using pymatgen
data_Ca2Cr9O13
_symmetry_space_group_name_H-M   'P 1'
_cell_length_a   3.12156922
_cell_length_b   5.50835695
_cell_length_c   16.69026341
_cell_angle_alpha   99.80173594
_cell_angle_beta   89.81505380
_cell_angle_gamma   109.05558858
_symmetry_Int_Tables_number   1
_chemical_formula_structural   Ca2Cr9O13
_chemical_formula_sum   'Ca2 Cr9 O13'
_cell_volume   266.87606046
_cell_formula_units_Z   1
loop_
 _symmetry_equiv_pos_site_id
 _symmetry_equiv_pos_as_xyz
  1  'x, y, z'
loop_
 _atom_site_type_symbol
 _atom_site_label
 _atom_site_symmetry_multiplicity
 _atom_site_fract_x
 _atom_site_fract_y
 _atom_site_fract_z
 _atom_site_occupancy
  Ca  Ca0  1  0.21552146  0.46395000  0.23032447  1
  Ca  Ca1  1  0.78447854  0.53605000  0.76967553  1
  Cr  Cr2  1  0.50000000  -0.00000000  0.50000000  1
  Cr  Cr3  1  0.64988254  0.29732594  0.03955284  1
  Cr  Cr4  1  0.35011746  0.70267406  0.96044716  1
  Cr  Cr5  1  0.76302745  0.51569403  0.42076542  1
  Cr  Cr6  1  0.23697255  0.48430597  0.57923458  1
  Cr  Cr7  1  0.93985965  0.89404408  0.12223755  1
  Cr  Cr8  1  0.06014035  0.10595592  0.87776245  1
  Cr  Cr9  1  0.00898174  0.01472043  0.33808225  1
  Cr  Cr10  1  0.99101826  0.98527957  0.66191775  1
  O  O11  1  0.00000000  -0.00000000  -0.00000000  1
  O  O12  1  0.88914422  0.78681626  0.22990867  1
  O  O13  1  0.11085578  0.21318374  0.77009133  1
  O  O14  1  0.28673476  0.62612815  0.07935982  1
  O  O15  1  0.71326524  0.37387185  0.92064018  1
  O  O16  1  0.57862191  0.15838738  0.14446701  1
  O  O17  1  0.42137809  0.84161262  0.85553299  1
  O  O18  1  0.63632585  0.25209054  0.31637023  1
  O  O19  1  0.36367415  0.74790946  0.68362977  1
  O  O20  1  0.35764741  0.79399543  0.37931741  1
  O  O21  1  0.64235259  0.20600457  0.62068259  1
  O  O22  1  0.20022728  0.25141565  0.46065415  1
  O  O23  1  0.79977272  0.74858435  0.53934585  1
