# generated using pymatgen
data_BaMoSeO6
_symmetry_space_group_name_H-M   'P 1'
_cell_length_a   6.37519001
_cell_length_b   8.56481226
_cell_length_c   10.35112378
_cell_angle_alpha   90.00000000
_cell_angle_beta   90.00000000
_cell_angle_gamma   94.82094896
_symmetry_Int_Tables_number   1
_chemical_formula_structural   BaMoSeO6
_chemical_formula_sum   'Ba4 Mo4 Se4 O24'
_cell_volume   563.19567414
_cell_formula_units_Z   4
loop_
 _symmetry_equiv_pos_site_id
 _symmetry_equiv_pos_as_xyz
  1  'x, y, z'
loop_
 _atom_site_type_symbol
 _atom_site_label
 _atom_site_symmetry_multiplicity
 _atom_site_fract_x
 _atom_site_fract_y
 _atom_site_fract_z
 _atom_site_occupancy
  Ba  Ba0  1  0.73543407  0.01167302  0.30860946  1
  Ba  Ba1  1  0.73543407  0.51167302  0.19139054  1
  Ba  Ba2  1  0.26456593  0.48832698  0.80860946  1
  Ba  Ba3  1  0.26456593  0.98832698  0.69139054  1
  Mo  Mo4  1  0.22704655  0.76952679  0.07938968  1
  Mo  Mo5  1  0.77295345  0.23047321  0.92061032  1
  Mo  Mo6  1  0.77295345  0.73047321  0.57938968  1
  Mo  Mo7  1  0.22704655  0.26952679  0.42061032  1
  Se  Se8  1  0.29211102  0.17721917  0.10170648  1
  Se  Se9  1  0.70788898  0.32278083  0.60170648  1
  Se  Se10  1  0.70788898  0.82278083  0.89829352  1
  Se  Se11  1  0.29211102  0.67721917  0.39829352  1
  O  O12  1  0.18096963  0.06068742  0.41229373  1
  O  O13  1  0.99074338  0.82591727  0.15335031  1
  O  O14  1  0.60769466  0.50331535  0.61445995  1
  O  O15  1  0.60769466  0.00331535  0.88554005  1
  O  O16  1  0.81515104  0.19646725  0.08865279  1
  O  O17  1  0.44127906  0.27473149  0.98179546  1
  O  O18  1  0.81903037  0.93931258  0.58770627  1
  O  O19  1  0.18484896  0.30353275  0.58865279  1
  O  O20  1  0.58383500  0.23984099  0.73879459  1
  O  O21  1  0.00925662  0.67408273  0.65335031  1
  O  O22  1  0.41616500  0.76015901  0.26120541  1
  O  O23  1  0.58383500  0.73984099  0.76120541  1
  O  O24  1  0.39230534  0.49668465  0.38554005  1
  O  O25  1  0.99074338  0.32591727  0.34664969  1
  O  O26  1  0.41616500  0.26015901  0.23879459  1
  O  O27  1  0.18484896  0.80353275  0.91134721  1
  O  O28  1  0.39230534  0.99668465  0.11445995  1
  O  O29  1  0.55872094  0.22526851  0.48179546  1
  O  O30  1  0.18096963  0.56068742  0.08770627  1
  O  O31  1  0.44127906  0.77473149  0.51820454  1
  O  O32  1  0.81515104  0.69646725  0.41134721  1
  O  O33  1  0.81903037  0.43931258  0.91229373  1
  O  O34  1  0.55872094  0.72526851  0.01820454  1
  O  O35  1  0.00925662  0.17408273  0.84664969  1
