# generated using pymatgen
data_HoCu(MoO4)2
_symmetry_space_group_name_H-M   'P 1'
_cell_length_a   9.83901434
_cell_length_b   10.26571417
_cell_length_c   14.68120654
_cell_angle_alpha   90.00000000
_cell_angle_beta   90.00000000
_cell_angle_gamma   90.00000000
_symmetry_Int_Tables_number   1
_chemical_formula_structural   HoCu(MoO4)2
_chemical_formula_sum   'Ho8 Cu8 Mo16 O64'
_cell_volume   1482.86805706
_cell_formula_units_Z   8
loop_
 _symmetry_equiv_pos_site_id
 _symmetry_equiv_pos_as_xyz
  1  'x, y, z'
loop_
 _atom_site_type_symbol
 _atom_site_label
 _atom_site_symmetry_multiplicity
 _atom_site_fract_x
 _atom_site_fract_y
 _atom_site_fract_z
 _atom_site_occupancy
  Ho  Ho0  1  0.72236366  0.03447079  0.60390318  1
  Ho  Ho1  1  0.22236366  0.96552921  0.89609682  1
  Ho  Ho2  1  0.27763634  0.46552921  0.10390318  1
  Ho  Ho3  1  0.77763634  0.03447079  0.10390318  1
  Ho  Ho4  1  0.72236366  0.53447079  0.89609682  1
  Ho  Ho5  1  0.22236366  0.46552921  0.60390318  1
  Ho  Ho6  1  0.27763634  0.96552921  0.39609682  1
  Ho  Ho7  1  0.77763634  0.53447079  0.39609682  1
  Cu  Cu8  1  0.31051128  0.81717435  0.19612678  1
  Cu  Cu9  1  0.68948872  0.68282565  0.69612678  1
  Cu  Cu10  1  0.81051128  0.68282565  0.19612678  1
  Cu  Cu11  1  0.68948872  0.18282565  0.80387322  1
  Cu  Cu12  1  0.18948872  0.81717435  0.69612678  1
  Cu  Cu13  1  0.31051128  0.31717435  0.30387322  1
  Cu  Cu14  1  0.81051128  0.18282565  0.30387322  1
  Cu  Cu15  1  0.18948872  0.31717435  0.80387322  1
  Mo  Mo16  1  0.00048646  0.21915322  0.44354452  1
  Mo  Mo17  1  0.83140224  0.39666557  0.65255616  1
  Mo  Mo18  1  0.66859776  0.39666557  0.15255616  1
  Mo  Mo19  1  0.33140224  0.60333443  0.84744384  1
  Mo  Mo20  1  0.50048646  0.28084678  0.44354452  1
  Mo  Mo21  1  0.99951354  0.28084678  0.94354452  1
  Mo  Mo22  1  0.00048646  0.71915322  0.05645548  1
  Mo  Mo23  1  0.83140224  0.89666557  0.84744384  1
  Mo  Mo24  1  0.99951354  0.78084678  0.55645548  1
  Mo  Mo25  1  0.66859776  0.89666557  0.34744384  1
  Mo  Mo26  1  0.16859776  0.10333443  0.15255616  1
  Mo  Mo27  1  0.33140224  0.10333443  0.65255616  1
  Mo  Mo28  1  0.50048646  0.78084678  0.05645548  1
  Mo  Mo29  1  0.16859776  0.60333443  0.34744384  1
  Mo  Mo30  1  0.49951354  0.71915322  0.55645548  1
  Mo  Mo31  1  0.49951354  0.21915322  0.94354452  1
  O  O32  1  0.89050576  0.32110167  0.36846920  1
  O  O33  1  0.89050576  0.82110167  0.13153080  1
  O  O34  1  0.74261219  0.01030577  0.77114472  1
  O  O35  1  0.10393596  0.61170931  0.12417150  1
  O  O36  1  0.24261219  0.48969423  0.77114472  1
  O  O37  1  0.72435310  0.23252734  0.17978509  1
  O  O38  1  0.90326606  0.62930310  0.97559821  1
  O  O39  1  0.22435310  0.76747266  0.32021491  1
  O  O40  1  0.75738781  0.51030577  0.22885528  1
  O  O41  1  0.88994040  0.17020623  0.00180640  1
  O  O42  1  0.77564690  0.23252734  0.67978509  1
  O  O43  1  0.25738781  0.98969423  0.22885528  1
  O  O44  1  0.40326606  0.87069690  0.97559821  1
  O  O45  1  0.10393596  0.11170931  0.37582850  1
  O  O46  1  0.75738781  0.01030577  0.27114472  1
  O  O47  1  0.51044209  0.58744149  0.83336177  1
  O  O48  1  0.60393596  0.38829069  0.37582850  1
  O  O49  1  0.10949424  0.67889833  0.63153080  1
  O  O50  1  0.61005960  0.67020623  0.99819360  1
  O  O51  1  0.60393596  0.88829069  0.12417150  1
  O  O52  1  0.70961428  0.42669788  0.03655214  1
  O  O53  1  0.72435310  0.73252734  0.32021491  1
  O  O54  1  0.48955791  0.91255851  0.33336177  1
  O  O55  1  0.24261219  0.98969423  0.72885528  1
  O  O56  1  0.74261219  0.51030577  0.72885528  1
  O  O57  1  0.77564690  0.73252734  0.82021491  1
  O  O58  1  0.29038572  0.57330212  0.96344786  1
  O  O59  1  0.48955791  0.41255851  0.16663823  1
  O  O60  1  0.40326606  0.37069690  0.52440179  1
  O  O61  1  0.51044209  0.08744149  0.66663823  1
  O  O62  1  0.29038572  0.07330212  0.53655214  1
  O  O63  1  0.27564690  0.76747266  0.82021491  1
  O  O64  1  0.01044209  0.41255851  0.66663823  1
  O  O65  1  0.88994040  0.67020623  0.49819360  1
  O  O66  1  0.70961428  0.92669788  0.46344786  1
  O  O67  1  0.60949424  0.32110167  0.86846920  1
  O  O68  1  0.01044209  0.91255851  0.83336177  1
  O  O69  1  0.10949424  0.17889833  0.86846920  1
  O  O70  1  0.27564690  0.26747266  0.67978509  1
  O  O71  1  0.89606404  0.38829069  0.87582850  1
  O  O72  1  0.90326606  0.12930310  0.52440179  1
  O  O73  1  0.98955791  0.58744149  0.33336177  1
  O  O74  1  0.89606404  0.88829069  0.62417150  1
  O  O75  1  0.39606404  0.61170931  0.62417150  1
  O  O76  1  0.38994040  0.32979377  0.00180640  1
  O  O77  1  0.39606404  0.11170931  0.87582850  1
  O  O78  1  0.59673394  0.12930310  0.02440179  1
  O  O79  1  0.79038572  0.42669788  0.53655214  1
  O  O80  1  0.09673394  0.87069690  0.47559821  1
  O  O81  1  0.11005960  0.32979377  0.50180640  1
  O  O82  1  0.20961428  0.57330212  0.46344786  1
  O  O83  1  0.98955791  0.08744149  0.16663823  1
  O  O84  1  0.11005960  0.82979377  0.99819360  1
  O  O85  1  0.79038572  0.92669788  0.96344786  1
  O  O86  1  0.61005960  0.17020623  0.50180640  1
  O  O87  1  0.60949424  0.82110167  0.63153080  1
  O  O88  1  0.38994040  0.82979377  0.49819360  1
  O  O89  1  0.39050576  0.67889833  0.13153080  1
  O  O90  1  0.25738781  0.48969423  0.27114472  1
  O  O91  1  0.39050576  0.17889833  0.36846920  1
  O  O92  1  0.59673394  0.62930310  0.47559821  1
  O  O93  1  0.20961428  0.07330212  0.03655214  1
  O  O94  1  0.22435310  0.26747266  0.17978509  1
  O  O95  1  0.09673394  0.37069690  0.02440179  1
