# generated using pymatgen
data_Na2Te3Mo3O16
_symmetry_space_group_name_H-M   'P 1'
_cell_length_a   7.49086328
_cell_length_b   7.79623386
_cell_length_c   7.79623312
_cell_angle_alpha   95.40378581
_cell_angle_beta   114.58602154
_cell_angle_gamma   114.58601814
_symmetry_Int_Tables_number   1
_chemical_formula_structural   Na2Te3Mo3O16
_chemical_formula_sum   'Na2 Te3 Mo3 O16'
_cell_volume   356.27861920
_cell_formula_units_Z   1
loop_
 _symmetry_equiv_pos_site_id
 _symmetry_equiv_pos_as_xyz
  1  'x, y, z'
loop_
 _atom_site_type_symbol
 _atom_site_label
 _atom_site_symmetry_multiplicity
 _atom_site_fract_x
 _atom_site_fract_y
 _atom_site_fract_z
 _atom_site_occupancy
  Na  Na0  1  0.50000000  0.93278905  0.06721095  1
  Na  Na1  1  1.00000000  0.51709048  0.48290952  1
  Te  Te2  1  1.00000000  0.01341977  0.98658023  1
  Te  Te3  1  0.50132008  0.39189509  0.04964340  1
  Te  Te4  1  0.49867992  0.95035660  0.60810491  1
  Mo  Mo5  1  0.97382007  0.48600922  0.96779278  1
  Mo  Mo6  1  0.02617993  0.03220722  0.51399078  1
  Mo  Mo7  1  0.50000000  0.41940001  0.58059999  1
  O  O8  1  0.23618697  0.15472980  0.40918279  1
  O  O9  1  0.88739835  0.16917438  0.44194753  1
  O  O10  1  0.76381303  0.59081721  0.84527020  1
  O  O11  1  0.11260165  0.55805247  0.83082562  1
  O  O12  1  0.83474543  0.81252039  0.30909640  1
  O  O13  1  0.66117072  0.23928497  0.70393222  1
  O  O14  1  0.62984682  0.46032512  0.43272388  1
  O  O15  1  0.33882928  0.29606778  0.76071503  1
  O  O16  1  0.92938202  0.96095774  0.71092725  1
  O  O17  1  0.16525457  0.69090360  0.18747961  1
  O  O18  1  0.07061798  0.28907275  0.03904226  1
  O  O19  1  0.33875081  0.13056657  0.06550881  1
  O  O20  1  0.66124919  0.93449118  0.86943343  1
  O  O21  1  0.37015318  0.56727612  0.53967488  1
  O  O22  1  0.75676185  0.36584842  0.10661595  1
  O  O23  1  0.24323815  0.89338405  0.63415158  1
