# generated using pymatgen
data_Nd3MoO7
_symmetry_space_group_name_H-M   'P 1'
_cell_length_a   7.72367437
_cell_length_b   7.66161558
_cell_length_c   10.95126120
_cell_angle_alpha   90.00000000
_cell_angle_beta   90.00000000
_cell_angle_gamma   90.00000000
_symmetry_Int_Tables_number   1
_chemical_formula_structural   Nd3MoO7
_chemical_formula_sum   'Nd12 Mo4 O28'
_cell_volume   648.04990412
_cell_formula_units_Z   4
loop_
 _symmetry_equiv_pos_site_id
 _symmetry_equiv_pos_as_xyz
  1  'x, y, z'
loop_
 _atom_site_type_symbol
 _atom_site_label
 _atom_site_symmetry_multiplicity
 _atom_site_fract_x
 _atom_site_fract_y
 _atom_site_fract_z
 _atom_site_occupancy
  Nd  Nd0  1  0.54065132  0.98895345  0.25552516  1
  Nd  Nd1  1  0.71299228  0.75151412  0.52668604  1
  Nd  Nd2  1  0.28700772  0.25151412  0.97331396  1
  Nd  Nd3  1  0.29890944  0.24835935  0.51900940  1
  Nd  Nd4  1  0.20109056  0.75164065  0.01900940  1
  Nd  Nd5  1  0.21299228  0.74848588  0.47331396  1
  Nd  Nd6  1  0.70109056  0.74835935  0.98099060  1
  Nd  Nd7  1  0.79890944  0.25164065  0.48099060  1
  Nd  Nd8  1  0.45934868  0.48895345  0.24447484  1
  Nd  Nd9  1  0.78700772  0.24848588  0.02668604  1
  Nd  Nd10  1  0.95934868  0.01104655  0.75552516  1
  Nd  Nd11  1  0.04065132  0.51104655  0.74447484  1
  Mo  Mo12  1  0.49809900  0.99635147  0.74884122  1
  Mo  Mo13  1  0.99809900  0.50364853  0.25115878  1
  Mo  Mo14  1  0.50190100  0.49635147  0.75115878  1
  Mo  Mo15  1  0.00190100  0.00364853  0.24884122  1
  O  O16  1  0.29225313  0.53213042  0.86918836  1
  O  O17  1  0.93671998  0.25319518  0.25712411  1
  O  O18  1  0.18930950  0.46786857  0.12301994  1
  O  O19  1  0.18583214  0.03280618  0.37041227  1
  O  O20  1  0.53204646  0.25293515  0.38322277  1
  O  O21  1  0.81069050  0.96786857  0.37698006  1
  O  O22  1  0.46795354  0.75293515  0.11677723  1
  O  O23  1  0.68583214  0.46719382  0.62958773  1
  O  O24  1  0.36047912  0.95809952  0.60310140  1
  O  O25  1  0.86047912  0.54190048  0.39689860  1
  O  O26  1  0.31069050  0.53213143  0.62301994  1
  O  O27  1  0.99072149  0.76306273  0.61805420  1
  O  O28  1  0.13952088  0.04190048  0.10310140  1
  O  O29  1  0.68930950  0.03213143  0.87698006  1
  O  O30  1  0.06328002  0.75319518  0.24287589  1
  O  O31  1  0.79225313  0.96786958  0.13081164  1
  O  O32  1  0.50927851  0.23693727  0.11805420  1
  O  O33  1  0.03204646  0.24706485  0.61677723  1
  O  O34  1  0.31416786  0.96719382  0.87041227  1
  O  O35  1  0.49072149  0.73693727  0.38194580  1
  O  O36  1  0.00927851  0.26306273  0.88194580  1
  O  O37  1  0.96795354  0.74706485  0.88322277  1
  O  O38  1  0.20774687  0.46786958  0.36918836  1
  O  O39  1  0.56328002  0.74680482  0.75712411  1
  O  O40  1  0.43671998  0.24680482  0.74287589  1
  O  O41  1  0.63952088  0.45809952  0.89689860  1
  O  O42  1  0.81416786  0.53280618  0.12958773  1
  O  O43  1  0.70774687  0.03213042  0.63081164  1
