# generated using pymatgen
data_BaV(AsO4)2
_symmetry_space_group_name_H-M   'P 1'
_cell_length_a   6.90667463
_cell_length_b   7.76216061
_cell_length_c   14.89803042
_cell_angle_alpha   90.00000000
_cell_angle_beta   90.00000000
_cell_angle_gamma   115.09178568
_symmetry_Int_Tables_number   1
_chemical_formula_structural   BaV(AsO4)2
_chemical_formula_sum   'Ba4 V4 As8 O32'
_cell_volume   723.32102655
_cell_formula_units_Z   4
loop_
 _symmetry_equiv_pos_site_id
 _symmetry_equiv_pos_as_xyz
  1  'x, y, z'
loop_
 _atom_site_type_symbol
 _atom_site_label
 _atom_site_symmetry_multiplicity
 _atom_site_fract_x
 _atom_site_fract_y
 _atom_site_fract_z
 _atom_site_occupancy
  Ba  Ba0  1  0.70847213  0.67546450  0.12259767  1
  Ba  Ba1  1  0.79152787  0.32453550  0.62259767  1
  Ba  Ba2  1  0.29152787  0.32453550  0.87740233  1
  Ba  Ba3  1  0.20847213  0.67546450  0.37740233  1
  V  V4  1  0.69634604  0.97698969  0.84982455  1
  V  V5  1  0.80365396  0.02301031  0.34982455  1
  V  V6  1  0.19634604  0.97698969  0.65017545  1
  V  V7  1  0.30365396  0.02301031  0.15017545  1
  As  As8  1  0.10299383  0.33179810  0.18144145  1
  As  As9  1  0.39700617  0.66820190  0.68144145  1
  As  As10  1  0.72410610  0.22086478  0.03542173  1
  As  As11  1  0.27589390  0.77913522  0.96457827  1
  As  As12  1  0.77589390  0.77913522  0.53542173  1
  As  As13  1  0.60299383  0.33179810  0.31855855  1
  As  As14  1  0.89700617  0.66820190  0.81855855  1
  As  As15  1  0.22410610  0.22086478  0.46457827  1
  O  O16  1  0.58687446  0.35069773  0.01154928  1
  O  O17  1  0.85369279  0.15313039  0.95409636  1
  O  O18  1  0.80960063  0.54330920  0.30323604  1
  O  O19  1  0.47756271  0.26175951  0.21684198  1
  O  O20  1  0.42714656  0.38572131  0.39235941  1
  O  O21  1  0.97756271  0.26175951  0.28315802  1
  O  O22  1  0.80726325  0.12900309  0.76800897  1
  O  O23  1  0.11280005  0.14370819  0.12180908  1
  O  O24  1  0.57285344  0.61427869  0.60764059  1
  O  O25  1  0.92714656  0.38572131  0.10764059  1
  O  O26  1  0.61280005  0.14370819  0.37819092  1
  O  O27  1  0.69039937  0.45669080  0.80323604  1
  O  O28  1  0.07285344  0.61427869  0.89235941  1
  O  O29  1  0.88719995  0.85629181  0.87819092  1
  O  O30  1  0.19273675  0.87099691  0.23199103  1
  O  O31  1  0.35369279  0.15313039  0.54590364  1
  O  O32  1  0.57069667  0.02116160  0.09787071  1
  O  O33  1  0.02243729  0.73824049  0.71684198  1
  O  O34  1  0.52243729  0.73824049  0.78315802  1
  O  O35  1  0.69273675  0.87099691  0.26800897  1
  O  O36  1  0.64630721  0.84686961  0.45409636  1
  O  O37  1  0.91312554  0.64930227  0.51154928  1
  O  O38  1  0.92930333  0.97883840  0.59787071  1
  O  O39  1  0.19039937  0.45669080  0.69676396  1
  O  O40  1  0.30960063  0.54330920  0.19676396  1
  O  O41  1  0.38719995  0.85629181  0.62180908  1
  O  O42  1  0.42930333  0.97883840  0.90212929  1
  O  O43  1  0.30726325  0.12900309  0.73199103  1
  O  O44  1  0.14630721  0.84686961  0.04590364  1
  O  O45  1  0.41312554  0.64930227  0.98845072  1
  O  O46  1  0.07069667  0.02116160  0.40212929  1
  O  O47  1  0.08687446  0.35069773  0.48845072  1
