# generated using pymatgen
data_ZrMo2Se8(Cl7O)2
_symmetry_space_group_name_H-M   'P 1'
_cell_length_a   7.40416277
_cell_length_b   13.91088759
_cell_length_c   15.69825836
_cell_angle_alpha   104.29244897
_cell_angle_beta   90.00000000
_cell_angle_gamma   90.00000000
_symmetry_Int_Tables_number   1
_chemical_formula_structural   ZrMo2Se8(Cl7O)2
_chemical_formula_sum   'Zr2 Mo4 Se16 Cl28 O4'
_cell_volume   1566.85094474
_cell_formula_units_Z   2
loop_
 _symmetry_equiv_pos_site_id
 _symmetry_equiv_pos_as_xyz
  1  'x, y, z'
loop_
 _atom_site_type_symbol
 _atom_site_label
 _atom_site_symmetry_multiplicity
 _atom_site_fract_x
 _atom_site_fract_y
 _atom_site_fract_z
 _atom_site_occupancy
  Zr  Zr0  1  0.00000000  0.00000000  0.00000000  1
  Zr  Zr1  1  0.50000000  0.00000000  0.50000000  1
  Mo  Mo2  1  0.30844486  0.44640153  0.90203231  1
  Mo  Mo3  1  0.80844486  0.55359847  0.59796769  1
  Mo  Mo4  1  0.69155514  0.55359847  0.09796769  1
  Mo  Mo5  1  0.19155514  0.44640153  0.40203231  1
  Se  Se6  1  0.61604968  0.84638584  0.78510467  1
  Se  Se7  1  0.38395032  0.15361416  0.21489533  1
  Se  Se8  1  0.49315256  0.74107360  0.86517774  1
  Se  Se9  1  0.25325156  0.70876825  0.26922331  1
  Se  Se10  1  0.24674844  0.70876825  0.76922331  1
  Se  Se11  1  0.50684744  0.25892640  0.13482226  1
  Se  Se12  1  0.75325156  0.29123175  0.23077669  1
  Se  Se13  1  0.86808867  0.18341939  0.81008649  1
  Se  Se14  1  0.74674844  0.29123175  0.73077669  1
  Se  Se15  1  0.63191133  0.18341939  0.31008649  1
  Se  Se16  1  0.36808867  0.81658061  0.68991351  1
  Se  Se17  1  0.99315256  0.25892640  0.63482226  1
  Se  Se18  1  0.13191133  0.81658061  0.18991351  1
  Se  Se19  1  0.11604968  0.15361416  0.71489533  1
  Se  Se20  1  0.00684744  0.74107360  0.36517774  1
  Se  Se21  1  0.88395032  0.84638584  0.28510467  1
  Cl  Cl22  1  0.88932461  0.54691904  0.74131686  1
  Cl  Cl23  1  0.34010849  0.46804649  0.06040390  1
  Cl  Cl24  1  0.77643282  0.37951817  0.06806532  1
  Cl  Cl25  1  0.27643282  0.62048183  0.43193468  1
  Cl  Cl26  1  0.37926685  0.02426641  0.35732188  1
  Cl  Cl27  1  0.22356718  0.62048183  0.93193468  1
  Cl  Cl28  1  0.11432641  0.16988208  0.07900381  1
  Cl  Cl29  1  0.97198028  0.70930823  0.62190380  1
  Cl  Cl30  1  0.71249113  0.07338508  0.96999540  1
  Cl  Cl31  1  0.38567359  0.16988208  0.57900381  1
  Cl  Cl32  1  0.84010849  0.53195351  0.43959610  1
  Cl  Cl33  1  0.88567359  0.83011792  0.92099619  1
  Cl  Cl34  1  0.28750887  0.92661492  0.03000460  1
  Cl  Cl35  1  0.72356718  0.37951817  0.56806532  1
  Cl  Cl36  1  0.12073315  0.02426641  0.85732188  1
  Cl  Cl37  1  0.61432641  0.83011792  0.42099619  1
  Cl  Cl38  1  0.62073315  0.97573359  0.64267812  1
  Cl  Cl39  1  0.87926685  0.97573359  0.14267812  1
  Cl  Cl40  1  0.78750887  0.07338508  0.46999540  1
  Cl  Cl41  1  0.02801972  0.29069177  0.37809620  1
  Cl  Cl42  1  0.61067539  0.54691904  0.24131686  1
  Cl  Cl43  1  0.21249113  0.92661492  0.53000460  1
  Cl  Cl44  1  0.47198028  0.29069177  0.87809620  1
  Cl  Cl45  1  0.11067539  0.45308096  0.25868314  1
  Cl  Cl46  1  0.15989151  0.46804649  0.56040390  1
  Cl  Cl47  1  0.38932461  0.45308096  0.75868314  1
  Cl  Cl48  1  0.52801972  0.70930823  0.12190380  1
  Cl  Cl49  1  0.65989151  0.53195351  0.93959610  1
  O  O50  1  0.90290167  0.60177342  0.11106832  1
  O  O51  1  0.40290167  0.39822658  0.38893168  1
  O  O52  1  0.09709833  0.39822658  0.88893168  1
  O  O53  1  0.59709833  0.60177342  0.61106832  1
