# generated using pymatgen
data_Rb5Mo27Se31
_symmetry_space_group_name_H-M   'P 1'
_cell_length_a   9.73074762
_cell_length_b   9.73074793
_cell_length_c   37.79311316
_cell_angle_alpha   90.00000000
_cell_angle_beta   90.00000000
_cell_angle_gamma   119.99999891
_symmetry_Int_Tables_number   1
_chemical_formula_structural   Rb5Mo27Se31
_chemical_formula_sum   'Rb10 Mo54 Se62'
_cell_volume   3099.10103913
_cell_formula_units_Z   2
loop_
 _symmetry_equiv_pos_site_id
 _symmetry_equiv_pos_as_xyz
  1  'x, y, z'
loop_
 _atom_site_type_symbol
 _atom_site_label
 _atom_site_symmetry_multiplicity
 _atom_site_fract_x
 _atom_site_fract_y
 _atom_site_fract_z
 _atom_site_occupancy
  Rb  Rb0  1  0.66666700  0.33333300  0.52291287  1
  Rb  Rb1  1  0.33333300  0.66666700  0.31329234  1
  Rb  Rb2  1  0.66666700  0.33333300  0.81329234  1
  Rb  Rb3  1  0.66666700  0.33333300  0.68670766  1
  Rb  Rb4  1  0.66666700  0.33333300  0.97708713  1
  Rb  Rb5  1  0.00000000  0.00000000  0.25000000  1
  Rb  Rb6  1  0.33333300  0.66666700  0.02291287  1
  Rb  Rb7  1  0.00000000  0.00000000  0.75000000  1
  Rb  Rb8  1  0.33333300  0.66666700  0.18670766  1
  Rb  Rb9  1  0.33333300  0.66666700  0.47708713  1
  Mo  Mo10  1  0.98404256  0.15091561  0.52936290  1
  Mo  Mo11  1  0.68484353  0.18484536  0.25000000  1
  Mo  Mo12  1  0.50173490  0.68796266  0.87047022  1
  Mo  Mo13  1  0.16634533  0.65006711  0.69015695  1
  Mo  Mo14  1  0.15091561  0.16687306  0.02936290  1
  Mo  Mo15  1  0.16755842  0.02244597  0.40898629  1
  Mo  Mo16  1  0.31515647  0.81515464  0.75000000  1
  Mo  Mo17  1  0.84908439  0.83312694  0.97063710  1
  Mo  Mo18  1  0.83312694  0.98404256  0.02936290  1
  Mo  Mo19  1  0.34993289  0.51627823  0.80984305  1
  Mo  Mo20  1  0.97755403  0.14511245  0.40898629  1
  Mo  Mo21  1  0.51627823  0.16634533  0.19015695  1
  Mo  Mo22  1  0.48372177  0.83365467  0.80984305  1
  Mo  Mo23  1  0.16687306  0.01595744  0.52936290  1
  Mo  Mo24  1  0.02244597  0.85488755  0.59101371  1
  Mo  Mo25  1  0.83312694  0.98404256  0.47063710  1
  Mo  Mo26  1  0.14511245  0.16755842  0.90898629  1
  Mo  Mo27  1  0.14511245  0.16755842  0.59101371  1
  Mo  Mo28  1  0.83365467  0.34993289  0.19015695  1
  Mo  Mo29  1  0.02244597  0.85488755  0.90898629  1
  Mo  Mo30  1  0.16687306  0.01595744  0.97063710  1
  Mo  Mo31  1  0.48372177  0.83365467  0.69015695  1
  Mo  Mo32  1  0.85488755  0.83244158  0.09101371  1
  Mo  Mo33  1  0.01595744  0.84908439  0.02936290  1
  Mo  Mo34  1  0.34993289  0.51627823  0.69015695  1
  Mo  Mo35  1  0.83365467  0.34993289  0.30984305  1
  Mo  Mo36  1  0.16634533  0.65006711  0.80984305  1
  Mo  Mo37  1  0.65006711  0.48372177  0.19015695  1
  Mo  Mo38  1  0.50173490  0.68796266  0.62952978  1
  Mo  Mo39  1  0.81515464  0.49999817  0.25000000  1
  Mo  Mo40  1  0.81377224  0.50173490  0.12952978  1
  Mo  Mo41  1  0.98404256  0.15091561  0.97063710  1
  Mo  Mo42  1  0.31203734  0.81377224  0.87047022  1
  Mo  Mo43  1  0.18622776  0.49826510  0.62952978  1
  Mo  Mo44  1  0.16755842  0.02244597  0.09101371  1
  Mo  Mo45  1  0.49826510  0.31203734  0.12952978  1
  Mo  Mo46  1  0.97755403  0.14511245  0.09101371  1
  Mo  Mo47  1  0.01595744  0.84908439  0.47063710  1
  Mo  Mo48  1  0.65006711  0.48372177  0.30984305  1
  Mo  Mo49  1  0.18484536  0.50000183  0.75000000  1
  Mo  Mo50  1  0.83244158  0.97755403  0.90898629  1
  Mo  Mo51  1  0.68796266  0.18622776  0.12952978  1
  Mo  Mo52  1  0.15091561  0.16687306  0.47063710  1
  Mo  Mo53  1  0.49999817  0.68484353  0.75000000  1
  Mo  Mo54  1  0.83244158  0.97755403  0.59101371  1
  Mo  Mo55  1  0.85488755  0.83244158  0.40898629  1
  Mo  Mo56  1  0.84908439  0.83312694  0.52936290  1
  Mo  Mo57  1  0.51627823  0.16634533  0.30984305  1
  Mo  Mo58  1  0.68796266  0.18622776  0.37047022  1
  Mo  Mo59  1  0.50000183  0.31515647  0.25000000  1
  Mo  Mo60  1  0.81377224  0.50173490  0.37047022  1
  Mo  Mo61  1  0.18622776  0.49826510  0.87047022  1
  Mo  Mo62  1  0.49826510  0.31203734  0.37047022  1
  Mo  Mo63  1  0.31203734  0.81377224  0.62952978  1
  Se  Se64  1  0.29906439  0.95824075  0.81035336  1
  Se  Se65  1  0.00000000  0.00000000  0.14462707  1
  Se  Se66  1  0.03883799  0.70977322  0.41422396  1
  Se  Se67  1  0.00454428  0.62743238  0.63389189  1
  Se  Se68  1  0.67541063  0.96798374  0.96877190  1
  Se  Se69  1  0.70742689  0.67541063  0.03122810  1
  Se  Se70  1  0.62288810  0.99545572  0.63389189  1
  Se  Se71  1  0.95824075  0.65917636  0.31035336  1
  Se  Se72  1  0.62923365  0.62660128  0.25000000  1
  Se  Se73  1  0.62743238  0.62288810  0.13389189  1
  Se  Se74  1  0.37711190  0.00454428  0.36610811  1
  Se  Se75  1  0.37256762  0.37711190  0.63389189  1
  Se  Se76  1  0.33333300  0.66666700  0.92400736  1
  Se  Se77  1  0.32906477  0.03883799  0.91422396  1
  Se  Se78  1  0.03201626  0.70742689  0.96877190  1
  Se  Se79  1  0.99545572  0.37256762  0.36610811  1
  Se  Se80  1  0.99545572  0.37256762  0.13389189  1
  Se  Se81  1  0.03201626  0.70742689  0.53122810  1
  Se  Se82  1  0.00000000  0.00000000  0.35537293  1
  Se  Se83  1  1.00263237  0.62923365  0.75000000  1
  Se  Se84  1  0.33333300  0.66666700  0.57599264  1
  Se  Se85  1  0.34082364  0.29906439  0.18964664  1
  Se  Se86  1  0.37256762  0.37711190  0.86610811  1
  Se  Se87  1  0.95824075  0.65917636  0.18964664  1
  Se  Se88  1  0.37339872  1.00263237  0.25000000  1
  Se  Se89  1  0.29022678  0.32906477  0.08577604  1
  Se  Se90  1  0.62288810  0.99545572  0.86610811  1
  Se  Se91  1  0.66666700  0.33333300  0.42400736  1
  Se  Se92  1  -0.00263237  0.37076635  0.25000000  1
  Se  Se93  1  0.67541063  0.96798374  0.53122810  1
  Se  Se94  1  0.00454428  0.62743238  0.86610811  1
  Se  Se95  1  0.70093561  0.04175925  0.18964664  1
  Se  Se96  1  0.34082364  0.29906439  0.31035336  1
  Se  Se97  1  0.29906439  0.95824075  0.68964664  1
  Se  Se98  1  0.04175925  0.34082364  0.81035336  1
  Se  Se99  1  0.70093561  0.04175925  0.31035336  1
  Se  Se100  1  0.29257311  0.32458937  0.53122810  1
  Se  Se101  1  0.70742689  0.67541063  0.46877190  1
  Se  Se102  1  0.65917636  0.70093561  0.68964664  1
  Se  Se103  1  0.32458937  0.03201626  0.46877190  1
  Se  Se104  1  0.32906477  0.03883799  0.58577604  1
  Se  Se105  1  0.96798374  0.29257311  0.46877190  1
  Se  Se106  1  0.70977322  0.67093523  0.91422396  1
  Se  Se107  1  0.96116201  0.29022678  0.58577604  1
  Se  Se108  1  0.67093523  0.96116201  0.41422396  1
  Se  Se109  1  0.03883799  0.70977322  0.08577604  1
  Se  Se110  1  0.37076635  0.37339872  0.75000000  1
  Se  Se111  1  0.96798374  0.29257311  0.03122810  1
  Se  Se112  1  0.96116201  0.29022678  0.91422396  1
  Se  Se113  1  0.70977322  0.67093523  0.58577604  1
  Se  Se114  1  0.00000000  0.00000000  0.64462707  1
  Se  Se115  1  0.29022678  0.32906477  0.41422396  1
  Se  Se116  1  0.37711190  0.00454428  0.13389189  1
  Se  Se117  1  0.00000000  0.00000000  0.85537293  1
  Se  Se118  1  0.62743238  0.62288810  0.36610811  1
  Se  Se119  1  0.65917636  0.70093561  0.81035336  1
  Se  Se120  1  0.32458937  0.03201626  0.03122810  1
  Se  Se121  1  0.29257311  0.32458937  0.96877190  1
  Se  Se122  1  0.62660128  -0.00263237  0.75000000  1
  Se  Se123  1  0.66666700  0.33333300  0.07599264  1
  Se  Se124  1  0.67093523  0.96116201  0.08577604  1
  Se  Se125  1  0.04175925  0.34082364  0.68964664  1
