# generated using pymatgen
data_CuBi(PSe3)2
_symmetry_space_group_name_H-M   'P 1'
_cell_length_a   6.61234077
_cell_length_b   6.61234062
_cell_length_c   14.73771027
_cell_angle_alpha   90.00000000
_cell_angle_beta   90.00000000
_cell_angle_gamma   120.00000080
_symmetry_Int_Tables_number   1
_chemical_formula_structural   CuBi(PSe3)2
_chemical_formula_sum   'Cu2 Bi2 P4 Se12'
_cell_volume   558.04739726
_cell_formula_units_Z   2
loop_
 _symmetry_equiv_pos_site_id
 _symmetry_equiv_pos_as_xyz
  1  'x, y, z'
loop_
 _atom_site_type_symbol
 _atom_site_label
 _atom_site_symmetry_multiplicity
 _atom_site_fract_x
 _atom_site_fract_y
 _atom_site_fract_z
 _atom_site_occupancy
  Cu  Cu0  1  0.00000000  0.00000000  0.75000000  1
  Cu  Cu1  1  0.00000000  0.00000000  0.25000000  1
  Bi  Bi2  1  0.33333300  0.66666700  0.75000000  1
  Bi  Bi3  1  0.66666700  0.33333300  0.25000000  1
  P  P4  1  0.66666700  0.33333300  0.82743694  1
  P  P5  1  0.66666700  0.33333300  0.67256306  1
  P  P6  1  0.33333300  0.66666700  0.17256306  1
  P  P7  1  0.33333300  0.66666700  0.32743694  1
  Se  Se8  1  0.67496352  0.96901105  0.13231533  1
  Se  Se9  1  0.70595247  0.03098895  0.63231533  1
  Se  Se10  1  0.03098895  0.32503648  0.36768467  1
  Se  Se11  1  0.96901105  0.29404753  0.86768467  1
  Se  Se12  1  0.29404753  0.96901105  0.36768467  1
  Se  Se13  1  0.32503648  0.03098895  0.86768467  1
  Se  Se14  1  0.70595247  0.67496352  0.86768467  1
  Se  Se15  1  0.03098895  0.70595247  0.13231533  1
  Se  Se16  1  0.96901105  0.67496352  0.63231533  1
  Se  Se17  1  0.29404753  0.32503648  0.13231533  1
  Se  Se18  1  0.32503648  0.29404753  0.63231533  1
  Se  Se19  1  0.67496352  0.70595247  0.36768467  1
