# generated using pymatgen
data_Mo(SeCl6)2
_symmetry_space_group_name_H-M   'P 1'
_cell_length_a   9.00314627
_cell_length_b   9.00314592
_cell_length_c   12.80207752
_cell_angle_alpha   109.61228839
_cell_angle_beta   109.61228765
_cell_angle_gamma   92.60388249
_symmetry_Int_Tables_number   1
_chemical_formula_structural   Mo(SeCl6)2
_chemical_formula_sum   'Mo2 Se4 Cl24'
_cell_volume   906.05110701
_cell_formula_units_Z   2
loop_
 _symmetry_equiv_pos_site_id
 _symmetry_equiv_pos_as_xyz
  1  'x, y, z'
loop_
 _atom_site_type_symbol
 _atom_site_label
 _atom_site_symmetry_multiplicity
 _atom_site_fract_x
 _atom_site_fract_y
 _atom_site_fract_z
 _atom_site_occupancy
  Mo  Mo0  1  0.12364265  0.62364265  0.24728529  1
  Mo  Mo1  1  0.87364265  0.87364265  0.74728529  1
  Se  Se2  1  0.93824841  0.98259422  0.41108486  1
  Se  Se3  1  0.23259422  0.68824841  0.91108486  1
  Se  Se4  1  0.47283645  0.42849064  0.41108486  1
  Se  Se5  1  0.67849064  0.22283645  0.91108486  1
  Cl  Cl6  1  0.01172534  0.36377459  0.10193187  1
  Cl  Cl7  1  0.23260080  0.88471398  0.40130854  1
  Cl  Cl8  1  0.16870775  0.51659456  0.40130854  1
  Cl  Cl9  1  0.83090377  0.14071369  0.75354968  1
  Cl  Cl10  1  0.50192302  0.33430167  0.55632593  1
  Cl  Cl11  1  0.98815728  0.84020653  0.60193187  1
  Cl  Cl12  1  0.31411708  0.66258232  0.76346212  1
  Cl  Cl13  1  0.68902570  0.98037205  0.40164436  1
  Cl  Cl14  1  0.35087980  0.19934504  0.26346212  1
  Cl  Cl15  1  0.58430167  0.25192302  0.05632593  1
  Cl  Cl16  1  0.44934504  0.10087980  0.76346212  1
  Cl  Cl17  1  0.86283598  0.67264591  0.25354968  1
  Cl  Cl18  1  0.47202426  0.80440291  0.05632593  1
  Cl  Cl19  1  0.61377459  0.76172534  0.60193187  1
  Cl  Cl20  1  0.23037205  0.43902570  0.90164436  1
  Cl  Cl21  1  0.05440291  0.22202426  0.55632593  1
  Cl  Cl22  1  0.76659456  0.91870775  0.90130854  1
  Cl  Cl23  1  0.71261866  0.42127231  0.40164436  1
  Cl  Cl24  1  0.13471398  0.98260080  0.90130854  1
  Cl  Cl25  1  0.09020653  0.73815728  0.10193187  1
  Cl  Cl26  1  0.91258232  0.06411708  0.26346212  1
  Cl  Cl27  1  0.39071369  0.58090377  0.25354968  1
  Cl  Cl28  1  0.67127231  0.46261866  0.90164436  1
  Cl  Cl29  1  0.92264591  0.61283598  0.75354968  1
