# generated using pymatgen
data_Na3AlH6
_symmetry_space_group_name_H-M   'P 1'
_cell_length_a   5.46783545
_cell_length_b   9.22359659
_cell_length_c   17.77279793
_cell_angle_alpha   90.00000000
_cell_angle_beta   90.00000000
_cell_angle_gamma   90.00000000
_symmetry_Int_Tables_number   1
_chemical_formula_structural   Na3AlH6
_chemical_formula_sum   'Na24 Al8 H48'
_cell_volume   896.33744478
_cell_formula_units_Z   8
loop_
 _symmetry_equiv_pos_site_id
 _symmetry_equiv_pos_as_xyz
  1  'x, y, z'
loop_
 _atom_site_type_symbol
 _atom_site_label
 _atom_site_symmetry_multiplicity
 _atom_site_fract_x
 _atom_site_fract_y
 _atom_site_fract_z
 _atom_site_occupancy
  Na  Na0  1  0.30223052  0.08922975  0.34723935  1
  Na  Na1  1  0.74543060  0.58278574  0.94830610  1
  Na  Na2  1  0.18959133  0.74920779  0.83536111  1
  Na  Na3  1  0.25456940  0.41721426  0.05169390  1
  Na  Na4  1  0.81040867  0.25079221  0.33536111  1
  Na  Na5  1  0.30223052  0.41077025  0.65276065  1
  Na  Na6  1  0.25456940  0.08278574  0.94830610  1
  Na  Na7  1  0.69776948  0.91077025  0.84723935  1
  Na  Na8  1  0.81040867  0.25079221  0.16463889  1
  Na  Na9  1  0.69776948  0.58922975  0.15276065  1
  Na  Na10  1  0.74543060  0.91721426  0.05169390  1
  Na  Na11  1  0.69776948  0.58922975  0.34723935  1
  Na  Na12  1  0.81040867  0.24920779  0.83536111  1
  Na  Na13  1  0.81040867  0.24920779  0.66463889  1
  Na  Na14  1  0.18959133  0.75079221  0.16463889  1
  Na  Na15  1  0.25456940  0.08278574  0.55169390  1
  Na  Na16  1  0.69776948  0.91077025  0.65276065  1
  Na  Na17  1  0.74543060  0.91721426  0.44830610  1
  Na  Na18  1  0.30223052  0.08922975  0.15276065  1
  Na  Na19  1  0.25456940  0.41721426  0.44830610  1
  Na  Na20  1  0.30223052  0.41077025  0.84723935  1
  Na  Na21  1  0.18959133  0.74920779  0.66463889  1
  Na  Na22  1  0.74543060  0.58278574  0.55169390  1
  Na  Na23  1  0.18959133  0.75079221  0.33536111  1
  Al  Al24  1  0.78316054  0.25000000  0.00000000  1
  Al  Al25  1  0.78316054  0.25000000  0.50000000  1
  Al  Al26  1  0.74193496  0.57726078  0.75000000  1
  Al  Al27  1  0.21683946  0.75000000  0.50000000  1
  Al  Al28  1  0.74193496  0.92273922  0.25000000  1
  Al  Al29  1  0.25806504  0.07726078  0.75000000  1
  Al  Al30  1  0.21683946  0.75000000  0.00000000  1
  Al  Al31  1  0.25806504  0.42273922  0.25000000  1
  H  H32  1  0.97806327  0.81223507  0.56075589  1
  H  H33  1  0.22094264  0.58840585  0.94978351  1
  H  H34  1  0.95026071  0.97152481  0.17871822  1
  H  H35  1  0.04973929  0.47152481  0.32128178  1
  H  H36  1  0.77905736  0.41159415  0.44978351  1
  H  H37  1  0.44016046  0.67331447  0.43869920  1
  H  H38  1  0.22094264  0.91159415  0.44978351  1
  H  H39  1  0.13555367  0.24236221  0.25000000  1
  H  H40  1  0.02193673  0.31223507  0.93924411  1
  H  H41  1  0.61747353  0.10109212  0.25000000  1
  H  H42  1  0.02193673  0.18776493  0.43924411  1
  H  H43  1  0.95026071  0.52847519  0.82128178  1
  H  H44  1  0.38252647  0.89890788  0.75000000  1
  H  H45  1  0.46509084  0.37482417  0.17804862  1
  H  H46  1  0.77905736  0.08840585  0.55021649  1
  H  H47  1  0.46509084  0.12517583  0.67804862  1
  H  H48  1  0.46509084  0.12517583  0.82195138  1
  H  H49  1  0.53490916  0.62517583  0.82195138  1
  H  H50  1  0.04973929  0.02847519  0.82128178  1
  H  H51  1  0.86444633  0.75763779  0.75000000  1
  H  H52  1  0.86444633  0.74236221  0.25000000  1
  H  H53  1  0.55983954  0.32668553  0.56130080  1
  H  H54  1  0.44016046  0.67331447  0.06130080  1
  H  H55  1  0.97806327  0.68776493  0.06075589  1
  H  H56  1  0.95026071  0.97152481  0.32128178  1
  H  H57  1  0.55983954  0.32668553  0.93869920  1
  H  H58  1  0.13555367  0.25763779  0.75000000  1
  H  H59  1  0.61747353  0.39890788  0.75000000  1
  H  H60  1  0.97806327  0.68776493  0.43924411  1
  H  H61  1  0.44016046  0.82668553  0.93869920  1
  H  H62  1  0.55983954  0.17331447  0.06130080  1
  H  H63  1  0.53490916  0.87482417  0.32195138  1
  H  H64  1  0.04973929  0.02847519  0.67871822  1
  H  H65  1  0.53490916  0.62517583  0.67804862  1
  H  H66  1  0.53490916  0.87482417  0.17804862  1
  H  H67  1  0.77905736  0.08840585  0.94978351  1
  H  H68  1  0.95026071  0.52847519  0.67871822  1
  H  H69  1  0.44016046  0.82668553  0.56130080  1
  H  H70  1  0.02193673  0.31223507  0.56075589  1
  H  H71  1  0.38252647  0.60109212  0.25000000  1
  H  H72  1  0.02193673  0.18776493  0.06075589  1
  H  H73  1  0.22094264  0.91159415  0.05021649  1
  H  H74  1  0.77905736  0.41159415  0.05021649  1
  H  H75  1  0.04973929  0.47152481  0.17871822  1
  H  H76  1  0.55983954  0.17331447  0.43869920  1
  H  H77  1  0.46509084  0.37482417  0.32195138  1
  H  H78  1  0.22094264  0.58840585  0.55021649  1
  H  H79  1  0.97806327  0.81223507  0.93924411  1
