# generated using pymatgen
data_Ba2Mg2Tl2Cu3O10
_symmetry_space_group_name_H-M   'P 1'
_cell_length_a   3.79850143
_cell_length_b   3.76554404
_cell_length_c   18.74711289
_cell_angle_alpha   94.39564350
_cell_angle_beta   95.53207882
_cell_angle_gamma   89.96125269
_symmetry_Int_Tables_number   1
_chemical_formula_structural   Ba2Mg2Tl2Cu3O10
_chemical_formula_sum   'Ba2 Mg2 Tl2 Cu3 O10'
_cell_volume   266.10783312
_cell_formula_units_Z   1
loop_
 _symmetry_equiv_pos_site_id
 _symmetry_equiv_pos_as_xyz
  1  'x, y, z'
loop_
 _atom_site_type_symbol
 _atom_site_label
 _atom_site_symmetry_multiplicity
 _atom_site_fract_x
 _atom_site_fract_y
 _atom_site_fract_z
 _atom_site_occupancy
  Ba  Ba0  1  0.10048107  0.16612402  0.27675657  1
  Ba  Ba1  1  0.80355714  0.82849194  0.72290116  1
  Mg  Mg2  1  0.87373627  0.91356321  0.91275588  1
  Mg  Mg3  1  0.99576995  0.06552235  0.08631769  1
  Tl  Tl4  1  0.64110205  0.72285074  0.43513159  1
  Tl  Tl5  1  0.20062999  0.26956741  0.56415617  1
  Cu  Cu6  1  0.35212786  0.37681091  0.84277175  1
  Cu  Cu7  1  0.53655694  0.61528297  0.15685690  1
  Cu  Cu8  1  0.41040307  0.51731047  0.99983683  1
  O  O9  1  0.35258664  0.87022785  0.82745491  1
  O  O10  1  0.29159927  0.31166330  0.67707299  1
  O  O11  1  0.85932990  0.38582775  0.85752954  1
  O  O12  1  0.81357043  0.76472516  0.54912999  1
  O  O13  1  0.91971330  0.54859551  0.02050063  1
  O  O14  1  0.04409499  0.63202140  0.17172196  1
  O  O15  1  0.62889911  0.68202365  0.32217713  1
  O  O16  1  0.52599594  0.10982870  0.14015402  1
  O  O17  1  0.26834323  0.22890781  0.45012433  1
  O  O18  1  0.38258883  0.00861887  0.97761295  1
