# generated using pymatgen
data_Y3H2
_symmetry_space_group_name_H-M   'P 1'
_cell_length_a   3.70274681
_cell_length_b   3.70274705
_cell_length_c   17.43469957
_cell_angle_alpha   90.00000000
_cell_angle_beta   90.00000000
_cell_angle_gamma   119.99999778
_symmetry_Int_Tables_number   1
_chemical_formula_structural   Y3H2
_chemical_formula_sum   'Y6 H4'
_cell_volume   207.01087950
_cell_formula_units_Z   2
loop_
 _symmetry_equiv_pos_site_id
 _symmetry_equiv_pos_as_xyz
  1  'x, y, z'
loop_
 _atom_site_type_symbol
 _atom_site_label
 _atom_site_symmetry_multiplicity
 _atom_site_fract_x
 _atom_site_fract_y
 _atom_site_fract_z
 _atom_site_occupancy
  Y  Y0  1  0.33333300  0.66666700  0.82842456  1
  Y  Y1  1  0.00000000  0.00000000  0.32842456  1
  Y  Y2  1  0.00000000  0.00000000  0.66666511  1
  Y  Y3  1  0.33333300  0.66666700  0.50490078  1
  Y  Y4  1  0.00000000  0.00000000  0.00490078  1
  Y  Y5  1  0.33333300  0.66666700  0.16666511  1
  H  H6  1  0.00000000  0.00000000  0.53687252  1
  H  H7  1  0.00000000  0.00000000  0.79645703  1
  H  H8  1  0.33333300  0.66666700  0.29645703  1
  H  H9  1  0.33333300  0.66666700  0.03687252  1
