# generated using pymatgen
data_BaIn2O4
_symmetry_space_group_name_H-M   'P 1'
_cell_length_a   5.92986160
_cell_length_b   14.67439891
_cell_length_c   21.15441978
_cell_angle_alpha   109.97342203
_cell_angle_beta   90.00000000
_cell_angle_gamma   90.00000000
_symmetry_Int_Tables_number   1
_chemical_formula_structural   BaIn2O4
_chemical_formula_sum   'Ba16 In32 O64'
_cell_volume   1730.07561209
_cell_formula_units_Z   16
loop_
 _symmetry_equiv_pos_site_id
 _symmetry_equiv_pos_as_xyz
  1  'x, y, z'
loop_
 _atom_site_type_symbol
 _atom_site_label
 _atom_site_symmetry_multiplicity
 _atom_site_fract_x
 _atom_site_fract_y
 _atom_site_fract_z
 _atom_site_occupancy
  Ba  Ba0  1  0.74438352  0.06105329  0.46049048  1
  Ba  Ba1  1  0.75606287  0.80946966  0.62238086  1
  Ba  Ba2  1  0.25916457  0.69094945  0.87769037  1
  Ba  Ba3  1  0.24083543  0.19094945  0.87769037  1
  Ba  Ba4  1  0.75916457  0.80905055  0.12230963  1
  Ba  Ba5  1  0.75561648  0.56105329  0.46049048  1
  Ba  Ba6  1  0.75697362  0.56131327  0.95984963  1
  Ba  Ba7  1  0.24438352  0.43894671  0.53950952  1
  Ba  Ba8  1  0.74393713  0.30946966  0.62238086  1
  Ba  Ba9  1  0.25697362  0.93868673  0.04015037  1
  Ba  Ba10  1  0.74083543  0.30905055  0.12230963  1
  Ba  Ba11  1  0.74302638  0.06131327  0.95984963  1
  Ba  Ba12  1  0.24393713  0.19053034  0.37761914  1
  Ba  Ba13  1  0.25561648  0.93894671  0.53950952  1
  Ba  Ba14  1  0.24302638  0.43868673  0.04015037  1
  Ba  Ba15  1  0.25606287  0.69053034  0.37761914  1
  In  In16  1  0.75389722  0.30658341  0.31074352  1
  In  In17  1  0.25846984  0.94660995  0.22247569  1
  In  In18  1  0.24857849  0.92916799  0.86320995  1
  In  In19  1  0.75017279  0.06999889  0.63652481  1
  In  In20  1  0.74925178  0.55291959  0.27819978  1
  In  In21  1  0.74857849  0.57083201  0.13679005  1
  In  In22  1  0.75142151  0.07083201  0.13679005  1
  In  In23  1  0.74982721  0.56999889  0.63652481  1
  In  In24  1  0.25816817  0.68613438  0.04104123  1
  In  In25  1  0.74610278  0.80658341  0.31074352  1
  In  In26  1  0.24328250  0.18641614  0.54111440  1
  In  In27  1  0.74531361  0.80556188  0.81043035  1
  In  In28  1  0.25671750  0.68641614  0.54111440  1
  In  In29  1  0.24531361  0.69443812  0.18956965  1
  In  In30  1  0.25389722  0.19341659  0.68925648  1
  In  In31  1  0.74183183  0.31386562  0.95895877  1
  In  In32  1  0.25468639  0.19443812  0.18956965  1
  In  In33  1  0.25017279  0.43000111  0.36347519  1
  In  In34  1  0.24153016  0.44660995  0.22247569  1
  In  In35  1  0.24982721  0.93000111  0.36347519  1
  In  In36  1  0.75846984  0.55339005  0.77752431  1
  In  In37  1  0.75074822  0.05291959  0.27819978  1
  In  In38  1  0.24925178  0.94708041  0.72180022  1
  In  In39  1  0.75816817  0.81386562  0.95895877  1
  In  In40  1  0.24610278  0.69341659  0.68925648  1
  In  In41  1  0.25142151  0.42916799  0.86320995  1
  In  In42  1  0.75468639  0.30556188  0.81043035  1
  In  In43  1  0.74328250  0.31358386  0.45888560  1
  In  In44  1  0.24183183  0.18613438  0.04104123  1
  In  In45  1  0.25074822  0.44708041  0.72180022  1
  In  In46  1  0.75671750  0.81358386  0.45888560  1
  In  In47  1  0.74153016  0.05339005  0.77752431  1
  O  O48  1  0.19369534  0.05353842  0.45456575  1
  O  O49  1  0.48100937  0.76860401  0.50454997  1
  O  O50  1  0.54866765  0.43531239  0.29150369  1
  O  O51  1  0.49193434  0.34474126  0.39211970  1
  O  O52  1  0.29712945  0.31863220  0.14135132  1
  O  O53  1  0.54358901  0.88569386  0.40584582  1
  O  O54  1  0.95641099  0.38569386  0.40584582  1
  O  O55  1  0.70287055  0.68136780  0.85864868  1
  O  O56  1  0.45641099  0.11430614  0.59415418  1
  O  O57  1  0.42555022  0.02060178  0.31678305  1
  O  O58  1  0.95133235  0.93531239  0.29150369  1
  O  O59  1  0.99193434  0.15525874  0.60788030  1
  O  O60  1  0.79712945  0.18136780  0.85864868  1
  O  O61  1  0.48464767  0.76780511  0.00470427  1
  O  O62  1  0.04273185  0.61484665  0.09410743  1
  O  O63  1  0.20287055  0.81863220  0.14135132  1
  O  O64  1  0.00654715  0.84407944  0.89118554  1
  O  O65  1  0.55592910  0.43433101  0.78993279  1
  O  O66  1  0.44407090  0.56566899  0.21006721  1
  O  O67  1  0.92555022  0.47939822  0.68321695  1
  O  O68  1  0.57444978  0.97939822  0.68321695  1
  O  O69  1  0.69369534  0.44646158  0.54543425  1
  O  O70  1  0.79967515  0.18329440  0.35781377  1
  O  O71  1  0.80630466  0.94646158  0.54543425  1
  O  O72  1  0.95726815  0.38515335  0.90589257  1
  O  O73  1  0.20032485  0.81670560  0.64218623  1
  O  O74  1  0.01535233  0.26780511  0.00470427  1
  O  O75  1  0.05592910  0.06566899  0.21006721  1
  O  O76  1  0.98100937  0.73139599  0.49545003  1
  O  O77  1  0.69301681  0.44731548  0.04530591  1
  O  O78  1  0.58307117  0.98020801  0.18420748  1
  O  O79  1  0.50806566  0.65525874  0.60788030  1
  O  O80  1  0.04358901  0.61430614  0.59415418  1
  O  O81  1  0.30630466  0.55353842  0.45456575  1
  O  O82  1  0.01899063  0.26860401  0.50454997  1
  O  O83  1  0.70032485  0.68329440  0.35781377  1
  O  O84  1  0.50654715  0.65592056  0.10881446  1
  O  O85  1  0.94407090  0.93433101  0.78993279  1
  O  O86  1  0.09706802  0.30661379  0.77052760  1
  O  O87  1  0.29967515  0.31670560  0.64218623  1
  O  O88  1  0.41692883  0.01979199  0.81579252  1
  O  O89  1  0.08307117  0.51979199  0.81579252  1
  O  O90  1  0.91692883  0.48020801  0.18420748  1
  O  O91  1  0.04866765  0.06468761  0.70849631  1
  O  O92  1  0.51899063  0.23139599  0.49545003  1
  O  O93  1  0.49345285  0.34407944  0.89118554  1
  O  O94  1  0.45133235  0.56468761  0.70849631  1
  O  O95  1  0.80698319  0.94731548  0.04530591  1
  O  O96  1  0.59526622  0.18999214  0.73071013  1
  O  O97  1  0.90293198  0.69338621  0.22947240  1
  O  O98  1  0.98464767  0.73219489  0.99529573  1
  O  O99  1  0.54273185  0.88515335  0.90589257  1
  O  O100  1  0.90473378  0.68999214  0.73071013  1
  O  O101  1  0.40473378  0.81000786  0.26928987  1
  O  O102  1  0.19301681  0.05268452  0.95469409  1
  O  O103  1  0.99345285  0.15592056  0.10881446  1
  O  O104  1  0.00806566  0.84474126  0.39211970  1
  O  O105  1  0.40293198  0.80661379  0.77052760  1
  O  O106  1  0.07444978  0.52060178  0.31678305  1
  O  O107  1  0.30698319  0.55268452  0.95469409  1
  O  O108  1  0.09526622  0.31000786  0.26928987  1
  O  O109  1  0.51535233  0.23219489  0.99529573  1
  O  O110  1  0.59706802  0.19338621  0.22947240  1
  O  O111  1  0.45726815  0.11484665  0.09410743  1
