# generated using pymatgen
data_Yb2In13Pd6
_symmetry_space_group_name_H-M   'P 1'
_cell_length_a   4.43951533
_cell_length_b   8.81920491
_cell_length_c   12.35331724
_cell_angle_alpha   78.19165001
_cell_angle_beta   79.64249334
_cell_angle_gamma   75.46505977
_symmetry_Int_Tables_number   1
_chemical_formula_structural   Yb2In13Pd6
_chemical_formula_sum   'Yb2 In13 Pd6'
_cell_volume   454.05193167
_cell_formula_units_Z   1
loop_
 _symmetry_equiv_pos_site_id
 _symmetry_equiv_pos_as_xyz
  1  'x, y, z'
loop_
 _atom_site_type_symbol
 _atom_site_label
 _atom_site_symmetry_multiplicity
 _atom_site_fract_x
 _atom_site_fract_y
 _atom_site_fract_z
 _atom_site_occupancy
  Yb  Yb0  1  0.17836645  0.91687779  0.72644123  1
  Yb  Yb1  1  0.82163355  0.08312221  0.27355877  1
  In  In2  1  0.20264820  0.13554144  0.45990326  1
  In  In3  1  0.99921945  0.33012285  0.67169797  1
  In  In4  1  0.29959199  0.52564169  0.87575384  1
  In  In5  1  0.48883816  0.84996255  0.17243281  1
  In  In6  1  0.65311814  0.77077197  0.92369298  1
  In  In7  1  0.79735180  0.86445856  0.54009674  1
  In  In8  1  0.59345085  0.41260734  0.40119224  1
  In  In9  1  0.00078055  0.66987715  0.32830203  1
  In  In10  1  0.00000000  0.00000000  0.00000000  1
  In  In11  1  0.34688186  0.22922803  0.07630702  1
  In  In12  1  0.70040801  0.47435831  0.12424616  1
  In  In13  1  0.40654915  0.58739266  0.59880776  1
  In  In14  1  0.51116184  0.15003745  0.82756719  1
  Pd  Pd15  1  0.18181325  0.37214652  0.26422052  1
  Pd  Pd16  1  0.81818675  0.62785348  0.73577948  1
  Pd  Pd17  1  0.88392275  0.31470055  0.91763412  1
  Pd  Pd18  1  0.61282575  0.17827576  0.59591685  1
  Pd  Pd19  1  0.38717425  0.82172424  0.40408315  1
  Pd  Pd20  1  0.11607725  0.68529945  0.08236588  1
