# generated using pymatgen
data_Ti5(TeO6)3
_symmetry_space_group_name_H-M   'P 1'
_cell_length_a   8.63296380
_cell_length_b   8.63296429
_cell_length_c   10.52060138
_cell_angle_alpha   85.19293287
_cell_angle_beta   85.19293215
_cell_angle_gamma   62.24000527
_symmetry_Int_Tables_number   1
_chemical_formula_structural   Ti5(TeO6)3
_chemical_formula_sum   'Ti10 Te6 O36'
_cell_volume   690.50528745
_cell_formula_units_Z   2
loop_
 _symmetry_equiv_pos_site_id
 _symmetry_equiv_pos_as_xyz
  1  'x, y, z'
loop_
 _atom_site_type_symbol
 _atom_site_label
 _atom_site_symmetry_multiplicity
 _atom_site_fract_x
 _atom_site_fract_y
 _atom_site_fract_z
 _atom_site_occupancy
  Ti  Ti0  1  0.80936831  0.50487569  0.00131850  1
  Ti  Ti1  1  0.11402006  0.19230281  0.49193388  1
  Ti  Ti2  1  0.34468771  0.35369142  0.28828798  1
  Ti  Ti3  1  0.97135893  0.71522893  0.79243431  1
  Ti  Ti4  1  0.64630858  0.65531229  0.71171202  1
  Ti  Ti5  1  0.98038184  0.01961816  1.00000000  1
  Ti  Ti6  1  0.61379381  0.38620619  0.50000000  1
  Ti  Ti7  1  0.28477107  0.02864007  0.20756569  1
  Ti  Ti8  1  0.80769719  0.88597994  0.50806612  1
  Ti  Ti9  1  0.49512431  0.19063169  0.99868150  1
  Te  Te10  1  0.45448925  0.86592273  0.93620257  1
  Te  Te11  1  0.80907862  0.19190531  0.25279857  1
  Te  Te12  1  0.80809469  0.19092138  0.74720143  1
  Te  Te13  1  0.47921737  0.86425159  0.45417854  1
  Te  Te14  1  0.13574841  0.52078263  0.54582146  1
  Te  Te15  1  0.13407727  0.54551075  0.06379743  1
  O  O16  1  0.44032814  0.10958657  0.86993784  1
  O  O17  1  0.75062078  0.42782432  0.79623506  1
  O  O18  1  0.56690199  0.61950485  0.53804260  1
  O  O19  1  0.74362440  0.11552478  0.42648599  1
  O  O20  1  0.57217568  0.24937922  0.20376494  1
  O  O21  1  0.88447522  0.25637560  0.57351401  1
  O  O22  1  0.39209519  0.81611406  0.30897557  1
  O  O23  1  0.02069989  0.11283816  0.83305811  1
  O  O24  1  0.59020881  0.29117953  0.66454554  1
  O  O25  1  0.10002496  0.41739311  0.39882987  1
  O  O26  1  0.57433149  0.63530757  0.03280921  1
  O  O27  1  0.49077395  0.98220967  0.10095104  1
  O  O28  1  0.86149625  0.95626197  0.68797571  1
  O  O29  1  0.71324694  0.75213469  0.84774887  1
  O  O30  1  0.36469243  0.42566851  0.96719079  1
  O  O31  1  0.25428168  0.56833264  0.22142817  1
  O  O32  1  0.04047978  0.75010004  0.45516597  1
  O  O33  1  0.24786531  0.28675306  0.15225113  1
  O  O34  1  0.38049515  0.43309801  0.46195740  1
  O  O35  1  0.24989996  0.95952022  0.54483403  1
  O  O36  1  0.70764457  0.81817023  0.38169285  1
  O  O37  1  0.89093708  0.64124657  0.62629978  1
  O  O38  1  0.88716184  0.97930011  0.16694189  1
  O  O39  1  0.43166736  0.74571832  0.77857183  1
  O  O40  1  0.02580720  0.81115941  0.92392693  1
  O  O41  1  0.72725030  0.13861766  0.91964552  1
  O  O42  1  0.01779033  0.50922605  0.89904896  1
  O  O43  1  0.18388594  0.60790481  0.69102443  1
  O  O44  1  0.04373803  0.13850375  0.31202429  1
  O  O45  1  0.35875343  0.10906292  0.37370022  1
  O  O46  1  0.18182977  0.29235543  0.61830715  1
  O  O47  1  0.86138234  0.27274970  0.08035448  1
  O  O48  1  0.70882047  0.40979119  0.33545446  1
  O  O49  1  0.58260689  0.89997504  0.60117013  1
  O  O50  1  0.18884059  0.97419280  0.07607307  1
  O  O51  1  0.89041343  0.55967186  0.13006216  1
