# generated using pymatgen
data_LiWCl6
_symmetry_space_group_name_H-M   'P 1'
_cell_length_a   9.58889555
_cell_length_b   9.58889507
_cell_length_c   9.58889454
_cell_angle_alpha   83.21429233
_cell_angle_beta   83.21429254
_cell_angle_gamma   83.21429392
_symmetry_Int_Tables_number   1
_chemical_formula_structural   LiWCl6
_chemical_formula_sum   'Li4 W4 Cl24'
_cell_volume   864.49297013
_cell_formula_units_Z   4
loop_
 _symmetry_equiv_pos_site_id
 _symmetry_equiv_pos_as_xyz
  1  'x, y, z'
loop_
 _atom_site_type_symbol
 _atom_site_label
 _atom_site_symmetry_multiplicity
 _atom_site_fract_x
 _atom_site_fract_y
 _atom_site_fract_z
 _atom_site_occupancy
  Li  Li0  1  0.34002904  0.34002904  0.34002904  1
  Li  Li1  1  0.66910324  0.16814120  0.16846485  1
  Li  Li2  1  0.16814120  0.16846485  0.66910324  1
  Li  Li3  1  0.16846485  0.66910324  0.16814120  1
  W  W4  1  0.99018970  0.50395040  0.50348133  1
  W  W5  1  0.99901601  0.99901601  0.99901601  1
  W  W6  1  0.50395040  0.50348133  0.99018970  1
  W  W7  1  0.50348133  0.99018970  0.50395040  1
  Cl  Cl8  1  0.27227337  0.93365925  0.57204627  1
  Cl  Cl9  1  0.77563477  0.42408214  0.56708580  1
  Cl  Cl10  1  0.22092036  0.07760182  0.91982312  1
  Cl  Cl11  1  0.42408214  0.56708580  0.77563477  1
  Cl  Cl12  1  0.07760182  0.91982312  0.22092036  1
  Cl  Cl13  1  0.07265281  0.42171973  0.72260781  1
  Cl  Cl14  1  0.93365925  0.57204627  0.27227337  1
  Cl  Cl15  1  0.43000692  0.08599894  0.27422032  1
  Cl  Cl16  1  0.41965532  0.22571423  0.57458031  1
  Cl  Cl17  1  0.91982312  0.22092036  0.07760182  1
  Cl  Cl18  1  0.22571423  0.57458031  0.41965532  1
  Cl  Cl19  1  0.77036296  0.93489463  0.07131989  1
  Cl  Cl20  1  0.56708580  0.77563477  0.42408214  1
  Cl  Cl21  1  0.92479150  0.72192340  0.57401156  1
  Cl  Cl22  1  0.27422032  0.43000692  0.08599894  1
  Cl  Cl23  1  0.08599894  0.27422032  0.43000692  1
  Cl  Cl24  1  0.57458031  0.41965532  0.22571423  1
  Cl  Cl25  1  0.07131989  0.77036296  0.93489463  1
  Cl  Cl26  1  0.72260781  0.07265281  0.42171973  1
  Cl  Cl27  1  0.72192340  0.57401156  0.92479150  1
  Cl  Cl28  1  0.57401156  0.92479150  0.72192340  1
  Cl  Cl29  1  0.42171973  0.72260781  0.07265281  1
  Cl  Cl30  1  0.57204627  0.27227337  0.93365925  1
  Cl  Cl31  1  0.93489463  0.07131989  0.77036296  1
