# generated using pymatgen
data_CsMo6Se7
_symmetry_space_group_name_H-M   'P 1'
_cell_length_a   10.03476808
_cell_length_b   10.03476808
_cell_length_c   10.03476808
_cell_angle_alpha   59.01620510
_cell_angle_beta   59.01620512
_cell_angle_gamma   59.01620515
_symmetry_Int_Tables_number   1
_chemical_formula_structural   CsMo6Se7
_chemical_formula_sum   'Cs2 Mo12 Se14'
_cell_volume   698.47525042
_cell_formula_units_Z   2
loop_
 _symmetry_equiv_pos_site_id
 _symmetry_equiv_pos_as_xyz
  1  'x, y, z'
loop_
 _atom_site_type_symbol
 _atom_site_label
 _atom_site_symmetry_multiplicity
 _atom_site_fract_x
 _atom_site_fract_y
 _atom_site_fract_z
 _atom_site_occupancy
  Se  Se0  1  0.01505994  0.76057669  0.36719522  1
  Se  Se1  1  0.76057669  0.36719522  0.01505994  1
  Se  Se2  1  0.36719522  0.01505994  0.76057669  1
  Se  Se3  1  0.98494006  0.23942331  0.63280478  1
  Se  Se4  1  0.23942331  0.63280478  0.98494006  1
  Se  Se5  1  0.63280478  0.98494006  0.23942331  1
  Se  Se6  1  0.83226879  0.58176959  0.19239680  1
  Se  Se7  1  0.58176959  0.19239680  0.83226879  1
  Se  Se8  1  0.19239680  0.83226879  0.58176959  1
  Se  Se9  1  0.16773121  0.41823041  0.80760320  1
  Se  Se10  1  0.41823041  0.80760320  0.16773121  1
  Se  Se11  1  0.80760320  0.16773121  0.41823041  1
  Se  Se12  1  0.22062775  0.22062775  0.22062775  1
  Se  Se13  1  0.77937225  0.77937225  0.77937225  1
  Mo  Mo14  1  0.69602421  0.88247619  0.00523469  1
  Mo  Mo15  1  0.80656508  0.11975806  0.93911228  1
  Mo  Mo16  1  0.11975806  0.93911228  0.80656508  1
  Mo  Mo17  1  0.06088772  0.19343492  0.88024194  1
  Mo  Mo18  1  0.19343492  0.88024194  0.06088772  1
  Mo  Mo19  1  0.88024194  0.06088772  0.19343492  1
  Mo  Mo20  1  0.00523469  0.69602421  0.88247619  1
  Mo  Mo21  1  0.11752381  0.99476531  0.30397579  1
  Mo  Mo22  1  0.88247619  0.00523469  0.69602421  1
  Mo  Mo23  1  0.99476531  0.30397579  0.11752381  1
  Mo  Mo24  1  0.30397579  0.11752381  0.99476531  1
  Mo  Mo25  1  0.93911228  0.80656508  0.11975806  1
  Cs  Cs26  1  0.62587447  0.62587447  0.62587447  1
  Cs  Cs27  1  0.37412553  0.37412553  0.37412553  1
