# generated using pymatgen
data_SiO2
_symmetry_space_group_name_H-M   'P 1'
_cell_length_a   13.17607462
_cell_length_b   13.17607462
_cell_length_c   4.99911480
_cell_angle_alpha   90.00000000
_cell_angle_beta   90.00000000
_cell_angle_gamma   90.00000000
_symmetry_Int_Tables_number   1
_chemical_formula_structural   SiO2
_chemical_formula_sum   'Si17 O34'
_cell_volume   867.89103332
_cell_formula_units_Z   17
loop_
 _symmetry_equiv_pos_site_id
 _symmetry_equiv_pos_as_xyz
  1  'x, y, z'
loop_
 _atom_site_type_symbol
 _atom_site_label
 _atom_site_symmetry_multiplicity
 _atom_site_fract_x
 _atom_site_fract_y
 _atom_site_fract_z
 _atom_site_occupancy
  Si  Si0  1  0.21505120  0.05020141  0.73623864  1
  Si  Si1  1  0.05020141  0.78494880  0.26376136  1
  Si  Si2  1  0.94979859  0.21505120  0.26376136  1
  Si  Si3  1  0.78494880  0.94979859  0.73623864  1
  Si  Si4  1  0.83363443  0.28760146  0.76022461  1
  Si  Si5  1  0.28760146  0.16636557  0.23977539  1
  Si  Si6  1  0.71239854  0.83363443  0.23977539  1
  Si  Si7  1  0.16636557  0.71239854  0.76022461  1
  Si  Si8  1  0.65282921  0.14690413  0.75728315  1
  Si  Si9  1  0.14690413  0.34717079  0.24271685  1
  Si  Si10  1  0.85309587  0.65282921  0.24271685  1
  Si  Si11  1  0.34717079  0.85309587  0.75728315  1
  Si  Si12  1  0.51848084  0.11517543  0.28115008  1
  Si  Si13  1  0.11517543  0.48151916  0.71884992  1
  Si  Si14  1  0.88482457  0.51848084  0.71884992  1
  Si  Si15  1  0.48151916  0.88482457  0.28115008  1
  Si  Si16  1  0.00000000  0.00000000  0.50000000  1
  O  O17  1  0.09366027  0.03530866  0.69110212  1
  O  O18  1  0.03530866  0.90633973  0.30889788  1
  O  O19  1  0.96469134  0.09366027  0.30889788  1
  O  O20  1  0.90633973  0.96469134  0.69110212  1
  O  O21  1  0.25613713  0.14259622  0.54927092  1
  O  O22  1  0.14259622  0.74386287  0.45072908  1
  O  O23  1  0.85740378  0.25613713  0.45072908  1
  O  O24  1  0.74386287  0.85740378  0.54927092  1
  O  O25  1  0.23769999  0.07874099  0.04768192  1
  O  O26  1  0.07874099  0.76230001  0.95231808  1
  O  O27  1  0.92125901  0.23769999  0.95231808  1
  O  O28  1  0.76230001  0.92125901  0.04768192  1
  O  O29  1  0.27407984  0.94602740  0.65751623  1
  O  O30  1  0.94602740  0.72592016  0.34248377  1
  O  O31  1  0.05397260  0.27407984  0.34248377  1
  O  O32  1  0.72592016  0.05397260  0.65751623  1
  O  O33  1  0.72273302  0.24346935  0.84365886  1
  O  O34  1  0.24346935  0.27726698  0.15634114  1
  O  O35  1  0.75653065  0.72273302  0.15634114  1
  O  O36  1  0.27726698  0.75653065  0.84365886  1
  O  O37  1  0.83194581  0.41015312  0.78765770  1
  O  O38  1  0.41015312  0.16805419  0.21234230  1
  O  O39  1  0.58984688  0.83194581  0.21234230  1
  O  O40  1  0.16805419  0.58984688  0.78765770  1
  O  O41  1  0.57786684  0.17951676  0.51193919  1
  O  O42  1  0.17951676  0.42213316  0.48806081  1
  O  O43  1  0.82048324  0.57786684  0.48806081  1
  O  O44  1  0.42213316  0.82048324  0.51193919  1
  O  O45  1  0.58657139  0.10967974  0.01155621  1
  O  O46  1  0.10967974  0.41342861  0.98844379  1
  O  O47  1  0.89032026  0.58657139  0.98844379  1
  O  O48  1  0.41342861  0.89032026  0.01155621  1
  O  O49  1  0.50000000  0.00000000  0.39353692  1
  O  O50  1  0.00000000  0.50000000  0.60646308  1
