# generated using pymatgen
data_SiO2
_symmetry_space_group_name_H-M   'P 1'
_cell_length_a   12.66724352
_cell_length_b   11.74067366
_cell_length_c   22.11924042
_cell_angle_alpha   90.00000000
_cell_angle_beta   90.00000000
_cell_angle_gamma   90.00000000
_symmetry_Int_Tables_number   1
_chemical_formula_structural   SiO2
_chemical_formula_sum   'Si56 O112'
_cell_volume   3289.61706193
_cell_formula_units_Z   56
loop_
 _symmetry_equiv_pos_site_id
 _symmetry_equiv_pos_as_xyz
  1  'x, y, z'
loop_
 _atom_site_type_symbol
 _atom_site_label
 _atom_site_symmetry_multiplicity
 _atom_site_fract_x
 _atom_site_fract_y
 _atom_site_fract_z
 _atom_site_occupancy
  Si  Si0  1  0.50000000  0.36832912  0.85976937  1
  Si  Si1  1  0.50000000  0.63167088  0.85976937  1
  Si  Si2  1  0.50000000  0.86832912  0.35976937  1
  Si  Si3  1  0.50000000  0.13167088  0.35976937  1
  Si  Si4  1  0.87858428  0.36677071  0.69558193  1
  Si  Si5  1  0.12141572  0.63322929  0.69558193  1
  Si  Si6  1  0.12141572  0.36677071  0.69558193  1
  Si  Si7  1  0.87858428  0.63322929  0.69558193  1
  Si  Si8  1  0.87858428  0.86677071  0.19558193  1
  Si  Si9  1  0.12141572  0.13322929  0.19558193  1
  Si  Si10  1  0.12141572  0.86677071  0.19558193  1
  Si  Si11  1  0.87858428  0.13322929  0.19558193  1
  Si  Si12  1  0.68427132  0.24930259  0.63855091  1
  Si  Si13  1  0.31572868  0.75069741  0.63855091  1
  Si  Si14  1  0.31572868  0.24930259  0.63855091  1
  Si  Si15  1  0.68427132  0.75069741  0.63855091  1
  Si  Si16  1  0.68427132  0.74930259  0.13855091  1
  Si  Si17  1  0.31572868  0.25069741  0.13855091  1
  Si  Si18  1  0.31572868  0.74930259  0.13855091  1
  Si  Si19  1  0.68427132  0.25069741  0.13855091  1
  Si  Si20  1  0.50000000  0.36800127  0.71344772  1
  Si  Si21  1  0.50000000  0.63199873  0.71344772  1
  Si  Si22  1  0.50000000  0.86800127  0.21344772  1
  Si  Si23  1  0.50000000  0.13199873  0.21344772  1
  Si  Si24  1  0.87499871  0.36868849  0.83566659  1
  Si  Si25  1  0.12500129  0.63131151  0.83566659  1
  Si  Si26  1  0.12500129  0.36868849  0.83566659  1
  Si  Si27  1  0.87499871  0.63131151  0.83566659  1
  Si  Si28  1  0.87499871  0.86868849  0.33566659  1
  Si  Si29  1  0.12500129  0.13131151  0.33566659  1
  Si  Si30  1  0.12500129  0.86868849  0.33566659  1
  Si  Si31  1  0.87499871  0.13131151  0.33566659  1
  Si  Si32  1  0.69933849  0.28501644  0.39079800  1
  Si  Si33  1  0.30066151  0.71498356  0.39079800  1
  Si  Si34  1  0.30066151  0.28501644  0.39079800  1
  Si  Si35  1  0.69933849  0.71498356  0.39079800  1
  Si  Si36  1  0.69933849  0.78501644  0.89079800  1
  Si  Si37  1  0.30066151  0.21498356  0.89079800  1
  Si  Si38  1  0.30066151  0.78501644  0.89079800  1
  Si  Si39  1  0.69933849  0.21498356  0.89079800  1
  Si  Si40  1  0.62255106  0.36833940  0.51459360  1
  Si  Si41  1  0.37744894  0.63166060  0.51459360  1
  Si  Si42  1  0.37744894  0.36833940  0.51459360  1
  Si  Si43  1  0.62255106  0.63166060  0.51459360  1
  Si  Si44  1  0.62255106  0.86833940  0.01459360  1
  Si  Si45  1  0.37744894  0.13166060  0.01459360  1
  Si  Si46  1  0.37744894  0.86833940  0.01459360  1
  Si  Si47  1  0.62255106  0.13166060  0.01459360  1
  Si  Si48  1  0.62260713  0.50000000  0.17079266  1
  Si  Si49  1  0.37739287  0.50000000  0.17079266  1
  Si  Si50  1  0.62260713  0.00000000  0.67079266  1
  Si  Si51  1  0.37739287  0.00000000  0.67079266  1
  Si  Si52  1  0.62302798  0.50000000  0.31708370  1
  Si  Si53  1  0.37697202  0.50000000  0.31708370  1
  Si  Si54  1  0.62302798  0.00000000  0.81708370  1
  Si  Si55  1  0.37697202  0.00000000  0.81708370  1
  O  O56  1  0.68276302  0.38704169  0.34196175  1
  O  O57  1  0.31723698  0.61295831  0.34196175  1
  O  O58  1  0.31723698  0.38704169  0.34196175  1
  O  O59  1  0.68276302  0.61295831  0.34196175  1
  O  O60  1  0.68276302  0.88704169  0.84196175  1
  O  O61  1  0.31723698  0.11295831  0.84196175  1
  O  O62  1  0.31723698  0.88704169  0.84196175  1
  O  O63  1  0.68276302  0.11295831  0.84196175  1
  O  O64  1  0.64099726  0.50000000  0.53548323  1
  O  O65  1  0.35900274  0.50000000  0.53548323  1
  O  O66  1  0.64099726  0.00000000  0.03548323  1
  O  O67  1  0.35900274  0.00000000  0.03548323  1
  O  O68  1  0.70117295  0.33850738  0.45865749  1
  O  O69  1  0.29882705  0.66149262  0.45865749  1
  O  O70  1  0.29882705  0.33850738  0.45865749  1
  O  O71  1  0.70117295  0.66149262  0.45865749  1
  O  O72  1  0.70117295  0.83850738  0.95865749  1
  O  O73  1  0.29882705  0.16149262  0.95865749  1
  O  O74  1  0.29882705  0.83850738  0.95865749  1
  O  O75  1  0.70117295  0.16149262  0.95865749  1
  O  O76  1  0.60493768  0.30525567  0.68833024  1
  O  O77  1  0.39506232  0.69474433  0.68833024  1
  O  O78  1  0.39506232  0.30525567  0.68833024  1
  O  O79  1  0.60493768  0.69474433  0.68833024  1
  O  O80  1  0.60493768  0.80525567  0.18833024  1
  O  O81  1  0.39506232  0.19474433  0.18833024  1
  O  O82  1  0.39506232  0.80525567  0.18833024  1
  O  O83  1  0.60493768  0.19474433  0.18833024  1
  O  O84  1  0.85221083  0.50000000  0.85648539  1
  O  O85  1  0.14778917  0.50000000  0.85648539  1
  O  O86  1  0.85221083  0.00000000  0.35648539  1
  O  O87  1  0.14778917  0.00000000  0.35648539  1
  O  O88  1  0.00000000  0.34074763  0.84213404  1
  O  O89  1  0.00000000  0.65925237  0.84213404  1
  O  O90  1  0.00000000  0.84074763  0.34213404  1
  O  O91  1  0.00000000  0.15925237  0.34213404  1
  O  O92  1  0.64774927  0.28460408  0.57083699  1
  O  O93  1  0.35225073  0.71539592  0.57083699  1
  O  O94  1  0.35225073  0.28460408  0.57083699  1
  O  O95  1  0.64774927  0.71539592  0.57083699  1
  O  O96  1  0.64774927  0.78460408  0.07083699  1
  O  O97  1  0.35225073  0.21539592  0.07083699  1
  O  O98  1  0.35225073  0.78460408  0.07083699  1
  O  O99  1  0.64774927  0.21539592  0.07083699  1
  O  O100  1  0.80417441  0.29312174  0.65098724  1
  O  O101  1  0.19582559  0.70687826  0.65098724  1
  O  O102  1  0.19582559  0.29312174  0.65098724  1
  O  O103  1  0.80417441  0.70687826  0.65098724  1
  O  O104  1  0.80417441  0.79312174  0.15098724  1
  O  O105  1  0.19582559  0.20687826  0.15098724  1
  O  O106  1  0.19582559  0.79312174  0.15098724  1
  O  O107  1  0.80417441  0.20687826  0.15098724  1
  O  O108  1  0.68202015  0.11187103  0.64455056  1
  O  O109  1  0.31797985  0.88812897  0.64455056  1
  O  O110  1  0.31797985  0.11187103  0.64455056  1
  O  O111  1  0.68202015  0.88812897  0.64455056  1
  O  O112  1  0.68202015  0.61187103  0.14455056  1
  O  O113  1  0.31797985  0.38812897  0.14455056  1
  O  O114  1  0.31797985  0.61187103  0.14455056  1
  O  O115  1  0.68202015  0.38812897  0.14455056  1
  O  O116  1  0.83849391  0.35261121  0.76534306  1
  O  O117  1  0.16150609  0.64738879  0.76534306  1
  O  O118  1  0.16150609  0.35261121  0.76534306  1
  O  O119  1  0.83849391  0.64738879  0.76534306  1
  O  O120  1  0.83849391  0.85261121  0.26534306  1
  O  O121  1  0.16150609  0.14738879  0.26534306  1
  O  O122  1  0.16150609  0.85261121  0.26534306  1
  O  O123  1  0.83849391  0.14738879  0.26534306  1
  O  O124  1  0.50000000  0.35130531  0.49324877  1
  O  O125  1  0.50000000  0.64869469  0.49324877  1
  O  O126  1  0.50000000  0.85130531  0.99324877  1
  O  O127  1  0.50000000  0.14869469  0.99324877  1
  O  O128  1  0.81022774  0.21961778  0.37788079  1
  O  O129  1  0.18977226  0.78038222  0.37788079  1
  O  O130  1  0.18977226  0.21961778  0.37788079  1
  O  O131  1  0.81022774  0.78038222  0.37788079  1
  O  O132  1  0.81022774  0.71961778  0.87788079  1
  O  O133  1  0.18977226  0.28038222  0.87788079  1
  O  O134  1  0.18977226  0.71961778  0.87788079  1
  O  O135  1  0.81022774  0.28038222  0.87788079  1
  O  O136  1  0.50000000  0.50000000  0.88188979  1
  O  O137  1  0.50000000  0.00000000  0.38188979  1
  O  O138  1  0.00000000  0.32241484  0.68972093  1
  O  O139  1  0.00000000  0.67758516  0.68972093  1
  O  O140  1  0.00000000  0.82241484  0.18972093  1
  O  O141  1  0.00000000  0.17758516  0.18972093  1
  O  O142  1  0.39591971  0.30659115  0.88615216  1
  O  O143  1  0.60408029  0.69340885  0.88615216  1
  O  O144  1  0.60408029  0.30659115  0.88615216  1
  O  O145  1  0.39591971  0.69340885  0.88615216  1
  O  O146  1  0.39591971  0.80659115  0.38615216  1
  O  O147  1  0.60408029  0.19340885  0.38615216  1
  O  O148  1  0.60408029  0.80659115  0.38615216  1
  O  O149  1  0.39591971  0.19340885  0.38615216  1
  O  O150  1  0.62724746  0.50000000  0.24421489  1
  O  O151  1  0.37275254  0.50000000  0.24421489  1
  O  O152  1  0.62724746  0.00000000  0.74421489  1
  O  O153  1  0.37275254  0.00000000  0.74421489  1
  O  O154  1  0.50000000  0.50000000  0.69091069  1
  O  O155  1  0.50000000  0.00000000  0.19091069  1
  O  O156  1  0.50000000  0.36210988  0.78639914  1
  O  O157  1  0.50000000  0.63789012  0.78639914  1
  O  O158  1  0.50000000  0.86210988  0.28639914  1
  O  O159  1  0.50000000  0.13789012  0.28639914  1
  O  O160  1  0.87215559  0.50000000  0.67576754  1
  O  O161  1  0.12784441  0.50000000  0.67576754  1
  O  O162  1  0.87215559  0.00000000  0.17576754  1
  O  O163  1  0.12784441  0.00000000  0.17576754  1
  O  O164  1  0.50000000  0.50000000  0.14855985  1
  O  O165  1  0.50000000  0.00000000  0.64855985  1
  O  O166  1  0.50000000  0.50000000  0.33987971  1
  O  O167  1  0.50000000  0.00000000  0.83987971  1
