# generated using pymatgen
data_SiO2
_symmetry_space_group_name_H-M   'P 1'
_cell_length_a   7.57120189
_cell_length_b   12.89581364
_cell_length_c   13.83241477
_cell_angle_alpha   90.00000000
_cell_angle_beta   90.00000000
_cell_angle_gamma   90.00000000
_symmetry_Int_Tables_number   1
_chemical_formula_structural   SiO2
_chemical_formula_sum   'Si24 O48'
_cell_volume   1350.55283343
_cell_formula_units_Z   24
loop_
 _symmetry_equiv_pos_site_id
 _symmetry_equiv_pos_as_xyz
  1  'x, y, z'
loop_
 _atom_site_type_symbol
 _atom_site_label
 _atom_site_symmetry_multiplicity
 _atom_site_fract_x
 _atom_site_fract_y
 _atom_site_fract_z
 _atom_site_occupancy
  Si  Si0  1  0.04627472  0.62934397  0.66925737  1
  Si  Si1  1  0.54627472  0.87065603  0.83074263  1
  Si  Si2  1  0.95372528  0.12934397  0.33074263  1
  Si  Si3  1  0.45372528  0.37065603  0.16925737  1
  Si  Si4  1  0.95372528  0.37065603  0.33074263  1
  Si  Si5  1  0.45372528  0.12934397  0.16925737  1
  Si  Si6  1  0.04627472  0.87065603  0.66925737  1
  Si  Si7  1  0.54627472  0.62934397  0.83074263  1
  Si  Si8  1  0.65678630  0.56038158  0.62662093  1
  Si  Si9  1  0.15678630  0.93961842  0.87337907  1
  Si  Si10  1  0.34321370  0.06038158  0.37337907  1
  Si  Si11  1  0.84321370  0.43961842  0.12662093  1
  Si  Si12  1  0.34321370  0.43961842  0.37337907  1
  Si  Si13  1  0.84321370  0.06038158  0.12662093  1
  Si  Si14  1  0.65678630  0.93961842  0.62662093  1
  Si  Si15  1  0.15678630  0.56038158  0.87337907  1
  Si  Si16  1  0.32805525  0.63017762  0.50734848  1
  Si  Si17  1  0.82805525  0.86982238  0.99265152  1
  Si  Si18  1  0.67194475  0.13017762  0.49265152  1
  Si  Si19  1  0.17194475  0.36982238  0.00734848  1
  Si  Si20  1  0.67194475  0.36982238  0.49265152  1
  Si  Si21  1  0.17194475  0.13017762  0.00734848  1
  Si  Si22  1  0.32805525  0.86982238  0.50734848  1
  Si  Si23  1  0.82805525  0.63017762  0.99265152  1
  O  O24  1  0.52573211  0.62229045  0.55338791  1
  O  O25  1  0.02573211  0.87770955  0.94661209  1
  O  O26  1  0.47426789  0.12229045  0.44661209  1
  O  O27  1  0.97426789  0.37770955  0.05338791  1
  O  O28  1  0.47426789  0.37770955  0.44661209  1
  O  O29  1  0.97426789  0.12229045  0.05338791  1
  O  O30  1  0.52573211  0.87770955  0.55338791  1
  O  O31  1  0.02573211  0.62229045  0.94661209  1
  O  O32  1  0.07066023  0.55799822  0.76542785  1
  O  O33  1  0.57066023  0.94200178  0.73457215  1
  O  O34  1  0.92933977  0.05799822  0.23457215  1
  O  O35  1  0.42933977  0.44200178  0.26542785  1
  O  O36  1  0.92933977  0.44200178  0.23457215  1
  O  O37  1  0.42933977  0.05799822  0.26542785  1
  O  O38  1  0.07066023  0.94200178  0.76542785  1
  O  O39  1  0.57066023  0.55799822  0.73457215  1
  O  O40  1  0.84547004  0.61994016  0.62921516  1
  O  O41  1  0.34547004  0.88005984  0.87078484  1
  O  O42  1  0.15452996  0.11994016  0.37078484  1
  O  O43  1  0.65452996  0.38005984  0.12921516  1
  O  O44  1  0.15452996  0.38005984  0.37078484  1
  O  O45  1  0.65452996  0.11994016  0.12921516  1
  O  O46  1  0.84547004  0.88005984  0.62921516  1
  O  O47  1  0.34547004  0.61994016  0.87078484  1
  O  O48  1  0.18340715  0.59025794  0.58628045  1
  O  O49  1  0.68340715  0.90974206  0.91371955  1
  O  O50  1  0.81659285  0.09025794  0.41371955  1
  O  O51  1  0.31659285  0.40974206  0.08628045  1
  O  O52  1  0.81659285  0.40974206  0.41371955  1
  O  O53  1  0.31659285  0.09025794  0.08628045  1
  O  O54  1  0.18340715  0.90974206  0.58628045  1
  O  O55  1  0.68340715  0.59025794  0.91371955  1
  O  O56  1  0.31565478  0.55820628  0.41102265  1
  O  O57  1  0.81565478  0.94179372  0.08897735  1
  O  O58  1  0.68434522  0.05820628  0.58897735  1
  O  O59  1  0.18434522  0.44179372  0.91102265  1
  O  O60  1  0.68434522  0.44179372  0.58897735  1
  O  O61  1  0.18434522  0.05820628  0.91102265  1
  O  O62  1  0.31565478  0.94179372  0.41102265  1
  O  O63  1  0.81565478  0.55820628  0.08897735  1
  O  O64  1  0.08835620  0.75000000  0.69666035  1
  O  O65  1  0.58835620  0.75000000  0.80333965  1
  O  O66  1  0.91164380  0.25000000  0.30333965  1
  O  O67  1  0.41164380  0.25000000  0.19666035  1
  O  O68  1  0.28746406  0.75000000  0.47783911  1
  O  O69  1  0.78746406  0.75000000  0.02216089  1
  O  O70  1  0.71253594  0.25000000  0.52216089  1
  O  O71  1  0.21253594  0.25000000  0.97783911  1
