# generated using pymatgen
data_Sr2YCu2SnO7
_symmetry_space_group_name_H-M   'P 1'
_cell_length_a   5.48040158
_cell_length_b   5.53149586
_cell_length_c   12.66803626
_cell_angle_alpha   102.56040051
_cell_angle_beta   102.42124603
_cell_angle_gamma   90.06809287
_symmetry_Int_Tables_number   1
_chemical_formula_structural   Sr2YCu2SnO7
_chemical_formula_sum   'Sr4 Y2 Cu4 Sn2 O14'
_cell_volume   365.60062880
_cell_formula_units_Z   2
loop_
 _symmetry_equiv_pos_site_id
 _symmetry_equiv_pos_as_xyz
  1  'x, y, z'
loop_
 _atom_site_type_symbol
 _atom_site_label
 _atom_site_symmetry_multiplicity
 _atom_site_fract_x
 _atom_site_fract_y
 _atom_site_fract_z
 _atom_site_occupancy
  Sr  Sr0  1  0.34461566  0.35099246  0.71930693  1
  Sr  Sr1  1  0.62584407  0.65160971  0.28140941  1
  Sr  Sr2  1  0.84494249  0.87130435  0.71937781  1
  Sr  Sr3  1  0.12525399  0.13116373  0.28167817  1
  Y  Y4  1  0.98732453  0.00016374  0.00056629  1
  Y  Y5  1  0.48776756  0.50053022  0.00056217  1
  Cu  Cu6  1  0.92122721  0.43768377  0.87146813  1
  Cu  Cu7  1  0.05012561  0.56380981  0.12962255  1
  Cu  Cu8  1  0.42093700  0.93586912  0.87122174  1
  Cu  Cu9  1  0.55007097  0.06600412  0.12962946  1
  Sn  Sn10  1  0.26691482  0.71167469  0.50068886  1
  Sn  Sn11  1  0.76598087  0.29036131  0.50031239  1
  O  O12  1  0.14373417  0.35394921  0.50076054  1
  O  O13  1  0.64367869  0.64853564  0.50069657  1
  O  O14  1  0.18309847  0.19973615  0.87978008  1
  O  O15  1  0.30384286  0.80202520  0.12020856  1
  O  O16  1  0.68430393  0.18365865  0.88086017  1
  O  O17  1  0.80396120  0.81939096  0.12149446  1
  O  O18  1  0.66582543  0.68117475  0.87592070  1
  O  O19  1  0.78975810  0.32126697  0.12600937  1
  O  O20  1  0.16437046  0.69621930  0.87466485  1
  O  O21  1  0.28987044  0.30432456  0.12533632  1
  O  O22  1  0.29192088  0.86655692  0.66195698  1
  O  O23  1  0.63157385  0.13560408  0.33896720  1
  O  O24  1  0.78992217  0.29509468  0.66123430  1
  O  O25  1  0.13125259  0.70577188  0.33967797  1
