# generated using pymatgen
data_SiO2
_symmetry_space_group_name_H-M   'P 1'
_cell_length_a   8.77429315
_cell_length_b   20.20510305
_cell_length_c   10.23391916
_cell_angle_alpha   90.00000000
_cell_angle_beta   90.00000000
_cell_angle_gamma   90.00000000
_symmetry_Int_Tables_number   1
_chemical_formula_structural   SiO2
_chemical_formula_sum   'Si32 O64'
_cell_volume   1814.32544747
_cell_formula_units_Z   32
loop_
 _symmetry_equiv_pos_site_id
 _symmetry_equiv_pos_as_xyz
  1  'x, y, z'
loop_
 _atom_site_type_symbol
 _atom_site_label
 _atom_site_symmetry_multiplicity
 _atom_site_fract_x
 _atom_site_fract_y
 _atom_site_fract_z
 _atom_site_occupancy
  Si  Si0  1  0.18184089  0.05512924  0.88901715  1
  Si  Si1  1  0.18184089  0.94487076  0.11098285  1
  Si  Si2  1  0.31815911  0.05512924  0.61098285  1
  Si  Si3  1  0.31815911  0.94487076  0.38901715  1
  Si  Si4  1  0.81815911  0.94487076  0.11098285  1
  Si  Si5  1  0.81815911  0.05512924  0.88901715  1
  Si  Si6  1  0.68184089  0.94487076  0.38901715  1
  Si  Si7  1  0.68184089  0.05512924  0.61098285  1
  Si  Si8  1  0.68184089  0.55512924  0.88901715  1
  Si  Si9  1  0.68184089  0.44487076  0.11098285  1
  Si  Si10  1  0.81815911  0.55512924  0.61098285  1
  Si  Si11  1  0.81815911  0.44487076  0.38901715  1
  Si  Si12  1  0.31815911  0.44487076  0.11098285  1
  Si  Si13  1  0.31815911  0.55512924  0.88901715  1
  Si  Si14  1  0.18184089  0.44487076  0.38901715  1
  Si  Si15  1  0.18184089  0.55512924  0.61098285  1
  Si  Si16  1  0.31609667  0.19885234  0.89311809  1
  Si  Si17  1  0.31609667  0.80114766  0.10688191  1
  Si  Si18  1  0.18390333  0.19885234  0.60688191  1
  Si  Si19  1  0.18390333  0.80114766  0.39311809  1
  Si  Si20  1  0.68390333  0.80114766  0.10688191  1
  Si  Si21  1  0.68390333  0.19885234  0.89311809  1
  Si  Si22  1  0.81609667  0.80114766  0.39311809  1
  Si  Si23  1  0.81609667  0.19885234  0.60688191  1
  Si  Si24  1  0.81609667  0.69885234  0.89311809  1
  Si  Si25  1  0.81609667  0.30114766  0.10688191  1
  Si  Si26  1  0.68390333  0.69885234  0.60688191  1
  Si  Si27  1  0.68390333  0.30114766  0.39311809  1
  Si  Si28  1  0.18390333  0.30114766  0.10688191  1
  Si  Si29  1  0.18390333  0.69885234  0.89311809  1
  Si  Si30  1  0.31609667  0.30114766  0.39311809  1
  Si  Si31  1  0.31609667  0.69885234  0.60688191  1
  O  O32  1  0.21487087  0.00000000  0.00000000  1
  O  O33  1  0.28512913  0.00000000  0.50000000  1
  O  O34  1  0.78512913  0.00000000  0.00000000  1
  O  O35  1  0.71487087  0.00000000  0.50000000  1
  O  O36  1  0.71487087  0.50000000  0.00000000  1
  O  O37  1  0.78512913  0.50000000  0.50000000  1
  O  O38  1  0.28512913  0.50000000  0.00000000  1
  O  O39  1  0.21487087  0.50000000  0.50000000  1
  O  O40  1  0.00000000  0.06764045  0.87386390  1
  O  O41  1  0.00000000  0.93235955  0.12613610  1
  O  O42  1  0.50000000  0.06764045  0.62613610  1
  O  O43  1  0.50000000  0.93235955  0.37386390  1
  O  O44  1  0.50000000  0.56764045  0.87386390  1
  O  O45  1  0.50000000  0.43235955  0.12613610  1
  O  O46  1  0.00000000  0.56764045  0.62613610  1
  O  O47  1  0.00000000  0.43235955  0.37386390  1
  O  O48  1  0.25000000  0.02931955  0.75000000  1
  O  O49  1  0.25000000  0.97068045  0.25000000  1
  O  O50  1  0.75000000  0.97068045  0.25000000  1
  O  O51  1  0.75000000  0.02931955  0.75000000  1
  O  O52  1  0.75000000  0.52931955  0.75000000  1
  O  O53  1  0.75000000  0.47068045  0.25000000  1
  O  O54  1  0.25000000  0.47068045  0.25000000  1
  O  O55  1  0.25000000  0.52931955  0.75000000  1
  O  O56  1  0.26373133  0.12390287  0.93130252  1
  O  O57  1  0.26373133  0.87609713  0.06869748  1
  O  O58  1  0.23626867  0.12390287  0.56869748  1
  O  O59  1  0.23626867  0.87609713  0.43130252  1
  O  O60  1  0.73626867  0.87609713  0.06869748  1
  O  O61  1  0.73626867  0.12390287  0.93130252  1
  O  O62  1  0.76373133  0.87609713  0.43130252  1
  O  O63  1  0.76373133  0.12390287  0.56869748  1
  O  O64  1  0.76373133  0.62390287  0.93130252  1
  O  O65  1  0.76373133  0.37609713  0.06869748  1
  O  O66  1  0.73626867  0.62390287  0.56869748  1
  O  O67  1  0.73626867  0.37609713  0.43130252  1
  O  O68  1  0.23626867  0.37609713  0.06869748  1
  O  O69  1  0.23626867  0.62390287  0.93130252  1
  O  O70  1  0.26373133  0.37609713  0.43130252  1
  O  O71  1  0.26373133  0.62390287  0.56869748  1
  O  O72  1  0.50000000  0.20286351  0.89088630  1
  O  O73  1  0.50000000  0.79713649  0.10911370  1
  O  O74  1  0.00000000  0.20286351  0.60911370  1
  O  O75  1  0.00000000  0.79713649  0.39088630  1
  O  O76  1  0.00000000  0.70286351  0.89088630  1
  O  O77  1  0.00000000  0.29713649  0.10911370  1
  O  O78  1  0.50000000  0.70286351  0.60911370  1
  O  O79  1  0.50000000  0.29713649  0.39088630  1
  O  O80  1  0.25000000  0.21867948  0.75000000  1
  O  O81  1  0.25000000  0.78132052  0.25000000  1
  O  O82  1  0.75000000  0.78132052  0.25000000  1
  O  O83  1  0.75000000  0.21867948  0.75000000  1
  O  O84  1  0.75000000  0.71867948  0.75000000  1
  O  O85  1  0.75000000  0.28132052  0.25000000  1
  O  O86  1  0.25000000  0.28132052  0.25000000  1
  O  O87  1  0.25000000  0.71867948  0.75000000  1
  O  O88  1  0.25000000  0.25000000  0.00000000  1
  O  O89  1  0.25000000  0.75000000  0.00000000  1
  O  O90  1  0.25000000  0.25000000  0.50000000  1
  O  O91  1  0.25000000  0.75000000  0.50000000  1
  O  O92  1  0.75000000  0.75000000  0.00000000  1
  O  O93  1  0.75000000  0.25000000  0.00000000  1
  O  O94  1  0.75000000  0.75000000  0.50000000  1
  O  O95  1  0.75000000  0.25000000  0.50000000  1
