# generated using pymatgen
data_SiO2
_symmetry_space_group_name_H-M   'P 1'
_cell_length_a   10.05814818
_cell_length_b   7.58452135
_cell_length_c   9.41876151
_cell_angle_alpha   90.00000000
_cell_angle_beta   90.00000000
_cell_angle_gamma   90.00000000
_symmetry_Int_Tables_number   1
_chemical_formula_structural   SiO2
_chemical_formula_sum   'Si12 O24'
_cell_volume   718.52189741
_cell_formula_units_Z   12
loop_
 _symmetry_equiv_pos_site_id
 _symmetry_equiv_pos_as_xyz
  1  'x, y, z'
loop_
 _atom_site_type_symbol
 _atom_site_label
 _atom_site_symmetry_multiplicity
 _atom_site_fract_x
 _atom_site_fract_y
 _atom_site_fract_z
 _atom_site_occupancy
  Si  Si0  1  0.09539343  0.20585059  0.37106599  1
  Si  Si1  1  0.59539343  0.79414941  0.62893401  1
  Si  Si2  1  0.90460657  0.20585059  0.62893401  1
  Si  Si3  1  0.40460657  0.79414941  0.37106599  1
  Si  Si4  1  0.90460657  0.79414941  0.62893401  1
  Si  Si5  1  0.40460657  0.20585059  0.37106599  1
  Si  Si6  1  0.09539343  0.79414941  0.37106599  1
  Si  Si7  1  0.59539343  0.20585059  0.62893401  1
  Si  Si8  1  0.09535169  0.50000000  0.13748934  1
  Si  Si9  1  0.59535169  0.50000000  0.86251066  1
  Si  Si10  1  0.90464831  0.50000000  0.86251066  1
  Si  Si11  1  0.40464831  0.50000000  0.13748934  1
  O  O12  1  0.06545284  0.32399111  0.23167516  1
  O  O13  1  0.56545284  0.67600889  0.76832484  1
  O  O14  1  0.93454716  0.32399111  0.76832484  1
  O  O15  1  0.43454716  0.67600889  0.23167516  1
  O  O16  1  0.93454716  0.67600889  0.76832484  1
  O  O17  1  0.43454716  0.32399111  0.23167516  1
  O  O18  1  0.06545284  0.67600889  0.23167516  1
  O  O19  1  0.56545284  0.32399111  0.76832484  1
  O  O20  1  0.25000000  0.22918132  0.41958537  1
  O  O21  1  0.75000000  0.77081868  0.58041463  1
  O  O22  1  0.75000000  0.22918132  0.58041463  1
  O  O23  1  0.25000000  0.77081868  0.41958537  1
  O  O24  1  0.06499435  0.00000000  0.33400620  1
  O  O25  1  0.56499435  0.00000000  0.66599380  1
  O  O26  1  0.93500565  0.00000000  0.66599380  1
  O  O27  1  0.43500565  0.00000000  0.33400620  1
  O  O28  1  0.00000000  0.27078614  0.50000000  1
  O  O29  1  0.50000000  0.72921386  0.50000000  1
  O  O30  1  0.00000000  0.72921386  0.50000000  1
  O  O31  1  0.50000000  0.27078614  0.50000000  1
  O  O32  1  0.00000000  0.50000000  0.00000000  1
  O  O33  1  0.50000000  0.50000000  0.00000000  1
  O  O34  1  0.25000000  0.50000000  0.08643594  1
  O  O35  1  0.75000000  0.50000000  0.91356406  1
