# generated using pymatgen
data_CsLi2Br3
_symmetry_space_group_name_H-M   'P 1'
_cell_length_a   4.69173229
_cell_length_b   5.70265202
_cell_length_c   7.72612005
_cell_angle_alpha   111.78007610
_cell_angle_beta   107.70380665
_cell_angle_gamma   89.99052552
_symmetry_Int_Tables_number   1
_chemical_formula_structural   CsLi2Br3
_chemical_formula_sum   'Cs1 Li2 Br3'
_cell_volume   181.37833872
_cell_formula_units_Z   1
loop_
 _symmetry_equiv_pos_site_id
 _symmetry_equiv_pos_as_xyz
  1  'x, y, z'
loop_
 _atom_site_type_symbol
 _atom_site_label
 _atom_site_symmetry_multiplicity
 _atom_site_fract_x
 _atom_site_fract_y
 _atom_site_fract_z
 _atom_site_occupancy
  Cs  Cs0  1  0.50087205  0.00024465  0.00247008  1
  Li  Li1  1  0.80970184  0.30404772  0.61969920  1
  Li  Li2  1  0.19142839  0.69414638  0.38463910  1
  Br  Br3  1  0.78208001  0.77912675  0.56337499  1
  Br  Br4  1  0.22083891  0.21837271  0.44148573  1
  Br  Br5  1  0.00086079  0.50154579  0.00265090  1
