# generated using pymatgen
data_CaSmCuClO3
_symmetry_space_group_name_H-M   'P 1'
_cell_length_a   3.92161550
_cell_length_b   3.92162138
_cell_length_c   13.57128338
_cell_angle_alpha   90.00004366
_cell_angle_beta   90.00002279
_cell_angle_gamma   89.99997472
_symmetry_Int_Tables_number   1
_chemical_formula_structural   CaSmCuClO3
_chemical_formula_sum   'Ca2 Sm2 Cu2 Cl2 O6'
_cell_volume   208.71400465
_cell_formula_units_Z   2
loop_
 _symmetry_equiv_pos_site_id
 _symmetry_equiv_pos_as_xyz
  1  'x, y, z'
loop_
 _atom_site_type_symbol
 _atom_site_label
 _atom_site_symmetry_multiplicity
 _atom_site_fract_x
 _atom_site_fract_y
 _atom_site_fract_z
 _atom_site_occupancy
  Ca  Ca0  1  0.25000063  0.25000044  0.16100034  1
  Ca  Ca1  1  0.74999995  0.75000019  0.83900843  1
  Sm  Sm2  1  0.24999883  0.24999937  0.41096228  1
  Sm  Sm3  1  0.74999960  0.75000089  0.58903142  1
  Cu  Cu4  1  0.24999964  0.25000033  0.72280702  1
  Cu  Cu5  1  0.74999997  0.75000006  0.27718264  1
  Cl  Cl6  1  0.25000081  0.25000001  0.92602749  1
  Cl  Cl7  1  0.74999938  0.74999968  0.07398387  1
  O  O8  1  0.25000024  0.74999996  0.72551899  1
  O  O9  1  0.25000038  0.75000075  0.27448194  1
  O  O10  1  0.74999957  0.24999961  0.72551943  1
  O  O11  1  0.25000089  0.74999875  0.49999705  1
  O  O12  1  0.75000148  0.24999993  0.27448214  1
  O  O13  1  0.74999866  0.25000002  0.49999696  1
