# generated using pymatgen
data_Cu2GeP2(H5O7)2
_symmetry_space_group_name_H-M   'P 1'
_cell_length_a   5.14088808
_cell_length_b   8.69438277
_cell_length_c   12.52357803
_cell_angle_alpha   90.00000000
_cell_angle_beta   90.57481296
_cell_angle_gamma   90.00000000
_symmetry_Int_Tables_number   1
_chemical_formula_structural   Cu2GeP2(H5O7)2
_chemical_formula_sum   'Cu4 Ge2 P4 H20 O28'
_cell_volume   559.73630334
_cell_formula_units_Z   2
loop_
 _symmetry_equiv_pos_site_id
 _symmetry_equiv_pos_as_xyz
  1  'x, y, z'
loop_
 _atom_site_type_symbol
 _atom_site_label
 _atom_site_symmetry_multiplicity
 _atom_site_fract_x
 _atom_site_fract_y
 _atom_site_fract_z
 _atom_site_occupancy
  Cu  Cu0  1  0.26587904  0.94456832  0.73411152  1
  Cu  Cu1  1  0.23412096  0.44456832  0.76588848  1
  Cu  Cu2  1  0.73412096  0.05543168  0.26588848  1
  Cu  Cu3  1  0.76587904  0.55543168  0.23411152  1
  Ge  Ge4  1  0.50000000  0.00000000  -0.00000000  1
  Ge  Ge5  1  -0.00000000  0.50000000  0.50000000  1
  P  P6  1  0.00160478  0.16962846  0.90006746  1
  P  P7  1  0.50160478  0.33037154  0.40006746  1
  P  P8  1  0.49839522  0.66962846  0.59993254  1
  P  P9  1  0.99839522  0.83037154  0.09993254  1
  H  H10  1  0.68964625  0.77264539  0.38609032  1
  H  H11  1  0.68869431  0.95710409  0.83128118  1
  H  H12  1  0.31035375  0.22735461  0.61390968  1
  H  H13  1  0.92731021  0.14656422  0.43472611  1
  H  H14  1  0.66756637  0.40541234  0.86698813  1
  H  H15  1  0.57268979  0.64656422  0.06527389  1
  H  H16  1  0.81130569  0.45710409  0.66871882  1
  H  H17  1  0.42731021  0.35343578  0.93472611  1
  H  H18  1  0.18964625  0.72735461  0.88609032  1
  H  H19  1  0.90373663  0.69450133  0.85718437  1
  H  H20  1  0.83243363  0.90541234  0.63301187  1
  H  H21  1  0.31130569  0.04289591  0.16871882  1
  H  H22  1  0.16756637  0.09458766  0.36698813  1
  H  H23  1  0.18869431  0.54289591  0.33128118  1
  H  H24  1  0.40373663  0.80549867  0.35718437  1
  H  H25  1  0.81035375  0.27264539  0.11390968  1
  H  H26  1  0.07268979  0.85343578  0.56527389  1
  H  H27  1  0.59626337  0.19450133  0.64281563  1
  H  H28  1  0.09626337  0.30549867  0.14281563  1
  H  H29  1  0.33243363  0.59458766  0.13301187  1
  O  O30  1  0.52807490  0.83294397  0.64734487  1
  O  O31  1  0.22565977  0.85221180  0.01909413  1
  O  O32  1  0.02807490  0.66705603  0.14734487  1
  O  O33  1  0.51387097  0.53994730  0.68342911  1
  O  O34  1  0.47192510  0.16705603  0.35265513  1
  O  O35  1  0.73612398  0.83276416  0.03515872  1
  O  O36  1  0.77434023  0.14778820  0.98090587  1
  O  O37  1  0.07861738  0.68572445  0.82868358  1
  O  O38  1  0.01314819  0.93692686  0.61267951  1
  O  O39  1  0.98888339  0.43160176  0.64247610  1
  O  O40  1  0.23612398  0.66723584  0.53515872  1
  O  O41  1  0.01387097  0.96005270  0.18342911  1
  O  O42  1  0.01111661  0.56839824  0.35752390  1
  O  O43  1  0.97192510  0.33294397  0.85265513  1
  O  O44  1  0.76387602  0.33276416  0.46484128  1
  O  O45  1  0.27434023  0.35221180  0.48090587  1
  O  O46  1  0.98612903  0.03994730  0.81657089  1
  O  O47  1  0.51111661  0.93160176  0.85752390  1
  O  O48  1  0.48685181  0.43692686  0.88732049  1
  O  O49  1  0.51314819  0.56307314  0.11267951  1
  O  O50  1  0.72565977  0.64778820  0.51909413  1
  O  O51  1  0.57861738  0.81427555  0.32868358  1
  O  O52  1  0.42138262  0.18572445  0.67131642  1
  O  O53  1  0.92138262  0.31427555  0.17131642  1
  O  O54  1  0.48888339  0.06839824  0.14247610  1
  O  O55  1  0.48612903  0.46005270  0.31657089  1
  O  O56  1  0.26387602  0.16723584  0.96484128  1
  O  O57  1  0.98685181  0.06307314  0.38732049  1
