# generated using pymatgen
data_SiO2
_symmetry_space_group_name_H-M   'P 1'
_cell_length_a   7.62785796
_cell_length_b   18.27427641
_cell_length_c   26.11480795
_cell_angle_alpha   90.00000000
_cell_angle_beta   90.00000000
_cell_angle_gamma   90.00000000
_symmetry_Int_Tables_number   1
_chemical_formula_structural   SiO2
_chemical_formula_sum   'Si60 O120'
_cell_volume   3640.23669592
_cell_formula_units_Z   60
loop_
 _symmetry_equiv_pos_site_id
 _symmetry_equiv_pos_as_xyz
  1  'x, y, z'
loop_
 _atom_site_type_symbol
 _atom_site_label
 _atom_site_symmetry_multiplicity
 _atom_site_fract_x
 _atom_site_fract_y
 _atom_site_fract_z
 _atom_site_occupancy
  Si  Si0  1  0.04673879  0.16644187  0.91244791  1
  Si  Si1  1  0.54673879  0.83355813  0.08755209  1
  Si  Si2  1  0.95326121  0.66644187  0.08755209  1
  Si  Si3  1  0.45326121  0.33355813  0.91244791  1
  Si  Si4  1  0.95326121  0.83355813  0.08755209  1
  Si  Si5  1  0.45326121  0.16644187  0.91244791  1
  Si  Si6  1  0.04673879  0.33355813  0.91244791  1
  Si  Si7  1  0.54673879  0.66644187  0.08755209  1
  Si  Si8  1  0.04723711  0.97538131  0.14430959  1
  Si  Si9  1  0.54723711  0.02461869  0.85569041  1
  Si  Si10  1  0.95276289  0.47538131  0.85569041  1
  Si  Si11  1  0.45276289  0.52461869  0.14430959  1
  Si  Si12  1  0.95276289  0.02461869  0.85569041  1
  Si  Si13  1  0.45276289  0.97538131  0.14430959  1
  Si  Si14  1  0.04723711  0.52461869  0.14430959  1
  Si  Si15  1  0.54723711  0.47538131  0.85569041  1
  Si  Si16  1  0.04560540  0.05880278  0.24637884  1
  Si  Si17  1  0.54560540  0.94119722  0.75362116  1
  Si  Si18  1  0.95439460  0.55880278  0.75362116  1
  Si  Si19  1  0.45439460  0.44119722  0.24637884  1
  Si  Si20  1  0.95439460  0.94119722  0.75362116  1
  Si  Si21  1  0.45439460  0.05880278  0.24637884  1
  Si  Si22  1  0.04560540  0.44119722  0.24637884  1
  Si  Si23  1  0.54560540  0.55880278  0.75362116  1
  Si  Si24  1  0.95488948  0.05482912  0.36147475  1
  Si  Si25  1  0.45488948  0.94517088  0.63852525  1
  Si  Si26  1  0.04511052  0.55482912  0.63852525  1
  Si  Si27  1  0.54511052  0.44517088  0.36147475  1
  Si  Si28  1  0.04511052  0.94517088  0.63852525  1
  Si  Si29  1  0.54511052  0.05482912  0.36147475  1
  Si  Si30  1  0.95488948  0.44517088  0.36147475  1
  Si  Si31  1  0.45488948  0.55482912  0.63852525  1
  Si  Si32  1  0.04573211  0.94614762  0.45251110  1
  Si  Si33  1  0.54573211  0.05385238  0.54748890  1
  Si  Si34  1  0.95426789  0.44614762  0.54748890  1
  Si  Si35  1  0.45426789  0.55385238  0.45251110  1
  Si  Si36  1  0.95426789  0.05385238  0.54748890  1
  Si  Si37  1  0.45426789  0.94614762  0.45251110  1
  Si  Si38  1  0.04573211  0.55385238  0.45251110  1
  Si  Si39  1  0.54573211  0.44614762  0.54748890  1
  Si  Si40  1  0.75000000  0.16523313  0.99580320  1
  Si  Si41  1  0.25000000  0.83476687  0.00419680  1
  Si  Si42  1  0.25000000  0.66523313  0.00419680  1
  Si  Si43  1  0.75000000  0.33476687  0.99580320  1
  Si  Si44  1  0.75000000  0.07894613  0.10206240  1
  Si  Si45  1  0.25000000  0.92105387  0.89793760  1
  Si  Si46  1  0.25000000  0.57894613  0.89793760  1
  Si  Si47  1  0.75000000  0.42105387  0.10206240  1
  Si  Si48  1  0.75000000  0.16296203  0.20416377  1
  Si  Si49  1  0.25000000  0.83703797  0.79583623  1
  Si  Si50  1  0.25000000  0.66296203  0.79583623  1
  Si  Si51  1  0.75000000  0.33703797  0.20416377  1
  Si  Si52  1  0.25000000  0.16442675  0.39706254  1
  Si  Si53  1  0.75000000  0.83557325  0.60293746  1
  Si  Si54  1  0.75000000  0.66442675  0.60293746  1
  Si  Si55  1  0.25000000  0.33557325  0.39706254  1
  Si  Si56  1  0.25000000  0.16462903  0.52073139  1
  Si  Si57  1  0.75000000  0.83537097  0.47926861  1
  Si  Si58  1  0.75000000  0.66462903  0.47926861  1
  Si  Si59  1  0.25000000  0.33537097  0.52073139  1
  O  O60  1  0.57563644  0.14895694  0.96169099  1
  O  O61  1  0.07563644  0.85104306  0.03830901  1
  O  O62  1  0.42436356  0.64895694  0.03830901  1
  O  O63  1  0.92436356  0.35104306  0.96169099  1
  O  O64  1  0.42436356  0.85104306  0.03830901  1
  O  O65  1  0.92436356  0.14895694  0.96169099  1
  O  O66  1  0.57563644  0.35104306  0.96169099  1
  O  O67  1  0.07563644  0.64895694  0.03830901  1
  O  O68  1  0.75000000  0.11113727  0.04466742  1
  O  O69  1  0.25000000  0.88886273  0.95533258  1
  O  O70  1  0.25000000  0.61113727  0.95533258  1
  O  O71  1  0.75000000  0.38886273  0.04466742  1
  O  O72  1  0.75000000  0.25000000  0.01500081  1
  O  O73  1  0.25000000  0.75000000  0.98499919  1
  O  O74  1  0.57562048  0.02880865  0.11014805  1
  O  O75  1  0.07562048  0.97119135  0.88985195  1
  O  O76  1  0.42437952  0.52880865  0.88985195  1
  O  O77  1  0.92437952  0.47119135  0.11014805  1
  O  O78  1  0.42437952  0.97119135  0.88985195  1
  O  O79  1  0.92437952  0.02880865  0.11014805  1
  O  O80  1  0.57562048  0.47119135  0.11014805  1
  O  O81  1  0.07562048  0.52880865  0.88985195  1
  O  O82  1  0.75000000  0.14635510  0.14290374  1
  O  O83  1  0.25000000  0.85364490  0.85709626  1
  O  O84  1  0.25000000  0.64635510  0.85709626  1
  O  O85  1  0.75000000  0.35364490  0.14290374  1
  O  O86  1  0.57452227  0.12820723  0.23010402  1
  O  O87  1  0.07452227  0.87179277  0.76989598  1
  O  O88  1  0.42547773  0.62820723  0.76989598  1
  O  O89  1  0.92547773  0.37179277  0.23010402  1
  O  O90  1  0.42547773  0.87179277  0.76989598  1
  O  O91  1  0.92547773  0.12820723  0.23010402  1
  O  O92  1  0.57452227  0.37179277  0.23010402  1
  O  O93  1  0.07452227  0.62820723  0.76989598  1
  O  O94  1  0.75000000  0.25000000  0.21411223  1
  O  O95  1  0.25000000  0.75000000  0.78588777  1
  O  O96  1  0.25000000  0.15667146  0.92974609  1
  O  O97  1  0.75000000  0.84332854  0.07025391  1
  O  O98  1  0.75000000  0.65667146  0.07025391  1
  O  O99  1  0.25000000  0.34332854  0.92974609  1
  O  O100  1  0.00247330  0.10989271  0.86599869  1
  O  O101  1  0.50247330  0.89010729  0.13400131  1
  O  O102  1  0.99752670  0.60989271  0.13400131  1
  O  O103  1  0.49752670  0.39010729  0.86599869  1
  O  O104  1  0.99752670  0.89010729  0.13400131  1
  O  O105  1  0.49752670  0.10989271  0.86599869  1
  O  O106  1  0.00247330  0.39010729  0.86599869  1
  O  O107  1  0.50247330  0.60989271  0.13400131  1
  O  O108  1  0.01287393  0.25000000  0.89256193  1
  O  O109  1  0.51287393  0.75000000  0.10743807  1
  O  O110  1  0.98712607  0.75000000  0.10743807  1
  O  O111  1  0.48712607  0.25000000  0.89256193  1
  O  O112  1  0.02052394  0.99254760  0.20516408  1
  O  O113  1  0.52052394  0.00745240  0.79483592  1
  O  O114  1  0.97947606  0.49254760  0.79483592  1
  O  O115  1  0.47947606  0.50745240  0.20516408  1
  O  O116  1  0.97947606  0.00745240  0.79483592  1
  O  O117  1  0.47947606  0.99254760  0.20516408  1
  O  O118  1  0.02052394  0.50745240  0.20516408  1
  O  O119  1  0.52052394  0.49254760  0.79483592  1
  O  O120  1  0.25000000  0.98998771  0.12807149  1
  O  O121  1  0.75000000  0.01001229  0.87192851  1
  O  O122  1  0.75000000  0.48998771  0.87192851  1
  O  O123  1  0.25000000  0.51001229  0.12807149  1
  O  O124  1  0.25000000  0.08456574  0.24799519  1
  O  O125  1  0.75000000  0.91543426  0.75200481  1
  O  O126  1  0.75000000  0.58456574  0.75200481  1
  O  O127  1  0.25000000  0.41543426  0.24799519  1
  O  O128  1  0.98553458  0.02936516  0.30236220  1
  O  O129  1  0.48553458  0.97063484  0.69763780  1
  O  O130  1  0.01446542  0.52936516  0.69763780  1
  O  O131  1  0.51446542  0.47063484  0.30236220  1
  O  O132  1  0.01446542  0.97063484  0.69763780  1
  O  O133  1  0.51446542  0.02936516  0.30236220  1
  O  O134  1  0.98553458  0.47063484  0.30236220  1
  O  O135  1  0.48553458  0.52936516  0.69763780  1
  O  O136  1  0.07489260  0.12611649  0.37378290  1
  O  O137  1  0.57489260  0.87388351  0.62621710  1
  O  O138  1  0.92510740  0.62611649  0.62621710  1
  O  O139  1  0.42510740  0.37388351  0.37378290  1
  O  O140  1  0.92510740  0.87388351  0.62621710  1
  O  O141  1  0.42510740  0.12611649  0.37378290  1
  O  O142  1  0.07489260  0.37388351  0.37378290  1
  O  O143  1  0.57489260  0.62611649  0.62621710  1
  O  O144  1  0.25000000  0.25000000  0.38080341  1
  O  O145  1  0.75000000  0.75000000  0.61919659  1
  O  O146  1  0.25000000  0.15602139  0.45871884  1
  O  O147  1  0.75000000  0.84397861  0.54128116  1
  O  O148  1  0.75000000  0.65602139  0.54128116  1
  O  O149  1  0.25000000  0.34397861  0.45871884  1
  O  O150  1  0.07529342  0.12635766  0.54432659  1
  O  O151  1  0.57529342  0.87364234  0.45567341  1
  O  O152  1  0.92470658  0.62635766  0.45567341  1
  O  O153  1  0.42470658  0.37364234  0.54432659  1
  O  O154  1  0.92470658  0.87364234  0.45567341  1
  O  O155  1  0.42470658  0.12635766  0.54432659  1
  O  O156  1  0.07529342  0.37364234  0.54432659  1
  O  O157  1  0.57529342  0.62635766  0.45567341  1
  O  O158  1  0.25000000  0.25000000  0.53683668  1
  O  O159  1  0.75000000  0.75000000  0.46316332  1
  O  O160  1  0.00958899  0.98761172  0.39851080  1
  O  O161  1  0.50958899  0.01238828  0.60148920  1
  O  O162  1  0.99041101  0.48761172  0.60148920  1
  O  O163  1  0.49041101  0.51238828  0.39851080  1
  O  O164  1  0.99041101  0.01238828  0.60148920  1
  O  O165  1  0.49041101  0.98761172  0.39851080  1
  O  O166  1  0.00958899  0.51238828  0.39851080  1
  O  O167  1  0.50958899  0.48761172  0.60148920  1
  O  O168  1  0.75000000  0.07607484  0.37029498  1
  O  O169  1  0.25000000  0.92392516  0.62970502  1
  O  O170  1  0.25000000  0.57607484  0.62970502  1
  O  O171  1  0.75000000  0.42392516  0.37029498  1
  O  O172  1  0.25000000  0.92161182  0.45556689  1
  O  O173  1  0.75000000  0.07838818  0.54443311  1
  O  O174  1  0.75000000  0.42161182  0.54443311  1
  O  O175  1  0.25000000  0.57838818  0.45556689  1
  O  O176  1  0.00000000  0.00000000  0.50000000  1
  O  O177  1  0.50000000  0.00000000  0.50000000  1
  O  O178  1  0.00000000  0.50000000  0.50000000  1
  O  O179  1  0.50000000  0.50000000  0.50000000  1
