# generated using pymatgen
data_O2
_symmetry_space_group_name_H-M   'P 1'
_cell_length_a   3.30895715
_cell_length_b   3.30895733
_cell_length_c   4.19471053
_cell_angle_alpha   94.55839390
_cell_angle_beta   111.73317319
_cell_angle_gamma   115.45784688
_symmetry_Int_Tables_number   1
_chemical_formula_structural   O2
_chemical_formula_sum   O2
_cell_volume   36.92923513
_cell_formula_units_Z   1
loop_
 _symmetry_equiv_pos_site_id
 _symmetry_equiv_pos_as_xyz
  1  'x, y, z'
loop_
 _atom_site_type_symbol
 _atom_site_label
 _atom_site_symmetry_multiplicity
 _atom_site_fract_x
 _atom_site_fract_y
 _atom_site_fract_z
 _atom_site_occupancy
  O  O0  1  0.11578481  0.04819421  0.16397902  1
  O  O1  1  0.88421519  0.95180579  0.83602098  1
