# generated using pymatgen
data_CaCoO2
_symmetry_space_group_name_H-M   'P 1'
_cell_length_a   3.24531266
_cell_length_b   9.17391252
_cell_length_c   8.09068250
_cell_angle_alpha   84.50591330
_cell_angle_beta   89.94929116
_cell_angle_gamma   110.67043739
_symmetry_Int_Tables_number   1
_chemical_formula_structural   CaCoO2
_chemical_formula_sum   'Ca4 Co4 O8'
_cell_volume   224.18041523
_cell_formula_units_Z   4
loop_
 _symmetry_equiv_pos_site_id
 _symmetry_equiv_pos_as_xyz
  1  'x, y, z'
loop_
 _atom_site_type_symbol
 _atom_site_label
 _atom_site_symmetry_multiplicity
 _atom_site_fract_x
 _atom_site_fract_y
 _atom_site_fract_z
 _atom_site_occupancy
  Ca  Ca0  1  0.29816772  0.03853690  0.30379853  1
  Ca  Ca1  1  0.69800153  0.94140133  0.72440141  1
  Ca  Ca2  1  0.96530162  0.70407043  0.10666982  1
  Ca  Ca3  1  0.03073599  0.27589236  0.92153352  1
  Co  Co4  1  0.50228337  0.24572825  0.60356849  1
  Co  Co5  1  0.11208157  0.35174045  0.27673170  1
  Co  Co6  1  0.88392601  0.62815704  0.75146543  1
  Co  Co7  1  0.49377742  0.73413740  0.42464251  1
  O  O8  1  0.06408797  0.80551084  0.55545362  1
  O  O9  1  0.66430562  0.41073692  0.74503221  1
  O  O10  1  0.33153711  0.56924388  0.28315061  1
  O  O11  1  0.93190405  0.17434815  0.47273053  1
  O  O12  1  0.35049188  0.09439920  0.81279985  1
  O  O13  1  0.54278336  0.28283394  0.14685806  1
  O  O14  1  0.64569114  0.88549374  0.21545823  1
  O  O15  1  0.45319964  0.69710716  0.88132550  1
