# generated using pymatgen
data_Eu2SnS4
_symmetry_space_group_name_H-M   'P 1'
_cell_length_a   7.52073112
_cell_length_b   8.81738791
_cell_length_c   11.28408002
_cell_angle_alpha   90.00000000
_cell_angle_beta   90.00000000
_cell_angle_gamma   90.00000000
_symmetry_Int_Tables_number   1
_chemical_formula_structural   Eu2SnS4
_chemical_formula_sum   'Eu8 Sn4 S16'
_cell_volume   748.28349639
_cell_formula_units_Z   4
loop_
 _symmetry_equiv_pos_site_id
 _symmetry_equiv_pos_as_xyz
  1  'x, y, z'
loop_
 _atom_site_type_symbol
 _atom_site_label
 _atom_site_symmetry_multiplicity
 _atom_site_fract_x
 _atom_site_fract_y
 _atom_site_fract_z
 _atom_site_occupancy
  Eu  Eu0  1  0.88044701  0.99486509  0.68962317  1
  Eu  Eu1  1  0.61955299  0.50513491  0.18962317  1
  Eu  Eu2  1  0.11955299  0.49486509  0.31037683  1
  Eu  Eu3  1  0.38044701  0.00513491  0.81037683  1
  Eu  Eu4  1  0.11955299  0.00513491  0.31037683  1
  Eu  Eu5  1  0.38044701  0.49486509  0.81037683  1
  Eu  Eu6  1  0.88044701  0.50513491  0.68962317  1
  Eu  Eu7  1  0.61955299  0.99486509  0.18962317  1
  Sn  Sn8  1  0.89032464  0.25000000  0.96986855  1
  Sn  Sn9  1  0.60967536  0.25000000  0.46986855  1
  Sn  Sn10  1  0.10967536  0.75000000  0.03013145  1
  Sn  Sn11  1  0.39032464  0.75000000  0.53013145  1
  S  S12  1  0.10339505  0.25000000  0.80164528  1
  S  S13  1  0.39660495  0.25000000  0.30164528  1
  S  S14  1  0.89660495  0.75000000  0.19835472  1
  S  S15  1  0.60339505  0.75000000  0.69835472  1
  S  S16  1  0.90135330  0.25000000  0.18887622  1
  S  S17  1  0.59864670  0.25000000  0.68887622  1
  S  S18  1  0.09864670  0.75000000  0.81112378  1
  S  S19  1  0.40135330  0.75000000  0.31112378  1
  S  S20  1  0.72597945  0.01446266  0.93642773  1
  S  S21  1  0.77402055  0.48553734  0.43642773  1
  S  S22  1  0.27402055  0.51446266  0.06357227  1
  S  S23  1  0.22597945  0.98553734  0.56357227  1
  S  S24  1  0.27402055  0.98553734  0.06357227  1
  S  S25  1  0.22597945  0.51446266  0.56357227  1
  S  S26  1  0.72597945  0.48553734  0.93642773  1
  S  S27  1  0.77402055  0.01446266  0.43642773  1
