# generated using pymatgen
data_KCuCl3
_symmetry_space_group_name_H-M   'P 1'
_cell_length_a   5.00382165
_cell_length_b   9.85337202
_cell_length_c   14.08839478
_cell_angle_alpha   90.00000000
_cell_angle_beta   90.00000000
_cell_angle_gamma   88.66598137
_symmetry_Int_Tables_number   1
_chemical_formula_structural   KCuCl3
_chemical_formula_sum   'K4 Cu4 Cl12'
_cell_volume   694.43322051
_cell_formula_units_Z   4
loop_
 _symmetry_equiv_pos_site_id
 _symmetry_equiv_pos_as_xyz
  1  'x, y, z'
loop_
 _atom_site_type_symbol
 _atom_site_label
 _atom_site_symmetry_multiplicity
 _atom_site_fract_x
 _atom_site_fract_y
 _atom_site_fract_z
 _atom_site_occupancy
  K  K0  1  0.24801037  0.53701420  0.14847831  1
  K  K1  1  0.75198963  0.96298580  0.64847831  1
  K  K2  1  0.75198963  0.46298580  0.85152169  1
  K  K3  1  0.24801037  0.03701420  0.35152169  1
  Cu  Cu4  1  0.64177357  0.35069893  0.53720200  1
  Cu  Cu5  1  0.64177357  0.85069893  0.96279800  1
  Cu  Cu6  1  0.35822643  0.14930107  0.03720200  1
  Cu  Cu7  1  0.35822643  0.64930107  0.46279800  1
  Cl  Cl8  1  0.52845750  0.05901336  0.89890536  1
  Cl  Cl9  1  0.47154250  0.44098664  0.39890536  1
  Cl  Cl10  1  0.79549998  0.27453732  0.67788422  1
  Cl  Cl11  1  0.74123701  0.15069730  0.46255075  1
  Cl  Cl12  1  0.25876299  0.84930270  0.53744925  1
  Cl  Cl13  1  0.79549998  0.77453732  0.82211578  1
  Cl  Cl14  1  0.47154250  0.94098664  0.10109464  1
  Cl  Cl15  1  0.74123701  0.65069730  0.03744925  1
  Cl  Cl16  1  0.20450002  0.22546268  0.17788422  1
  Cl  Cl17  1  0.52845750  0.55901336  0.60109464  1
  Cl  Cl18  1  0.20450002  0.72546268  0.32211578  1
  Cl  Cl19  1  0.25876299  0.34930270  0.96255075  1
